REMARK  25 active torsions:
REMARK  status: ('A' for Active; 'I' for Inactive)
REMARK    1  A    between atoms: CA_1  and  CB_2 
REMARK    2  A    between atoms: C_5  and  CA_1 
REMARK    3  A    between atoms: CB_2  and  CG1_3 
REMARK    4  A    between atoms: CB_2  and  CG2_4 
REMARK       I    between atoms: N_7  and  C_5 
REMARK    5  A    between atoms: N_7  and  CA_8 
REMARK    6  A    between atoms: CA_8  and  CB_11 
REMARK    7  A    between atoms: CA_8  and  C_9 
REMARK       I    between atoms: C_9  and  N_14 
REMARK    8  A    between atoms: CB_11  and  CG2_13 
REMARK    9  A    between atoms: CB_11  and  CG1_12 
REMARK   10  A    between atoms: N_14  and  CA_15 
REMARK   11  A    between atoms: CA_15  and  CB_18 
REMARK   12  A    between atoms: CA_15  and  C_16 
REMARK       I    between atoms: C_16  and  N_21 
REMARK   13  A    between atoms: CB_18  and  CG2_20 
REMARK   14  A    between atoms: CB_18  and  CG1_19 
REMARK   15  A    between atoms: N_21  and  CA_22 
REMARK   16  A    between atoms: CA_22  and  CB_23 
REMARK   17  A    between atoms: CA_22  and  P_27 
REMARK   18  A    between atoms: CB_23  and  CG_24 
REMARK   19  A    between atoms: CG_24  and  CD1_25 
REMARK   20  A    between atoms: CG_24  and  CD2_26 
REMARK   21  A    between atoms: P_27  and  CP_30 
REMARK   22  A    between atoms: CP_30  and  C_31 
REMARK   23  A    between atoms: C_31  and  OXT_33 
REMARK   24  A    between atoms: OXT_33  and  C1_34 
REMARK   25  A    between atoms: C1_34  and  C2_35 
ROOT
ATOM      1  CA  IVV d   1      19.805   8.385  21.898  0.00  0.00     0.092 C 
ATOM      2  H20 IVV d   1      19.297   9.164  21.310  0.00  0.00     0.088 H 
ENDROOT
BRANCH   1   3
ATOM      3  N   IVV d   1      19.761   7.114  21.161  0.00  0.00    -0.346 N 
ATOM      4  C   IVV d   1      18.901   6.993  20.144  0.00  0.00     0.241 C 
ATOM      5  O   IVV d   1      18.112   7.890  19.695  0.00  0.00    -0.271 OA
ATOM      6  H19 IVV d   1      20.361   6.356  21.415  0.00  0.00     0.163 HD
BRANCH   4   7
ATOM      7  CA  IVV d   1      19.035   5.666  19.426  0.00  0.00     0.092 C 
ATOM      8  H11 IVV d   1      19.028   4.847  20.160  0.00  0.00     0.088 H 
BRANCH   7   9
ATOM      9  N   IVV d   1      17.894   5.523  18.450  0.00  0.00    -0.347 N 
ATOM     10  C   IVV d   1      17.047   4.542  18.679  0.00  0.00     0.218 C 
ATOM     11  O   IVV d   1      17.133   3.777  19.653  0.00  0.00    -0.274 OA
ATOM     12  H10 IVV d   1      17.787   6.140  17.671  0.00  0.00     0.163 HD
BRANCH  10  13
ATOM     13  CA  IVV d   1      15.893   4.276  17.675  0.00  0.00     0.012 C 
ATOM     14  H1  IVV d   1      15.621   5.218  17.177  0.00  0.00     0.047 H 
ATOM     15  H2  IVV d   1      16.228   3.547  16.922  0.00  0.00     0.047 H 
BRANCH  13  16
ATOM     16  CB  IVV d   1      14.685   3.727  18.396  0.00  0.00    -0.053 C 
ATOM     17  H3  IVV d   1      14.915   2.813  18.964  0.00  0.00     0.039 H 
BRANCH  16  18
ATOM     18  CG1 IVV d   1      14.289   4.913  19.244  0.00  0.00    -0.073 C 
ATOM     19  H4  IVV d   1      13.401   4.657  19.840  0.00  0.00     0.028 H 
ATOM     20  H5  IVV d   1      14.059   5.769  18.593  0.00  0.00     0.028 H 
ATOM     21  H6  IVV d   1      15.119   5.176  19.916  0.00  0.00     0.028 H 
ENDBRANCH  16  18
BRANCH  16  22
ATOM     22  CG2 IVV d   1      13.481   3.548  17.489  0.00  0.00    -0.073 C 
ATOM     23  H7  IVV d   1      13.654   2.698  16.813  0.00  0.00     0.028 H 
ATOM     24  H8  IVV d   1      13.329   4.462  16.897  0.00  0.00     0.028 H 
ATOM     25  H9  IVV d   1      12.587   3.354  18.100  0.00  0.00     0.028 H 
ENDBRANCH  16  22
ENDBRANCH  13  16
ENDBRANCH  10  13
ENDBRANCH   7   9
BRANCH   7  26
ATOM     26  CB  IVV d   1      20.317   5.605  18.568  0.00  0.00    -0.033 C 
ATOM     27  H12 IVV d   1      21.205   5.771  19.195  0.00  0.00     0.042 H 
BRANCH  26  28
ATOM     28  CG2 IVV d   1      20.247   6.632  17.428  0.00  0.00    -0.071 C 
ATOM     29  H16 IVV d   1      20.206   7.647  17.851  0.00  0.00     0.028 H 
ATOM     30  H17 IVV d   1      19.346   6.449  16.825  0.00  0.00     0.028 H 
ATOM     31  H18 IVV d   1      21.140   6.536  16.792  0.00  0.00     0.028 H 
ENDBRANCH  26  28
BRANCH  26  32
ATOM     32  CG1 IVV d   1      20.371   4.227  17.866  0.00  0.00    -0.071 C 
ATOM     33  H13 IVV d   1      21.279   4.165  17.249  0.00  0.00     0.028 H 
ATOM     34  H14 IVV d   1      19.484   4.106  17.226  0.00  0.00     0.028 H 
ATOM     35  H15 IVV d   1      20.388   3.430  18.624  0.00  0.00     0.028 H 
ENDBRANCH  26  32
ENDBRANCH   7  26
ENDBRANCH   4   7
ENDBRANCH   1   3
BRANCH   1  36
ATOM     36  CB  IVV d   1      19.149   8.332  23.288  0.00  0.00    -0.033 C 
ATOM     37  H21 IVV d   1      19.722   7.650  23.934  0.00  0.00     0.042 H 
BRANCH  36  38
ATOM     38  CG2 IVV d   1      17.729   7.873  23.204  0.00  0.00    -0.071 C 
ATOM     39  H25 IVV d   1      17.695   6.862  22.773  0.00  0.00     0.028 H 
ATOM     40  H26 IVV d   1      17.158   8.563  22.566  0.00  0.00     0.028 H 
ATOM     41  H27 IVV d   1      17.289   7.856  24.212  0.00  0.00     0.028 H 
ENDBRANCH  36  38
BRANCH  36  42
ATOM     42  CG1 IVV d   1      19.127   9.751  23.899  0.00  0.00    -0.071 C 
ATOM     43  H22 IVV d   1      18.658   9.715  24.893  0.00  0.00     0.028 H 
ATOM     44  H23 IVV d   1      18.550  10.422  23.246  0.00  0.00     0.028 H 
ATOM     45  H24 IVV d   1      20.157  10.126  23.993  0.00  0.00     0.028 H 
ENDBRANCH  36  42
ENDBRANCH   1  36
BRANCH   1  46
ATOM     46  C   IVV d   1      21.334   8.714  22.018  0.00  0.00     0.241 C 
ATOM     47  O   IVV d   1      21.943   8.254  22.976  0.00  0.00    -0.271 OA
ATOM     48  N   IVV d   1      21.838   9.464  21.012  0.00  0.00    -0.345 N 
ATOM     49  H28 IVV d   1      21.238   9.741  20.262  0.00  0.00     0.163 HD
BRANCH  48  50
ATOM     50  CA  IVV d   1      23.221   9.874  20.995  0.00  0.00     0.088 C 
ATOM     51  H29 IVV d   1      23.750   9.407  21.838  0.00  0.00     0.089 H 
BRANCH  50  52
ATOM     52  CB  IVV d   1      23.886   9.378  19.654  0.00  0.00    -0.034 C 
ATOM     53  H30 IVV d   1      24.961   9.608  19.688  0.00  0.00     0.037 H 
ATOM     54  H31 IVV d   1      23.423   9.913  18.812  0.00  0.00     0.037 H 
BRANCH  52  55
ATOM     55  CG  IVV d   1      23.708   7.824  19.425  0.00  0.00    -0.059 C 
ATOM     56  H32 IVV d   1      22.630   7.608  19.385  0.00  0.00     0.039 H 
BRANCH  55  57
ATOM     57  CD1 IVV d   1      24.316   7.510  18.067  0.00  0.00    -0.073 C 
ATOM     58  H33 IVV d   1      24.216   6.434  17.861  0.00  0.00     0.028 H 
ATOM     59  H34 IVV d   1      25.381   7.786  18.069  0.00  0.00     0.028 H 
ATOM     60  H35 IVV d   1      23.791   8.083  17.289  0.00  0.00     0.028 H 
ENDBRANCH  55  57
BRANCH  55  61
ATOM     61  CD2 IVV d   1      24.296   6.950  20.522  0.00  0.00    -0.073 C 
ATOM     62  H36 IVV d   1      23.831   7.208  21.485  0.00  0.00     0.028 H 
ATOM     63  H37 IVV d   1      25.381   7.118  20.582  0.00  0.00     0.028 H 
ATOM     64  H38 IVV d   1      24.101   5.892  20.292  0.00  0.00     0.028 H 
ENDBRANCH  55  61
ENDBRANCH  52  55
ENDBRANCH  50  52
BRANCH  50  65
ATOM     65  P   IVV d   1      23.287  11.682  21.202  0.00  0.00     0.139 P 
ATOM     66  OP  IVV d   1      22.438  12.244  20.112  0.00  0.00    -0.666 OA
ATOM     67  OH  IVV d   1      24.733  12.062  21.082  0.00  0.00    -0.666 OA
BRANCH  65  68
ATOM     68  CP  IVV d   1      22.623  12.097  22.816  0.00  0.00     0.089 C 
ATOM     69  H39 IVV d   1      21.774  11.427  23.018  0.00  0.00     0.064 H 
ATOM     70  H40 IVV d   1      22.268  13.138  22.781  0.00  0.00     0.064 H 
BRANCH  68  71
ATOM     71  C   IVV d   1      23.607  11.973  23.973  0.00  0.00     0.268 C 
ATOM     72  O   IVV d   1      24.002  10.859  24.369  0.00  0.00    -0.265 OA
BRANCH  71  73
ATOM     73  OXT IVV d   1      24.328  13.102  24.446  0.00  0.00    -0.321 OA
BRANCH  73  74
ATOM     74  C1  IVV d   1      25.470  12.913  25.258  0.00  0.00     0.025 C 
ATOM     75  H41 IVV d   1      25.781  11.859  25.214  0.00  0.00     0.074 H 
ATOM     76  H42 IVV d   1      25.230  13.182  26.297  0.00  0.00     0.074 H 
BRANCH  74  77
ATOM     77  C2  IVV d   1      26.594  13.792  24.756  0.00  0.00    -0.056 C 
ATOM     78  H43 IVV d   1      27.483  13.646  25.387  0.00  0.00     0.030 H 
ATOM     79  H44 IVV d   1      26.283  14.846  24.800  0.00  0.00     0.030 H 
ATOM     80  H45 IVV d   1      26.834  13.523  23.717  0.00  0.00     0.030 H 
ENDBRANCH  74  77
ENDBRANCH  73  74
ENDBRANCH  71  73
ENDBRANCH  68  71
ENDBRANCH  65  68
ENDBRANCH  50  65
ENDBRANCH  48  50
ENDBRANCH   1  46
TORSDOF 25
