REMARK  27 active torsions:
REMARK  status: ('A' for Active; 'I' for Inactive)
REMARK    1  A    between atoms: CA_1  and  CB_2 
REMARK    2  A    between atoms: C_5  and  CA_1 
REMARK    3  A    between atoms: CB_2  and  CG1_3 
REMARK    4  A    between atoms: CB_2  and  CG2_4 
REMARK       I    between atoms: N_7  and  C_5 
REMARK    5  A    between atoms: CA_8  and  N_7 
REMARK    6  A    between atoms: CA_8  and  CB_11 
REMARK    7  A    between atoms: C_9  and  CA_8 
REMARK       I    between atoms: N_14  and  C_9 
REMARK    8  A    between atoms: CB_11  and  CG2_13 
REMARK    9  A    between atoms: CB_11  and  CG1_12 
REMARK   10  A    between atoms: CA_15  and  N_14 
REMARK   11  A    between atoms: CA_15  and  CB_18 
REMARK   12  A    between atoms: C_16  and  CA_15 
REMARK       I    between atoms: N_26  and  C_16 
REMARK   13  A    between atoms: CB_18  and  CG2_20 
REMARK   14  A    between atoms: CB_18  and  CG1_19 
REMARK   15  A    between atoms: CA_21  and  CB_22 
REMARK   16  A    between atoms: CA_21  and  N_26 
REMARK   17  A    between atoms: P_27  and  CA_21 
REMARK   18  A    between atoms: CB_22  and  CG_23 
REMARK   19  A    between atoms: CG_23  and  CD1_24 
REMARK   20  A    between atoms: CG_23  and  CD2_25 
REMARK   21  A    between atoms: OP_40  and  P_27 
REMARK   22  A    between atoms: CA_30  and  CB_31 
REMARK   23  A    between atoms: CA_30  and  C_38 
REMARK   24  A    between atoms: OP_40  and  CA_30 
REMARK   25  A    between atoms: CB_31  and  CG_32 
REMARK   26  A    between atoms: C_38  and  OS_41 
REMARK   27  A    between atoms: OS_41  and  CS_39 
ROOT
ATOM      1  C   1Z7 d   1      21.190   8.689  21.987  0.00  0.00     0.241 C 
ATOM      2  O   1Z7 d   1      21.770   8.072  22.877  0.00  0.00    -0.271 OA
ATOM      3  N   1Z7 d   1      21.709   9.524  21.110  0.00  0.00    -0.343 N 
ATOM      4  H38 1Z7 d   1      21.120   9.907  20.398  0.00  0.00     0.163 HD
ENDROOT
BRANCH   1   5
ATOM      5  CA  1Z7 d   1      19.654   8.398  21.797  0.00  0.00     0.092 C 
ATOM      6  H20 1Z7 d   1      19.163   9.181  21.200  0.00  0.00     0.088 H 
BRANCH   5   7
ATOM      7  N   1Z7 d   1      19.687   7.059  21.061  0.00  0.00    -0.346 N 
ATOM      8  C   1Z7 d   1      18.921   6.990  19.987  0.00  0.00     0.241 C 
ATOM      9  O   1Z7 d   1      18.118   7.883  19.560  0.00  0.00    -0.271 OA
ATOM     10  H19 1Z7 d   1      20.248   6.291  21.370  0.00  0.00     0.163 HD
BRANCH   8  11
ATOM     11  CA  1Z7 d   1      19.016   5.642  19.287  0.00  0.00     0.092 C 
ATOM     12  H11 1Z7 d   1      19.067   4.834  20.032  0.00  0.00     0.088 H 
BRANCH  11  13
ATOM     13  N   1Z7 d   1      17.882   5.449  18.394  0.00  0.00    -0.347 N 
ATOM     14  C   1Z7 d   1      17.068   4.448  18.485  0.00  0.00     0.218 C 
ATOM     15  O   1Z7 d   1      17.195   3.645  19.479  0.00  0.00    -0.274 OA
ATOM     16  H10 1Z7 d   1      17.725   6.125  17.674  0.00  0.00     0.163 HD
BRANCH  14  17
ATOM     17  CA  1Z7 d   1      15.942   4.126  17.487  0.00  0.00     0.012 C 
ATOM     18  H1  1Z7 d   1      15.719   5.031  16.903  0.00  0.00     0.047 H 
ATOM     19  H2  1Z7 d   1      16.287   3.330  16.811  0.00  0.00     0.047 H 
BRANCH  17  20
ATOM     20  CB  1Z7 d   1      14.643   3.654  18.187  0.00  0.00    -0.053 C 
ATOM     21  H3  1Z7 d   1      14.805   2.718  18.742  0.00  0.00     0.039 H 
BRANCH  20  22
ATOM     22  CG1 1Z7 d   1      14.315   4.841  19.087  0.00  0.00    -0.073 C 
ATOM     23  H4  1Z7 d   1      13.395   4.630  19.651  0.00  0.00     0.028 H 
ATOM     24  H5  1Z7 d   1      14.169   5.740  18.470  0.00  0.00     0.028 H 
ATOM     25  H6  1Z7 d   1      15.145   5.009  19.789  0.00  0.00     0.028 H 
ENDBRANCH  20  22
BRANCH  20  26
ATOM     26  CG2 1Z7 d   1      13.460   3.532  17.268  0.00  0.00    -0.073 C 
ATOM     27  H7  1Z7 d   1      13.617   2.690  16.578  0.00  0.00     0.028 H 
ATOM     28  H8  1Z7 d   1      13.346   4.462  16.692  0.00  0.00     0.028 H 
ATOM     29  H9  1Z7 d   1      12.551   3.355  17.862  0.00  0.00     0.028 H 
ENDBRANCH  20  26
ENDBRANCH  17  20
ENDBRANCH  14  17
ENDBRANCH  11  13
BRANCH  11  30
ATOM     30  CB  1Z7 d   1      20.291   5.633  18.354  0.00  0.00    -0.033 C 
ATOM     31  H12 1Z7 d   1      21.166   5.897  18.966  0.00  0.00     0.042 H 
BRANCH  30  32
ATOM     32  CG2 1Z7 d   1      20.229   6.591  17.182  0.00  0.00    -0.071 C 
ATOM     33  H16 1Z7 d   1      20.107   7.619  17.555  0.00  0.00     0.028 H 
ATOM     34  H17 1Z7 d   1      19.375   6.330  16.540  0.00  0.00     0.028 H 
ATOM     35  H18 1Z7 d   1      21.160   6.520  16.601  0.00  0.00     0.028 H 
ENDBRANCH  30  32
BRANCH  30  36
ATOM     36  CG1 1Z7 d   1      20.461   4.210  17.801  0.00  0.00    -0.071 C 
ATOM     37  H13 1Z7 d   1      21.344   4.174  17.146  0.00  0.00     0.028 H 
ATOM     38  H14 1Z7 d   1      19.566   3.931  17.226  0.00  0.00     0.028 H 
ATOM     39  H15 1Z7 d   1      20.595   3.506  18.635  0.00  0.00     0.028 H 
ENDBRANCH  30  36
ENDBRANCH  11  30
ENDBRANCH   8  11
ENDBRANCH   5   7
BRANCH   5  40
ATOM     40  CB  1Z7 d   1      18.962   8.255  23.118  0.00  0.00    -0.033 C 
ATOM     41  H21 1Z7 d   1      19.509   7.549  23.760  0.00  0.00     0.042 H 
BRANCH  40  42
ATOM     42  CG2 1Z7 d   1      17.535   7.784  22.885  0.00  0.00    -0.071 C 
ATOM     43  H25 1Z7 d   1      17.549   6.796  22.402  0.00  0.00     0.028 H 
ATOM     44  H26 1Z7 d   1      17.013   8.502  22.235  0.00  0.00     0.028 H 
ATOM     45  H27 1Z7 d   1      17.010   7.713  23.849  0.00  0.00     0.028 H 
ENDBRANCH  40  42
BRANCH  40  46
ATOM     46  CG1 1Z7 d   1      18.848   9.664  23.807  0.00  0.00    -0.071 C 
ATOM     47  H22 1Z7 d   1      18.340   9.558  24.777  0.00  0.00     0.028 H 
ATOM     48  H23 1Z7 d   1      18.269  10.342  23.162  0.00  0.00     0.028 H 
ATOM     49  H24 1Z7 d   1      19.855  10.078  23.964  0.00  0.00     0.028 H 
ENDBRANCH  40  46
ENDBRANCH   5  40
ENDBRANCH   1   5
BRANCH   3  50
ATOM     50  CA  1Z7 d   1      23.104   9.903  21.145  0.00  0.00     0.113 C 
ATOM     51  H28 1Z7 d   1      23.538   9.453  22.050  0.00  0.00     0.093 H 
BRANCH  50  52
ATOM     52  CB  1Z7 d   1      23.889   9.334  19.924  0.00  0.00    -0.032 C 
ATOM     53  H29 1Z7 d   1      24.957   9.497  20.131  0.00  0.00     0.037 H 
ATOM     54  H30 1Z7 d   1      23.590   9.931  19.050  0.00  0.00     0.037 H 
BRANCH  52  55
ATOM     55  CG  1Z7 d   1      23.736   7.839  19.517  0.00  0.00    -0.059 C 
ATOM     56  H31 1Z7 d   1      22.648   7.678  19.495  0.00  0.00     0.039 H 
BRANCH  55  57
ATOM     57  CD1 1Z7 d   1      24.135   7.616  18.060  0.00  0.00    -0.073 C 
ATOM     58  H32 1Z7 d   1      24.015   6.553  17.806  0.00  0.00     0.028 H 
ATOM     59  H33 1Z7 d   1      25.185   7.911  17.918  0.00  0.00     0.028 H 
ATOM     60  H34 1Z7 d   1      23.492   8.224  17.407  0.00  0.00     0.028 H 
ENDBRANCH  55  57
BRANCH  55  61
ATOM     61  CD2 1Z7 d   1      24.176   6.887  20.584  0.00  0.00    -0.073 C 
ATOM     62  H35 1Z7 d   1      23.788   7.222  21.557  0.00  0.00     0.028 H 
ATOM     63  H36 1Z7 d   1      25.275   6.857  20.619  0.00  0.00     0.028 H 
ATOM     64  H37 1Z7 d   1      23.789   5.882  20.361  0.00  0.00     0.028 H 
ENDBRANCH  55  61
ENDBRANCH  52  55
ENDBRANCH  50  52
BRANCH  50  65
ATOM     65  P   1Z7 d   1      23.321  11.684  21.281  0.00  0.00     0.273 P 
ATOM     66  O   1Z7 d   1      22.451  12.277  20.272  0.00  0.00    -0.645 OA
ATOM     67  OH  1Z7 d   1      24.752  12.015  21.100  0.00  0.00    -0.645 OA
BRANCH  65  68
ATOM     68  OP  1Z7 d   1      22.928  11.963  22.700  0.00  0.00    -0.295 OA
BRANCH  68  69
ATOM     69  CA  1Z7 d   1      23.586  13.041  23.466  0.00  0.00     0.136 C 
ATOM     70  H39 1Z7 d   1      24.253  13.605  22.797  0.00  0.00     0.100 H 
BRANCH  69  71
ATOM     71  CB  1Z7 d   1      22.580  14.021  24.129  0.00  0.00    -0.007 C 
ATOM     72  H40 1Z7 d   1      21.962  14.453  23.328  0.00  0.00     0.044 H 
ATOM     73  H41 1Z7 d   1      23.164  14.818  24.612  0.00  0.00     0.044 H 
BRANCH  71  74
ATOM     74  CG  1Z7 d   1      21.640  13.448  25.172  0.00  0.00    -0.055 C 
ATOM     75  CD1 1Z7 d   1      21.952  13.540  26.520  0.00  0.00    -0.077 C 
ATOM     76  CE1 1Z7 d   1      21.092  12.963  27.459  0.00  0.00    -0.082 C 
ATOM     77  H42 1Z7 d   1      22.851  14.053  26.841  0.00  0.00     0.084 H 
ATOM     78  CZ  1Z7 d   1      19.943  12.284  27.069  0.00  0.00    -0.083 C 
ATOM     79  H44 1Z7 d   1      21.326  13.047  28.514  0.00  0.00     0.083 H 
ATOM     80  CE2 1Z7 d   1      19.688  12.163  25.741  0.00  0.00    -0.082 C 
ATOM     81  H46 1Z7 d   1      19.269  11.863  27.806  0.00  0.00     0.083 H 
ATOM     82  CD2 1Z7 d   1      20.462  12.795  24.796  0.00  0.00    -0.077 C 
ATOM     83  H45 1Z7 d   1      18.853  11.553  25.417  0.00  0.00     0.083 H 
ATOM     84  H43 1Z7 d   1      20.158  12.787  23.756  0.00  0.00     0.084 H 
ENDBRANCH  71  74
ENDBRANCH  69  71
BRANCH  69  85
ATOM     85  C   1Z7 d   1      24.399  12.376  24.600  0.00  0.00     0.288 C 
ATOM     86  O   1Z7 d   1      24.328  11.165  24.840  0.00  0.00    -0.262 OA
BRANCH  85  87
ATOM     87  OS  1Z7 d   1      25.199  13.232  25.372  0.00  0.00    -0.324 OA
BRANCH  87  88
ATOM     88  CS  1Z7 d   1      25.989  12.667  26.390  0.00  0.00     0.013 C 
ATOM     89  H47 1Z7 d   1      26.553  13.462  26.900  0.00  0.00     0.067 H 
ATOM     90  H48 1Z7 d   1      26.691  11.943  25.950  0.00  0.00     0.067 H 
ATOM     91  H49 1Z7 d   1      25.340  12.154  27.116  0.00  0.00     0.067 H 
ENDBRANCH  87  88
ENDBRANCH  85  87
ENDBRANCH  69  85
ENDBRANCH  68  69
ENDBRANCH  65  68
ENDBRANCH  50  65
ENDBRANCH   3  50
TORSDOF 27
