REMARK  15 active torsions:
REMARK  status: ('A' for Active; 'I' for Inactive)
REMARK    1  A    between atoms: N1_1  and  C8_10 
REMARK    2  A    between atoms: N2_2  and  C32_34 
REMARK    3  A    between atoms: N4_5  and  C22_24 
REMARK    4  A    between atoms: C5_6  and  C15_17 
REMARK    5  A    between atoms: C6_7  and  O6_8 
REMARK    6  A    between atoms: C8_10  and  C9_11 
REMARK    7  A    between atoms: C15_17  and  C16_18 
REMARK    8  A    between atoms: C22_24  and  C23_25 
REMARK    9  A    between atoms: C25_27  and  O30_32 
REMARK   10  A    between atoms: C26_28  and  O29_31 
REMARK   11  A    between atoms: O30_32  and  C31_33 
REMARK   12  A    between atoms: C32_34  and  C33_35 
REMARK   13  A    between atoms: C36_38  and  O39_41 
REMARK   14  A    between atoms: C37_39  and  O40_42 
REMARK   15  A    between atoms: O40_42  and  C41_43 
ROOT
ATOM      1  N1  A88 d   1      -8.609  17.479  26.967  0.00  0.00     0.021 N 
ATOM      2  N2  A88 d   1      -8.635  16.034  26.795  0.00  0.00    -0.155 N 
ATOM      3  C3  A88 d   1      -8.834  15.139  27.793  0.00  0.00     0.345 C 
ATOM      4  O3  A88 d   1      -8.196  14.058  27.749  0.00  0.00    -0.245 OA
ATOM      5  N4  A88 d   1      -9.738  15.500  28.737  0.00  0.00    -0.321 N 
ATOM      6  C5  A88 d   1     -10.783  16.411  28.690  0.00  0.00     0.047 C 
ATOM      7  C6  A88 d   1     -10.507  17.943  28.312  0.00  0.00     0.081 C 
ATOM      8  C7  A88 d   1      -9.955  18.217  26.928  0.00  0.00     0.130 C 
ATOM      9  H1  A88 d   1      -8.197  17.773  26.096  0.00  0.00     0.309 HD
ATOM     10  H2  A88 d   1     -11.200  16.452  29.707  0.00  0.00     0.077 H 
ATOM     11  H3  A88 d   1      -9.741  18.321  29.006  0.00  0.00     0.088 H 
ATOM     12  H5  A88 d   1     -10.613  17.807  26.147  0.00  0.00     0.083 H 
ATOM     13  H6  A88 d   1      -9.815  19.295  26.760  0.00  0.00     0.083 H 
ENDROOT
BRANCH   2  14
ATOM     14  C32 A88 d   1      -7.903  15.578  25.526  0.00  0.00     0.051 C 
ATOM     15  H30 A88 d   1      -8.009  14.485  25.471  0.00  0.00     0.074 H 
ATOM     16  H31 A88 d   1      -6.842  15.838  25.658  0.00  0.00     0.074 H 
BRANCH  14  17
ATOM     17  C33 A88 d   1      -8.325  16.126  24.190  0.00  0.00    -0.035 A 
ATOM     18  C38 A88 d   1      -7.423  16.897  23.470  0.00  0.00    -0.040 A 
ATOM     19  C37 A88 d   1      -7.790  17.408  22.246  0.00  0.00     0.101 A 
ATOM     20  H34 A88 d   1      -6.435  17.096  23.869  0.00  0.00     0.088 H 
ATOM     21  C36 A88 d   1      -9.050  17.141  21.725  0.00  0.00     0.099 A 
ATOM     22  C35 A88 d   1      -9.964  16.357  22.435  0.00  0.00    -0.048 A 
ATOM     23  C34 A88 d   1      -9.601  15.845  23.679  0.00  0.00    -0.072 A 
ATOM     24  H33 A88 d   1     -10.945  16.150  22.022  0.00  0.00     0.087 H 
ATOM     25  H32 A88 d   1     -10.297  15.236  24.245  0.00  0.00     0.084 H 
BRANCH  19  26
ATOM     26  O40 A88 d   1      -6.977  18.284  21.532  0.00  0.00    -0.353 OA
BRANCH  26  27
ATOM     27  C41 A88 d   1      -6.275  19.323  22.266  0.00  0.00     0.010 C 
ATOM     28  H36 A88 d   1      -5.679  19.928  21.566  0.00  0.00     0.066 H 
ATOM     29  H37 A88 d   1      -5.609  18.861  23.009  0.00  0.00     0.066 H 
ATOM     30  H38 A88 d   1      -7.005  19.967  22.778  0.00  0.00     0.066 H 
ENDBRANCH  26  27
ENDBRANCH  19  26
BRANCH  21  31
ATOM     31  O39 A88 d   1      -9.642  17.479  20.566  0.00  0.00    -0.358 OA
ATOM     32  H35 A88 d   1     -10.436  17.968  20.748  0.00  0.00     0.217 HD
ENDBRANCH  21  31
ENDBRANCH  14  17
ENDBRANCH   2  14
BRANCH   1  33
ATOM     33  C8  A88 d   1      -7.597  18.011  27.981  0.00  0.00     0.128 C 
ATOM     34  H7  A88 d   1      -7.556  17.355  28.863  0.00  0.00     0.086 H 
ATOM     35  H8  A88 d   1      -7.867  19.030  28.294  0.00  0.00     0.086 H 
BRANCH  33  36
ATOM     36  C9  A88 d   1      -6.261  18.014  27.260  0.00  0.00    -0.030 A 
ATOM     37  C14 A88 d   1      -5.330  17.010  27.541  0.00  0.00    -0.075 A 
ATOM     38  C13 A88 d   1      -4.140  16.995  26.834  0.00  0.00    -0.082 A 
ATOM     39  H13 A88 d   1      -5.535  16.260  28.296  0.00  0.00     0.084 H 
ATOM     40  C12 A88 d   1      -3.866  17.965  25.866  0.00  0.00    -0.083 A 
ATOM     41  H12 A88 d   1      -3.410  16.219  27.034  0.00  0.00     0.083 H 
ATOM     42  C11 A88 d   1      -4.798  18.968  25.587  0.00  0.00    -0.082 A 
ATOM     43  H11 A88 d   1      -2.925  17.939  25.328  0.00  0.00     0.083 H 
ATOM     44  C10 A88 d   1      -5.999  18.999  26.290  0.00  0.00    -0.075 A 
ATOM     45  H10 A88 d   1      -4.588  19.715  24.830  0.00  0.00     0.083 H 
ATOM     46  H9  A88 d   1      -6.728  19.777  26.091  0.00  0.00     0.084 H 
ENDBRANCH  33  36
ENDBRANCH   1  33
BRANCH   5  47
ATOM     47  C22 A88 d   1      -9.508  14.689  30.031  0.00  0.00     0.024 C 
ATOM     48  H21 A88 d   1      -8.454  14.373  30.021  0.00  0.00     0.071 H 
ATOM     49  H22 A88 d   1     -10.157  13.803  29.966  0.00  0.00     0.071 H 
BRANCH  47  50
ATOM     50  C23 A88 d   1      -9.761  15.313  31.393  0.00  0.00    -0.037 A 
ATOM     51  C28 A88 d   1      -8.854  16.253  31.895  0.00  0.00    -0.072 A 
ATOM     52  C27 A88 d   1      -9.060  16.830  33.141  0.00  0.00    -0.048 A 
ATOM     53  H25 A88 d   1      -7.986  16.532  31.308  0.00  0.00     0.084 H 
ATOM     54  C26 A88 d   1     -10.186  16.464  33.869  0.00  0.00     0.099 A 
ATOM     55  H24 A88 d   1      -8.356  17.552  33.538  0.00  0.00     0.087 H 
ATOM     56  C25 A88 d   1     -11.106  15.550  33.365  0.00  0.00     0.101 A 
ATOM     57  C24 A88 d   1     -10.888  14.957  32.122  0.00  0.00    -0.040 A 
ATOM     58  H23 A88 d   1     -11.588  14.228  31.730  0.00  0.00     0.088 H 
BRANCH  54  59
ATOM     59  O29 A88 d   1     -10.386  17.027  35.070  0.00  0.00    -0.358 OA
ATOM     60  H26 A88 d   1      -9.671  17.622  35.263  0.00  0.00     0.217 HD
ENDBRANCH  54  59
BRANCH  56  61
ATOM     61  O30 A88 d   1     -12.330  15.289  33.995  0.00  0.00    -0.353 OA
BRANCH  61  62
ATOM     62  C31 A88 d   1     -13.219  14.146  33.846  0.00  0.00     0.010 C 
ATOM     63  H27 A88 d   1     -14.095  14.275  34.498  0.00  0.00     0.066 H 
ATOM     64  H28 A88 d   1     -12.685  13.227  34.128  0.00  0.00     0.066 H 
ATOM     65  H29 A88 d   1     -13.549  14.072  32.799  0.00  0.00     0.066 H 
ENDBRANCH  61  62
ENDBRANCH  56  61
ENDBRANCH  47  50
ENDBRANCH   5  47
BRANCH   7  66
ATOM     66  O6  A88 d   1     -11.712  18.578  28.625  0.00  0.00    -0.392 OA
ATOM     67  H4  A88 d   1     -11.597  19.519  28.567  0.00  0.00     0.210 HD
ENDBRANCH   7  66
BRANCH   6  68
ATOM     68  C15 A88 d   1     -11.835  15.724  27.779  0.00  0.00    -0.019 C 
ATOM     69  H14 A88 d   1     -11.334  15.386  26.860  0.00  0.00     0.043 H 
ATOM     70  H15 A88 d   1     -12.611  16.461  27.524  0.00  0.00     0.043 H 
BRANCH  68  71
ATOM     71  C16 A88 d   1     -12.513  14.511  28.440  0.00  0.00    -0.056 A 
ATOM     72  C21 A88 d   1     -12.129  13.220  28.057  0.00  0.00    -0.077 A 
ATOM     73  C20 A88 d   1     -12.748  12.118  28.647  0.00  0.00    -0.082 A 
ATOM     74  H20 A88 d   1     -11.358  13.078  27.309  0.00  0.00     0.084 H 
ATOM     75  C19 A88 d   1     -13.742  12.283  29.609  0.00  0.00    -0.083 A 
ATOM     76  H19 A88 d   1     -12.451  11.118  28.352  0.00  0.00     0.083 H 
ATOM     77  C18 A88 d   1     -14.126  13.570  29.989  0.00  0.00    -0.082 A 
ATOM     78  H18 A88 d   1     -14.214  11.418  30.059  0.00  0.00     0.083 H 
ATOM     79  C17 A88 d   1     -13.515  14.689  29.410  0.00  0.00    -0.077 A 
ATOM     80  H17 A88 d   1     -14.900  13.704  30.735  0.00  0.00     0.083 H 
ATOM     81  H16 A88 d   1     -13.813  15.688  29.708  0.00  0.00     0.084 H 
ENDBRANCH  68  71
ENDBRANCH   6  68
TORSDOF 15
