REMARK  7 active torsions:
REMARK  status: ('A' for Active; 'I' for Inactive)
REMARK    1  A    between atoms: P_1  and  O5'_5 
REMARK    2  A    between atoms: O5'_5  and  C5'_6 
REMARK    3  A    between atoms: C5'_6  and  C4'_7 
REMARK    4  A    between atoms: C3'_9  and  O3'_10 
REMARK    5  A    between atoms: C2'_11  and  O2'_12 
REMARK    6  A    between atoms: C1'_13  and  N1_14 
REMARK    7  A    between atoms: C4_17  and  C6_18 
REMARK       I    between atoms: C6_18  and  N6_21 
ROOT
ATOM      1  C4' MZP d   1     -24.616  36.835  47.228  0.00  0.00     0.089 C 
ATOM      2  O4' MZP d   1     -24.519  36.573  45.817  0.00  0.00    -0.354 OA
ATOM      3  C3' MZP d   1     -26.123  36.992  47.471  0.00  0.00     0.091 C 
ATOM      4  C2' MZP d   1     -26.609  37.699  46.192  0.00  0.00     0.104 C 
ATOM      5  C1' MZP d   1     -25.710  37.076  45.149  0.00  0.00     0.136 C 
ATOM      6  H3  MZP d   1     -24.099  37.774  47.474  0.00  0.00     0.090 H 
ATOM      7  H4  MZP d   1     -26.603  36.007  47.569  0.00  0.00     0.091 H 
ATOM      8  H6  MZP d   1     -27.668  37.479  45.992  0.00  0.00     0.093 H 
ATOM      9  H8  MZP d   1     -25.406  37.877  44.459  0.00  0.00     0.122 H 
ENDROOT
BRANCH   5  10
ATOM     10  N1  MZP d   1     -26.334  36.007  44.319  0.00  0.00    -0.310 N 
ATOM     11  C2  MZP d   1     -27.222  35.022  44.497  0.00  0.00     0.080 A 
ATOM     12  N3  MZP d   1     -27.423  34.338  43.436  0.00  0.00    -0.260 NA
ATOM     13  H9  MZP d   1     -28.177  35.464  44.816  0.00  0.00     0.100 H 
ATOM     14  H10 MZP d   1     -26.848  34.349  45.283  0.00  0.00     0.100 H 
ATOM     15  C4  MZP d   1     -26.627  34.894  42.499  0.00  0.00     0.174 A 
ATOM     16  C5  MZP d   1     -25.951  35.938  43.026  0.00  0.00     0.214 A 
ATOM     17  O5  MZP d   1     -25.062  36.727  42.363  0.00  0.00    -0.169 OA
BRANCH  15  18
ATOM     18  C6  MZP d   1     -26.490  34.448  41.088  0.00  0.00     0.272 C 
ATOM     19  O6  MZP d   1     -27.121  33.489  40.667  0.00  0.00    -0.266 OA
ATOM     20  N6  MZP d   1     -25.638  35.092  40.197  0.00  0.00    -0.365 N 
ATOM     21  H11 MZP d   1     -25.566  34.770  39.253  0.00  0.00     0.159 HD
ATOM     22  H12 MZP d   1     -25.098  35.877  40.500  0.00  0.00     0.159 HD
ENDBRANCH  15  18
ENDBRANCH   5  10
BRANCH   4  23
ATOM     23  O2' MZP d   1     -26.424  39.121  46.260  0.00  0.00    -0.388 OA
ATOM     24  H7  MZP d   1     -26.914  39.468  46.996  0.00  0.00     0.210 HD
ENDBRANCH   4  23
BRANCH   1  25
ATOM     25  C5' MZP d   1     -23.984  35.699  48.067  0.00  0.00     0.059 C 
ATOM     26  H1  MZP d   1     -24.154  35.862  49.141  0.00  0.00     0.079 H 
ATOM     27  H2  MZP d   1     -24.393  34.721  47.775  0.00  0.00     0.079 H 
BRANCH  25  28
ATOM     28  O5' MZP d   1     -22.563  35.787  47.745  0.00  0.00    -0.280 OA
BRANCH  28  29
ATOM     29  P   MZP d   1     -21.572  34.922  48.523  0.00  0.00     0.422 P 
ATOM     30  O1P MZP d   1     -20.212  35.194  47.998  0.00  0.00    -0.617 OA
ATOM     31  O2P MZP d   1     -21.691  35.258  49.967  0.00  0.00    -0.617 OA
ATOM     32  O3P MZP d   1     -21.935  33.521  48.234  0.00  0.00    -0.617 OA
ENDBRANCH  28  29
ENDBRANCH  25  28
ENDBRANCH   1  25
BRANCH   3  33
ATOM     33  O3' MZP d   1     -26.385  37.737  48.633  0.00  0.00    -0.390 OA
ATOM     34  H5  MZP d   1     -26.003  38.602  48.546  0.00  0.00     0.210 HD
ENDBRANCH   3  33
TORSDOF 7
