REMARK  6 active torsions:
REMARK  status: ('A' for Active; 'I' for Inactive)
REMARK    1  A    between atoms: C6A_1  and  C1A_2 
REMARK    2  A    between atoms: C3A_4  and  N7A_5 
REMARK    3  A    between atoms: N7A_5  and  C8A_6 
REMARK    4  A    between atoms: C5A_7  and  C4_9 
REMARK    5  A    between atoms: N7_15  and  C1B_16 
REMARK    6  A    between atoms: C4B_21  and  O7B_22 
ROOT
ATOM      1  C4  CK6 d   1       0.520   5.234  26.718  0.00  0.00     0.096 A 
ATOM      2  C5  CK6 d   1       0.151   3.925  27.058  0.00  0.00    -0.036 A 
ATOM      3  N3  CK6 d   1       1.643   5.803  27.215  0.00  0.00    -0.061 NA
ATOM      4  C2  CK6 d   1       2.455   5.119  28.075  0.00  0.00     0.727 A 
ATOM      5  N1  CK6 d   1       2.179   3.833  28.465  0.00  0.00    -0.075 NA
ATOM      6  C6  CK6 d   1       1.033   3.290  27.935  0.00  0.00     0.023 A 
ATOM      7  N7  CK6 d   1       3.561   5.687  28.573  0.00  0.00    -0.188 N 
ATOM      8  H8  CK6 d   1      -0.742   3.447  26.673  0.00  0.00     0.089 H 
ATOM      9  H9  CK6 d   1       0.791   2.274  28.225  0.00  0.00     0.115 H 
ATOM     10  H10 CK6 d   1       4.101   5.096  29.221  0.00  0.00     0.184 HD
ENDROOT
BRANCH   1  11
ATOM     11  C5A CK6 d   1      -0.303   6.069  25.802  0.00  0.00     0.062 A 
ATOM     12  C1A CK6 d   1      -1.487   5.893  25.148  0.00  0.00     0.053 A 
ATOM     13  N2A CK6 d   1      -1.823   6.990  24.436  0.00  0.00    -0.228 NA
ATOM     14  C3A CK6 d   1      -1.031   8.017  24.460  0.00  0.00     0.167 A 
ATOM     15  S4A CK6 d   1       0.364   7.708  25.472  0.00  0.00    -0.048 SA
BRANCH  12  16
ATOM     16  C6A CK6 d   1      -2.460   4.753  25.077  0.00  0.00    -0.034 C 
ATOM     17  H1  CK6 d   1      -2.091   3.917  25.689  0.00  0.00     0.035 H 
ATOM     18  H2  CK6 d   1      -2.564   4.425  24.032  0.00  0.00     0.035 H 
ATOM     19  H3  CK6 d   1      -3.438   5.082  25.457  0.00  0.00     0.035 H 
ENDBRANCH  12  16
BRANCH  14  20
ATOM     20  N7A CK6 d   1      -1.323   9.116  23.777  0.00  0.00    -0.373 N 
ATOM     21  H4  CK6 d   1      -2.200   9.105  23.237  0.00  0.00     0.161 HD
BRANCH  20  22
ATOM     22  C8A CK6 d   1      -0.527  10.344  23.712  0.00  0.00    -0.019 C 
ATOM     23  H5  CK6 d   1      -1.033  11.075  23.064  0.00  0.00     0.056 H 
ATOM     24  H6  CK6 d   1       0.467  10.115  23.300  0.00  0.00     0.056 H 
ATOM     25  H7  CK6 d   1      -0.418  10.764  24.723  0.00  0.00     0.056 H 
ENDBRANCH  20  22
ENDBRANCH  14  20
ENDBRANCH   1  11
BRANCH   7  26
ATOM     26  C1B CK6 d   1       4.094   6.957  28.349  0.00  0.00     0.049 A 
ATOM     27  C2B CK6 d   1       3.498   7.887  27.478  0.00  0.00    -0.054 A 
ATOM     28  C3B CK6 d   1       3.993   9.144  27.228  0.00  0.00    -0.049 A 
ATOM     29  H11 CK6 d   1       2.587   7.592  26.970  0.00  0.00     0.087 H 
ATOM     30  C4B CK6 d   1       5.157   9.568  27.859  0.00  0.00     0.065 A 
ATOM     31  H12 CK6 d   1       3.477   9.804  26.540  0.00  0.00     0.087 H 
ATOM     32  C5B CK6 d   1       5.813   8.691  28.749  0.00  0.00    -0.049 A 
ATOM     33  C6B CK6 d   1       5.289   7.398  28.990  0.00  0.00    -0.054 A 
ATOM     34  H14 CK6 d   1       6.721   9.008  29.250  0.00  0.00     0.087 H 
ATOM     35  H13 CK6 d   1       5.805   6.732  29.673  0.00  0.00     0.087 H 
BRANCH  30  36
ATOM     36  O7B CK6 d   1       5.602  10.853  27.560  0.00  0.00    -0.361 OA
ATOM     37  H15 CK6 d   1       5.006  11.257  26.940  0.00  0.00     0.217 HD
ENDBRANCH  30  36
ENDBRANCH   7  26
TORSDOF 6
