REMARK  6 active torsions:
REMARK  status: ('A' for Active; 'I' for Inactive)
REMARK    1  A    between atoms: C3A_2  and  N7A_1 
REMARK    2  A    between atoms: C1A_4  and  C6A_5 
REMARK    3  A    between atoms: C4_8  and  C5A_7 
REMARK    4  A    between atoms: N7_14  and  C2_13 
REMARK    5  A    between atoms: N7_14  and  C1B_15 
REMARK    6  A    between atoms: C3B_18  and  N7B_19 
ROOT
ATOM      1  C4  CK7 d   1      13.279  -8.808  13.466  0.00  0.00     0.096 A 
ATOM      2  N3  CK7 d   1      12.373  -9.371  12.601  0.00  0.00    -0.061 NA
ATOM      3  C5  CK7 d   1      13.358  -9.211  14.790  0.00  0.00    -0.036 A 
ATOM      4  C6  CK7 d   1      12.430 -10.138  15.176  0.00  0.00     0.023 A 
ATOM      5  N1  CK7 d   1      11.525 -10.635  14.279  0.00  0.00    -0.075 NA
ATOM      6  C2  CK7 d   1      11.505 -10.294  13.007  0.00  0.00     0.727 A 
ATOM      7  H6  CK7 d   1      14.104  -8.819  15.472  0.00  0.00     0.089 H 
ATOM      8  H7  CK7 d   1      12.411 -10.483  16.204  0.00  0.00     0.115 H 
ENDROOT
BRANCH   6   9
ATOM      9  N7  CK7 d   1      10.578 -10.888  12.281  0.00  0.00    -0.188 N 
ATOM     10  H8  CK7 d   1      10.223 -11.814  12.559  0.00  0.00     0.184 HD
BRANCH   9  11
ATOM     11  C1B CK7 d   1      10.052 -10.235  11.080  0.00  0.00     0.051 A 
ATOM     12  C2B CK7 d   1      10.710  -9.140  10.432  0.00  0.00    -0.025 A 
ATOM     13  C3B CK7 d   1      10.184  -8.461   9.283  0.00  0.00     0.105 A 
ATOM     14  H10 CK7 d   1      11.660  -8.805  10.833  0.00  0.00     0.090 H 
ATOM     15  C4B CK7 d   1       8.960  -8.891   8.753  0.00  0.00    -0.051 A 
ATOM     16  C5B CK7 d   1       8.269  -9.955   9.383  0.00  0.00    -0.079 A 
ATOM     17  H11 CK7 d   1       8.547  -8.415   7.871  0.00  0.00     0.087 H 
ATOM     18  C6B CK7 d   1       8.805 -10.635  10.523  0.00  0.00    -0.057 A 
ATOM     19  H12 CK7 d   1       7.307 -10.263   8.991  0.00  0.00     0.083 H 
ATOM     20  H9  CK7 d   1       8.258 -11.460  10.965  0.00  0.00     0.086 H 
BRANCH  13  21
ATOM     21  N7B CK7 d   1      10.780  -7.383   8.614  0.00  0.00    -0.116 N 
ATOM     22  O9B CK7 d   1      11.657  -7.599   7.748  0.00  0.00    -0.532 OA
ATOM     23  O8B CK7 d   1      10.445  -6.207   8.878  0.00  0.00    -0.532 OA
ENDBRANCH  13  21
ENDBRANCH   9  11
ENDBRANCH   6   9
BRANCH   1  24
ATOM     24  C5A CK7 d   1      14.189  -7.770  12.913  0.00  0.00     0.062 A 
ATOM     25  C1A CK7 d   1      15.196  -6.804  13.535  0.00  0.00     0.053 A 
ATOM     26  N2A CK7 d   1      15.496  -5.869  12.565  0.00  0.00    -0.228 NA
ATOM     27  C3A CK7 d   1      14.766  -5.990  11.431  0.00  0.00     0.165 A 
ATOM     28  S4A CK7 d   1      13.699  -7.276  11.407  0.00  0.00    -0.048 SA
BRANCH  25  29
ATOM     29  C6A CK7 d   1      15.897  -6.811  14.862  0.00  0.00    -0.034 C 
ATOM     30  H3  CK7 d   1      15.507  -7.634  15.479  0.00  0.00     0.035 H 
ATOM     31  H4  CK7 d   1      15.721  -5.854  15.374  0.00  0.00     0.035 H 
ATOM     32  H5  CK7 d   1      16.977  -6.950  14.706  0.00  0.00     0.035 H 
ENDBRANCH  25  29
BRANCH  27  33
ATOM     33  N7A CK7 d   1      14.702  -5.255  10.131  0.00  0.00    -0.378 N 
ATOM     34  H1  CK7 d   1      15.299  -4.430   9.976  0.00  0.00     0.158 HD
ATOM     35  H2  CK7 d   1      14.061  -5.573   9.390  0.00  0.00     0.158 HD
ENDBRANCH  27  33
ENDBRANCH   1  24
TORSDOF 6
