REMARK  8 active torsions:
REMARK  status: ('A' for Active; 'I' for Inactive)
REMARK    1  A    between atoms: C2_3  and  N7_14 
REMARK    2  A    between atoms: C4_5  and  C5A_7 
REMARK    3  A    between atoms: C1A_8  and  C6A_12 
REMARK    4  A    between atoms: C3A_10  and  C7A_13 
REMARK    5  A    between atoms: N7_14  and  C1B_15 
REMARK    6  A    between atoms: C4B_18  and  N7B_21 
REMARK    7  A    between atoms: N7B_21  and  C8B_22 
REMARK    8  A    between atoms: N7B_21  and  C9B_23 
ROOT
ATOM      1  C6  CK8 d   1      25.840  38.933   7.693  0.00  0.00     0.023 A 
ATOM      2  N1  CK8 d   1      24.807  39.625   7.158  0.00  0.00    -0.075 NA
ATOM      3  C2  CK8 d   1      24.634  40.889   7.540  0.00  0.00     0.727 A 
ATOM      4  N3  CK8 d   1      25.407  41.531   8.414  0.00  0.00    -0.061 NA
ATOM      5  C4  CK8 d   1      26.458  40.912   8.987  0.00  0.00     0.096 A 
ATOM      6  C5  CK8 d   1      26.726  39.530   8.638  0.00  0.00    -0.036 A 
ATOM      7  H1  CK8 d   1      25.997  37.902   7.397  0.00  0.00     0.115 H 
ATOM      8  H2  CK8 d   1      27.554  38.981   9.072  0.00  0.00     0.089 H 
ENDROOT
BRANCH   3   9
ATOM      9  N7  CK8 d   1      23.522  41.571   6.943  0.00  0.00    -0.188 N 
ATOM     10  H9  CK8 d   1      23.015  40.972   6.276  0.00  0.00     0.184 HD
BRANCH   9  11
ATOM     11  C1B CK8 d   1      22.931  42.898   7.044  0.00  0.00     0.049 A 
ATOM     12  C2B CK8 d   1      23.427  43.911   7.925  0.00  0.00    -0.054 A 
ATOM     13  C3B CK8 d   1      22.812  45.181   7.976  0.00  0.00    -0.055 A 
ATOM     14  H10 CK8 d   1      24.282  43.702   8.558  0.00  0.00     0.087 H 
ATOM     15  C4B CK8 d   1      21.676  45.489   7.147  0.00  0.00     0.029 A 
ATOM     16  H11 CK8 d   1      23.201  45.936   8.650  0.00  0.00     0.087 H 
ATOM     17  C5B CK8 d   1      21.190  44.454   6.271  0.00  0.00    -0.055 A 
ATOM     18  C6B CK8 d   1      21.807  43.183   6.225  0.00  0.00    -0.054 A 
ATOM     19  H12 CK8 d   1      20.335  44.654   5.635  0.00  0.00     0.087 H 
ATOM     20  H13 CK8 d   1      21.419  42.420   5.559  0.00  0.00     0.087 H 
BRANCH  15  21
ATOM     21  N7B CK8 d   1      21.026  46.845   7.198  0.00  0.00    -0.390 N 
BRANCH  21  22
ATOM     22  C8B CK8 d   1      19.847  47.208   6.356  0.00  0.00    -0.019 C 
ATOM     23  H14 CK8 d   1      19.551  48.246   6.567  0.00  0.00     0.056 H 
ATOM     24  H15 CK8 d   1      19.009  46.534   6.588  0.00  0.00     0.056 H 
ATOM     25  H16 CK8 d   1      20.112  47.111   5.293  0.00  0.00     0.056 H 
ENDBRANCH  21  22
BRANCH  21  26
ATOM     26  C9B CK8 d   1      21.513  47.936   8.096  0.00  0.00    -0.019 C 
ATOM     27  H17 CK8 d   1      22.378  47.577   8.673  0.00  0.00     0.056 H 
ATOM     28  H18 CK8 d   1      20.708  48.230   8.786  0.00  0.00     0.056 H 
ATOM     29  H19 CK8 d   1      21.811  48.804   7.490  0.00  0.00     0.056 H 
ENDBRANCH  21  26
ENDBRANCH  15  21
ENDBRANCH   9  11
ENDBRANCH   3   9
BRANCH   5  30
ATOM     30  C5A CK8 d   1      27.230  41.703   9.921  0.00  0.00     0.060 A 
ATOM     31  C1A CK8 d   1      28.488  41.558  10.551  0.00  0.00     0.051 A 
ATOM     32  N2A CK8 d   1      28.838  42.588  11.393  0.00  0.00    -0.250 NA
ATOM     33  C3A CK8 d   1      27.880  43.516  11.423  0.00  0.00     0.072 A 
ATOM     34  S4A CK8 d   1      26.520  43.212  10.451  0.00  0.00    -0.071 SA
BRANCH  31  35
ATOM     35  C6A CK8 d   1      29.486  40.414  10.409  0.00  0.00    -0.034 C 
ATOM     36  H3  CK8 d   1      30.366  40.615  11.038  0.00  0.00     0.035 H 
ATOM     37  H4  CK8 d   1      29.799  40.328   9.358  0.00  0.00     0.035 H 
ATOM     38  H5  CK8 d   1      29.014  39.474  10.729  0.00  0.00     0.035 H 
ENDBRANCH  31  35
BRANCH  33  39
ATOM     39  C7A CK8 d   1      27.950  44.781  12.254  0.00  0.00    -0.029 C 
ATOM     40  H6  CK8 d   1      28.898  44.801  12.812  0.00  0.00     0.036 H 
ATOM     41  H7  CK8 d   1      27.108  44.802  12.961  0.00  0.00     0.036 H 
ATOM     42  H8  CK8 d   1      27.895  45.658  11.592  0.00  0.00     0.036 H 
ENDBRANCH  33  39
ENDBRANCH   5  30
TORSDOF 8
