REMARK  23 active torsions:
REMARK  status: ('A' for Active; 'I' for Inactive)
REMARK    1  A    between atoms: C2_2  and  O2_39 
REMARK    2  A    between atoms: C7_21  and  C5_5 
REMARK    3  A    between atoms: C9_7  and  N1_8 
REMARK    4  A    between atoms: C11_10  and  C9_7 
REMARK    5  A    between atoms: C9_7  and  C7_21 
REMARK       I    between atoms: N1_8  and  C10_9 
REMARK    6  A    between atoms: C10_9  and  O9_18 
REMARK       I    between atoms: N2_11  and  C11_10 
REMARK    7  A    between atoms: C12_12  and  N2_11 
REMARK    8  A    between atoms: C13_13  and  C12_12 
REMARK    9  A    between atoms: C15_15  and  C13_13 
REMARK   10  A    between atoms: C14_14  and  O1_16 
REMARK   11  A    between atoms: C15_15  and  C14_14 
REMARK   12  A    between atoms: O1_16  and  C32_26 
REMARK   13  A    between atoms: O9_18  and  C41_40 
REMARK   14  A    between atoms: O2_39  and  C8_19 
REMARK   15  A    between atoms: C8_19  and  C24_23 
REMARK   16  A    between atoms: C8_19  and  C16_22 
REMARK   17  A    between atoms: C36_30  and  O13_36 
REMARK   18  A    between atoms: C37_31  and  C38_32 
REMARK   19  A    between atoms: C38_32  and  O12_34 
REMARK   20  A    between atoms: O12_34  and  C39_35 
REMARK   21  A    between atoms: C41_40  and  C42_41 
REMARK   22  A    between atoms: C41_40  and  C43_42 
REMARK   23  A    between atoms: C41_40  and  C44_43 
ROOT
ATOM      1  C9  941 d   1      31.142  31.354  16.983  0.00  0.00     0.095 C 
ATOM      2  H5  941 d   1      32.054  31.156  16.400  0.00  0.00     0.088 H 
ENDROOT
BRANCH   1   3
ATOM      3  N1  941 d   1      30.384  32.359  16.250  0.00  0.00    -0.323 N 
ATOM      4  C10 941 d   1      30.374  32.609  14.936  0.00  0.00     0.362 C 
ATOM      5  O4  941 d   1      31.065  31.961  14.193  0.00  0.00    -0.238 OA
ATOM      6  H6  941 d   1      29.790  32.941  16.805  0.00  0.00     0.165 HD
BRANCH   4   7
ATOM      7  O9  941 d   1      29.556  33.592  14.516  0.00  0.00    -0.294 OA
BRANCH   7   8
ATOM      8  C41 941 d   1      28.352  33.433  13.620  0.00  0.00     0.061 C 
BRANCH   8   9
ATOM      9  C42 941 d   1      27.608  32.083  13.908  0.00  0.00    -0.048 C 
ATOM     10  H26 941 d   1      26.737  31.995  13.242  0.00  0.00     0.031 H 
ATOM     11  H27 941 d   1      27.272  32.066  14.955  0.00  0.00     0.031 H 
ATOM     12  H28 941 d   1      28.293  31.241  13.729  0.00  0.00     0.031 H 
ENDBRANCH   8   9
BRANCH   8  13
ATOM     13  C43 941 d   1      28.800  33.454  12.141  0.00  0.00    -0.048 C 
ATOM     14  H29 941 d   1      27.921  33.338  11.490  0.00  0.00     0.031 H 
ATOM     15  H30 941 d   1      29.503  32.627  11.959  0.00  0.00     0.031 H 
ATOM     16  H31 941 d   1      29.295  34.411  11.921  0.00  0.00     0.031 H 
ENDBRANCH   8  13
BRANCH   8  17
ATOM     17  C44 941 d   1      27.319  34.576  13.860  0.00  0.00    -0.048 C 
ATOM     18  H32 941 d   1      26.454  34.434  13.195  0.00  0.00     0.031 H 
ATOM     19  H33 941 d   1      27.790  35.547  13.647  0.00  0.00     0.031 H 
ATOM     20  H34 941 d   1      26.983  34.553  14.907  0.00  0.00     0.031 H 
ENDBRANCH   8  17
ENDBRANCH   7   8
ENDBRANCH   4   7
ENDBRANCH   1   3
BRANCH   1  21
ATOM     21  C11 941 d   1      30.456  29.966  17.205  0.00  0.00     0.240 C 
ATOM     22  N2  941 d   1      29.149  30.025  17.495  0.00  0.00    -0.359 N 
ATOM     23  H7  941 d   1      28.720  30.928  17.522  0.00  0.00     0.162 HD
ATOM     24  O8  941 d   1      31.130  28.918  17.136  0.00  0.00    -0.271 OA
BRANCH  22  25
ATOM     25  C12 941 d   1      28.295  28.848  17.778  0.00  0.00    -0.005 C 
ATOM     26  H8  941 d   1      28.893  28.055  18.250  0.00  0.00     0.064 H 
ATOM     27  H9  941 d   1      27.855  28.469  16.843  0.00  0.00     0.064 H 
BRANCH  25  28
ATOM     28  C13 941 d   1      27.169  29.310  18.745  0.00  0.00    -0.048 C 
ATOM     29  H10 941 d   1      26.759  28.428  19.259  0.00  0.00     0.035 H 
ATOM     30  H11 941 d   1      26.375  29.794  18.158  0.00  0.00     0.035 H 
BRANCH  28  31
ATOM     31  C15 941 d   1      27.688  30.315  19.811  0.00  0.00    -0.043 C 
ATOM     32  H14 941 d   1      28.105  31.190  19.290  0.00  0.00     0.036 H 
ATOM     33  H15 941 d   1      28.480  29.824  20.395  0.00  0.00     0.036 H 
BRANCH  31  34
ATOM     34  C14 941 d   1      26.618  30.792  20.765  0.00  0.00     0.026 C 
ATOM     35  H12 941 d   1      27.017  31.605  21.390  0.00  0.00     0.075 H 
ATOM     36  H13 941 d   1      25.752  31.159  20.195  0.00  0.00     0.075 H 
BRANCH  34  37
ATOM     37  O1  941 d   1      26.216  29.698  21.598  0.00  0.00    -0.350 OA
BRANCH  37  38
ATOM     38  C32 941 d   1      24.913  29.680  22.184  0.00  0.00     0.087 A 
ATOM     39  C33 941 d   1      24.157  30.905  22.499  0.00  0.00    -0.050 A 
ATOM     40  C34 941 d   1      22.856  30.833  23.090  0.00  0.00    -0.078 A 
ATOM     41  H19 941 d   1      24.592  31.873  22.280  0.00  0.00     0.087 H 
ATOM     42  C35 941 d   1      22.277  29.556  23.380  0.00  0.00    -0.050 A 
ATOM     43  H20 941 d   1      22.311  31.742  23.317  0.00  0.00     0.083 H 
ATOM     44  C36 941 d   1      22.985  28.349  23.085  0.00  0.00     0.084 A 
ATOM     45  H21 941 d   1      21.291  29.503  23.828  0.00  0.00     0.087 H 
ATOM     46  C37 941 d   1      24.306  28.389  22.487  0.00  0.00     0.105 A 
BRANCH  44  47
ATOM     47  O13 941 d   1      22.348  27.175  23.401  0.00  0.00    -0.360 OA
ATOM     48  H25 941 d   1      21.499  27.369  23.780  0.00  0.00     0.217 HD
ENDBRANCH  44  47
BRANCH  46  49
ATOM     49  C38 941 d   1      25.003  27.099  22.203  0.00  0.00     0.298 C 
ATOM     50  O11 941 d   1      25.285  26.334  23.106  0.00  0.00    -0.259 OA
BRANCH  49  51
ATOM     51  O12 941 d   1      25.280  26.854  20.901  0.00  0.00    -0.322 OA
BRANCH  51  52
ATOM     52  C39 941 d   1      25.950  25.626  20.481  0.00  0.00     0.013 C 
ATOM     53  H22 941 d   1      26.076  25.632  19.388  0.00  0.00     0.067 H 
ATOM     54  H23 941 d   1      25.342  24.758  20.775  0.00  0.00     0.067 H 
ATOM     55  H24 941 d   1      26.937  25.563  20.963  0.00  0.00     0.067 H 
ENDBRANCH  51  52
ENDBRANCH  49  51
ENDBRANCH  46  49
ENDBRANCH  37  38
ENDBRANCH  34  37
ENDBRANCH  31  34
ENDBRANCH  28  31
ENDBRANCH  25  28
ENDBRANCH  22  25
ENDBRANCH   1  21
BRANCH   1  56
ATOM     56  C7  941 d   1      31.570  31.991  18.361  0.00  0.00    -0.014 C 
ATOM     57  H17 941 d   1      32.197  32.873  18.164  0.00  0.00     0.043 H 
ATOM     58  H18 941 d   1      30.665  32.299  18.905  0.00  0.00     0.043 H 
BRANCH  56  59
ATOM     59  C5  941 d   1      32.357  31.012  19.229  0.00  0.00    -0.056 A 
ATOM     60  C4  941 d   1      31.708  30.350  20.319  0.00  0.00    -0.074 A 
ATOM     61  C3  941 d   1      32.421  29.412  21.126  0.00  0.00    -0.050 A 
ATOM     62  H3  941 d   1      30.667  30.562  20.534  0.00  0.00     0.084 H 
ATOM     63  C2  941 d   1      33.786  29.107  20.876  0.00  0.00     0.070 A 
ATOM     64  H2  941 d   1      31.910  28.922  21.947  0.00  0.00     0.087 H 
ATOM     65  C1  941 d   1      34.463  29.788  19.757  0.00  0.00    -0.050 A 
ATOM     66  C6  941 d   1      33.746  30.721  18.957  0.00  0.00    -0.074 A 
ATOM     67  H1  941 d   1      35.505  29.578  19.544  0.00  0.00     0.087 H 
ATOM     68  H4  941 d   1      34.247  31.219  18.135  0.00  0.00     0.084 H 
BRANCH  63  69
ATOM     69  O2  941 d   1      34.290  28.163  21.774  0.00  0.00    -0.324 OA
BRANCH  69  70
ATOM     70  C8  941 d   1      35.643  27.665  21.750  0.00  0.00     0.211 C 
ATOM     71  H16 941 d   1      35.895  27.354  20.726  0.00  0.00     0.118 H 
BRANCH  70  72
ATOM     72  C24 941 d   1      35.644  26.429  22.674  0.00  0.00     0.214 C 
ATOM     73  O6  941 d   1      34.940  26.274  23.617  0.00  0.00    -0.646 OA
ATOM     74  O7  941 d   1      36.559  25.491  22.307  0.00  0.00    -0.646 OA
ENDBRANCH  70  72
BRANCH  70  75
ATOM     75  C16 941 d   1      36.683  28.728  22.195  0.00  0.00     0.214 C 
ATOM     76  O3  941 d   1      36.436  29.697  22.833  0.00  0.00    -0.646 OA
ATOM     77  O5  941 d   1      37.935  28.439  21.761  0.00  0.00    -0.646 OA
ENDBRANCH  70  75
ENDBRANCH  69  70
ENDBRANCH  63  69
ENDBRANCH  56  59
ENDBRANCH   1  56
TORSDOF 23
