REMARK WARNING: 32 MAX_TORS EXCEEDED!!!
REMARK  34 active torsions:
REMARK  status: ('A' for Active; 'I' for Inactive)
REMARK    1  A    between atoms: CA_2  and  N_1 
REMARK    2  A    between atoms: CA_2  and  CB_5 
REMARK    3  A    between atoms: C_3  and  CA_2 
REMARK       I    between atoms: N_9  and  C_3 
REMARK    4  A    between atoms: CB_5  and  CG_6 
REMARK    5  A    between atoms: CG_6  and  SD_7 
REMARK    6  A    between atoms: SD_7  and  CE_8 
REMARK    7  A    between atoms: CA_10  and  N_9 
REMARK    8  A    between atoms: CA_10  and  CB_13 
REMARK    9  A    between atoms: C_11  and  CA_10 
REMARK       I    between atoms: N_17  and  C_11 
REMARK   10  A    between atoms: CB_13  and  CG_14 
REMARK   11  A    between atoms: CA_18  and  N_17 
REMARK   12  A    between atoms: CA_18  and  CB_21 
REMARK   13  A    between atoms: C_19  and  CA_18 
REMARK       I    between atoms: N_31  and  C_19 
REMARK   14  A    between atoms: CB_21  and  CG_22 
REMARK   15  A    between atoms: CA_32  and  N_31 
REMARK   16  A    between atoms: CA_32  and  CB_35 
REMARK   17  A    between atoms: C_33  and  CA_32 
REMARK       I    between atoms: N_39  and  C_33 
REMARK   18  A    between atoms: CB_35  and  CG_36 
REMARK       I    between atoms: CG_36  and  ND2_38 
REMARK   19  A    between atoms: CA_40  and  N_39 
REMARK   20  A    between atoms: CA_40  and  CB_43 
REMARK   21  A    between atoms: C_41  and  CA_40 
REMARK       I    between atoms: N_47  and  C_41 
REMARK   22  A    between atoms: CB_43  and  CG_44 
REMARK   23  A    between atoms: CG_44  and  SD_45 
REMARK   24  A    between atoms: SD_45  and  CE_46 
REMARK   25  A    between atoms: CA_48  and  N_47 
REMARK   26  A    between atoms: CA_48  and  CB_51 
REMARK   27  A    between atoms: C_49  and  CA_48 
REMARK       I    between atoms: N_57  and  C_49 
REMARK   28  A    between atoms: CB_51  and  CG_52 
REMARK   29  A    between atoms: CA_58  and  N_57 
REMARK   30  A    between atoms: CA_58  and  CB_61 
REMARK   31  A    between atoms: C_59  and  CA_58 
REMARK       I    between atoms: C_59  and  N_62 
REMARK   32  A    between atoms: N_62  and  CA_63 
REMARK   33  A    between atoms: CA_63  and  CB_66 
REMARK   34  A    between atoms: CA_63  and  C_64 
ROOT
ATOM      1  CA  ASN d   1      -7.622  21.819  33.726  0.00  0.00     0.097 C 
ATOM      2  H27 ASN d   1      -6.890  22.238  34.432  0.00  0.00     0.088 H 
ENDROOT
BRANCH   1   3
ATOM      3  N   ASN d   1      -7.667  20.372  33.884  0.00  0.00    -0.346 N 
ATOM      4  C   TRP d   1      -6.559  19.652  34.013  0.00  0.00     0.241 C 
ATOM      5  O   TRP d   1      -5.432  20.149  33.965  0.00  0.00    -0.271 OA
ATOM      6  H26 ASN d   1      -8.554  19.910  33.896  0.00  0.00     0.163 HD
BRANCH   4   7
ATOM      7  CA  TRP d   1      -6.735  18.152  34.227  0.00  0.00     0.093 C 
ATOM      8  H17 TRP d   1      -6.739  18.006  35.317  0.00  0.00     0.088 H 
BRANCH   7   9
ATOM      9  N   TRP d   1      -7.957  17.523  33.742  0.00  0.00    -0.346 N 
ATOM     10  C   ASP d   1      -8.817  16.972  34.594  0.00  0.00     0.241 C 
ATOM     11  O   ASP d   1      -8.652  16.992  35.815  0.00  0.00    -0.271 OA
ATOM     12  H16 TRP d   1      -8.150  17.506  32.761  0.00  0.00     0.163 HD
BRANCH  10  13
ATOM     13  CA  ASP d   1     -10.046  16.303  33.993  0.00  0.00     0.098 C 
ATOM     14  H13 ASP d   1      -9.825  16.024  32.952  0.00  0.00     0.088 H 
BRANCH  13  15
ATOM     15  N   ASP d   1     -10.374  15.098  34.746  0.00  0.00    -0.345 N 
ATOM     16  C   MET d   1     -10.158  13.883  34.250  0.00  0.00     0.249 C 
ATOM     17  O   MET d   1      -9.666  13.689  33.138  0.00  0.00    -0.271 OA
ATOM     18  H12 ASP d   1     -10.772  15.188  35.659  0.00  0.00     0.163 HD
BRANCH  16  19
ATOM     19  CA  MET d   1     -10.556  12.710  35.139  0.00  0.00     0.176 C 
ATOM     20  H4  MET d   1     -11.647  12.584  35.077  0.00  0.00     0.099 H 
BRANCH  19  21
ATOM     21  N   MET d   1      -9.915  11.437  34.703  0.00  0.00    -0.066 N 
ATOM     22  H1  MET d   1     -10.203  10.689  35.315  0.00  0.00     0.275 HD
ATOM     23  H2  MET d   1      -8.912  11.535  34.741  0.00  0.00     0.275 HD
ATOM     24  H3  MET d   1     -10.196  11.226  33.758  0.00  0.00     0.275 HD
ENDBRANCH  19  21
BRANCH  19  25
ATOM     25  CB  MET d   1     -10.179  13.016  36.588  0.00  0.00    -0.022 C 
ATOM     26  H5  MET d   1     -10.665  12.273  37.238  0.00  0.00     0.037 H 
ATOM     27  H6  MET d   1     -10.550  14.021  36.839  0.00  0.00     0.037 H 
BRANCH  25  28
ATOM     28  CG  MET d   1      -8.686  12.978  36.850  0.00  0.00    -0.021 C 
ATOM     29  H7  MET d   1      -8.181  13.635  36.127  0.00  0.00     0.049 H 
ATOM     30  H8  MET d   1      -8.328  11.946  36.720  0.00  0.00     0.049 H 
BRANCH  28  31
ATOM     31  SD  MET d   1      -8.286  13.527  38.513  0.00  0.00    -0.173 SA
BRANCH  31  32
ATOM     32  CE  MET d   1      -9.345  12.436  39.501  0.00  0.00    -0.035 C 
ATOM     33  H9  MET d   1      -9.206  12.659  40.569  0.00  0.00     0.041 H 
ATOM     34  H10 MET d   1      -9.074  11.388  39.307  0.00  0.00     0.041 H 
ATOM     35  H11 MET d   1     -10.398  12.599  39.226  0.00  0.00     0.041 H 
ENDBRANCH  31  32
ENDBRANCH  28  31
ENDBRANCH  25  28
ENDBRANCH  19  25
ENDBRANCH  16  19
ENDBRANCH  13  15
BRANCH  13  36
ATOM     36  CB  ASP d   1     -11.235  17.264  34.005  0.00  0.00     0.043 C 
ATOM     37  H14 ASP d   1     -10.973  18.158  33.420  0.00  0.00     0.052 H 
ATOM     38  H15 ASP d   1     -11.445  17.554  35.045  0.00  0.00     0.052 H 
BRANCH  36  39
ATOM     39  CG  ASP d   1     -12.485  16.642  33.411  0.00  0.00     0.175 C 
ATOM     40  OD1 ASP d   1     -12.431  16.194  32.248  0.00  0.00    -0.648 OA
ATOM     41  OD2 ASP d   1     -13.524  16.602  34.104  0.00  0.00    -0.648 OA
ENDBRANCH  36  39
ENDBRANCH  13  36
ENDBRANCH  10  13
ENDBRANCH   7   9
BRANCH   7  42
ATOM     42  CB  TRP d   1      -5.518  17.411  33.670  0.00  0.00    -0.012 C 
ATOM     43  H18 TRP d   1      -4.608  17.946  33.978  0.00  0.00     0.044 H 
ATOM     44  H19 TRP d   1      -5.584  17.400  32.572  0.00  0.00     0.044 H 
BRANCH  42  45
ATOM     45  CG  TRP d   1      -5.433  15.998  34.160  0.00  0.00    -0.028 A 
ATOM     46  CD1 TRP d   1      -5.902  14.878  33.536  0.00  0.00    -0.015 A 
ATOM     47  NE1 TRP d   1      -5.669  13.768  34.315  0.00  0.00    -0.365 N 
ATOM     48  H20 TRP d   1      -6.390  14.865  32.562  0.00  0.00     0.112 H 
ATOM     49  CE2 TRP d   1      -5.040  14.161  35.468  0.00  0.00     0.042 A 
ATOM     50  H21 TRP d   1      -5.925  12.800  34.072  0.00  0.00     0.165 HD
ATOM     51  CD2 TRP d   1      -4.876  15.562  35.404  0.00  0.00    -0.002 A 
ATOM     52  CZ2 TRP d   1      -4.602  13.406  36.559  0.00  0.00    -0.056 A 
ATOM     53  CE3 TRP d   1      -4.254  16.220  36.473  0.00  0.00    -0.070 A 
ATOM     54  CZ3 TRP d   1      -3.819  15.467  37.557  0.00  0.00    -0.082 A 
ATOM     55  H22 TRP d   1      -4.115  17.295  36.455  0.00  0.00     0.084 H 
ATOM     56  CH2 TRP d   1      -3.995  14.076  37.590  0.00  0.00    -0.081 A 
ATOM     57  H24 TRP d   1      -3.336  15.963  38.391  0.00  0.00     0.083 H 
ATOM     58  H25 TRP d   1      -3.643  13.518  38.450  0.00  0.00     0.083 H 
ATOM     59  H23 TRP d   1      -4.737  12.331  36.589  0.00  0.00     0.086 H 
ENDBRANCH  42  45
ENDBRANCH   7  42
ENDBRANCH   4   7
ENDBRANCH   1   3
BRANCH   1  60
ATOM     60  CB  ASN d   1      -7.194  22.208  32.301  0.00  0.00     0.036 C 
ATOM     61  H28 ASN d   1      -6.272  21.663  32.051  0.00  0.00     0.051 H 
ATOM     62  H29 ASN d   1      -6.998  23.290  32.277  0.00  0.00     0.051 H 
BRANCH  60  63
ATOM     63  CG  ASN d   1      -8.238  21.887  31.262  0.00  0.00     0.217 C 
ATOM     64  ND2 ASN d   1      -7.964  20.880  30.441  0.00  0.00    -0.370 N 
ATOM     65  H30 ASN d   1      -8.619  20.621  29.731  0.00  0.00     0.159 HD
ATOM     66  H31 ASN d   1      -7.103  20.381  30.532  0.00  0.00     0.159 HD
ATOM     67  OD1 ASN d   1      -9.283  22.532  31.199  0.00  0.00    -0.274 OA
ENDBRANCH  60  63
ENDBRANCH   1  60
BRANCH   1  68
ATOM     68  C   ASN d   1      -9.007  22.354  34.070  0.00  0.00     0.241 C 
ATOM     69  O   ASN d   1     -10.000  21.641  33.946  0.00  0.00    -0.271 OA
ATOM     70  N   MET d   1      -9.068  23.603  34.520  0.00  0.00    -0.346 N 
ATOM     71  H32 MET d   1      -8.228  24.142  34.580  0.00  0.00     0.163 HD
BRANCH  70  72
ATOM     72  CA  MET d   1     -10.329  24.205  34.928  0.00  0.00     0.090 C 
ATOM     73  H33 MET d   1     -10.728  23.574  35.736  0.00  0.00     0.087 H 
BRANCH  72  74
ATOM     74  CB  MET d   1     -10.097  25.607  35.496  0.00  0.00    -0.030 C 
ATOM     75  H34 MET d   1     -11.069  26.020  35.803  0.00  0.00     0.037 H 
ATOM     76  H35 MET d   1      -9.667  26.234  34.701  0.00  0.00     0.037 H 
BRANCH  74  77
ATOM     77  CG  MET d   1      -9.166  25.649  36.688  0.00  0.00    -0.021 C 
ATOM     78  H36 MET d   1      -8.126  25.598  36.334  0.00  0.00     0.049 H 
ATOM     79  H37 MET d   1      -9.375  24.787  37.339  0.00  0.00     0.049 H 
BRANCH  77  80
ATOM     80  SD  MET d   1      -9.395  27.172  37.632  0.00  0.00    -0.173 SA
BRANCH  80  81
ATOM     81  CE  MET d   1     -11.067  26.897  38.306  0.00  0.00    -0.035 C 
ATOM     82  H38 MET d   1     -11.361  27.760  38.922  0.00  0.00     0.041 H 
ATOM     83  H39 MET d   1     -11.068  25.988  38.925  0.00  0.00     0.041 H 
ATOM     84  H40 MET d   1     -11.781  26.777  37.478  0.00  0.00     0.041 H 
ENDBRANCH  80  81
ENDBRANCH  77  80
ENDBRANCH  74  77
ENDBRANCH  72  74
BRANCH  72  85
ATOM     85  C   MET d   1     -11.408  24.290  33.863  0.00  0.00     0.241 C 
ATOM     86  O   MET d   1     -12.596  24.259  34.190  0.00  0.00    -0.271 OA
ATOM     87  N   HIS d   1     -11.014  24.411  32.601  0.00  0.00    -0.346 N 
ATOM     88  H41 HIS d   1     -10.038  24.431  32.383  0.00  0.00     0.163 HD
BRANCH  87  89
ATOM     89  CA  HIS d   1     -12.000  24.514  31.534  0.00  0.00     0.094 C 
ATOM     90  H42 HIS d   1     -12.717  25.302  31.808  0.00  0.00     0.088 H 
BRANCH  89  91
ATOM     91  CB  HIS d   1     -11.329  24.917  30.214  0.00  0.00     0.002 C 
ATOM     92  H43 HIS d   1     -10.592  24.145  29.949  0.00  0.00     0.046 H 
ATOM     93  H44 HIS d   1     -10.815  25.878  30.364  0.00  0.00     0.046 H 
BRANCH  91  94
ATOM     94  CG  HIS d   1     -12.289  25.067  29.074  0.00  0.00     0.030 A 
ATOM     95  ND1 HIS d   1     -12.769  23.991  28.357  0.00  0.00    -0.353 N 
ATOM     96  CE1 HIS d   1     -13.644  24.415  27.464  0.00  0.00     0.063 A 
ATOM     97  H45 HIS d   1     -12.489  23.010  28.497  0.00  0.00     0.166 HD
ATOM     98  NE2 HIS d   1     -13.750  25.727  27.573  0.00  0.00    -0.254 NA
ATOM     99  H47 HIS d   1     -14.187  23.789  26.757  0.00  0.00     0.143 H 
ATOM    100  CD2 HIS d   1     -12.912  26.160  28.571  0.00  0.00     0.025 A 
ATOM    101  H46 HIS d   1     -12.774  27.190  28.897  0.00  0.00     0.117 H 
ENDBRANCH  91  94
ENDBRANCH  89  91
BRANCH  89 102
ATOM    102  C   HIS d   1     -12.773  23.211  31.372  0.00  0.00     0.241 C 
ATOM    103  O   HIS d   1     -14.000  23.217  31.222  0.00  0.00    -0.271 OA
ATOM    104  N   ALA d   1     -12.053  22.095  31.422  0.00  0.00    -0.346 N 
ATOM    105  H48 ALA d   1     -11.064  22.160  31.554  0.00  0.00     0.163 HD
BRANCH 104 106
ATOM    106  CA  ALA d   1     -12.665  20.781  31.290  0.00  0.00     0.086 C 
ATOM    107  H49 ALA d   1     -13.389  20.805  30.462  0.00  0.00     0.086 H 
BRANCH 106 108
ATOM    108  CB  ALA d   1     -11.602  19.740  30.986  0.00  0.00    -0.049 C 
ATOM    109  H50 ALA d   1     -12.074  18.751  30.888  0.00  0.00     0.030 H 
ATOM    110  H51 ALA d   1     -10.867  19.716  31.805  0.00  0.00     0.030 H 
ATOM    111  H52 ALA d   1     -11.094  19.998  30.045  0.00  0.00     0.030 H 
ENDBRANCH 106 108
BRANCH 106 112
ATOM    112  C   ALA d   1     -13.397  20.417  32.580  0.00  0.00     0.240 C 
ATOM    113  O   ALA d   1     -14.412  19.720  32.550  0.00  0.00    -0.271 OA
ATOM    114  N   ALA d   1     -12.869  20.891  33.706  0.00  0.00    -0.345 N 
ATOM    115  H53 ALA d   1     -12.043  21.452  33.651  0.00  0.00     0.163 HD
BRANCH 114 116
ATOM    116  CA  ALA d   1     -13.449  20.623  35.020  0.00  0.00     0.093 C 
ATOM    117  H54 ALA d   1     -13.478  19.533  35.166  0.00  0.00     0.089 H 
BRANCH 116 118
ATOM    118  CB  ALA d   1     -12.576  21.235  36.110  0.00  0.00    -0.048 C 
ATOM    119  H55 ALA d   1     -13.020  21.028  37.095  0.00  0.00     0.030 H 
ATOM    120  H56 ALA d   1     -12.509  22.323  35.959  0.00  0.00     0.030 H 
ATOM    121  H57 ALA d   1     -11.569  20.796  36.063  0.00  0.00     0.030 H 
ENDBRANCH 116 118
BRANCH 116 122
ATOM    122  C   ALA d   1     -14.872  21.155  35.133  0.00  0.00     0.196 C 
ATOM    123  O   ALA d   1     -15.754  20.380  35.557  0.00  0.00    -0.646 OA
ATOM    124  OXT ALA d   1     -15.087  22.341  34.813  0.00  0.00    -0.646 OA
ENDBRANCH 116 122
ENDBRANCH 114 116
ENDBRANCH 106 112
ENDBRANCH 104 106
ENDBRANCH  89 102
ENDBRANCH  87  89
ENDBRANCH  72  85
ENDBRANCH  70  72
ENDBRANCH   1  68
TORSDOF 34
