REMARK  10 active torsions:
REMARK  status: ('A' for Active; 'I' for Inactive)
REMARK    1  A    between atoms: C13_1  and  O17_2 
REMARK    2  A    between atoms: C13_1  and  C11_3 
REMARK    3  A    between atoms: C9_6  and  N14_7 
REMARK    4  A    between atoms: C7_11  and  O1_12 
REMARK    5  A    between atoms: O1_12  and  C1_13 
REMARK    6  A    between atoms: C5_15  and  C6_16 
REMARK    7  A    between atoms: C6_16  and  O6_17 
REMARK    8  A    between atoms: C4_18  and  O4_19 
REMARK    9  A    between atoms: C3_20  and  O3_21 
REMARK   10  A    between atoms: C2_22  and  O2_23 
ROOT
ATOM      1  C1  1DM d   1      51.969  18.977  36.285  0.00  0.00     0.164 C 
ATOM      2  O5  1DM d   1      50.747  18.395  35.790  0.00  0.00    -0.348 OA
ATOM      3  C5  1DM d   1      50.930  17.031  35.395  0.00  0.00     0.089 C 
ATOM      4  C4  1DM d   1      51.401  16.170  36.567  0.00  0.00     0.090 C 
ATOM      5  C3  1DM d   1      52.698  16.720  37.143  0.00  0.00     0.092 C 
ATOM      6  C2  1DM d   1      52.507  18.199  37.494  0.00  0.00     0.110 C 
ATOM      7  H7  1DM d   1      51.745  20.006  36.604  0.00  0.00     0.134 H 
ATOM      8  H8  1DM d   1      51.703  16.988  34.614  0.00  0.00     0.090 H 
ATOM      9  H12 1DM d   1      51.576  15.146  36.205  0.00  0.00     0.091 H 
ATOM     10  H14 1DM d   1      53.502  16.620  36.399  0.00  0.00     0.091 H 
ATOM     11  H16 1DM d   1      51.806  18.293  38.337  0.00  0.00     0.094 H 
ENDROOT
BRANCH   1  12
ATOM     12  O1  1DM d   1      52.996  19.029  35.280  0.00  0.00    -0.318 OA
BRANCH  12  13
ATOM     13  C7  1DM d   1      52.711  19.841  34.213  0.00  0.00     0.075 A 
ATOM     14  C12 1DM d   1      53.054  21.193  34.219  0.00  0.00    -0.042 A 
ATOM     15  C11 1DM d   1      52.757  21.997  33.118  0.00  0.00    -0.030 A 
ATOM     16  H4  1DM d   1      53.553  21.620  35.081  0.00  0.00     0.088 H 
ATOM     17  C10 1DM d   1      52.133  21.461  32.008  0.00  0.00    -0.043 A 
ATOM     18  C9  1DM d   1      51.791  20.120  31.992  0.00  0.00     0.106 A 
ATOM     19  H5  1DM d   1      51.912  22.089  31.152  0.00  0.00     0.088 H 
ATOM     20  C8  1DM d   1      52.084  19.317  33.089  0.00  0.00    -0.019 A 
ATOM     21  H6  1DM d   1      51.819  18.266  33.067  0.00  0.00     0.091 H 
BRANCH  15  22
ATOM     22  C13 1DM d   1      53.112  23.476  33.089  0.00  0.00     0.041 C 
ATOM     23  H1  1DM d   1      53.779  23.624  32.227  0.00  0.00     0.081 H 
ATOM     24  H2  1DM d   1      52.172  24.023  32.923  0.00  0.00     0.081 H 
BRANCH  22  25
ATOM     25  O17 1DM d   1      53.659  24.000  34.051  0.00  0.00    -0.396 OA
ATOM     26  H3  1DM d   1      53.808  24.920  33.867  0.00  0.00     0.209 HD
ENDBRANCH  22  25
ENDBRANCH  15  22
BRANCH  18  27
ATOM     27  N14 1DM d   1      51.168  19.630  30.915  0.00  0.00    -0.116 N 
ATOM     28  O15 1DM d   1      51.000  20.368  29.940  0.00  0.00    -0.532 OA
ATOM     29  O16 1DM d   1      50.755  18.466  30.913  0.00  0.00    -0.532 OA
ENDBRANCH  18  27
ENDBRANCH  12  13
ENDBRANCH   1  12
BRANCH   6  30
ATOM     30  O2  1DM d   1      53.763  18.734  37.844  0.00  0.00    -0.388 OA
ATOM     31  H17 1DM d   1      54.359  18.646  37.109  0.00  0.00     0.210 HD
ENDBRANCH   6  30
BRANCH   3  32
ATOM     32  C6  1DM d   1      49.608  16.544  34.800  0.00  0.00     0.043 C 
ATOM     33  H9  1DM d   1      48.816  16.602  35.561  0.00  0.00     0.078 H 
ATOM     34  H10 1DM d   1      49.716  15.503  34.461  0.00  0.00     0.078 H 
BRANCH  32  35
ATOM     35  O6  1DM d   1      49.267  17.385  33.681  0.00  0.00    -0.398 OA
ATOM     36  H11 1DM d   1      49.177  18.283  33.977  0.00  0.00     0.209 HD
ENDBRANCH  32  35
ENDBRANCH   3  32
BRANCH   5  37
ATOM     37  O3  1DM d   1      53.047  15.988  38.324  0.00  0.00    -0.390 OA
ATOM     38  H15 1DM d   1      52.353  16.076  38.967  0.00  0.00     0.210 HD
ENDBRANCH   5  37
BRANCH   4  39
ATOM     39  O4  1DM d   1      50.398  16.137  37.604  0.00  0.00    -0.390 OA
ATOM     40  H13 1DM d   1      50.706  15.599  38.324  0.00  0.00     0.210 HD
ENDBRANCH   4  39
TORSDOF 10
