REMARK  6 active torsions:
REMARK  status: ('A' for Active; 'I' for Inactive)
REMARK    1  A    between atoms: N8_1  and  C24_2 
REMARK    2  A    between atoms: N8_1  and  C7_8 
REMARK    3  A    between atoms: C2_13  and  N1_14 
REMARK    4  A    between atoms: N1_14  and  C17_15 
REMARK    5  A    between atoms: C17_15  and  C14_16 
REMARK    6  A    between atoms: C14_16  and  C13_19 
ROOT
ATOM      1  C14 FTA d   1       4.300  17.312  16.396  0.00  0.00     0.087 C 
ATOM      2  C18 FTA d   1       5.084  18.490  16.699  0.00  0.00     0.069 C 
ATOM      3  N21 FTA d   1       5.703  19.401  17.101  0.00  0.00    -0.197 NA
ATOM      4  H14 FTA d   1       3.412  17.788  16.837  0.00  0.00     0.071 H 
ENDROOT
BRANCH   1   5
ATOM      5  C17 FTA d   1       4.214  16.307  17.290  0.00  0.00     0.011 C 
ATOM      6  H12 FTA d   1       4.753  15.449  16.863  0.00  0.00     0.066 H 
ATOM      7  H13 FTA d   1       4.725  16.644  18.204  0.00  0.00     0.066 H 
BRANCH   5   8
ATOM      8  N1  FTA d   1       2.996  15.865  17.658  0.00  0.00    -0.389 N 
ATOM      9  H11 FTA d   1       2.203  16.515  17.556  0.00  0.00     0.159 HD
BRANCH   8  10
ATOM     10  C2  FTA d   1       2.721  14.570  18.176  0.00  0.00     0.028 A 
ATOM     11  C4  FTA d   1       1.691  13.776  17.678  0.00  0.00    -0.055 A 
ATOM     12  C6  FTA d   1       1.326  12.618  18.378  0.00  0.00    -0.055 A 
ATOM     13  H8  FTA d   1       1.179  14.050  16.762  0.00  0.00     0.087 H 
ATOM     14  C7  FTA d   1       1.959  12.236  19.558  0.00  0.00     0.032 A 
ATOM     15  H7  FTA d   1       0.525  12.000  17.988  0.00  0.00     0.087 H 
ATOM     16  C5  FTA d   1       2.997  13.022  20.026  0.00  0.00    -0.055 A 
ATOM     17  C3  FTA d   1       3.365  14.181  19.354  0.00  0.00    -0.055 A 
ATOM     18  H9  FTA d   1       3.528  12.731  20.925  0.00  0.00     0.087 H 
ATOM     19  H10 FTA d   1       4.166  14.795  19.750  0.00  0.00     0.087 H 
BRANCH  14  20
ATOM     20  N8  FTA d   1       1.474  11.194  20.389  0.00  0.00    -0.356 N 
ATOM     21  H1  FTA d   1       0.453  11.118  20.504  0.00  0.00     0.166 HD
BRANCH  20  22
ATOM     22  C24 FTA d   1       2.284  10.242  21.079  0.00  0.00     0.032 A 
ATOM     23  C26 FTA d   1       3.652  10.227  20.943  0.00  0.00    -0.057 A 
ATOM     24  C28 FTA d   1       4.361   9.178  21.497  0.00  0.00    -0.081 A 
ATOM     25  H2  FTA d   1       4.164  11.021  20.412  0.00  0.00     0.086 H 
ATOM     26  C30 FTA d   1       3.748   8.161  22.209  0.00  0.00    -0.083 A 
ATOM     27  H3  FTA d   1       5.437   9.150  21.369  0.00  0.00     0.083 H 
ATOM     28  C29 FTA d   1       2.390   8.185  22.384  0.00  0.00    -0.081 A 
ATOM     29  H4  FTA d   1       4.338   7.352  22.625  0.00  0.00     0.083 H 
ATOM     30  C27 FTA d   1       1.669   9.244  21.821  0.00  0.00    -0.057 A 
ATOM     31  H5  FTA d   1       1.887   7.405  22.944  0.00  0.00     0.083 H 
ATOM     32  H6  FTA d   1       0.596   9.286  21.969  0.00  0.00     0.086 H 
ENDBRANCH  20  22
ENDBRANCH  14  20
ENDBRANCH   8  10
ENDBRANCH   5   8
ENDBRANCH   1   5
BRANCH   1  33
ATOM     33  C13 FTA d   1       3.599  17.193  15.097  0.00  0.00     0.197 A 
ATOM     34  N15 FTA d   1       4.074  17.632  13.863  0.00  0.00    -0.093 NA
ATOM     35  N19 FTA d   1       3.090  17.369  12.919  0.00  0.00    -0.231 N 
ATOM     36  N20 FTA d   1       2.005  16.774  13.546  0.00  0.00    -0.017 NA
ATOM     37  H15 FTA d   1       3.155  17.582  11.913  0.00  0.00     0.200 HD
ATOM     38  N16 FTA d   1       2.323  16.654  14.895  0.00  0.00    -0.090 NA
ENDBRANCH   1  33
TORSDOF 6
