REMARK  6 active torsions:
REMARK  status: ('A' for Active; 'I' for Inactive)
REMARK    1  A    between atoms: S2_2  and  CS_1 
REMARK    2  A    between atoms: C3_3  and  S2_2 
REMARK    3  A    between atoms: C4_4  and  C3_3 
REMARK    4  A    between atoms: C6_6  and  O7_7 
REMARK    5  A    between atoms: C8_8  and  O9_9 
REMARK    6  A    between atoms: C10_10  and  C9_11 
ROOT
ATOM      1  C4  MTI d   1       8.210   2.073  92.167  0.00  0.00     0.138 C 
ATOM      2  N5  MTI d   1       7.245   3.096  91.751  0.00  0.00    -0.057 N 
ATOM      3  C6  MTI d   1       9.356   3.778  90.852  0.00  0.00     0.093 C 
ATOM      4  C8  MTI d   1       9.487   2.259  91.332  0.00  0.00     0.090 C 
ATOM      5  C10 MTI d   1       7.887   4.253  91.140  0.00  0.00     0.158 C 
ATOM      6  H6  MTI d   1       7.801   1.071  91.972  0.00  0.00     0.089 H 
ATOM      7  H7  MTI d   1       6.729   3.403  92.561  0.00  0.00     0.278 HD
ATOM      8  H8  MTI d   1       6.610   2.688  91.083  0.00  0.00     0.278 HD
ATOM      9  H9  MTI d   1      10.050   4.395  91.442  0.00  0.00     0.090 H 
ATOM     10  H11 MTI d   1      10.395   2.103  91.933  0.00  0.00     0.090 H 
ATOM     11  H13 MTI d   1       7.403   4.507  90.185  0.00  0.00     0.096 H 
ENDROOT
BRANCH   5  12
ATOM     12  C9  MTI d   1       7.712   5.468  92.115  0.00  0.00     0.022 A 
ATOM     13  C8  MTI d   1       6.484   5.982  92.523  0.00  0.00    -0.012 A 
ATOM     14  N7  MTI d   1       6.541   7.001  93.341  0.00  0.00    -0.359 N 
ATOM     15  H14 MTI d   1       5.538   5.563  92.183  0.00  0.00     0.112 H 
ATOM     16  C5  MTI d   1       7.892   7.227  93.532  0.00  0.00     0.130 A 
ATOM     17  H15 MTI d   1       5.753   7.521  93.752  0.00  0.00     0.165 HD
ATOM     18  C6  MTI d   1       8.566   8.233  94.335  0.00  0.00     0.275 A 
ATOM     19  C4  MTI d   1       8.657   6.304  92.794  0.00  0.00     0.100 A 
ATOM     20  O6  MTI d   1       8.027   9.102  95.027  0.00  0.00    -0.266 OA
ATOM     21  N1  MTI d   1       9.996   8.159  94.286  0.00  0.00    -0.316 N 
ATOM     22  C2  MTI d   1      10.716   7.209  93.533  0.00  0.00     0.067 A 
ATOM     23  H16 MTI d   1      10.517   8.824  94.820  0.00  0.00     0.170 HD
ATOM     24  N3  MTI d   1      10.074   6.251  92.765  0.00  0.00    -0.241 NA
ATOM     25  H17 MTI d   1      11.805   7.229  93.556  0.00  0.00     0.143 H 
ENDBRANCH   5  12
BRANCH   3  26
ATOM     26  O7  MTI d   1       9.704   3.935  89.430  0.00  0.00    -0.390 OA
ATOM     27  H10 MTI d   1      10.601   3.655  89.292  0.00  0.00     0.210 HD
ENDBRANCH   3  26
BRANCH   1  28
ATOM     28  C3  MTI d   1       8.442   2.227  93.669  0.00  0.00     0.005 C 
ATOM     29  H4  MTI d   1       9.121   3.077  93.832  0.00  0.00     0.052 H 
ATOM     30  H5  MTI d   1       7.475   2.433  94.152  0.00  0.00     0.052 H 
BRANCH  28  31
ATOM     31  S2  MTI d   1       9.169   0.752  94.440  0.00  0.00    -0.171 SA
BRANCH  31  32
ATOM     32  CS  MTI d   1      10.060   1.493  95.806  0.00  0.00    -0.035 C 
ATOM     33  H1  MTI d   1      10.567   0.706  96.383  0.00  0.00     0.041 H 
ATOM     34  H2  MTI d   1       9.353   2.028  96.457  0.00  0.00     0.041 H 
ATOM     35  H3  MTI d   1      10.807   2.200  95.416  0.00  0.00     0.041 H 
ENDBRANCH  31  32
ENDBRANCH  28  31
ENDBRANCH   1  28
BRANCH   4  36
ATOM     36  O9  MTI d   1       9.477   1.323  90.174  0.00  0.00    -0.391 OA
ATOM     37  H12 MTI d   1      10.207   1.523  89.600  0.00  0.00     0.210 HD
ENDBRANCH   4  36
TORSDOF 6
