REMARK  9 active torsions:
REMARK  status: ('A' for Active; 'I' for Inactive)
REMARK    1  A    between atoms: C14_14  and  O1_1 
REMARK    2  A    between atoms: O6_6  and  P5_5 
REMARK    3  A    between atoms: P9_9  and  O6_6 
REMARK    4  A    between atoms: O15_15  and  P9_9 
REMARK    5  A    between atoms: C14_14  and  C10_10 
REMARK    6  A    between atoms: C14_14  and  C11_11 
REMARK    7  A    between atoms: C13_13  and  C12_12 
REMARK    8  A    between atoms: C12_12  and  O15_15 
REMARK    9  A    between atoms: C14_14  and  C13_13 
ROOT
ATOM      1  C13 BHI d   1       8.760   7.897  14.170  0.00  0.00    -0.016 C 
ATOM      2  H9  BHI d   1       8.913   7.408  15.143  0.00  0.00     0.040 H 
ATOM      3  H10 BHI d   1       7.763   8.362  14.146  0.00  0.00     0.040 H 
ENDROOT
BRANCH   1   4
ATOM      4  C12 BHI d   1       8.875   6.856  13.041  0.00  0.00     0.034 C 
ATOM      5  H7  BHI d   1       9.381   7.318  12.180  0.00  0.00     0.075 H 
ATOM      6  H8  BHI d   1       7.864   6.538  12.745  0.00  0.00     0.075 H 
BRANCH   4   7
ATOM      7  O15 BHI d   1       9.620   5.708  13.455  0.00  0.00    -0.289 OA
BRANCH   7   8
ATOM      8  P9  BHI d   1      10.627   5.216  12.424  0.00  0.00     0.418 P 
ATOM      9  O8  BHI d   1      11.717   4.594  13.260  0.00  0.00    -0.624 OA
ATOM     10  O7  BHI d   1      11.034   6.122  11.538  0.00  0.00    -0.624 OA
BRANCH   8  11
ATOM     11  O6  BHI d   1       9.944   3.980  11.778  0.00  0.00    -0.173 OA
BRANCH  11  12
ATOM     12  P5  BHI d   1      10.689   2.652  11.600  0.00  0.00     0.431 P 
ATOM     13  O2  BHI d   1      11.856   2.865  10.967  0.00  0.00    -0.616 OA
ATOM     14  O4  BHI d   1      10.959   2.029  12.938  0.00  0.00    -0.616 OA
ATOM     15  O3  BHI d   1       9.854   1.641  10.865  0.00  0.00    -0.616 OA
ENDBRANCH  11  12
ENDBRANCH   8  11
ENDBRANCH   7   8
ENDBRANCH   4   7
ENDBRANCH   1   4
BRANCH   1  16
ATOM     16  C14 BHI d   1       9.854   8.986  13.951  0.00  0.00     0.065 C 
BRANCH  16  17
ATOM     17  O1  BHI d   1       9.357  10.209  13.029  0.00  0.00    -0.389 OA
ATOM     18  H1  BHI d   1       8.611  10.630  13.439  0.00  0.00     0.210 HD
ENDBRANCH  16  17
BRANCH  16  19
ATOM     19  C11 BHI d   1      11.089   8.268  13.338  0.00  0.00    -0.047 C 
ATOM     20  H4  BHI d   1      11.396   7.442  13.996  0.00  0.00     0.031 H 
ATOM     21  H5  BHI d   1      11.918   8.985  13.238  0.00  0.00     0.031 H 
ATOM     22  H6  BHI d   1      10.827   7.870  12.347  0.00  0.00     0.031 H 
ENDBRANCH  16  19
BRANCH  16  23
ATOM     23  C10 BHI d   1      10.335   9.430  15.361  0.00  0.00     0.014 C 
ATOM     24 BR   BHI d   1       8.729   9.374  16.274  0.00  0.00    -0.093 Br
ATOM     25  H2  BHI d   1      11.070   8.728  15.782  0.00  0.00     0.054 H 
ATOM     26  H3  BHI d   1      10.762  10.444  15.347  0.00  0.00     0.054 H 
ENDBRANCH  16  23
ENDBRANCH   1  16
TORSDOF 9
