REMARK  9 active torsions:
REMARK  status: ('A' for Active; 'I' for Inactive)
REMARK    1  A    between atoms: N4_1  and  C6_2 
REMARK    2  A    between atoms: C2_4  and  C9_14 
REMARK    3  A    between atoms: C8_7  and  N2_8 
REMARK    4  A    between atoms: C9_14  and  S1_15 
REMARK    5  A    between atoms: S1_15  and  C16_16 
REMARK    6  A    between atoms: C16_16  and  C17_17 
REMARK    7  A    between atoms: C17_17  and  N18_18 
REMARK    8  A    between atoms: N18_18  and  C20_19 
REMARK    9  A    between atoms: N18_18  and  C19_20 
ROOT
ATOM      1  C6  BHB d   1      18.225  17.602  19.176  0.00  0.00     0.027 A 
ATOM      2  C1  BHB d   1      16.912  17.202  18.791  0.00  0.00    -0.049 A 
ATOM      3  C2  BHB d   1      15.923  16.912  19.776  0.00  0.00    -0.016 A 
ATOM      4  C3  BHB d   1      16.258  17.029  21.163  0.00  0.00     0.098 A 
ATOM      5  N3  BHB d   1      15.345  16.767  22.152  0.00  0.00    -0.064 NA
ATOM      6  C8  BHB d   1      15.607  16.861  23.416  0.00  0.00     0.701 A 
ATOM      7  N1  BHB d   1      16.811  17.223  23.867  0.00  0.00    -0.154 N 
ATOM      8  C7  BHB d   1      17.830  17.518  23.053  0.00  0.00     0.272 A 
ATOM      9  O1  BHB d   1      18.931  17.849  23.476  0.00  0.00    -0.267 OA
ATOM     10  C41 BHB d   1      17.588  17.431  21.543  0.00  0.00     0.065 A 
ATOM     11  C5  BHB d   1      18.571  17.718  20.553  0.00  0.00    -0.040 A 
ATOM     12  H3  BHB d   1      16.663  17.117  17.739  0.00  0.00     0.087 H 
ATOM     13  H6  BHB d   1      16.956  17.276  24.855  0.00  0.00     0.187 HD
ATOM     14  H7  BHB d   1      19.570  18.021  20.844  0.00  0.00     0.088 H 
ENDROOT
BRANCH   3  15
ATOM     15  C9  BHB d   1      14.524  16.478  19.328  0.00  0.00     0.003 C 
ATOM     16  H8  BHB d   1      14.155  15.678  19.987  0.00  0.00     0.056 H 
ATOM     17  H9  BHB d   1      14.564  16.110  18.292  0.00  0.00     0.056 H 
BRANCH  15  18
ATOM     18  S1  BHB d   1      13.412  17.912  19.425  0.00  0.00    -0.163 SA
BRANCH  18  19
ATOM     19  C16 BHB d   1      12.682  17.694  17.776  0.00  0.00    -0.000 C 
ATOM     20  H10 BHB d   1      11.806  18.353  17.683  0.00  0.00     0.051 H 
ATOM     21  H11 BHB d   1      12.367  16.646  17.661  0.00  0.00     0.051 H 
BRANCH  19  22
ATOM     22  C17 BHB d   1      13.685  18.038  16.664  0.00  0.00     0.090 C 
ATOM     23  H12 BHB d   1      14.600  17.446  16.811  0.00  0.00     0.077 H 
ATOM     24  H13 BHB d   1      13.928  19.109  16.719  0.00  0.00     0.077 H 
BRANCH  22  25
ATOM     25  N18 BHB d   1      13.125  17.738  15.325  0.00  0.00    -0.078 N 
ATOM     26  H14 BHB d   1      12.662  16.844  15.370  0.00  0.00     0.279 HD
BRANCH  25  27
ATOM     27  C20 BHB d   1      14.211  17.656  14.327  0.00  0.00     0.066 C 
ATOM     28  H15 BHB d   1      13.784  17.433  13.338  0.00  0.00     0.068 H 
ATOM     29  H16 BHB d   1      14.912  16.857  14.612  0.00  0.00     0.068 H 
ATOM     30  H17 BHB d   1      14.746  18.616  14.287  0.00  0.00     0.068 H 
ENDBRANCH  25  27
BRANCH  25  31
ATOM     31  C19 BHB d   1      12.132  18.753  14.906  0.00  0.00     0.066 C 
ATOM     32  H18 BHB d   1      11.327  18.809  15.653  0.00  0.00     0.068 H 
ATOM     33  H19 BHB d   1      11.708  18.471  13.931  0.00  0.00     0.068 H 
ATOM     34  H20 BHB d   1      12.623  19.734  14.822  0.00  0.00     0.068 H 
ENDBRANCH  25  31
ENDBRANCH  22  25
ENDBRANCH  19  22
ENDBRANCH  18  19
ENDBRANCH  15  18
ENDBRANCH   3  15
BRANCH   1  35
ATOM     35  N4  BHB d   1      19.261  17.906  18.100  0.00  0.00    -0.399 N 
ATOM     36  H1  BHB d   1      19.010  17.822  17.105  0.00  0.00     0.156 HD
ATOM     37  H2  BHB d   1      20.212  18.196  18.368  0.00  0.00     0.156 HD
ENDBRANCH   1  35
BRANCH   6  38
ATOM     38  N2  BHB d   1      14.707  16.606  24.319  0.00  0.00    -0.233 N 
ATOM     39  H4  BHB d   1      13.759  16.322  24.035  0.00  0.00     0.174 HD
ATOM     40  H5  BHB d   1      14.942  16.688  25.318  0.00  0.00     0.174 HD
ENDBRANCH   6  38
TORSDOF 9
