REMARK  7 active torsions:
REMARK  status: ('A' for Active; 'I' for Inactive)
REMARK    1  A    between atoms: C1_1  and  O5_2 
REMARK    2  A    between atoms: O5_2  and  C6_3 
REMARK    3  A    between atoms: C6_3  and  C8_5 
REMARK    4  A    between atoms: N12_7  and  C14_8 
REMARK    5  A    between atoms: C29_13  and  O1_14 
REMARK    6  A    between atoms: O1_14  and  C2_15 
REMARK    7  A    between atoms: C2_15  and  C4_17 
ROOT
ATOM      1  C8  COC d   1      23.938  -1.888  25.224  0.00  0.00     0.083 C 
ATOM      2  C10 COC d   1      22.522  -1.351  25.638  0.00  0.00     0.118 C 
ATOM      3  N12 COC d   1      21.538  -2.410  25.355  0.00  0.00    -0.065 N 
ATOM      4  C18 COC d   1      22.076  -0.098  24.853  0.00  0.00    -0.035 C 
ATOM      5  C21 COC d   1      21.293  -0.693  23.653  0.00  0.00    -0.036 C 
ATOM      6  C24 COC d   1      21.360  -2.218  23.907  0.00  0.00     0.106 C 
ATOM      7  C26 COC d   1      22.596  -2.868  23.208  0.00  0.00    -0.013 C 
ATOM      8  C29 COC d   1      23.907  -2.218  23.697  0.00  0.00     0.064 C 
ATOM      9  H4  COC d   1      24.689  -1.102  25.392  0.00  0.00     0.062 H 
ATOM     10  H5  COC d   1      22.531  -1.117  26.713  0.00  0.00     0.086 H 
ATOM     11  H6  COC d   1      21.921  -3.321  25.554  0.00  0.00     0.280 HD
ATOM     12  H10 COC d   1      22.945   0.482  24.509  0.00  0.00     0.036 H 
ATOM     13  H11 COC d   1      21.428   0.543  25.468  0.00  0.00     0.036 H 
ATOM     14  H12 COC d   1      21.774  -0.431  22.699  0.00  0.00     0.036 H 
ATOM     15  H13 COC d   1      20.251  -0.340  23.648  0.00  0.00     0.036 H 
ATOM     16  H14 COC d   1      20.434  -2.698  23.557  0.00  0.00     0.084 H 
ATOM     17  H15 COC d   1      22.509  -2.730  22.120  0.00  0.00     0.040 H 
ATOM     18  H16 COC d   1      22.618  -3.943  23.441  0.00  0.00     0.040 H 
ATOM     19  H17 COC d   1      24.012  -1.265  23.158  0.00  0.00     0.085 H 
ENDROOT
BRANCH   8  20
ATOM     20  O1  COC d   1      25.057  -3.060  23.351  0.00  0.00    -0.311 OA
BRANCH  20  21
ATOM     21  C2  COC d   1      26.279  -2.485  23.234  0.00  0.00     0.293 C 
ATOM     22  O3  COC d   1      26.494  -1.316  23.450  0.00  0.00    -0.259 OA
BRANCH  21  23
ATOM     23  C4  COC d   1      27.334  -3.475  22.792  0.00  0.00     0.039 A 
ATOM     24  C5  COC d   1      28.694  -3.100  22.902  0.00  0.00    -0.067 A 
ATOM     25  C7  COC d   1      29.699  -4.010  22.488  0.00  0.00    -0.082 A 
ATOM     26  H18 COC d   1      28.964  -2.128  23.298  0.00  0.00     0.085 H 
ATOM     27  C9  COC d   1      29.365  -5.245  21.985  0.00  0.00    -0.083 A 
ATOM     28  H19 COC d   1      30.743  -3.729  22.569  0.00  0.00     0.083 H 
ATOM     29  C11 COC d   1      28.032  -5.615  21.877  0.00  0.00    -0.082 A 
ATOM     30  H20 COC d   1      30.144  -5.931  21.672  0.00  0.00     0.083 H 
ATOM     31  C13 COC d   1      27.010  -4.728  22.283  0.00  0.00    -0.067 A 
ATOM     32  H21 COC d   1      27.773  -6.590  21.479  0.00  0.00     0.083 H 
ATOM     33  H22 COC d   1      25.971  -5.025  22.198  0.00  0.00     0.085 H 
ENDBRANCH  21  23
ENDBRANCH  20  21
ENDBRANCH   8  20
BRANCH   1  34
ATOM     34  C6  COC d   1      24.290  -3.086  26.116  0.00  0.00     0.267 C 
ATOM     35  O7  COC d   1      23.611  -4.037  26.370  0.00  0.00    -0.265 OA
BRANCH  34  36
ATOM     36  O5  COC d   1      25.539  -2.911  26.592  0.00  0.00    -0.326 OA
BRANCH  36  37
ATOM     37  C1  COC d   1      26.381  -4.080  26.743  0.00  0.00     0.013 C 
ATOM     38  H1  COC d   1      27.362  -3.777  27.139  0.00  0.00     0.067 H 
ATOM     39  H2  COC d   1      26.514  -4.565  25.765  0.00  0.00     0.067 H 
ATOM     40  H3  COC d   1      25.907  -4.786  27.441  0.00  0.00     0.067 H 
ENDBRANCH  36  37
ENDBRANCH  34  36
ENDBRANCH   1  34
BRANCH   3  41
ATOM     41  C14 COC d   1      20.277  -2.252  26.122  0.00  0.00     0.067 C 
ATOM     42  H7  COC d   1      19.588  -3.070  25.867  0.00  0.00     0.068 H 
ATOM     43  H8  COC d   1      19.812  -1.288  25.868  0.00  0.00     0.068 H 
ATOM     44  H9  COC d   1      20.497  -2.281  27.199  0.00  0.00     0.068 H 
ENDBRANCH   3  41
TORSDOF 7
