REMARK  7 active torsions:
REMARK  status: ('A' for Active; 'I' for Inactive)
REMARK    1  A    between atoms: N2_17  and  C12_3 
REMARK    2  A    between atoms: C9_8  and  O9_24 
REMARK    3  A    between atoms: N1_21  and  C6_11 
REMARK    4  A    between atoms: C20_14  and  C21_13 
REMARK    5  A    between atoms: C19_15  and  C20_14 
REMARK    6  A    between atoms: C18_16  and  C19_15 
REMARK    7  A    between atoms: C4_19  and  C18_16 
ROOT
ATOM      1  N2  OPB d   1       8.734  23.454  -6.632  0.00  0.00    -0.214 N 
ATOM      2  C3  OPB d   1       8.414  23.439  -5.289  0.00  0.00     0.257 A 
ATOM      3  C4  OPB d   1       6.890  23.240  -5.082  0.00  0.00     0.105 A 
ATOM      4  C5  OPB d   1       6.444  23.160  -6.495  0.00  0.00     0.257 A 
ATOM      5  N1  OPB d   1       7.496  23.274  -7.363  0.00  0.00    -0.214 N 
ATOM      6  O3  OPB d   1       9.206  23.566  -4.311  0.00  0.00    -0.270 OA
ATOM      7  O5  OPB d   1       5.242  23.007  -6.788  0.00  0.00    -0.270 OA
ATOM      8  H19 OPB d   1       6.399  24.062  -4.541  0.00  0.00     0.069 H 
ENDROOT
BRANCH   3   9
ATOM      9  C18 OPB d   1       6.777  21.911  -4.298  0.00  0.00    -0.045 C 
ATOM     10  H17 OPB d   1       7.309  21.177  -4.921  0.00  0.00     0.035 H 
ATOM     11  H18 OPB d   1       7.345  22.087  -3.373  0.00  0.00     0.035 H 
BRANCH   9  12
ATOM     12  C19 OPB d   1       5.500  21.176  -3.836  0.00  0.00    -0.064 C 
ATOM     13  H15 OPB d   1       5.298  21.338  -2.767  0.00  0.00     0.033 H 
ATOM     14  H16 OPB d   1       4.620  21.475  -4.425  0.00  0.00     0.033 H 
BRANCH  12  15
ATOM     15  C20 OPB d   1       5.921  19.711  -4.129  0.00  0.00    -0.069 C 
ATOM     16  H13 OPB d   1       6.160  19.651  -5.201  0.00  0.00     0.032 H 
ATOM     17  H14 OPB d   1       6.827  19.510  -3.539  0.00  0.00     0.032 H 
BRANCH  15  18
ATOM     18  C21 OPB d   1       4.954  18.619  -3.833  0.00  0.00    -0.077 C 
ATOM     19  H10 OPB d   1       5.404  17.650  -4.096  0.00  0.00     0.027 H 
ATOM     20  H11 OPB d   1       4.038  18.770  -4.423  0.00  0.00     0.027 H 
ATOM     21  H12 OPB d   1       4.706  18.630  -2.761  0.00  0.00     0.027 H 
ENDBRANCH  15  18
ENDBRANCH  12  15
ENDBRANCH   9  12
ENDBRANCH   3   9
BRANCH   1  22
ATOM     22  C12 OPB d   1      10.159  23.615  -7.215  0.00  0.00     0.060 A 
ATOM     23  C17 OPB d   1      10.717  22.625  -8.140  0.00  0.00    -0.055 A 
ATOM     24  C16 OPB d   1      12.029  22.776  -8.701  0.00  0.00    -0.081 A 
ATOM     25  H2  OPB d   1      10.124  21.758  -8.407  0.00  0.00     0.087 H 
ATOM     26  C15 OPB d   1      12.828  23.892  -8.377  0.00  0.00    -0.083 A 
ATOM     27  H1  OPB d   1      12.410  22.024  -9.382  0.00  0.00     0.083 H 
ATOM     28  C14 OPB d   1      12.333  24.885  -7.469  0.00  0.00    -0.081 A 
ATOM     29  H5  OPB d   1      13.814  23.999  -8.814  0.00  0.00     0.083 H 
ATOM     30  C13 OPB d   1      11.012  24.756  -6.890  0.00  0.00    -0.055 A 
ATOM     31  H4  OPB d   1      12.952  25.738  -7.214  0.00  0.00     0.083 H 
ATOM     32  H3  OPB d   1      10.651  25.516  -6.206  0.00  0.00     0.087 H 
ENDBRANCH   1  22
BRANCH   5  33
ATOM     33  C6  OPB d   1       7.362  23.174  -8.864  0.00  0.00     0.060 A 
ATOM     34  C11 OPB d   1       7.481  24.287  -9.831  0.00  0.00    -0.052 A 
ATOM     35  C10 OPB d   1       7.328  24.003 -11.265  0.00  0.00    -0.049 A 
ATOM     36  H8  OPB d   1       7.678  25.296  -9.488  0.00  0.00     0.087 H 
ATOM     37  C9  OPB d   1       7.067  22.647 -11.706  0.00  0.00     0.065 A 
ATOM     38  H7  OPB d   1       7.410  24.805 -11.990  0.00  0.00     0.087 H 
ATOM     39  C8  OPB d   1       6.958  21.609 -10.771  0.00  0.00    -0.049 A 
ATOM     40  C7  OPB d   1       7.104  21.869  -9.385  0.00  0.00    -0.052 A 
ATOM     41  H6  OPB d   1       6.760  20.599 -11.110  0.00  0.00     0.087 H 
ATOM     42  H9  OPB d   1       7.016  21.041  -8.690  0.00  0.00     0.087 H 
BRANCH  37  43
ATOM     43  O9  OPB d   1       6.926  22.354 -13.026  0.00  0.00    -0.361 OA
ATOM     44  H20 OPB d   1       6.761  21.424 -13.127  0.00  0.00     0.217 HD
ENDBRANCH  37  43
ENDBRANCH   5  33
TORSDOF 7
