REMARK  14 active torsions:
REMARK  status: ('A' for Active; 'I' for Inactive)
REMARK    1  A    between atoms: N3_1  and  C19_2 
REMARK    2  A    between atoms: C7_8  and  C8_9 
REMARK    3  A    between atoms: C1_18  and  N1_19 
REMARK    4  A    between atoms: N2_22  and  C20_23 
REMARK    5  A    between atoms: C20_23  and  C21_24 
REMARK    6  A    between atoms: C21_24  and  C22_25 
REMARK    7  A    between atoms: C22_25  and  C23_26 
REMARK    8  A    between atoms: C23_26  and  C24_27 
REMARK    9  A    between atoms: C24_27  and  C25_28 
REMARK   10  A    between atoms: C25_28  and  C26_29 
REMARK   11  A    between atoms: N6_32  and  C28_34 
REMARK   12  A    between atoms: C28_34  and  C29_35 
REMARK   13  A    between atoms: C29_35  and  N7_36 
REMARK   14  A    between atoms: N7_36  and  C30_37 
ROOT
ATOM      1  C23 TZ4 d   1      33.774  21.061   7.067  0.00  0.00    -0.065 C 
ATOM      2  H22 TZ4 d   1      34.526  20.258   7.059  0.00  0.00     0.033 H 
ATOM      3  H23 TZ4 d   1      32.902  20.753   6.471  0.00  0.00     0.033 H 
ENDROOT
BRANCH   1   4
ATOM      4  C22 TZ4 d   1      34.372  22.333   6.488  0.00  0.00    -0.064 C 
ATOM      5  H20 TZ4 d   1      34.456  22.217   5.397  0.00  0.00     0.033 H 
ATOM      6  H21 TZ4 d   1      33.699  23.173   6.716  0.00  0.00     0.033 H 
BRANCH   4   7
ATOM      7  C21 TZ4 d   1      35.767  22.651   7.058  0.00  0.00    -0.050 C 
ATOM      8  H18 TZ4 d   1      35.717  22.769   8.150  0.00  0.00     0.035 H 
ATOM      9  H19 TZ4 d   1      36.475  21.848   6.808  0.00  0.00     0.035 H 
BRANCH   7  10
ATOM     10  C20 TZ4 d   1      36.196  23.967   6.397  0.00  0.00     0.000 C 
ATOM     11  H16 TZ4 d   1      35.975  23.860   5.325  0.00  0.00     0.064 H 
ATOM     12  H17 TZ4 d   1      35.556  24.751   6.827  0.00  0.00     0.064 H 
BRANCH  10  13
ATOM     13  N2  TZ4 d   1      37.600  24.475   6.488  0.00  0.00    -0.345 N 
ATOM     14  C7  TZ4 d   1      37.886  25.302   7.530  0.00  0.00     0.056 A 
ATOM     15  C14 TZ4 d   1      39.197  25.828   7.658  0.00  0.00     0.005 A 
ATOM     16  C16 TZ4 d   1      40.185  25.507   6.657  0.00  0.00    -0.011 A 
ATOM     17  C15 TZ4 d   1      39.522  26.770   8.712  0.00  0.00    -0.045 A 
ATOM     18  C17 TZ4 d   1      41.436  26.196   6.824  0.00  0.00    -0.069 A 
ATOM     19  C4  TZ4 d   1      39.835  24.626   5.549  0.00  0.00     0.002 A 
ATOM     20  C18 TZ4 d   1      41.709  27.088   7.854  0.00  0.00    -0.057 A 
ATOM     21  H4  TZ4 d   1      42.218  26.007   6.098  0.00  0.00     0.085 H 
ATOM     22  C19 TZ4 d   1      40.745  27.415   8.853  0.00  0.00     0.026 A 
ATOM     23  H3  TZ4 d   1      42.688  27.551   7.900  0.00  0.00     0.086 H 
ATOM     24  C3  TZ4 d   1      40.777  24.055   4.606  0.00  0.00    -0.068 A 
ATOM     25  C6  TZ4 d   1      38.493  24.094   5.467  0.00  0.00     0.048 A 
ATOM     26  C2  TZ4 d   1      40.456  23.074   3.675  0.00  0.00    -0.057 A 
ATOM     27  H11 TZ4 d   1      41.799  24.417   4.629  0.00  0.00     0.085 H 
ATOM     28  C1  TZ4 d   1      39.132  22.534   3.594  0.00  0.00     0.027 A 
ATOM     29  H12 TZ4 d   1      41.221  22.711   2.998  0.00  0.00     0.086 H 
ATOM     30  C5  TZ4 d   1      38.216  23.062   4.509  0.00  0.00    -0.031 A 
ATOM     31  H15 TZ4 d   1      37.211  22.657   4.493  0.00  0.00     0.090 H 
ATOM     32  H5  TZ4 d   1      38.753  26.987   9.445  0.00  0.00     0.088 H 
BRANCH  14  33
ATOM     33  C8  TZ4 d   1      36.863  25.583   8.590  0.00  0.00    -0.008 A 
ATOM     34  C9  TZ4 d   1      36.678  24.548   9.519  0.00  0.00    -0.071 A 
ATOM     35  C10 TZ4 d   1      35.753  24.677  10.552  0.00  0.00    -0.082 A 
ATOM     36  H6  TZ4 d   1      37.261  23.638   9.432  0.00  0.00     0.084 H 
ATOM     37  C11 TZ4 d   1      34.989  25.847  10.699  0.00  0.00    -0.083 A 
ATOM     38  H7  TZ4 d   1      35.620  23.862  11.254  0.00  0.00     0.083 H 
ATOM     39  C12 TZ4 d   1      35.159  26.894   9.790  0.00  0.00    -0.082 A 
ATOM     40  H8  TZ4 d   1      34.275  25.936  11.510  0.00  0.00     0.083 H 
ATOM     41  C13 TZ4 d   1      36.091  26.756   8.751  0.00  0.00    -0.071 A 
ATOM     42  H9  TZ4 d   1      34.577  27.803   9.887  0.00  0.00     0.083 H 
ATOM     43  H10 TZ4 d   1      36.223  27.573   8.051  0.00  0.00     0.084 H 
ENDBRANCH  14  33
BRANCH  22  44
ATOM     44  N3  TZ4 d   1      41.010  28.300   9.879  0.00  0.00    -0.399 N 
ATOM     45  H1  TZ4 d   1      41.932  28.754   9.942  0.00  0.00     0.156 HD
ATOM     46  H2  TZ4 d   1      40.285  28.506  10.581  0.00  0.00     0.156 HD
ENDBRANCH  22  44
BRANCH  28  47
ATOM     47  N1  TZ4 d   1      38.767  21.550   2.694  0.00  0.00    -0.399 N 
ATOM     48  H13 TZ4 d   1      37.799  21.198   2.680  0.00  0.00     0.156 HD
ATOM     49  H14 TZ4 d   1      39.463  21.169   2.038  0.00  0.00     0.156 HD
ENDBRANCH  28  47
ENDBRANCH  10  13
ENDBRANCH   7  10
ENDBRANCH   4   7
ENDBRANCH   1   4
BRANCH   1  50
ATOM     50  C24 TZ4 d   1      33.345  21.352   8.496  0.00  0.00    -0.060 C 
ATOM     51  H24 TZ4 d   1      34.047  22.070   8.945  0.00  0.00     0.033 H 
ATOM     52  H25 TZ4 d   1      33.357  20.417   9.075  0.00  0.00     0.033 H 
BRANCH  50  53
ATOM     53  C25 TZ4 d   1      31.935  21.942   8.524  0.00  0.00    -0.022 C 
ATOM     54  H26 TZ4 d   1      31.235  21.326   7.940  0.00  0.00     0.042 H 
ATOM     55  H27 TZ4 d   1      31.928  22.972   8.137  0.00  0.00     0.042 H 
BRANCH  53  56
ATOM     56  C26 TZ4 d   1      31.602  21.911   9.950  0.00  0.00     0.069 A 
ATOM     57  N4  TZ4 d   1      31.313  20.786  10.582  0.00  0.00    -0.163 NA
ATOM     58  N5  TZ4 d   1      31.112  21.129  11.852  0.00  0.00     0.004 NA
ATOM     59  N6  TZ4 d   1      31.274  22.431  12.006  0.00  0.00    -0.282 N 
ATOM     60  C27 TZ4 d   1      31.601  22.933  10.822  0.00  0.00     0.020 A 
ATOM     61  H28 TZ4 d   1      31.826  23.975  10.600  0.00  0.00     0.116 H 
BRANCH  59  62
ATOM     62  C28 TZ4 d   1      31.169  23.293  13.172  0.00  0.00     0.028 C 
ATOM     63  H29 TZ4 d   1      30.514  24.149  12.952  0.00  0.00     0.069 H 
ATOM     64  H30 TZ4 d   1      32.165  23.659  13.463  0.00  0.00     0.069 H 
BRANCH  62  65
ATOM     65  C29 TZ4 d   1      30.572  22.452  14.294  0.00  0.00     0.009 C 
ATOM     66  H31 TZ4 d   1      31.076  22.677  15.245  0.00  0.00     0.066 H 
ATOM     67  H32 TZ4 d   1      30.683  21.382  14.065  0.00  0.00     0.066 H 
BRANCH  65  68
ATOM     68  N7  TZ4 d   1      29.173  22.800  14.378  0.00  0.00    -0.387 N 
ATOM     69  H33 TZ4 d   1      28.963  23.762  14.681  0.00  0.00     0.159 HD
BRANCH  68  70
ATOM     70  C30 TZ4 d   1      28.100  22.012  14.105  0.00  0.00     0.049 A 
ATOM     71  C31 TZ4 d   1      27.103  22.715  13.346  0.00  0.00     0.020 A 
ATOM     72  C32 TZ4 d   1      27.245  24.046  12.798  0.00  0.00    -0.069 A 
ATOM     73  C33 TZ4 d   1      25.888  22.044  13.061  0.00  0.00     0.069 A 
ATOM     74  C36 TZ4 d   1      26.254  24.672  12.120  0.00  0.00    -0.082 A 
ATOM     75  H34 TZ4 d   1      28.186  24.565  12.936  0.00  0.00     0.085 H 
ATOM     76  C35 TZ4 d   1      25.040  24.011  11.877  0.00  0.00    -0.081 A 
ATOM     77  H37 TZ4 d   1      26.399  25.686  11.764  0.00  0.00     0.083 H 
ATOM     78  C34 TZ4 d   1      24.870  22.757  12.357  0.00  0.00    -0.054 A 
ATOM     79  H36 TZ4 d   1      24.251  24.497  11.314  0.00  0.00     0.083 H 
ATOM     80  H35 TZ4 d   1      23.915  22.270  12.200  0.00  0.00     0.087 H 
ATOM     81  N8  TZ4 d   1      25.684  20.752  13.411  0.00  0.00    -0.252 NA
ATOM     82  C37 TZ4 d   1      26.611  20.082  14.112  0.00  0.00     0.043 A 
ATOM     83  C38 TZ4 d   1      26.290  18.746  14.580  0.00  0.00    -0.024 C 
ATOM     84  C39 TZ4 d   1      27.851  20.696  14.523  0.00  0.00    -0.006 A 
ATOM     85  C42 TZ4 d   1      27.288  17.933  15.068  0.00  0.00    -0.060 C 
ATOM     86  H38 TZ4 d   1      25.831  18.214  13.734  0.00  0.00     0.042 H 
ATOM     87  H39 TZ4 d   1      25.550  18.860  15.386  0.00  0.00     0.042 H 
ATOM     88  C41 TZ4 d   1      28.218  18.667  15.857  0.00  0.00    -0.061 C 
ATOM     89  H44 TZ4 d   1      27.821  17.474  14.222  0.00  0.00     0.033 H 
ATOM     90  H45 TZ4 d   1      26.836  17.145  15.688  0.00  0.00     0.033 H 
ATOM     91  C40 TZ4 d   1      28.625  19.909  15.446  0.00  0.00    -0.037 C 
ATOM     92  H42 TZ4 d   1      27.764  18.793  16.851  0.00  0.00     0.033 H 
ATOM     93  H43 TZ4 d   1      29.123  18.047  15.943  0.00  0.00     0.033 H 
ATOM     94  H40 TZ4 d   1      28.729  20.516  16.357  0.00  0.00     0.040 H 
ATOM     95  H41 TZ4 d   1      29.613  19.772  14.982  0.00  0.00     0.040 H 
ENDBRANCH  68  70
ENDBRANCH  65  68
ENDBRANCH  62  65
ENDBRANCH  59  62
ENDBRANCH  53  56
ENDBRANCH  50  53
ENDBRANCH   1  50
TORSDOF 14
