REMARK  2 active torsions:
REMARK  status: ('A' for Active; 'I' for Inactive)
REMARK    1  A    between atoms: S1_2  and  N4_4 
REMARK    2  A    between atoms: S1_2  and  C5_11 
ROOT
ATOM      1  N4  M77 d   1      27.908  24.603   9.249  0.00  0.00    -0.305 N 
ATOM      2  C22 M77 d   1      27.413  24.284  10.635  0.00  0.00     0.028 C 
ATOM      3  C21 M77 d   1      28.479  24.017  11.723  0.00  0.00     0.097 C 
ATOM      4  N17 M77 d   1      29.722  24.850  11.475  0.00  0.00    -0.074 N 
ATOM      5  C16 M77 d   1      30.646  24.175  10.464  0.00  0.00     0.083 C 
ATOM      6  C20 M77 d   1      30.329  24.574   9.012  0.00  0.00    -0.027 C 
ATOM      7  C15 M77 d   1      29.021  23.890   8.577  0.00  0.00     0.007 C 
ATOM      8  H1  M77 d   1      26.782  23.386  10.562  0.00  0.00     0.067 H 
ATOM      9  H2  M77 d   1      26.802  25.134  10.972  0.00  0.00     0.067 H 
ATOM     10  H3  M77 d   1      28.750  22.951  11.708  0.00  0.00     0.078 H 
ATOM     11  H4  M77 d   1      28.062  24.276  12.707  0.00  0.00     0.078 H 
ATOM     12  H5  M77 d   1      30.217  24.969  12.345  0.00  0.00     0.277 HD
ATOM     13  H6  M77 d   1      29.448  25.752  11.119  0.00  0.00     0.277 HD
ATOM     14  H7  M77 d   1      30.538  23.085  10.561  0.00  0.00     0.075 H 
ATOM     15  H8  M77 d   1      31.684  24.462  10.689  0.00  0.00     0.075 H 
ATOM     16  H9  M77 d   1      31.150  24.252   8.354  0.00  0.00     0.037 H 
ATOM     17  H10 M77 d   1      30.213  25.666   8.947  0.00  0.00     0.037 H 
ATOM     18  H11 M77 d   1      28.906  23.956   7.485  0.00  0.00     0.065 H 
ATOM     19  H12 M77 d   1      29.029  22.833   8.881  0.00  0.00     0.065 H 
ENDROOT
BRANCH   1  20
ATOM     20  S1  M77 d   1      27.186  25.792   8.408  0.00  0.00     0.261 S 
ATOM     21  O1  M77 d   1      26.994  26.954   9.283  0.00  0.00    -0.200 OA
ATOM     22  O2  M77 d   1      27.986  26.050   7.228  0.00  0.00    -0.200 OA
BRANCH  20  23
ATOM     23  C5  M77 d   1      25.724  24.881   7.965  0.00  0.00     0.090 A 
ATOM     24  C6  M77 d   1      25.780  23.494   7.852  0.00  0.00    -0.059 A 
ATOM     25  C7  M77 d   1      24.613  22.733   7.517  0.00  0.00    -0.081 A 
ATOM     26  H13 M77 d   1      26.721  22.982   8.020  0.00  0.00     0.085 H 
ATOM     27  C8  M77 d   1      23.399  23.361   7.321  0.00  0.00    -0.071 A 
ATOM     28  H14 M77 d   1      24.684  21.656   7.417  0.00  0.00     0.083 H 
ATOM     29  C9  M77 d   1      23.333  24.772   7.413  0.00  0.00    -0.007 A 
ATOM     30  H15 M77 d   1      22.510  22.782   7.100  0.00  0.00     0.084 H 
ATOM     31  C10 M77 d   1      24.482  25.539   7.734  0.00  0.00     0.000 A 
ATOM     32  C14 M77 d   1      22.128  25.450   7.171  0.00  0.00     0.013 A 
ATOM     33  C11 M77 d   1      24.312  26.951   7.804  0.00  0.00    -0.054 A 
ATOM     34  C12 M77 d   1      23.092  27.528   7.580  0.00  0.00     0.003 A 
ATOM     35  H16 M77 d   1      25.164  27.579   8.039  0.00  0.00     0.087 H 
ATOM     36  N13 M77 d   1      21.999  26.768   7.287  0.00  0.00    -0.272 NA
ATOM     37  H18 M77 d   1      22.993  28.606   7.636  0.00  0.00     0.114 H 
ATOM     38  H17 M77 d   1      21.261  24.871   6.875  0.00  0.00     0.116 H 
ENDBRANCH  20  23
ENDBRANCH   1  20
TORSDOF 2
