REMARK  4 active torsions:
REMARK  status: ('A' for Active; 'I' for Inactive)
REMARK    1  A    between atoms: C23_23  and  C7_3 
REMARK    2  A    between atoms: C16_16  and  N1_8 
REMARK    3  A    between atoms: C5_10  and  C5M_15 
REMARK    4  A    between atoms: C23_23  and  P_25 
ROOT
ATOM      1  C16 DPB d   1       9.327  40.527  25.525  0.00  0.00     0.116 C 
ATOM      2  O17 DPB d   1       9.436  39.711  24.384  0.00  0.00    -0.356 OA
ATOM      3  C18 DPB d   1      10.040  41.864  23.715  0.00  0.00     0.074 C 
ATOM      4  C19 DPB d   1       9.487  40.653  23.352  0.00  0.00     0.087 C 
ATOM      5  C20 DPB d   1       9.722  41.876  25.109  0.00  0.00     0.003 C 
ATOM      6  C21 DPB d   1      10.239  40.182  22.192  0.00  0.00     0.050 C 
ATOM      7  O22 DPB d   1      11.459  41.879  23.672  0.00  0.00    -0.332 OA
ATOM      8  C23 DPB d   1      12.249  41.380  22.567  0.00  0.00     0.312 C 
ATOM      9  O24 DPB d   1      11.704  40.140  22.103  0.00  0.00    -0.338 OA
ATOM     10  H11 DPB d   1       8.272  40.587  25.831  0.00  0.00     0.118 H 
ATOM     11  H12 DPB d   1       9.613  42.704  23.148  0.00  0.00     0.087 H 
ATOM     12  H13 DPB d   1       8.449  40.835  23.038  0.00  0.00     0.090 H 
ATOM     13  H14 DPB d   1      10.603  42.195  25.685  0.00  0.00     0.043 H 
ATOM     14  H15 DPB d   1       8.892  42.575  25.291  0.00  0.00     0.043 H 
ATOM     15  H16 DPB d   1       9.911  40.813  21.353  0.00  0.00     0.078 H 
ATOM     16  H17 DPB d   1       9.905  39.148  22.025  0.00  0.00     0.078 H 
ENDROOT
BRANCH   1  17
ATOM     17  N1  DPB d   1      10.039  39.849  26.612  0.00  0.00    -0.282 N 
ATOM     18  C2  DPB d   1       9.435  38.672  27.097  0.00  0.00     0.331 A 
ATOM     19  N3  DPB d   1      10.060  38.007  28.123  0.00  0.00    -0.275 N 
ATOM     20  O2  DPB d   1       8.387  38.175  26.686  0.00  0.00    -0.246 OA
ATOM     21  C4  DPB d   1      11.187  38.447  28.650  0.00  0.00     0.256 A 
ATOM     22  H7  DPB d   1       9.650  37.167  28.480  0.00  0.00     0.173 HD
ATOM     23  C5  DPB d   1      11.855  39.675  28.169  0.00  0.00     0.022 A 
ATOM     24  O4  DPB d   1      11.722  37.799  29.599  0.00  0.00    -0.267 OA
ATOM     25  C6  DPB d   1      11.286  40.419  27.120  0.00  0.00    -0.002 A 
ATOM     26  H6  DPB d   1      11.731  41.331  26.724  0.00  0.00     0.113 H 
BRANCH  23  27
ATOM     27  C5M DPB d   1      13.249  40.244  28.801  0.00  0.00    -0.045 C 
ATOM     28  H8  DPB d   1      13.541  41.165  28.275  0.00  0.00     0.033 H 
ATOM     29  H9  DPB d   1      14.040  39.489  28.684  0.00  0.00     0.033 H 
ATOM     30  H10 DPB d   1      13.105  40.462  29.870  0.00  0.00     0.033 H 
ENDBRANCH  23  27
ENDBRANCH   1  17
BRANCH   8  31
ATOM     31  C7  DPB d   1      13.748  41.056  22.786  0.00  0.00     0.018 A 
ATOM     32  C12 DPB d   1      14.438  41.945  23.754  0.00  0.00    -0.071 A 
ATOM     33  C11 DPB d   1      15.774  41.699  23.979  0.00  0.00    -0.082 A 
ATOM     34  H2  DPB d   1      13.915  42.749  24.259  0.00  0.00     0.084 H 
ATOM     35  C10 DPB d   1      16.582  40.582  23.304  0.00  0.00    -0.083 A 
ATOM     36  H1  DPB d   1      16.292  42.340  24.683  0.00  0.00     0.083 H 
ATOM     37  C9  DPB d   1      15.815  39.764  22.369  0.00  0.00    -0.082 A 
ATOM     38  H5  DPB d   1      17.634  40.414  23.505  0.00  0.00     0.083 H 
ATOM     39  C8  DPB d   1      14.438  39.948  22.079  0.00  0.00    -0.071 A 
ATOM     40  H4  DPB d   1      16.334  38.959  21.860  0.00  0.00     0.083 H 
ATOM     41  H3  DPB d   1      13.915  39.310  21.375  0.00  0.00     0.084 H 
ENDBRANCH   8  31
BRANCH   8  42
ATOM     42  P   DPB d   1      12.119  42.673  21.155  0.00  0.00     0.330 P 
ATOM     43  O2P DPB d   1      12.714  41.774  19.989  0.00  0.00    -0.636 OA
ATOM     44  O1P DPB d   1      13.071  43.759  21.445  0.00  0.00    -0.636 OA
ATOM     45  O3P DPB d   1      10.686  43.056  20.829  0.00  0.00    -0.636 OA
ENDBRANCH   8  42
TORSDOF 4
