REMARK  10 active torsions:
REMARK  status: ('A' for Active; 'I' for Inactive)
REMARK    1  A    between atoms: CA_2  and  N_1 
REMARK    2  A    between atoms: CA_2  and  C_6 
REMARK    3  A    between atoms: CA_2  and  CB_3 
REMARK    4  A    between atoms: CB_3  and  CG_4 
REMARK    5  A    between atoms: CG_4  and  SD_5 
REMARK    6  A    between atoms: SD_5  and  C5'_9 
REMARK    7  A    between atoms: C5'_9  and  C4'_10 
REMARK    8  A    between atoms: C3'_12  and  O3'_13 
REMARK    9  A    between atoms: C2'_14  and  O2'_15 
REMARK   10  A    between atoms: C1'_16  and  N9_17 
ROOT
ATOM      1  C4' SAH d   1      17.190  36.174  24.052  0.00  0.00     0.076 C 
ATOM      2  O4' SAH d   1      17.497  35.382  25.213  0.00  0.00    -0.355 OA
ATOM      3  C3' SAH d   1      18.046  37.453  24.175  0.00  0.00     0.090 C 
ATOM      4  C2' SAH d   1      19.233  36.956  24.968  0.00  0.00     0.105 C 
ATOM      5  C1' SAH d   1      18.540  36.004  25.974  0.00  0.00     0.139 C 
ATOM      6  H11 SAH d   1      16.135  36.481  24.113  0.00  0.00     0.088 H 
ATOM      7  H12 SAH d   1      18.395  37.750  23.175  0.00  0.00     0.091 H 
ATOM      8  H14 SAH d   1      19.964  36.441  24.328  0.00  0.00     0.093 H 
ATOM      9  H16 SAH d   1      18.128  36.585  26.812  0.00  0.00     0.122 H 
ENDROOT
BRANCH   1  10
ATOM     10  C5' SAH d   1      17.325  35.359  22.744  0.00  0.00     0.003 C 
ATOM     11  H9  SAH d   1      18.396  35.253  22.519  0.00  0.00     0.052 H 
ATOM     12  H10 SAH d   1      16.886  34.365  22.916  0.00  0.00     0.052 H 
BRANCH  10  13
ATOM     13  SD  SAH d   1      16.506  36.093  21.272  0.00  0.00    -0.166 SA
BRANCH  13  14
ATOM     14  CG  SAH d   1      14.766  36.333  21.817  0.00  0.00    -0.021 C 
ATOM     15  H7  SAH d   1      14.104  35.753  21.157  0.00  0.00     0.049 H 
ATOM     16  H8  SAH d   1      14.665  35.968  22.850  0.00  0.00     0.049 H 
BRANCH  14  17
ATOM     17  CB  SAH d   1      14.341  37.817  21.769  0.00  0.00    -0.021 C 
ATOM     18  H5  SAH d   1      15.023  38.370  22.431  0.00  0.00     0.037 H 
ATOM     19  H6  SAH d   1      14.478  38.159  20.733  0.00  0.00     0.037 H 
BRANCH  17  20
ATOM     20  CA  SAH d   1      12.900  38.191  22.185  0.00  0.00     0.183 C 
ATOM     21  H4  SAH d   1      12.964  38.880  23.040  0.00  0.00     0.101 H 
BRANCH  20  22
ATOM     22  N   SAH d   1      12.074  37.081  22.625  0.00  0.00    -0.065 N 
ATOM     23  H1  SAH d   1      12.514  36.625  23.409  0.00  0.00     0.275 HD
ATOM     24  H2  SAH d   1      11.967  36.422  21.870  0.00  0.00     0.275 HD
ATOM     25  H3  SAH d   1      11.168  37.425  22.901  0.00  0.00     0.275 HD
ENDBRANCH  20  22
BRANCH  20  26
ATOM     26  C   SAH d   1      12.330  38.974  20.981  0.00  0.00     0.204 C 
ATOM     27  OXT SAH d   1      12.182  40.236  21.114  0.00  0.00    -0.646 OA
ATOM     28  O   SAH d   1      12.059  38.316  19.933  0.00  0.00    -0.646 OA
ENDBRANCH  20  26
ENDBRANCH  17  20
ENDBRANCH  14  17
ENDBRANCH  13  14
ENDBRANCH  10  13
ENDBRANCH   1  10
BRANCH   3  29
ATOM     29  O3' SAH d   1      17.344  38.569  24.694  0.00  0.00    -0.390 OA
ATOM     30  H13 SAH d   1      17.004  38.355  25.555  0.00  0.00     0.210 HD
ENDBRANCH   3  29
BRANCH   4  31
ATOM     31  O2' SAH d   1      19.865  37.986  25.715  0.00  0.00    -0.388 OA
ATOM     32  H15 SAH d   1      19.212  38.456  26.220  0.00  0.00     0.210 HD
ENDBRANCH   4  31
BRANCH   5  33
ATOM     33  N9  SAH d   1      19.411  34.933  26.508  0.00  0.00    -0.294 N 
ATOM     34  C4  SAH d   1      19.323  34.439  27.801  0.00  0.00     0.167 A 
ATOM     35  C5  SAH d   1      20.306  33.426  27.956  0.00  0.00     0.149 A 
ATOM     36  N3  SAH d   1      18.447  34.798  28.773  0.00  0.00    -0.222 NA
ATOM     37  N7  SAH d   1      20.990  33.332  26.751  0.00  0.00    -0.236 NA
ATOM     38  C6  SAH d   1      20.354  32.820  29.209  0.00  0.00     0.155 A 
ATOM     39  C8  SAH d   1      20.417  34.234  25.939  0.00  0.00     0.071 A 
ATOM     40  H17 SAH d   1      20.736  34.389  24.909  0.00  0.00     0.144 H 
ATOM     41  N1  SAH d   1      19.482  33.184  30.211  0.00  0.00    -0.222 NA
ATOM     42  N6  SAH d   1      21.269  31.849  29.489  0.00  0.00    -0.382 N 
ATOM     43  C2  SAH d   1      18.568  34.159  29.973  0.00  0.00     0.091 A 
ATOM     44  H20 SAH d   1      17.900  34.445  30.777  0.00  0.00     0.146 H 
ATOM     45  H18 SAH d   1      21.288  31.413  30.422  0.00  0.00     0.157 HD
ATOM     46  H19 SAH d   1      21.941  31.551  28.767  0.00  0.00     0.157 HD
ENDBRANCH   5  33
TORSDOF 10
