REMARK  11 active torsions:
REMARK  status: ('A' for Active; 'I' for Inactive)
REMARK    1  A    between atoms: O1_1  and  C6_17 
REMARK    2  A    between atoms: O1_1  and  C11_2 
REMARK    3  A    between atoms: C13_4  and  C17_9 
REMARK    4  A    between atoms: C16_7  and  O11_8 
REMARK    5  A    between atoms: C17_9  and  N11_10 
REMARK    6  A    between atoms: C2_13  and  N31_18 
REMARK    7  A    between atoms: C4_15  and  O2_27 
REMARK    8  A    between atoms: C33_20  and  C37_24 
REMARK    9  A    between atoms: O2_27  and  C21_28 
REMARK   10  A    between atoms: C25_32  and  C27_34 
REMARK   11  A    between atoms: N21_35  and  C30_36 
ROOT
ATOM      1  C1  974 d   1      10.922  37.763  13.997  0.00  0.00     0.199 A 
ATOM      2  C2  974 d   1      10.868  39.018  14.670  0.00  0.00     0.117 A 
ATOM      3  C3  974 d   1      11.526  40.116  14.086  0.00  0.00     0.199 A 
ATOM      4  C4  974 d   1      12.203  39.942  12.872  0.00  0.00     0.214 A 
ATOM      5  N5  974 d   1      12.239  38.744  12.252  0.00  0.00    -0.194 NA
ATOM      6  C6  974 d   1      11.617  37.672  12.797  0.00  0.00     0.214 A 
ATOM      7  F1  974 d   1      10.310  36.720  14.501  0.00  0.00    -0.199 F 
ATOM      8  F2  974 d   1      11.509  41.276  14.687  0.00  0.00    -0.199 F 
ENDROOT
BRANCH   4   9
ATOM      9  O2  974 d   1      12.878  40.885  12.228  0.00  0.00    -0.289 OA
BRANCH   9  10
ATOM     10  C21 974 d   1      12.556  42.116  11.829  0.00  0.00     0.079 A 
ATOM     11  C26 974 d   1      13.522  43.133  11.925  0.00  0.00    -0.037 A 
ATOM     12  C25 974 d   1      13.198  44.424  11.488  0.00  0.00     0.013 A 
ATOM     13  H21 974 d   1      14.504  42.921  12.332  0.00  0.00     0.089 H 
ATOM     14  C24 974 d   1      11.903  44.682  10.995  0.00  0.00    -0.069 A 
ATOM     15  C23 974 d   1      10.936  43.662  10.917  0.00  0.00    -0.079 A 
ATOM     16  H20 974 d   1      11.647  45.684  10.670  0.00  0.00     0.085 H 
ATOM     17  C22 974 d   1      11.274  42.363  11.340  0.00  0.00    -0.050 A 
ATOM     18  H19 974 d   1       9.944  43.874  10.536  0.00  0.00     0.083 H 
ATOM     19  H18 974 d   1      10.545  41.563  11.286  0.00  0.00     0.087 H 
BRANCH  12  20
ATOM     20  C27 974 d   1      14.137  45.467  11.605  0.00  0.00     0.139 A 
ATOM     21  N22 974 d   1      14.745  45.712  12.787  0.00  0.00    -0.241 NA
ATOM     22  C29 974 d   1      15.615  46.811  12.719  0.00  0.00     0.019 A 
ATOM     23  C28 974 d   1      15.490  47.254  11.246  0.00  0.00    -0.002 A 
ATOM     24  H26 974 d   1      16.227  47.244  13.509  0.00  0.00     0.117 H 
ATOM     25  N21 974 d   1      14.557  46.353  10.667  0.00  0.00    -0.344 N 
ATOM     26  H25 974 d   1      16.006  48.079  10.756  0.00  0.00     0.113 H 
BRANCH  25  27
ATOM     27  C30 974 d   1      14.167  46.461   9.282  0.00  0.00    -0.013 C 
ATOM     28  H22 974 d   1      14.707  47.297   8.813  0.00  0.00     0.057 H 
ATOM     29  H23 974 d   1      13.084  46.643   9.219  0.00  0.00     0.057 H 
ATOM     30  H24 974 d   1      14.412  45.526   8.758  0.00  0.00     0.057 H 
ENDBRANCH  25  27
ENDBRANCH  12  20
ENDBRANCH   9  10
ENDBRANCH   4   9
BRANCH   2  31
ATOM     31  N31 974 d   1      10.196  39.162  15.844  0.00  0.00    -0.375 N 
ATOM     32  C36 974 d   1       9.250  40.234  16.049  0.00  0.00    -0.005 C 
ATOM     33  C35 974 d   1       9.324  40.820  17.483  0.00  0.00    -0.049 C 
ATOM     34  H16 974 d   1       8.235  39.847  15.877  0.00  0.00     0.064 H 
ATOM     35  H17 974 d   1       9.463  41.037  15.328  0.00  0.00     0.064 H 
ATOM     36  C34 974 d   1       9.283  39.670  18.553  0.00  0.00    -0.050 C 
ATOM     37  H14 974 d   1      10.261  41.385  17.595  0.00  0.00     0.035 H 
ATOM     38  H15 974 d   1       8.469  41.493  17.643  0.00  0.00     0.035 H 
ATOM     39  C33 974 d   1      10.445  38.655  18.236  0.00  0.00     0.046 C 
ATOM     40  H12 974 d   1       9.423  40.093  19.559  0.00  0.00     0.034 H 
ATOM     41  H13 974 d   1       8.314  39.152  18.505  0.00  0.00     0.034 H 
ATOM     42  C32 974 d   1      10.226  38.068  16.805  0.00  0.00     0.008 C 
ATOM     43  H11 974 d   1      11.386  39.224  18.207  0.00  0.00     0.059 H 
ATOM     44  H9  974 d   1      11.050  37.382  16.558  0.00  0.00     0.065 H 
ATOM     45  H10 974 d   1       9.272  37.522  16.772  0.00  0.00     0.065 H 
BRANCH  39  46
ATOM     46  C37 974 d   1      10.598  37.651  19.316  0.00  0.00     0.178 C 
ATOM     47  O32 974 d   1      11.712  37.451  19.875  0.00  0.00    -0.648 OA
ATOM     48  O31 974 d   1       9.575  37.381  20.006  0.00  0.00    -0.648 OA
ENDBRANCH  39  46
ENDBRANCH   2  31
BRANCH   6  49
ATOM     49  O1  974 d   1      11.725  36.615  12.078  0.00  0.00    -0.287 OA
BRANCH  49  50
ATOM     50  C11 974 d   1      12.552  36.164  11.099  0.00  0.00     0.112 A 
ATOM     51  C16 974 d   1      13.947  35.886  11.309  0.00  0.00     0.099 A 
ATOM     52  C15 974 d   1      14.755  35.430  10.239  0.00  0.00    -0.047 A 
ATOM     53  C14 974 d   1      14.207  35.271   8.965  0.00  0.00    -0.067 A 
ATOM     54  H3  974 d   1      15.801  35.204  10.410  0.00  0.00     0.087 H 
ATOM     55  C13 974 d   1      12.858  35.561   8.730  0.00  0.00     0.010 A 
ATOM     56  H2  974 d   1      14.831  34.920   8.151  0.00  0.00     0.085 H 
ATOM     57  C12 974 d   1      12.047  35.979   9.792  0.00  0.00    -0.034 A 
ATOM     58  H1  974 d   1      10.996  36.167   9.605  0.00  0.00     0.089 H 
BRANCH  51  59
ATOM     59  O11 974 d   1      14.542  36.035  12.529  0.00  0.00    -0.358 OA
ATOM     60  H4  974 d   1      14.890  35.198  12.815  0.00  0.00     0.217 HD
ENDBRANCH  51  59
BRANCH  55  61
ATOM     61  C17 974 d   1      12.206  35.388   7.495  0.00  0.00     0.102 C 
ATOM     62  N12 974 d   1      12.790  34.912   6.405  0.00  0.00    -0.385 N 
ATOM     63  H7  974 d   1      13.790  34.666   6.422  0.00  0.00     0.157 HD
ATOM     64  H8  974 d   1      12.244  34.788   5.540  0.00  0.00     0.157 HD
BRANCH  61  65
ATOM     65  N11 974 d   1      10.911  35.654   7.296  0.00  0.00    -0.385 N 
ATOM     66  H5  974 d   1      10.492  35.506   6.367  0.00  0.00     0.157 HD
ATOM     67  H6  974 d   1      10.332  36.007   8.072  0.00  0.00     0.157 HD
ENDBRANCH  61  65
ENDBRANCH  55  61
ENDBRANCH  49  50
ENDBRANCH   6  49
TORSDOF 11
