REMARK  10 active torsions:
REMARK  status: ('A' for Active; 'I' for Inactive)
REMARK    1  A    between atoms: C2_2  and  C7_7 
REMARK    2  A    between atoms: C4_4  and  O1_8 
REMARK    3  A    between atoms: C6_6  and  O2_9 
REMARK    4  A    between atoms: O1_8  and  C11_19 
REMARK    5  A    between atoms: O2_9  and  C21_10 
REMARK    6  A    between atoms: C23_12  and  C27_16 
REMARK    7  A    between atoms: C27_16  and  N22_18 
REMARK    8  A    between atoms: C27_16  and  N21_17 
REMARK    9  A    between atoms: C15_23  and  C17_25 
REMARK   10  A    between atoms: C17_25  and  N11_26 
ROOT
ATOM      1  C1  623 d   1       8.901  25.119  20.018  0.00  0.00     0.178 A 
ATOM      2  C2  623 d   1       9.759  26.211  19.744  0.00  0.00     0.024 A 
ATOM      3  C3  623 d   1      11.089  25.925  19.352  0.00  0.00     0.178 A 
ATOM      4  C4  623 d   1      11.531  24.574  19.245  0.00  0.00     0.212 A 
ATOM      5  N5  623 d   1      10.681  23.547  19.507  0.00  0.00    -0.194 NA
ATOM      6  C6  623 d   1       9.411  23.809  19.880  0.00  0.00     0.212 A 
ATOM      7  F1  623 d   1       7.638  25.263  20.387  0.00  0.00    -0.201 F 
ATOM      8  F3  623 d   1      11.941  26.898  19.090  0.00  0.00    -0.201 F 
ENDROOT
BRANCH   4   9
ATOM      9  O1  623 d   1      12.775  24.296  18.863  0.00  0.00    -0.289 OA
BRANCH   9  10
ATOM     10  C11 623 d   1      13.945  24.959  18.729  0.00  0.00     0.079 A 
ATOM     11  C16 623 d   1      14.872  24.725  17.682  0.00  0.00    -0.037 A 
ATOM     12  C15 623 d   1      16.107  25.416  17.608  0.00  0.00     0.010 A 
ATOM     13  H15 623 d   1      14.629  23.997  16.916  0.00  0.00     0.089 H 
ATOM     14  C14 623 d   1      16.397  26.353  18.633  0.00  0.00    -0.069 A 
ATOM     15  C13 623 d   1      15.492  26.582  19.682  0.00  0.00    -0.079 A 
ATOM     16  H14 623 d   1      17.332  26.901  18.606  0.00  0.00     0.085 H 
ATOM     17  C12 623 d   1      14.276  25.881  19.732  0.00  0.00    -0.050 A 
ATOM     18  H13 623 d   1      15.733  27.302  20.456  0.00  0.00     0.083 H 
ATOM     19  H12 623 d   1      13.588  26.054  20.552  0.00  0.00     0.087 H 
BRANCH  12  20
ATOM     20  C17 623 d   1      17.027  25.178  16.563  0.00  0.00     0.102 C 
ATOM     21  N12 623 d   1      16.794  24.305  15.586  0.00  0.00    -0.385 N 
ATOM     22  H18 623 d   1      15.922  23.757  15.582  0.00  0.00     0.157 HD
ATOM     23  H19 623 d   1      17.486  24.178  14.833  0.00  0.00     0.157 HD
BRANCH  20  24
ATOM     24  N11 623 d   1      18.208  25.798  16.403  0.00  0.00    -0.385 N 
ATOM     25  H16 623 d   1      18.813  25.555  15.606  0.00  0.00     0.157 HD
ATOM     26  H17 623 d   1      18.508  26.516  17.078  0.00  0.00     0.157 HD
ENDBRANCH  20  24
ENDBRANCH  12  20
ENDBRANCH   9  10
ENDBRANCH   4   9
BRANCH   2  27
ATOM     27  C7  623 d   1       9.232  27.602  19.871  0.00  0.00    -0.045 C 
ATOM     28  H1  623 d   1       8.179  27.568  20.187  0.00  0.00     0.033 H 
ATOM     29  H2  623 d   1       9.307  28.113  18.899  0.00  0.00     0.033 H 
ATOM     30  H3  623 d   1       9.822  28.151  20.620  0.00  0.00     0.033 H 
ENDBRANCH   2  27
BRANCH   6  31
ATOM     31  O2  623 d   1       8.561  22.785  20.174  0.00  0.00    -0.289 OA
BRANCH  31  32
ATOM     32  C21 623 d   1       9.079  21.580  20.575  0.00  0.00     0.079 A 
ATOM     33  C26 623 d   1       9.858  21.348  21.707  0.00  0.00    -0.050 A 
ATOM     34  C25 623 d   1      10.339  20.051  22.011  0.00  0.00    -0.079 A 
ATOM     35  H7  623 d   1      10.100  22.174  22.366  0.00  0.00     0.087 H 
ATOM     36  C24 623 d   1      10.036  18.997  21.115  0.00  0.00    -0.069 A 
ATOM     37  H6  623 d   1      10.924  19.870  22.906  0.00  0.00     0.083 H 
ATOM     38  C23 623 d   1       9.267  19.245  19.959  0.00  0.00     0.010 A 
ATOM     39  H5  623 d   1      10.397  17.995  21.319  0.00  0.00     0.085 H 
ATOM     40  C22 623 d   1       8.803  20.538  19.686  0.00  0.00    -0.037 A 
ATOM     41  H4  623 d   1       8.230  20.730  18.786  0.00  0.00     0.089 H 
BRANCH  38  42
ATOM     42  C27 623 d   1       8.995  18.234  19.012  0.00  0.00     0.102 C 
BRANCH  42  43
ATOM     43  N22 623 d   1       9.362  16.988  19.136  0.00  0.00    -0.385 N 
ATOM     44  H10 623 d   1       9.966  16.705  19.921  0.00  0.00     0.157 HD
ATOM     45  H11 623 d   1       9.048  16.288  18.449  0.00  0.00     0.157 HD
ENDBRANCH  42  43
BRANCH  42  46
ATOM     46  N21 623 d   1       8.230  18.426  17.963  0.00  0.00    -0.385 N 
ATOM     47  H8  623 d   1       8.062  17.656  17.300  0.00  0.00     0.157 HD
ATOM     48  H9  623 d   1       7.798  19.347  17.802  0.00  0.00     0.157 HD
ENDBRANCH  42  46
ENDBRANCH  38  42
ENDBRANCH  31  32
ENDBRANCH   6  31
TORSDOF 10
