REMARK  8 active torsions:
REMARK  status: ('A' for Active; 'I' for Inactive)
REMARK    1  A    between atoms: N1_1  and  C1_2 
REMARK    2  A    between atoms: C1_2  and  C2_4 
REMARK    3  A    between atoms: C6_8  and  C12_14 
REMARK    4  A    between atoms: C12_14  and  N21_15 
REMARK    5  A    between atoms: C27_22  and  O_28 
REMARK    6  A    between atoms: O_28  and  C41_29 
REMARK    7  A    between atoms: N41_32  and  C46_35 
REMARK    8  A    between atoms: C46_35  and  C47_37 
ROOT
ATOM      1  N21 806 d   1      28.123   3.190  56.587  0.00  0.00    -0.341 N 
ATOM      2  C21 806 d   1      28.877   3.527  57.688  0.00  0.00     0.046 A 
ATOM      3  C22 806 d   1      29.934   2.634  57.840  0.00  0.00     0.003 A 
ATOM      4  C23 806 d   1      29.817   1.730  56.804  0.00  0.00     0.003 A 
ATOM      5  C24 806 d   1      28.686   2.089  56.041  0.00  0.00     0.049 A 
ATOM      6  C25 806 d   1      30.651   0.632  56.536  0.00  0.00    -0.067 A 
ATOM      7  C26 806 d   1      30.318  -0.142  55.417  0.00  0.00    -0.050 A 
ATOM      8  C27 806 d   1      29.171   0.187  54.621  0.00  0.00     0.071 A 
ATOM      9  C28 806 d   1      28.362   1.281  54.917  0.00  0.00    -0.024 A 
ATOM     10  C29 806 d   1      30.897   2.696  58.864  0.00  0.00    -0.070 A 
ATOM     11  C30 806 d   1      30.777   3.748  59.792  0.00  0.00    -0.082 A 
ATOM     12  C31 806 d   1      29.708   4.671  59.670  0.00  0.00    -0.081 A 
ATOM     13  C32 806 d   1      28.753   4.575  58.632  0.00  0.00    -0.056 A 
ATOM     14  H13 806 d   1      31.505   0.397  57.161  0.00  0.00     0.085 H 
ATOM     15  H14 806 d   1      30.931  -0.995  55.151  0.00  0.00     0.087 H 
ATOM     16  H15 806 d   1      27.500   1.512  54.301  0.00  0.00     0.091 H 
ATOM     17  H16 806 d   1      31.696   1.966  58.935  0.00  0.00     0.084 H 
ATOM     18  H17 806 d   1      31.498   3.852  60.595  0.00  0.00     0.083 H 
ATOM     19  H18 806 d   1      29.620   5.473  60.393  0.00  0.00     0.083 H 
ATOM     20  H19 806 d   1      27.941   5.290  58.560  0.00  0.00     0.087 H 
ENDROOT
BRANCH   1  21
ATOM     21  C12 806 d   1      26.901   3.902  56.175  0.00  0.00     0.024 C 
ATOM     22  H11 806 d   1      26.893   4.902  56.633  0.00  0.00     0.072 H 
ATOM     23  H12 806 d   1      26.891   4.000  55.079  0.00  0.00     0.072 H 
BRANCH  21  24
ATOM     24  C6  806 d   1      25.670   3.141  56.619  0.00  0.00    -0.039 A 
ATOM     25  C5  806 d   1      24.502   3.122  55.800  0.00  0.00    -0.065 A 
ATOM     26  C4  806 d   1      23.365   2.373  56.207  0.00  0.00    -0.025 A 
ATOM     27  H6  806 d   1      24.482   3.678  54.869  0.00  0.00     0.085 H 
ATOM     28  C3  806 d   1      22.216   2.327  55.370  0.00  0.00    -0.059 A 
ATOM     29  C9  806 d   1      23.376   1.666  57.441  0.00  0.00    -0.026 A 
ATOM     30  C2  806 d   1      21.075   1.603  55.763  0.00  0.00     0.008 A 
ATOM     31  H5  806 d   1      22.219   2.853  54.422  0.00  0.00     0.086 H 
ATOM     32  C11 806 d   1      21.121   0.908  57.020  0.00  0.00    -0.069 A 
ATOM     33  C10 806 d   1      22.257   0.926  57.863  0.00  0.00    -0.071 A 
ATOM     34  H10 806 d   1      20.249   0.347  57.335  0.00  0.00     0.085 H 
ATOM     35  H9  806 d   1      22.265   0.387  58.803  0.00  0.00     0.084 H 
ATOM     36  C8  806 d   1      24.535   1.716  58.262  0.00  0.00    -0.072 A 
ATOM     37  C7  806 d   1      25.661   2.428  57.838  0.00  0.00    -0.074 A 
ATOM     38  H8  806 d   1      24.546   1.202  59.217  0.00  0.00     0.084 H 
ATOM     39  H7  806 d   1      26.549   2.433  58.460  0.00  0.00     0.084 H 
BRANCH  30  40
ATOM     40  C1  806 d   1      19.909   1.521  54.954  0.00  0.00     0.102 C 
ATOM     41  N2  806 d   1      18.869   0.786  55.364  0.00  0.00    -0.385 N 
ATOM     42  H3  806 d   1      18.931   0.251  56.242  0.00  0.00     0.157 HD
ATOM     43  H4  806 d   1      18.007   0.755  54.801  0.00  0.00     0.157 HD
BRANCH  40  44
ATOM     44  N1  806 d   1      19.680   2.150  53.810  0.00  0.00    -0.385 N 
ATOM     45  H1  806 d   1      18.789   2.008  53.313  0.00  0.00     0.157 HD
ATOM     46  H2  806 d   1      20.393   2.781  53.418  0.00  0.00     0.157 HD
ENDBRANCH  40  44
ENDBRANCH  30  40
ENDBRANCH  21  24
ENDBRANCH   1  21
BRANCH   8  47
ATOM     47  O   806 d   1      28.938  -0.666  53.551  0.00  0.00    -0.346 OA
BRANCH  47  48
ATOM     48  C41 806 d   1      29.857  -1.820  53.393  0.00  0.00     0.048 C 
ATOM     49  C45 806 d   1      29.377  -2.687  52.225  0.00  0.00    -0.025 C 
ATOM     50  C44 806 d   1      30.479  -3.477  51.512  0.00  0.00    -0.002 C 
ATOM     51  H27 806 d   1      28.896  -2.029  51.486  0.00  0.00     0.039 H 
ATOM     52  H28 806 d   1      28.639  -3.404  52.613  0.00  0.00     0.039 H 
ATOM     53  N41 806 d   1      31.710  -2.751  51.238  0.00  0.00    -0.370 N 
ATOM     54  H25 806 d   1      30.732  -4.343  52.141  0.00  0.00     0.064 H 
ATOM     55  H26 806 d   1      30.074  -3.827  50.551  0.00  0.00     0.064 H 
ATOM     56  C43 806 d   1      31.691  -1.361  51.659  0.00  0.00    -0.002 C 
ATOM     57  C42 806 d   1      31.318  -1.335  53.188  0.00  0.00    -0.025 C 
ATOM     58  H23 806 d   1      32.682  -0.909  51.506  0.00  0.00     0.064 H 
ATOM     59  H24 806 d   1      30.940  -0.803  51.080  0.00  0.00     0.064 H 
ATOM     60  H21 806 d   1      32.001  -1.997  53.740  0.00  0.00     0.039 H 
ATOM     61  H22 806 d   1      31.416  -0.308  53.568  0.00  0.00     0.039 H 
ATOM     62  H20 806 d   1      29.823  -2.425  54.311  0.00  0.00     0.084 H 
BRANCH  53  63
ATOM     63  C46 806 d   1      32.794  -3.346  50.628  0.00  0.00     0.089 C 
ATOM     64  N42 806 d   1      32.768  -4.650  50.236  0.00  0.00    -0.288 NA
ATOM     65  H29 806 d   1      33.575  -5.059  49.792  0.00  0.00     0.188 HD
BRANCH  63  66
ATOM     66  C47 806 d   1      34.080  -2.672  50.331  0.00  0.00    -0.022 C 
ATOM     67  H30 806 d   1      34.763  -3.383  49.843  0.00  0.00     0.037 H 
ATOM     68  H31 806 d   1      34.532  -2.315  51.268  0.00  0.00     0.037 H 
ATOM     69  H32 806 d   1      33.900  -1.818  49.661  0.00  0.00     0.037 H 
ENDBRANCH  63  66
ENDBRANCH  53  63
ENDBRANCH  47  48
ENDBRANCH   8  47
TORSDOF 8
