REMARK  9 active torsions:
REMARK  status: ('A' for Active; 'I' for Inactive)
REMARK    1  A    between atoms: C2_2  and  C7_9 
REMARK    2  A    between atoms: C4_4  and  O1_7 
REMARK    3  A    between atoms: C6_6  and  O2_8 
REMARK    4  A    between atoms: O1_7  and  C21_22 
REMARK    5  A    between atoms: O2_8  and  C11_12 
REMARK    6  A    between atoms: C13_14  and  C17_18 
REMARK    7  A    between atoms: C16_17  and  O11_21 
REMARK    8  A    between atoms: C17_18  and  N11_19 
REMARK    9  A    between atoms: C25_26  and  C27_28 
ROOT
ATOM      1  C1  688 d   1       8.436  25.098  19.790  0.00  0.00    -0.015 C 
ATOM      2  C2  688 d   1       9.262  26.194  19.385  0.00  0.00     0.049 C 
ATOM      3  C3  688 d   1      10.650  25.933  19.285  0.00  0.00    -0.015 C 
ATOM      4  C4  688 d   1      11.078  24.573  19.286  0.00  0.00     0.173 C 
ATOM      5  N5  688 d   1      10.264  23.549  19.569  0.00  0.00    -0.200 NA
ATOM      6  C6  688 d   1       8.936  23.795  19.704  0.00  0.00     0.173 C 
ATOM      7  H1  688 d   1       7.433  25.276  20.160  0.00  0.00     0.091 H 
ATOM      8  H2  688 d   1      11.366  26.743  19.210  0.00  0.00     0.091 H 
ENDROOT
BRANCH   4   9
ATOM      9  O1  688 d   1      12.338  24.264  18.891  0.00  0.00    -0.292 OA
BRANCH   9  10
ATOM     10  C21 688 d   1      13.442  25.043  18.822  0.00  0.00     0.078 A 
ATOM     11  C26 688 d   1      14.378  24.860  17.776  0.00  0.00    -0.037 A 
ATOM     12  C25 688 d   1      15.520  25.699  17.762  0.00  0.00     0.013 A 
ATOM     13  H14 688 d   1      14.227  24.105  17.013  0.00  0.00     0.089 H 
ATOM     14  C24 688 d   1      15.663  26.687  18.747  0.00  0.00    -0.069 A 
ATOM     15  C23 688 d   1      14.723  26.887  19.769  0.00  0.00    -0.079 A 
ATOM     16  H13 688 d   1      16.539  27.325  18.717  0.00  0.00     0.085 H 
ATOM     17  C22 688 d   1      13.578  26.061  19.788  0.00  0.00    -0.050 A 
ATOM     18  H12 688 d   1      14.871  27.653  20.522  0.00  0.00     0.083 H 
ATOM     19  H11 688 d   1      12.810  26.208  20.539  0.00  0.00     0.087 H 
BRANCH  12  20
ATOM     20  C27 688 d   1      16.435  25.449  16.716  0.00  0.00     0.137 C 
ATOM     21  N22 688 d   1      16.518  24.226  16.137  0.00  0.00    -0.241 NA
ATOM     22  C28 688 d   1      17.670  24.124  15.319  0.00  0.00     0.019 C 
ATOM     23  C29 688 d   1      18.244  25.555  15.333  0.00  0.00    -0.004 C 
ATOM     24  H16 688 d   1      18.057  23.246  14.804  0.00  0.00     0.117 H 
ATOM     25  N21 688 d   1      17.525  26.145  16.394  0.00  0.00    -0.349 N 
ATOM     26  H17 688 d   1      19.006  25.995  14.691  0.00  0.00     0.113 H 
ATOM     27  H15 688 d   1      17.810  27.015  16.866  0.00  0.00     0.167 HD
ENDBRANCH  12  20
ENDBRANCH   9  10
ENDBRANCH   4   9
BRANCH   2  28
ATOM     28  C7  688 d   1       8.786  27.479  19.486  0.00  0.00     0.209 C 
ATOM     29  O4  688 d   1       7.478  27.686  19.686  0.00  0.00    -0.644 OA
ATOM     30  O3  688 d   1       9.517  28.453  19.413  0.00  0.00    -0.644 OA
ENDBRANCH   2  28
BRANCH   6  31
ATOM     31  O2  688 d   1       8.179  22.717  20.060  0.00  0.00    -0.289 OA
BRANCH  31  32
ATOM     32  C11 688 d   1       8.777  21.557  20.501  0.00  0.00     0.112 A 
ATOM     33  C16 688 d   1       9.514  21.337  21.666  0.00  0.00     0.099 A 
ATOM     34  C15 688 d   1      10.026  20.043  21.951  0.00  0.00    -0.047 A 
ATOM     35  C14 688 d   1       9.772  18.971  21.062  0.00  0.00    -0.067 A 
ATOM     36  H5  688 d   1      10.611  19.877  22.849  0.00  0.00     0.087 H 
ATOM     37  C13 688 d   1       9.019  19.208  19.872  0.00  0.00     0.010 A 
ATOM     38  H4  688 d   1      10.146  17.978  21.283  0.00  0.00     0.085 H 
ATOM     39  C12 688 d   1       8.549  20.491  19.610  0.00  0.00    -0.034 A 
ATOM     40  H3  688 d   1       7.994  20.674  18.697  0.00  0.00     0.089 H 
BRANCH  33  41
ATOM     41  O11 688 d   1       9.817  22.335  22.553  0.00  0.00    -0.358 OA
ATOM     42  H10 688 d   1      10.760  22.438  22.602  0.00  0.00     0.217 HD
ENDBRANCH  33  41
BRANCH  37  43
ATOM     43  C17 688 d   1       8.772  18.159  18.940  0.00  0.00     0.102 C 
ATOM     44  N12 688 d   1       9.308  16.950  19.089  0.00  0.00    -0.385 N 
ATOM     45  H8  688 d   1       9.919  16.753  19.895  0.00  0.00     0.157 HD
ATOM     46  H9  688 d   1       9.112  16.211  18.399  0.00  0.00     0.157 HD
BRANCH  43  47
ATOM     47  N11 688 d   1       8.023  18.243  17.867  0.00  0.00    -0.385 N 
ATOM     48  H6  688 d   1       7.907  17.423  17.254  0.00  0.00     0.157 HD
ATOM     49  H7  688 d   1       7.550  19.129  17.637  0.00  0.00     0.157 HD
ENDBRANCH  43  47
ENDBRANCH  37  43
ENDBRANCH  31  32
ENDBRANCH   6  31
TORSDOF 9
