REMARK  9 active torsions:
REMARK  status: ('A' for Active; 'I' for Inactive)
REMARK    1  A    between atoms: C1_2  and  C2_4 
REMARK    2  A    between atoms: C1_2  and  N2_3 
REMARK    3  A    between atoms: C6_8  and  C12_14 
REMARK    4  A    between atoms: C12_14  and  N21_15 
REMARK    5  A    between atoms: C21_16  and  C22_17 
REMARK    6  A    between atoms: C26_22  and  O_25 
REMARK    7  A    between atoms: O_25  and  C31_26 
REMARK    8  A    between atoms: C36_32  and  C37_34 
REMARK    9  A    between atoms: C36_32  and  N32_33 
ROOT
ATOM      1  N21 711 d   1      28.044   3.256  56.741  0.00  0.00    -0.329 N 
ATOM      2  C21 711 d   1      28.956   3.662  57.874  0.00  0.00     0.103 A 
ATOM      3  N22 711 d   1      30.021   2.867  57.988  0.00  0.00    -0.234 NA
ATOM      4  C23 711 d   1      29.912   1.971  57.055  0.00  0.00     0.086 A 
ATOM      5  C24 711 d   1      30.769   0.904  56.773  0.00  0.00    -0.050 A 
ATOM      6  C25 711 d   1      30.503   0.038  55.708  0.00  0.00    -0.048 A 
ATOM      7  C26 711 d   1      29.343   0.215  54.928  0.00  0.00     0.071 A 
ATOM      8  C27 711 d   1      28.466   1.280  55.208  0.00  0.00    -0.022 A 
ATOM      9  C28 711 d   1      28.753   2.172  56.273  0.00  0.00     0.067 A 
ATOM     10  H16 711 d   1      31.649   0.746  57.386  0.00  0.00     0.087 H 
ATOM     11  H17 711 d   1      31.189  -0.770  55.482  0.00  0.00     0.087 H 
ATOM     12  H18 711 d   1      27.572   1.418  54.610  0.00  0.00     0.091 H 
ENDROOT
BRANCH   1  13
ATOM     13  C12 711 d   1      26.786   3.889  56.319  0.00  0.00     0.025 C 
ATOM     14  H11 711 d   1      26.728   4.903  56.741  0.00  0.00     0.072 H 
ATOM     15  H12 711 d   1      26.757   3.947  55.221  0.00  0.00     0.072 H 
BRANCH  13  16
ATOM     16  C6  711 d   1      25.673   3.115  56.785  0.00  0.00    -0.039 A 
ATOM     17  C5  711 d   1      24.483   3.116  56.012  0.00  0.00    -0.065 A 
ATOM     18  C4  711 d   1      23.447   2.368  56.464  0.00  0.00    -0.025 A 
ATOM     19  H6  711 d   1      24.406   3.692  55.097  0.00  0.00     0.085 H 
ATOM     20  C3  711 d   1      22.275   2.324  55.688  0.00  0.00    -0.059 A 
ATOM     21  C9  711 d   1      23.515   1.629  57.664  0.00  0.00    -0.026 A 
ATOM     22  C2  711 d   1      21.167   1.571  56.109  0.00  0.00     0.008 A 
ATOM     23  H5  711 d   1      22.227   2.876  54.757  0.00  0.00     0.086 H 
ATOM     24  C11 711 d   1      21.226   0.862  57.334  0.00  0.00    -0.069 A 
ATOM     25  C10 711 d   1      22.405   0.877  58.095  0.00  0.00    -0.071 A 
ATOM     26  H10 711 d   1      20.362   0.309  57.683  0.00  0.00     0.085 H 
ATOM     27  H9  711 d   1      22.461   0.309  59.016  0.00  0.00     0.084 H 
ATOM     28  C8  711 d   1      24.648   1.625  58.416  0.00  0.00    -0.072 A 
ATOM     29  C7  711 d   1      25.747   2.373  57.973  0.00  0.00    -0.074 A 
ATOM     30  H8  711 d   1      24.700   1.056  59.337  0.00  0.00     0.084 H 
ATOM     31  H7  711 d   1      26.662   2.378  58.553  0.00  0.00     0.084 H 
BRANCH  22  32
ATOM     32  C1  711 d   1      20.062   1.551  55.356  0.00  0.00     0.102 C 
ATOM     33  N1  711 d   1      19.972   2.257  54.311  0.00  0.00    -0.385 N 
ATOM     34  H1  711 d   1      19.113   2.229  53.743  0.00  0.00     0.157 HD
ATOM     35  H2  711 d   1      20.758   2.860  54.028  0.00  0.00     0.157 HD
BRANCH  32  36
ATOM     36  N2  711 d   1      18.985   0.793  55.753  0.00  0.00    -0.385 N 
ATOM     37  H3  711 d   1      19.048   0.214  56.603  0.00  0.00     0.157 HD
ATOM     38  H4  711 d   1      18.116   0.804  55.200  0.00  0.00     0.157 HD
ENDBRANCH  32  36
ENDBRANCH  22  32
ENDBRANCH  13  16
ENDBRANCH   1  13
BRANCH   2  39
ATOM     39  C22 711 d   1      28.727   4.786  58.728  0.00  0.00    -0.021 C 
ATOM     40  H13 711 d   1      29.539   4.857  59.467  0.00  0.00     0.037 H 
ATOM     41  H14 711 d   1      27.767   4.661  59.250  0.00  0.00     0.037 H 
ATOM     42  H15 711 d   1      28.699   5.705  58.125  0.00  0.00     0.037 H 
ENDBRANCH   2  39
BRANCH   7  43
ATOM     43  O   711 d   1      29.212  -0.700  53.923  0.00  0.00    -0.346 OA
BRANCH  43  44
ATOM     44  C31 711 d   1      30.325  -1.599  53.914  0.00  0.00     0.048 C 
ATOM     45  C35 711 d   1      29.867  -3.021  53.627  0.00  0.00    -0.025 C 
ATOM     46  C34 711 d   1      29.946  -3.493  52.191  0.00  0.00    -0.002 C 
ATOM     47  H26 711 d   1      28.817  -3.102  53.945  0.00  0.00     0.039 H 
ATOM     48  H27 711 d   1      30.487  -3.698  54.233  0.00  0.00     0.039 H 
ATOM     49  N31 711 d   1      31.211  -3.035  51.563  0.00  0.00    -0.370 N 
ATOM     50  H24 711 d   1      29.908  -4.592  52.168  0.00  0.00     0.064 H 
ATOM     51  H25 711 d   1      29.094  -3.085  51.628  0.00  0.00     0.064 H 
ATOM     52  C33 711 d   1      31.474  -1.583  51.603  0.00  0.00    -0.002 C 
ATOM     53  C36 711 d   1      32.073  -3.886  50.987  0.00  0.00     0.089 C 
ATOM     54  C32 711 d   1      31.476  -1.095  53.059  0.00  0.00    -0.025 C 
ATOM     55  H22 711 d   1      32.454  -1.377  51.147  0.00  0.00     0.064 H 
ATOM     56  H23 711 d   1      30.690  -1.054  51.042  0.00  0.00     0.064 H 
ATOM     57  H20 711 d   1      32.416  -1.424  53.526  0.00  0.00     0.039 H 
ATOM     58  H21 711 d   1      31.436   0.004  53.049  0.00  0.00     0.039 H 
ATOM     59  H19 711 d   1      30.714  -1.615  54.943  0.00  0.00     0.084 H 
BRANCH  53  60
ATOM     60  C37 711 d   1      33.288  -3.388  50.405  0.00  0.00    -0.022 C 
ATOM     61  H29 711 d   1      33.863  -4.226  49.984  0.00  0.00     0.037 H 
ATOM     62  H30 711 d   1      33.886  -2.885  51.179  0.00  0.00     0.037 H 
ATOM     63  H31 711 d   1      33.045  -2.672  49.606  0.00  0.00     0.037 H 
ENDBRANCH  53  60
BRANCH  53  64
ATOM     64  N32 711 d   1      31.825  -5.309  50.952  0.00  0.00    -0.288 NA
ATOM     65  H28 711 d   1      32.490  -5.926  50.512  0.00  0.00     0.188 HD
ENDBRANCH  53  64
ENDBRANCH  43  44
ENDBRANCH   7  43
TORSDOF 9
