REMARK  13 active torsions:
REMARK  status: ('A' for Active; 'I' for Inactive)
REMARK    1  A    between atoms: C1_5  and  P_1 
REMARK    2  A    between atoms: C1_5  and  C2_7 
REMARK    3  A    between atoms: C1_5  and  O1_6 
REMARK    4  A    between atoms: C3_8  and  C5_10 
REMARK    5  A    between atoms: C3_8  and  C4_9 
REMARK    6  A    between atoms: C5_10  and  C6_11 
REMARK    7  A    between atoms: C6_11  and  C7_12 
REMARK    8  A    between atoms: C8_13  and  C10_15 
REMARK    9  A    between atoms: C8_13  and  C9_14 
REMARK   10  A    between atoms: C10_15  and  C11_16 
REMARK   11  A    between atoms: C11_16  and  C12_17 
REMARK   12  A    between atoms: C13_18  and  C15_20 
REMARK   13  A    between atoms: C13_18  and  C14_19 
ROOT
ATOM      1  C7  HFP d   1     191.907 123.381  31.606  0.00  0.00    -0.101 C 
ATOM      2  C8  HFP d   1     191.090 123.303  32.673  0.00  0.00    -0.087 C 
ATOM      3  H11 HFP d   1     191.685 122.777  30.728  0.00  0.00     0.077 H 
ENDROOT
BRANCH   1   4
ATOM      4  C6  HFP d   1     193.131 124.285  31.586  0.00  0.00    -0.046 C 
ATOM      5  H9  HFP d   1     192.874 125.254  32.038  0.00  0.00     0.039 H 
ATOM      6  H10 HFP d   1     193.939 123.814  32.165  0.00  0.00     0.039 H 
BRANCH   4   7
ATOM      7  C5  HFP d   1     193.612 124.512  30.122  0.00  0.00    -0.042 C 
ATOM      8  H7  HFP d   1     193.391 123.611  29.530  0.00  0.00     0.040 H 
ATOM      9  H8  HFP d   1     193.071 125.371  29.698  0.00  0.00     0.040 H 
BRANCH   7  10
ATOM     10  C3  HFP d   1     195.105 124.790  30.058  0.00  0.00    -0.084 C 
ATOM     11  C2  HFP d   1     195.674 125.647  30.919  0.00  0.00    -0.061 C 
ATOM     12  H3  HFP d   1     195.044 126.136  31.660  0.00  0.00     0.082 H 
BRANCH  11  13
ATOM     13  C1  HFP d   1     197.153 125.963  30.905  0.00  0.00     0.159 C 
ATOM     14  H1  HFP d   1     197.698 125.166  30.377  0.00  0.00     0.111 H 
BRANCH  13  15
ATOM     15  P   HFP d   1     197.766 126.093  32.632  0.00  0.00     0.293 P 
ATOM     16  O3P HFP d   1     196.626 126.679  33.489  0.00  0.00    -0.638 OA
ATOM     17  O2P HFP d   1     198.085 124.646  33.135  0.00  0.00    -0.638 OA
ATOM     18  O1P HFP d   1     198.940 126.952  32.626  0.00  0.00    -0.638 OA
ENDBRANCH  13  15
BRANCH  13  19
ATOM     19  O1  HFP d   1     197.357 127.221  30.233  0.00  0.00    -0.378 OA
ATOM     20  H2  HFP d   1     198.284 127.429  30.228  0.00  0.00     0.211 HD
ENDBRANCH  13  19
ENDBRANCH  11  13
BRANCH  10  21
ATOM     21  C4  HFP d   1     195.935 124.097  29.006  0.00  0.00    -0.055 C 
ATOM     22  H4  HFP d   1     195.290 123.440  28.404  0.00  0.00     0.033 H 
ATOM     23  H5  HFP d   1     196.717 123.496  29.493  0.00  0.00     0.033 H 
ATOM     24  H6  HFP d   1     196.403 124.849  28.354  0.00  0.00     0.033 H 
ENDBRANCH  10  21
ENDBRANCH   7  10
ENDBRANCH   4   7
ENDBRANCH   1   4
BRANCH   2  25
ATOM     25  C10 HFP d   1     189.871 122.388  32.671  0.00  0.00    -0.042 C 
ATOM     26  H15 HFP d   1     189.490 122.298  33.699  0.00  0.00     0.040 H 
ATOM     27  H16 HFP d   1     190.170 121.396  32.302  0.00  0.00     0.040 H 
BRANCH  25  28
ATOM     28  C11 HFP d   1     188.772 122.930  31.786  0.00  0.00    -0.046 C 
ATOM     29  H17 HFP d   1     189.091 122.882  30.734  0.00  0.00     0.039 H 
ATOM     30  H18 HFP d   1     188.563 123.975  32.059  0.00  0.00     0.039 H 
BRANCH  28  31
ATOM     31  C12 HFP d   1     187.511 122.095  31.972  0.00  0.00    -0.101 C 
ATOM     32  C13 HFP d   1     186.338 122.382  31.355  0.00  0.00    -0.091 C 
ATOM     33  H19 HFP d   1     187.554 121.228  32.630  0.00  0.00     0.077 H 
BRANCH  32  34
ATOM     34  C15 HFP d   1     185.112 121.515  31.574  0.00  0.00    -0.055 C 
ATOM     35  H23 HFP d   1     185.357 120.704  32.275  0.00  0.00     0.033 H 
ATOM     36  H24 HFP d   1     184.790 121.085  30.614  0.00  0.00     0.033 H 
ATOM     37  H25 HFP d   1     184.300 122.127  31.992  0.00  0.00     0.033 H 
ENDBRANCH  32  34
BRANCH  32  38
ATOM     38  C14 HFP d   1     186.207 123.561  30.417  0.00  0.00    -0.055 C 
ATOM     39  H20 HFP d   1     185.178 123.609  30.030  0.00  0.00     0.033 H 
ATOM     40  H21 HFP d   1     186.909 123.442  29.578  0.00  0.00     0.033 H 
ATOM     41  H22 HFP d   1     186.438 124.489  30.960  0.00  0.00     0.033 H 
ENDBRANCH  32  38
ENDBRANCH  28  31
ENDBRANCH  25  28
ENDBRANCH   2  25
BRANCH   2  42
ATOM     42  C9  HFP d   1     191.385 124.114  33.912  0.00  0.00    -0.055 C 
ATOM     43  H12 HFP d   1     190.612 123.919  34.670  0.00  0.00     0.033 H 
ATOM     44  H13 HFP d   1     191.388 125.184  33.658  0.00  0.00     0.033 H 
ATOM     45  H14 HFP d   1     192.370 123.829  34.311  0.00  0.00     0.033 H 
ENDBRANCH   2  42
TORSDOF 13
