REMARK  14 active torsions:
REMARK  status: ('A' for Active; 'I' for Inactive)
REMARK    1  A    between atoms: C3_2  and  C30_14 
REMARK    2  A    between atoms: C4_3  and  O4_39 
REMARK    3  A    between atoms: C5_4  and  O5_40 
REMARK    4  A    between atoms: C6_5  and  C60_21 
REMARK    5  A    between atoms: N2_36  and  C20_6 
REMARK    6  A    between atoms: C20_6  and  C21_7 
REMARK    7  A    between atoms: C24_10  and  C27_13 
REMARK    8  A    between atoms: C27_13  and  O27_41 
REMARK    9  A    between atoms: C30_14  and  C31_15 
REMARK   10  A    between atoms: C60_21  and  C61_22 
REMARK   11  A    between atoms: N7_37  and  C70_28 
REMARK   12  A    between atoms: C70_28  and  C71_29 
REMARK   13  A    between atoms: C74_32  and  C77_35 
REMARK   14  A    between atoms: C77_35  and  O77_42 
ROOT
ATOM      1  C1  DMP d   1      -8.824  15.289  27.796  0.00  0.00     0.322 C 
ATOM      2  C3  DMP d   1      -8.765  17.612  26.894  0.00  0.00     0.047 C 
ATOM      3  C4  DMP d   1     -10.151  18.142  27.120  0.00  0.00     0.082 C 
ATOM      4  C5  DMP d   1     -10.611  17.866  28.529  0.00  0.00     0.082 C 
ATOM      5  C6  DMP d   1     -10.873  16.392  28.778  0.00  0.00     0.047 C 
ATOM      6  N2  DMP d   1      -8.600  16.156  26.822  0.00  0.00    -0.322 N 
ATOM      7  N7  DMP d   1      -9.694  15.505  28.807  0.00  0.00    -0.322 N 
ATOM      8  O1  DMP d   1      -8.174  14.259  27.758  0.00  0.00    -0.247 OA
ATOM      9  H1  DMP d   1      -8.522  17.968  25.882  0.00  0.00     0.077 H 
ATOM     10  H2  DMP d   1     -10.862  17.674  26.423  0.00  0.00     0.090 H 
ATOM     11  H3  DMP d   1      -9.819  18.209  29.210  0.00  0.00     0.090 H 
ATOM     12  H4  DMP d   1     -11.258  16.375  29.808  0.00  0.00     0.077 H 
ENDROOT
BRANCH   6  13
ATOM     13  C20 DMP d   1      -7.895  15.606  25.658  0.00  0.00     0.024 C 
ATOM     14  H5  DMP d   1      -7.954  14.509  25.722  0.00  0.00     0.071 H 
ATOM     15  H6  DMP d   1      -6.843  15.921  25.728  0.00  0.00     0.071 H 
BRANCH  13  16
ATOM     16  C21 DMP d   1      -8.394  16.004  24.314  0.00  0.00    -0.040 A 
ATOM     17  C26 DMP d   1      -7.424  16.281  23.354  0.00  0.00    -0.075 A 
ATOM     18  C25 DMP d   1      -7.826  16.569  22.038  0.00  0.00    -0.074 A 
ATOM     19  H10 DMP d   1      -6.373  16.275  23.618  0.00  0.00     0.084 H 
ATOM     20  C24 DMP d   1      -9.189  16.600  21.702  0.00  0.00    -0.035 A 
ATOM     21  H9  DMP d   1      -7.079  16.768  21.278  0.00  0.00     0.084 H 
ATOM     22  C23 DMP d   1     -10.175  16.342  22.667  0.00  0.00    -0.074 A 
ATOM     23  C22 DMP d   1      -9.762  16.035  23.981  0.00  0.00    -0.075 A 
ATOM     24  H8  DMP d   1     -11.227  16.378  22.409  0.00  0.00     0.084 H 
ATOM     25  H7  DMP d   1     -10.505  15.821  24.741  0.00  0.00     0.084 H 
BRANCH  20  26
ATOM     26  C27 DMP d   1      -9.583  16.878  20.299  0.00  0.00     0.040 C 
ATOM     27  H11 DMP d   1     -10.679  16.928  20.223  0.00  0.00     0.081 H 
ATOM     28  H12 DMP d   1      -9.205  16.082  19.641  0.00  0.00     0.081 H 
BRANCH  26  29
ATOM     29  O27 DMP d   1      -9.017  18.125  19.920  0.00  0.00    -0.396 OA
ATOM     30  H37 DMP d   1      -9.258  18.321  19.022  0.00  0.00     0.209 HD
ENDBRANCH  26  29
ENDBRANCH  20  26
ENDBRANCH  13  16
ENDBRANCH   6  13
BRANCH   2  31
ATOM     31  C30 DMP d   1      -7.675  18.190  27.782  0.00  0.00    -0.019 C 
ATOM     32  H13 DMP d   1      -7.663  17.642  28.736  0.00  0.00     0.043 H 
ATOM     33  H14 DMP d   1      -7.894  19.251  27.972  0.00  0.00     0.043 H 
BRANCH  31  34
ATOM     34  C31 DMP d   1      -6.309  18.078  27.133  0.00  0.00    -0.056 A 
ATOM     35  C36 DMP d   1      -5.987  18.897  26.035  0.00  0.00    -0.077 A 
ATOM     36  C35 DMP d   1      -4.722  18.782  25.415  0.00  0.00    -0.082 A 
ATOM     37  H19 DMP d   1      -6.709  19.616  25.665  0.00  0.00     0.084 H 
ATOM     38  C34 DMP d   1      -3.792  17.838  25.906  0.00  0.00    -0.083 A 
ATOM     39  H18 DMP d   1      -4.468  19.412  24.570  0.00  0.00     0.083 H 
ATOM     40  C33 DMP d   1      -4.115  17.017  27.002  0.00  0.00    -0.082 A 
ATOM     41  H17 DMP d   1      -2.821  17.746  25.434  0.00  0.00     0.083 H 
ATOM     42  C32 DMP d   1      -5.371  17.139  27.617  0.00  0.00    -0.077 A 
ATOM     43  H16 DMP d   1      -3.397  16.293  27.370  0.00  0.00     0.083 H 
ATOM     44  H15 DMP d   1      -5.622  16.512  28.465  0.00  0.00     0.084 H 
ENDBRANCH  31  34
ENDBRANCH   2  31
BRANCH   7  45
ATOM     45  C70 DMP d   1      -9.516  14.673  30.003  0.00  0.00     0.024 C 
ATOM     46  H27 DMP d   1      -8.514  14.225  29.930  0.00  0.00     0.071 H 
ATOM     47  H28 DMP d   1     -10.277  13.880  29.953  0.00  0.00     0.071 H 
BRANCH  45  48
ATOM     48  C71 DMP d   1      -9.618  15.285  31.376  0.00  0.00    -0.040 A 
ATOM     49  C76 DMP d   1      -9.014  16.523  31.681  0.00  0.00    -0.075 A 
ATOM     50  C75 DMP d   1      -9.070  17.022  32.989  0.00  0.00    -0.074 A 
ATOM     51  H32 DMP d   1      -8.508  17.087  30.905  0.00  0.00     0.084 H 
ATOM     52  C74 DMP d   1      -9.735  16.267  33.988  0.00  0.00    -0.035 A 
ATOM     53  H31 DMP d   1      -8.611  17.973  33.234  0.00  0.00     0.084 H 
ATOM     54  C73 DMP d   1     -10.352  15.036  33.682  0.00  0.00    -0.074 A 
ATOM     55  C72 DMP d   1     -10.297  14.540  32.375  0.00  0.00    -0.075 A 
ATOM     56  H30 DMP d   1     -10.866  14.477  34.456  0.00  0.00     0.084 H 
ATOM     57  H29 DMP d   1     -10.768  13.596  32.128  0.00  0.00     0.084 H 
BRANCH  52  58
ATOM     58  C77 DMP d   1      -9.736  16.774  35.410  0.00  0.00     0.040 C 
ATOM     59  H33 DMP d   1      -9.356  17.806  35.440  0.00  0.00     0.081 H 
ATOM     60  H34 DMP d   1      -9.101  16.131  36.037  0.00  0.00     0.081 H 
BRANCH  58  61
ATOM     61  O77 DMP d   1     -11.072  16.738  35.880  0.00  0.00    -0.396 OA
ATOM     62  H38 DMP d   1     -11.100  17.053  36.776  0.00  0.00     0.209 HD
ENDBRANCH  58  61
ENDBRANCH  52  58
ENDBRANCH  45  48
ENDBRANCH   7  45
BRANCH   3  63
ATOM     63  O4  DMP d   1     -10.025  19.497  26.834  0.00  0.00    -0.391 OA
ATOM     64  H35 DMP d   1     -10.866  19.924  26.951  0.00  0.00     0.210 HD
ENDBRANCH   3  63
BRANCH   5  65
ATOM     65  C60 DMP d   1     -11.989  15.736  27.935  0.00  0.00    -0.019 C 
ATOM     66  H20 DMP d   1     -11.580  15.474  26.948  0.00  0.00     0.043 H 
ATOM     67  H21 DMP d   1     -12.810  16.457  27.812  0.00  0.00     0.043 H 
BRANCH  65  68
ATOM     68  C61 DMP d   1     -12.534  14.482  28.586  0.00  0.00    -0.056 A 
ATOM     69  C66 DMP d   1     -12.195  13.216  28.067  0.00  0.00    -0.077 A 
ATOM     70  C65 DMP d   1     -12.548  12.050  28.775  0.00  0.00    -0.082 A 
ATOM     71  H26 DMP d   1     -11.664  13.140  27.125  0.00  0.00     0.084 H 
ATOM     72  C64 DMP d   1     -13.239  12.152  29.996  0.00  0.00    -0.083 A 
ATOM     73  H25 DMP d   1     -12.287  11.075  28.379  0.00  0.00     0.083 H 
ATOM     74  C63 DMP d   1     -13.601  13.414  30.513  0.00  0.00    -0.082 A 
ATOM     75  H24 DMP d   1     -13.496  11.253  30.545  0.00  0.00     0.083 H 
ATOM     76  C62 DMP d   1     -13.261  14.587  29.804  0.00  0.00    -0.077 A 
ATOM     77  H23 DMP d   1     -14.139  13.483  31.452  0.00  0.00     0.083 H 
ATOM     78  H22 DMP d   1     -13.552  15.559  30.185  0.00  0.00     0.084 H 
ENDBRANCH  65  68
ENDBRANCH   5  65
BRANCH   4  79
ATOM     79  O5  DMP d   1     -11.802  18.523  28.852  0.00  0.00    -0.391 OA
ATOM     80  H36 DMP d   1     -11.678  19.461  28.766  0.00  0.00     0.210 HD
ENDBRANCH   4  79
TORSDOF 14
