REMARK  12 active torsions:
REMARK  status: ('A' for Active; 'I' for Inactive)
REMARK    1  A    between atoms: N2_35  and  C2_2 
REMARK    2  A    between atoms: C2_2  and  C20_8 
REMARK    3  A    between atoms: C3_3  and  C31_18 
REMARK    4  A    between atoms: C4_4  and  O4_40 
REMARK    5  A    between atoms: C5_5  and  O5_41 
REMARK    6  A    between atoms: C6_6  and  C61_25 
REMARK    7  A    between atoms: N7_36  and  C7_7 
REMARK    8  A    between atoms: C7_7  and  C70_32 
REMARK    9  A    between atoms: C22_10  and  C26_14 
REMARK       I    between atoms: C26_14  and  N26_37 
REMARK   10  A    between atoms: N26_37  and  C27_15 
REMARK   11  A    between atoms: C31_18  and  C32_19 
REMARK   12  A    between atoms: C61_25  and  C62_26 
ROOT
ATOM      1  C1  846 d   1      -8.431  14.943  27.883  0.00  0.00     0.321 C 
ATOM      2  C3  846 d   1     -10.503  15.941  28.903  0.00  0.00     0.047 C 
ATOM      3  C4  846 d   1     -10.349  17.428  28.609  0.00  0.00     0.082 C 
ATOM      4  C5  846 d   1     -10.020  17.684  27.159  0.00  0.00     0.082 C 
ATOM      5  C6  846 d   1      -8.625  17.201  26.848  0.00  0.00     0.047 C 
ATOM      6  N2  846 d   1      -9.297  15.092  28.927  0.00  0.00    -0.322 N 
ATOM      7  N7  846 d   1      -8.430  15.743  26.781  0.00  0.00    -0.326 N 
ATOM      8  O1  846 d   1      -7.619  14.030  27.924  0.00  0.00    -0.247 OA
ATOM      9  H3  846 d   1     -10.846  15.941  29.948  0.00  0.00     0.077 H 
ATOM     10  H4  846 d   1      -9.541  17.844  29.229  0.00  0.00     0.090 H 
ATOM     11  H5  846 d   1     -10.756  17.167  26.526  0.00  0.00     0.090 H 
ATOM     12  H6  846 d   1      -8.450  17.556  25.822  0.00  0.00     0.077 H 
ENDROOT
BRANCH   6  13
ATOM     13  C2  846 d   1      -9.141  14.231  30.117  0.00  0.00     0.024 C 
ATOM     14  H1  846 d   1      -8.175  13.715  30.017  0.00  0.00     0.071 H 
ATOM     15  H2  846 d   1      -9.956  13.492  30.089  0.00  0.00     0.071 H 
BRANCH  13  16
ATOM     16  C20 846 d   1      -9.165  14.871  31.503  0.00  0.00    -0.039 A 
ATOM     17  C25 846 d   1      -8.318  15.963  31.779  0.00  0.00    -0.075 A 
ATOM     18  C24 846 d   1      -8.291  16.550  33.055  0.00  0.00    -0.081 A 
ATOM     19  H12 846 d   1      -7.679  16.355  30.996  0.00  0.00     0.084 H 
ATOM     20  C23 846 d   1      -9.117  16.036  34.069  0.00  0.00    -0.068 A 
ATOM     21  H11 846 d   1      -7.639  17.392  33.256  0.00  0.00     0.083 H 
ATOM     22  C22 846 d   1      -9.967  14.941  33.831  0.00  0.00     0.033 A 
ATOM     23  H10 846 d   1      -9.099  16.492  35.052  0.00  0.00     0.085 H 
ATOM     24  C21 846 d   1     -10.001  14.359  32.537  0.00  0.00    -0.060 A 
ATOM     25  H9  846 d   1     -10.663  13.525  32.335  0.00  0.00     0.086 H 
BRANCH  22  26
ATOM     26  C26 846 d   1     -10.749  14.402  35.009  0.00  0.00     0.257 C 
ATOM     27  O26 846 d   1     -11.154  15.122  35.906  0.00  0.00    -0.267 OA
ATOM     28  N26 846 d   1     -10.926  13.066  35.045  0.00  0.00    -0.301 N 
ATOM     29  H34 846 d   1     -10.638  12.554  34.236  0.00  0.00     0.171 HD
BRANCH  28  30
ATOM     30  C27 846 d   1     -11.506  12.273  36.166  0.00  0.00     0.173 A 
ATOM     31  N27 846 d   1     -11.500  10.919  36.237  0.00  0.00    -0.236 NA
ATOM     32  C28 846 d   1     -12.096  10.415  37.381  0.00  0.00     0.011 A 
ATOM     33  C29 846 d   1     -12.605  11.377  38.276  0.00  0.00    -0.025 A 
ATOM     34  H13 846 d   1     -12.167   9.346  37.576  0.00  0.00     0.115 H 
ATOM     35  S29 846 d   1     -12.266  12.863  37.559  0.00  0.00    -0.062 SA
ATOM     36  H14 846 d   1     -13.108  11.198  39.225  0.00  0.00     0.097 H 
ENDBRANCH  28  30
ENDBRANCH  22  26
ENDBRANCH  13  16
ENDBRANCH   6  13
BRANCH   2  37
ATOM     37  C31 846 d   1     -11.616  15.205  28.136  0.00  0.00    -0.019 C 
ATOM     38  H15 846 d   1     -11.175  14.721  27.252  0.00  0.00     0.043 H 
ATOM     39  H16 846 d   1     -12.368  15.940  27.814  0.00  0.00     0.043 H 
BRANCH  37  40
ATOM     40  C32 846 d   1     -12.296  14.152  28.975  0.00  0.00    -0.056 A 
ATOM     41  C37 846 d   1     -13.050  14.551  30.105  0.00  0.00    -0.077 A 
ATOM     42  C36 846 d   1     -13.681  13.581  30.906  0.00  0.00    -0.082 A 
ATOM     43  H21 846 d   1     -13.141  15.602  30.353  0.00  0.00     0.084 H 
ATOM     44  C35 846 d   1     -13.560  12.217  30.575  0.00  0.00    -0.083 A 
ATOM     45  H20 846 d   1     -14.257  13.882  31.773  0.00  0.00     0.083 H 
ATOM     46  C34 846 d   1     -12.814  11.817  29.446  0.00  0.00    -0.082 A 
ATOM     47  H19 846 d   1     -14.044  11.469  31.192  0.00  0.00     0.083 H 
ATOM     48  C33 846 d   1     -12.179  12.789  28.639  0.00  0.00    -0.077 A 
ATOM     49  H18 846 d   1     -12.728  10.765  29.198  0.00  0.00     0.083 H 
ATOM     50  H17 846 d   1     -11.607  12.488  27.769  0.00  0.00     0.084 H 
ENDBRANCH  37  40
ENDBRANCH   2  37
BRANCH   7  51
ATOM     51  C7  846 d   1      -7.994  15.179  25.480  0.00  0.00     0.003 C 
ATOM     52  H7  846 d   1      -8.236  14.106  25.452  0.00  0.00     0.065 H 
ATOM     53  H8  846 d   1      -6.907  15.312  25.374  0.00  0.00     0.065 H 
BRANCH  51  54
ATOM     54  C70 846 d   1      -8.708  15.891  24.312  0.00  0.00    -0.038 A 
ATOM     55  C72 846 d   1      -9.812  15.037  23.685  0.00  0.00    -0.060 A 
ATOM     56  C71 846 d   1      -8.480  15.240  22.940  0.00  0.00    -0.060 A 
ATOM     57  H32 846 d   1     -10.730  15.514  23.310  0.00  0.00     0.033 H 
ATOM     58  H33 846 d   1     -10.058  14.055  24.114  0.00  0.00     0.033 H 
ATOM     59  H30 846 d   1      -7.773  14.404  22.838  0.00  0.00     0.033 H 
ATOM     60  H31 846 d   1      -8.445  15.863  22.034  0.00  0.00     0.033 H 
ATOM     61  H29 846 d   1      -8.790  16.979  24.449  0.00  0.00     0.042 H 
ENDBRANCH  51  54
ENDBRANCH   7  51
BRANCH   3  62
ATOM     62  O4  846 d   1     -11.576  18.025  28.964  0.00  0.00    -0.391 OA
ATOM     63  H35 846 d   1     -11.532  18.959  28.799  0.00  0.00     0.210 HD
ENDBRANCH   3  62
BRANCH   5  64
ATOM     64  C61 846 d   1      -7.493  17.834  27.689  0.00  0.00    -0.019 C 
ATOM     65  H22 846 d   1      -7.463  17.334  28.668  0.00  0.00     0.043 H 
ATOM     66  H23 846 d   1      -7.716  18.902  27.829  0.00  0.00     0.043 H 
BRANCH  64  67
ATOM     67  C62 846 d   1      -6.133  17.708  27.043  0.00  0.00    -0.056 A 
ATOM     68  C67 846 d   1      -5.224  16.732  27.494  0.00  0.00    -0.077 A 
ATOM     69  C66 846 d   1      -3.984  16.590  26.831  0.00  0.00    -0.082 A 
ATOM     70  H28 846 d   1      -5.472  16.098  28.338  0.00  0.00     0.084 H 
ATOM     71  C65 846 d   1      -3.660  17.423  25.734  0.00  0.00    -0.083 A 
ATOM     72  H27 846 d   1      -3.277  15.839  27.165  0.00  0.00     0.083 H 
ATOM     73  C64 846 d   1      -4.572  18.403  25.295  0.00  0.00    -0.082 A 
ATOM     74  H26 846 d   1      -2.707  17.307  25.230  0.00  0.00     0.083 H 
ATOM     75  C63 846 d   1      -5.806  18.548  25.950  0.00  0.00    -0.077 A 
ATOM     76  H25 846 d   1      -4.322  19.042  24.456  0.00  0.00     0.083 H 
ATOM     77  H24 846 d   1      -6.509  19.304  25.619  0.00  0.00     0.084 H 
ENDBRANCH  64  67
ENDBRANCH   5  64
BRANCH   4  78
ATOM     78  O5  846 d   1     -10.007  19.063  26.862  0.00  0.00    -0.391 OA
ATOM     79  H36 846 d   1     -10.863  19.433  27.045  0.00  0.00     0.210 HD
ENDBRANCH   4  78
TORSDOF 12
