REMARK  9 active torsions:
REMARK  status: ('A' for Active; 'I' for Inactive)
REMARK    1  A    between atoms: C3_4  and  C1_1 
REMARK    2  A    between atoms: C2_3  and  N1_2 
REMARK    3  A    between atoms: C2_3  and  C10_10 
REMARK    4  A    between atoms: C2_3  and  C3_4 
REMARK       I    between atoms: C10_10  and  N12_12 
REMARK    5  A    between atoms: C14_14  and  C17_17 
REMARK       I    between atoms: C17_17  and  N19_19 
REMARK    6  A    between atoms: N19_19  and  C20_20 
REMARK    7  A    between atoms: C20_20  and  C30_21 
REMARK    8  A    between atoms: C30_21  and  N27_22 
REMARK    9  A    between atoms: N27_22  and  C21_23 
ROOT
ATOM      1  C10 PPX d   1      17.604 -14.837  22.963  0.00  0.00     0.251 C 
ATOM      2  O11 PPX d   1      16.570 -14.215  23.190  0.00  0.00    -0.271 OA
ATOM      3  N12 PPX d   1      18.520 -14.427  22.064  0.00  0.00    -0.337 N 
ATOM      4  C13 PPX d   1      19.598 -15.261  21.476  0.00  0.00    -0.001 C 
ATOM      5  C14 PPX d   1      18.379 -13.143  21.349  0.00  0.00     0.091 C 
ATOM      6  C15 PPX d   1      19.582 -13.155  20.372  0.00  0.00    -0.036 C 
ATOM      7  C16 PPX d   1      20.510 -14.234  20.912  0.00  0.00    -0.048 C 
ATOM      8  H12 PPX d   1      19.207 -15.923  20.690  0.00  0.00     0.064 H 
ATOM      9  H13 PPX d   1      20.102 -15.864  22.246  0.00  0.00     0.064 H 
ATOM     10  H14 PPX d   1      18.449 -12.296  22.048  0.00  0.00     0.087 H 
ATOM     11  H15 PPX d   1      19.251 -13.403  19.353  0.00  0.00     0.036 H 
ATOM     12  H16 PPX d   1      20.086 -12.177  20.366  0.00  0.00     0.036 H 
ATOM     13  H17 PPX d   1      21.123 -14.660  20.104  0.00  0.00     0.035 H 
ATOM     14  H18 PPX d   1      21.167 -13.826  21.694  0.00  0.00     0.035 H 
ENDROOT
BRANCH   5  15
ATOM     15  C17 PPX d   1      17.060 -13.064  20.596  0.00  0.00     0.240 C 
ATOM     16  N19 PPX d   1      16.302 -11.996  20.811  0.00  0.00    -0.358 N 
ATOM     17  H19 PPX d   1      16.640 -11.296  21.440  0.00  0.00     0.162 HD
ATOM     18  O18 PPX d   1      16.720 -13.966  19.834  0.00  0.00    -0.271 OA
BRANCH  16  19
ATOM     19  C20 PPX d   1      14.996 -11.785  20.177  0.00  0.00     0.010 C 
ATOM     20  H20 PPX d   1      14.557 -12.763  19.933  0.00  0.00     0.066 H 
ATOM     21  H21 PPX d   1      15.139 -11.206  19.253  0.00  0.00     0.066 H 
BRANCH  19  22
ATOM     22  C30 PPX d   1      14.053 -11.040  21.076  0.00  0.00     0.007 C 
ATOM     23  H22 PPX d   1      13.478 -10.308  20.490  0.00  0.00     0.066 H 
ATOM     24  H23 PPX d   1      14.620 -10.518  21.861  0.00  0.00     0.066 H 
BRANCH  22  25
ATOM     25  N27 PPX d   1      13.172 -11.983  21.665  0.00  0.00    -0.388 N 
ATOM     26  H24 PPX d   1      13.152 -12.946  21.301  0.00  0.00     0.159 HD
BRANCH  25  27
ATOM     27  C21 PPX d   1      12.372 -11.656  22.674  0.00  0.00     0.030 A 
ATOM     28  C26 PPX d   1      12.438 -10.457  23.384  0.00  0.00    -0.041 A 
ATOM     29  C25 PPX d   1      11.567 -10.259  24.456  0.00  0.00     0.004 A 
ATOM     30  H28 PPX d   1      13.154  -9.692  23.108  0.00  0.00     0.089 H 
ATOM     31  N24 PPX d   1      10.682 -11.213  24.814  0.00  0.00    -0.273 NA
ATOM     32  H27 PPX d   1      11.602  -9.327  25.008  0.00  0.00     0.114 H 
ATOM     33  C23 PPX d   1      10.603 -12.362  24.144  0.00  0.00     0.004 A 
ATOM     34  C22 PPX d   1      11.452 -12.613  23.063  0.00  0.00    -0.041 A 
ATOM     35  H26 PPX d   1       9.874 -13.108  24.440  0.00  0.00     0.114 H 
ATOM     36  H25 PPX d   1      11.390 -13.555  22.531  0.00  0.00     0.089 H 
ENDBRANCH  25  27
ENDBRANCH  22  25
ENDBRANCH  19  22
ENDBRANCH  16  19
ENDBRANCH   5  15
BRANCH   1  37
ATOM     37  C2  PPX d   1      17.851 -16.186  23.667  0.00  0.00     0.179 C 
ATOM     38  H4  PPX d   1      18.690 -16.720  23.198  0.00  0.00     0.099 H 
BRANCH  37  39
ATOM     39  N1  PPX d   1      16.575 -16.957  23.518  0.00  0.00    -0.066 N 
ATOM     40  H1  PPX d   1      16.672 -17.857  23.962  0.00  0.00     0.275 HD
ATOM     41  H2  PPX d   1      16.372 -17.085  22.539  0.00  0.00     0.275 HD
ATOM     42  H3  PPX d   1      15.822 -16.448  23.953  0.00  0.00     0.275 HD
ENDBRANCH  37  39
BRANCH  37  43
ATOM     43  C3  PPX d   1      18.137 -15.971  25.161  0.00  0.00    -0.006 C 
ATOM     44  H5  PPX d   1      17.481 -15.177  25.547  0.00  0.00     0.043 H 
ATOM     45  H6  PPX d   1      17.943 -16.906  25.708  0.00  0.00     0.043 H 
BRANCH  43  46
ATOM     46  C1  PPX d   1      19.574 -15.569  25.354  0.00  0.00    -0.056 C 
ATOM     47  C6  PPX d   1      20.586 -16.450  24.993  0.00  0.00    -0.077 C 
ATOM     48  C8  PPX d   1      21.924 -16.056  25.027  0.00  0.00    -0.082 C 
ATOM     49  H8  PPX d   1      20.332 -17.457  24.681  0.00  0.00     0.084 H 
ATOM     50  C9  PPX d   1      22.251 -14.802  25.541  0.00  0.00    -0.083 C 
ATOM     51  H10 PPX d   1      22.700 -16.717  24.658  0.00  0.00     0.083 H 
ATOM     52  C7  PPX d   1      21.260 -13.989  26.022  0.00  0.00    -0.082 C 
ATOM     53  H11 PPX d   1      23.284 -14.473  25.560  0.00  0.00     0.083 H 
ATOM     54  C5  PPX d   1      19.934 -14.391  25.984  0.00  0.00    -0.077 C 
ATOM     55  H9  PPX d   1      21.515 -13.021  26.437  0.00  0.00     0.083 H 
ATOM     56  H7  PPX d   1      19.173 -13.777  26.452  0.00  0.00     0.084 H 
ENDBRANCH  43  46
ENDBRANCH  37  43
ENDBRANCH   1  37
TORSDOF 9
