REMARK  13 active torsions:
REMARK  status: ('A' for Active; 'I' for Inactive)
REMARK    1  A    between atoms: SG_1  and  CA1_2 
REMARK    2  A    between atoms: CA1_2  and  C1_10 
REMARK    3  A    between atoms: CA1_2  and  CB1_3 
REMARK    4  A    between atoms: CB1_3  and  CG1_4 
REMARK       I    between atoms: C1_10  and  N2_12 
REMARK    5  A    between atoms: N2_12  and  CA2_13 
REMARK    6  A    between atoms: CA2_13  and  C2_21 
REMARK    7  A    between atoms: CA2_13  and  CB2_14 
REMARK    8  A    between atoms: CB2_14  and  CG2_15 
REMARK       I    between atoms: C2_21  and  N3_23 
REMARK    9  A    between atoms: N3_23  and  CA3_24 
REMARK   10  A    between atoms: CA3_24  and  C3_33 
REMARK   11  A    between atoms: CA3_24  and  CB3_25 
REMARK   12  A    between atoms: CB3_25  and  CG3_26 
REMARK   13  A    between atoms: CZ3_31  and  OH_32 
ROOT
ATOM      1  CA2 TI2 d   1      36.557  42.175  -3.060  0.00  0.00     0.093 C 
ATOM      2  H11 TI2 d   1      36.947  43.163  -3.345  0.00  0.00     0.088 H 
ENDROOT
BRANCH   1   3
ATOM      3  N2  TI2 d   1      35.542  41.802  -4.022  0.00  0.00    -0.346 N 
ATOM      4  C1  TI2 d   1      35.758  41.918  -5.322  0.00  0.00     0.232 C 
ATOM      5  O1  TI2 d   1      36.801  42.379  -5.799  0.00  0.00    -0.272 OA
ATOM      6  H10 TI2 d   1      34.663  41.451  -3.699  0.00  0.00     0.163 HD
BRANCH   4   7
ATOM      7  CA1 TI2 d   1      34.603  41.542  -6.228  0.00  0.00     0.069 C 
ATOM      8  H2  TI2 d   1      33.743  41.154  -5.662  0.00  0.00     0.071 H 
BRANCH   7   9
ATOM      9  SG  TI2 d   1      34.226  43.172  -6.987  0.00  0.00    -0.168 SA
ATOM     10  H1  TI2 d   1      33.977  43.829  -6.264  0.00  0.00     0.102 HD
ENDBRANCH   7   9
BRANCH   7  11
ATOM     11  CB1 TI2 d   1      35.056  40.503  -7.240  0.00  0.00    -0.021 C 
ATOM     12  H3  TI2 d   1      35.706  39.777  -6.730  0.00  0.00     0.042 H 
ATOM     13  H4  TI2 d   1      35.625  41.011  -8.033  0.00  0.00     0.042 H 
BRANCH  11  14
ATOM     14  CG1 TI2 d   1      33.931  39.773  -7.861  0.00  0.00    -0.057 A 
ATOM     15  CD2 TI2 d   1      33.262  38.782  -7.142  0.00  0.00    -0.077 A 
ATOM     16  CE2 TI2 d   1      32.168  38.139  -7.677  0.00  0.00    -0.082 A 
ATOM     17  H6  TI2 d   1      33.608  38.515  -6.150  0.00  0.00     0.084 H 
ATOM     18  CZ1 TI2 d   1      31.723  38.481  -8.951  0.00  0.00    -0.083 A 
ATOM     19  H8  TI2 d   1      31.656  37.371  -7.109  0.00  0.00     0.083 H 
ATOM     20  CE1 TI2 d   1      32.390  39.467  -9.677  0.00  0.00    -0.082 A 
ATOM     21  H9  TI2 d   1      30.860  37.982  -9.377  0.00  0.00     0.083 H 
ATOM     22  CD1 TI2 d   1      33.491  40.105  -9.127  0.00  0.00    -0.077 A 
ATOM     23  H7  TI2 d   1      32.048  39.734 -10.670  0.00  0.00     0.083 H 
ATOM     24  H5  TI2 d   1      34.010  40.869  -9.694  0.00  0.00     0.084 H 
ENDBRANCH  11  14
ENDBRANCH   7  11
ENDBRANCH   4   7
ENDBRANCH   1   3
BRANCH   1  25
ATOM     25  C2  TI2 d   1      37.724  41.205  -3.012  0.00  0.00     0.241 C 
ATOM     26  N3  TI2 d   1      37.386  39.928  -3.111  0.00  0.00    -0.344 N 
ATOM     27  H19 TI2 d   1      36.419  39.712  -3.247  0.00  0.00     0.163 HD
ATOM     28  O2  TI2 d   1      38.888  41.610  -2.904  0.00  0.00    -0.271 OA
BRANCH  26  29
ATOM     29  CA3 TI2 d   1      38.319  38.821  -3.036  0.00  0.00     0.100 C 
ATOM     30  H20 TI2 d   1      39.298  39.157  -2.664  0.00  0.00     0.090 H 
BRANCH  29  31
ATOM     31  C3  TI2 d   1      38.474  38.218  -4.436  0.00  0.00     0.197 C 
ATOM     32  OXT TI2 d   1      39.615  37.943  -4.837  0.00  0.00    -0.646 OA
ATOM     33  O3  TI2 d   1      37.458  38.060  -5.147  0.00  0.00    -0.646 OA
ENDBRANCH  29  31
BRANCH  29  34
ATOM     34  CB3 TI2 d   1      37.699  37.818  -2.069  0.00  0.00    -0.013 C 
ATOM     35  H21 TI2 d   1      36.860  37.339  -2.595  0.00  0.00     0.043 H 
ATOM     36  H22 TI2 d   1      37.315  38.391  -1.212  0.00  0.00     0.043 H 
BRANCH  34  37
ATOM     37  CG3 TI2 d   1      38.566  36.706  -1.508  0.00  0.00    -0.056 A 
ATOM     38  CD6 TI2 d   1      37.962  35.471  -1.249  0.00  0.00    -0.074 A 
ATOM     39  CE6 TI2 d   1      38.718  34.431  -0.698  0.00  0.00    -0.051 A 
ATOM     40  H25 TI2 d   1      36.912  35.321  -1.474  0.00  0.00     0.084 H 
ATOM     41  CZ3 TI2 d   1      40.075  34.630  -0.414  0.00  0.00     0.065 A 
ATOM     42  H26 TI2 d   1      38.255  33.473  -0.491  0.00  0.00     0.087 H 
ATOM     43  CE5 TI2 d   1      40.678  35.870  -0.683  0.00  0.00    -0.051 A 
ATOM     44  CD5 TI2 d   1      39.919  36.914  -1.232  0.00  0.00    -0.074 A 
ATOM     45  H24 TI2 d   1      41.730  36.020  -0.466  0.00  0.00     0.087 H 
ATOM     46  H23 TI2 d   1      40.379  37.873  -1.440  0.00  0.00     0.084 H 
BRANCH  41  47
ATOM     47  OH  TI2 d   1      40.806  33.619   0.127  0.00  0.00    -0.361 OA
ATOM     48  H27 TI2 d   1      40.252  32.856   0.244  0.00  0.00     0.217 HD
ENDBRANCH  41  47
ENDBRANCH  34  37
ENDBRANCH  29  34
ENDBRANCH  26  29
ENDBRANCH   1  25
BRANCH   1  49
ATOM     49  CB2 TI2 d   1      35.936  42.275  -1.671  0.00  0.00    -0.014 C 
ATOM     50  H12 TI2 d   1      35.731  41.258  -1.307  0.00  0.00     0.043 H 
ATOM     51  H13 TI2 d   1      34.992  42.833  -1.751  0.00  0.00     0.043 H 
BRANCH  49  52
ATOM     52  CG2 TI2 d   1      36.808  42.963  -0.682  0.00  0.00    -0.056 A 
ATOM     53  CD4 TI2 d   1      37.317  42.277   0.414  0.00  0.00    -0.077 A 
ATOM     54  CE4 TI2 d   1      38.161  42.922   1.326  0.00  0.00    -0.082 A 
ATOM     55  H15 TI2 d   1      37.059  41.235   0.564  0.00  0.00     0.084 H 
ATOM     56  CZ2 TI2 d   1      38.498  44.265   1.140  0.00  0.00    -0.083 A 
ATOM     57  H17 TI2 d   1      38.554  42.379   2.178  0.00  0.00     0.083 H 
ATOM     58  CE3 TI2 d   1      37.991  44.959   0.044  0.00  0.00    -0.082 A 
ATOM     59  H18 TI2 d   1      39.151  44.765   1.846  0.00  0.00     0.083 H 
ATOM     60  CD3 TI2 d   1      37.148  44.304  -0.862  0.00  0.00    -0.077 A 
ATOM     61  H16 TI2 d   1      38.248  46.001  -0.107  0.00  0.00     0.083 H 
ATOM     62  H14 TI2 d   1      36.754  44.846  -1.714  0.00  0.00     0.084 H 
ENDBRANCH  49  52
ENDBRANCH   1  49
TORSDOF 13
