REMARK  14 active torsions:
REMARK  status: ('A' for Active; 'I' for Inactive)
REMARK    1  A    between atoms: SG_1  and  CA1_2 
REMARK    2  A    between atoms: CA1_2  and  C1_8 
REMARK    3  A    between atoms: CA1_2  and  CB1_3 
REMARK    4  A    between atoms: CB1_3  and  CG1_4 
REMARK    5  A    between atoms: CG1_4  and  CD1_5 
REMARK    6  A    between atoms: CD1_5  and  CE1_6 
REMARK    7  A    between atoms: CE1_6  and  CF1_7 
REMARK       I    between atoms: C1_8  and  N2_10 
REMARK    8  A    between atoms: N2_10  and  CA2_11 
REMARK    9  A    between atoms: CA2_11  and  C2_19 
REMARK   10  A    between atoms: CA2_11  and  CB2_12 
REMARK   11  A    between atoms: CB2_12  and  CG2_13 
REMARK       I    between atoms: C2_19  and  N3_21 
REMARK   12  A    between atoms: N3_21  and  CA3_22 
REMARK   13  A    between atoms: CA3_22  and  C3_24 
REMARK   14  A    between atoms: CA3_22  and  CB3_23 
ROOT
ATOM      1  CA2 TI1 d   1      36.313  42.020  -3.248  0.00  0.00     0.093 C 
ATOM      2  H15 TI1 d   1      36.646  43.041  -3.487  0.00  0.00     0.088 H 
ENDROOT
BRANCH   1   3
ATOM      3  N2  TI1 d   1      35.297  41.676  -4.237  0.00  0.00    -0.346 N 
ATOM      4  C1  TI1 d   1      35.561  41.869  -5.523  0.00  0.00     0.232 C 
ATOM      5  O1  TI1 d   1      36.645  42.319  -5.916  0.00  0.00    -0.272 OA
ATOM      6  H14 TI1 d   1      34.416  41.301  -3.950  0.00  0.00     0.163 HD
BRANCH   4   7
ATOM      7  CA1 TI1 d   1      34.469  41.549  -6.538  0.00  0.00     0.065 C 
ATOM      8  H2  TI1 d   1      33.587  41.050  -6.111  0.00  0.00     0.071 H 
BRANCH   7   9
ATOM      9  SG  TI1 d   1      34.131  43.301  -7.063  0.00  0.00    -0.168 SA
ATOM     10  H1  TI1 d   1      33.833  43.839  -6.264  0.00  0.00     0.102 HD
ENDBRANCH   7   9
BRANCH   7  11
ATOM     11  CB1 TI1 d   1      35.101  40.696  -7.644  0.00  0.00    -0.045 C 
ATOM     12  H3  TI1 d   1      35.955  40.154  -7.211  0.00  0.00     0.035 H 
ATOM     13  H4  TI1 d   1      35.459  41.373  -8.434  0.00  0.00     0.035 H 
BRANCH  11  14
ATOM     14  CG1 TI1 d   1      34.190  39.696  -8.271  0.00  0.00    -0.064 C 
ATOM     15  H5  TI1 d   1      34.703  39.218  -9.118  0.00  0.00     0.033 H 
ATOM     16  H6  TI1 d   1      33.284  40.206  -8.631  0.00  0.00     0.033 H 
BRANCH  14  17
ATOM     17  CD1 TI1 d   1      33.801  38.640  -7.263  0.00  0.00    -0.065 C 
ATOM     18  H7  TI1 d   1      33.366  39.124  -6.376  0.00  0.00     0.033 H 
ATOM     19  H8  TI1 d   1      34.694  38.070  -6.968  0.00  0.00     0.033 H 
BRANCH  17  20
ATOM     20  CE1 TI1 d   1      32.783  37.699  -7.871  0.00  0.00    -0.069 C 
ATOM     21  H9  TI1 d   1      33.211  37.240  -8.774  0.00  0.00     0.032 H 
ATOM     22  H10 TI1 d   1      31.881  38.268  -8.141  0.00  0.00     0.032 H 
BRANCH  20  23
ATOM     23  CF1 TI1 d   1      32.412  36.623  -6.903  0.00  0.00    -0.077 C 
ATOM     24  H11 TI1 d   1      31.673  35.953  -7.366  0.00  0.00     0.027 H 
ATOM     25  H12 TI1 d   1      31.980  37.076  -5.998  0.00  0.00     0.027 H 
ATOM     26  H13 TI1 d   1      33.310  36.048  -6.632  0.00  0.00     0.027 H 
ENDBRANCH  20  23
ENDBRANCH  17  20
ENDBRANCH  14  17
ENDBRANCH  11  14
ENDBRANCH   7  11
ENDBRANCH   4   7
ENDBRANCH   1   3
BRANCH   1  27
ATOM     27  C2  TI1 d   1      37.557  41.131  -3.289  0.00  0.00     0.241 C 
ATOM     28  N3  TI1 d   1      37.347  39.820  -3.324  0.00  0.00    -0.345 N 
ATOM     29  H23 TI1 d   1      36.407  39.480  -3.329  0.00  0.00     0.163 HD
ATOM     30  O2  TI1 d   1      38.688  41.634  -3.290  0.00  0.00    -0.271 OA
BRANCH  28  31
ATOM     31  CA3 TI1 d   1      38.445  38.860  -3.356  0.00  0.00     0.093 C 
ATOM     32  H24 TI1 d   1      39.393  39.415  -3.302  0.00  0.00     0.089 H 
BRANCH  31  33
ATOM     33  C3  TI1 d   1      38.434  38.057  -4.656  0.00  0.00     0.196 C 
ATOM     34  OXT TI1 d   1      39.486  37.504  -5.018  0.00  0.00    -0.646 OA
ATOM     35  O3  TI1 d   1      37.387  38.018  -5.334  0.00  0.00    -0.646 OA
ENDBRANCH  31  33
BRANCH  31  36
ATOM     36  CB3 TI1 d   1      38.358  37.935  -2.149  0.00  0.00    -0.048 C 
ATOM     37  H25 TI1 d   1      39.188  37.214  -2.179  0.00  0.00     0.030 H 
ATOM     38  H26 TI1 d   1      37.401  37.393  -2.170  0.00  0.00     0.030 H 
ATOM     39  H27 TI1 d   1      38.422  38.530  -1.226  0.00  0.00     0.030 H 
ENDBRANCH  31  36
ENDBRANCH  28  31
ENDBRANCH   1  27
BRANCH   1  40
ATOM     40  CB2 TI1 d   1      35.738  42.052  -1.830  0.00  0.00    -0.014 C 
ATOM     41  H16 TI1 d   1      35.624  41.017  -1.475  0.00  0.00     0.043 H 
ATOM     42  H17 TI1 d   1      34.752  42.539  -1.863  0.00  0.00     0.043 H 
BRANCH  40  43
ATOM     43  CG2 TI1 d   1      36.605  42.796  -0.859  0.00  0.00    -0.056 A 
ATOM     44  CD4 TI1 d   1      37.172  42.147   0.234  0.00  0.00    -0.077 A 
ATOM     45  CE4 TI1 d   1      38.040  42.828   1.098  0.00  0.00    -0.082 A 
ATOM     46  H19 TI1 d   1      36.940  41.104   0.419  0.00  0.00     0.084 H 
ATOM     47  CZ2 TI1 d   1      38.340  44.169   0.866  0.00  0.00    -0.083 A 
ATOM     48  H21 TI1 d   1      38.477  42.313   1.945  0.00  0.00     0.083 H 
ATOM     49  CE3 TI1 d   1      37.774  44.830  -0.219  0.00  0.00    -0.082 A 
ATOM     50  H22 TI1 d   1      39.014  44.697   1.531  0.00  0.00     0.083 H 
ATOM     51  CD3 TI1 d   1      36.910  44.143  -1.076  0.00  0.00    -0.077 A 
ATOM     52  H20 TI1 d   1      38.002  45.874  -0.399  0.00  0.00     0.083 H 
ATOM     53  H18 TI1 d   1      36.470  44.661  -1.920  0.00  0.00     0.084 H 
ENDBRANCH  40  43
ENDBRANCH   1  40
TORSDOF 14
