REMARK  8 active torsions:
REMARK  status: ('A' for Active; 'I' for Inactive)
REMARK    1  A    between atoms: SG_1  and  CA1_2 
REMARK    2  A    between atoms: CA1_2  and  C1_10 
REMARK    3  A    between atoms: CA1_2  and  CB1_3 
REMARK    4  A    between atoms: CB1_3  and  CG1_4 
REMARK       I    between atoms: C1_10  and  N2_12 
REMARK    5  A    between atoms: N2_12  and  CA2_13 
REMARK    6  A    between atoms: CA2_13  and  C2_14 
REMARK       I    between atoms: C2_14  and  N3_16 
REMARK    7  A    between atoms: CD3_17  and  CG4_21 
REMARK    8  A    between atoms: CA3_18  and  C3_27 
ROOT
ATOM      1  C2  TI3 d   1      38.231  38.273  -4.780  0.00  0.00     0.238 C 
ATOM      2  O2  TI3 d   1      37.301  38.388  -5.582  0.00  0.00    -0.272 OA
ATOM      3  N3  TI3 d   1      39.261  37.455  -5.019  0.00  0.00    -0.327 N 
ATOM      4  CD3 TI3 d   1      40.386  37.058  -4.141  0.00  0.00     0.041 C 
ATOM      5  CA3 TI3 d   1      39.267  36.706  -6.284  0.00  0.00     0.099 C 
ATOM      6  CB3 TI3 d   1      40.707  36.207  -6.369  0.00  0.00    -0.034 C 
ATOM      7  CG3 TI3 d   1      41.054  35.954  -4.946  0.00  0.00    -0.040 C 
ATOM      8  H13 TI3 d   1      41.068  37.911  -4.009  0.00  0.00     0.080 H 
ATOM      9  H14 TI3 d   1      39.069  37.402  -7.112  0.00  0.00     0.089 H 
ATOM     10  H15 TI3 d   1      40.772  35.283  -6.963  0.00  0.00     0.036 H 
ATOM     11  H16 TI3 d   1      41.366  36.971  -6.807  0.00  0.00     0.036 H 
ATOM     12  H17 TI3 d   1      40.676  34.970  -4.631  0.00  0.00     0.036 H 
ATOM     13  H18 TI3 d   1      42.145  35.989  -4.808  0.00  0.00     0.036 H 
ENDROOT
BRANCH   1  14
ATOM     14  CA2 TI3 d   1      38.204  39.063  -3.486  0.00  0.00     0.069 C 
ATOM     15  H11 TI3 d   1      37.775  38.464  -2.669  0.00  0.00     0.078 H 
ATOM     16  H12 TI3 d   1      39.215  39.394  -3.207  0.00  0.00     0.078 H 
BRANCH  14  17
ATOM     17  N2  TI3 d   1      37.358  40.193  -3.797  0.00  0.00    -0.351 N 
ATOM     18  C1  TI3 d   1      37.866  41.397  -4.013  0.00  0.00     0.232 C 
ATOM     19  O1  TI3 d   1      39.049  41.679  -3.834  0.00  0.00    -0.272 OA
ATOM     20  H10 TI3 d   1      36.368  40.063  -3.850  0.00  0.00     0.163 HD
BRANCH  18  21
ATOM     21  CA1 TI3 d   1      36.857  42.476  -4.381  0.00  0.00     0.069 C 
ATOM     22  H2  TI3 d   1      37.396  43.432  -4.311  0.00  0.00     0.071 H 
BRANCH  21  23
ATOM     23  SG  TI3 d   1      36.163  42.445  -6.113  0.00  0.00    -0.168 SA
ATOM     24  H1  TI3 d   1      35.688  41.569  -6.268  0.00  0.00     0.102 HD
ENDBRANCH  21  23
BRANCH  21  25
ATOM     25  CB1 TI3 d   1      35.791  42.491  -3.289  0.00  0.00    -0.021 C 
ATOM     26  H3  TI3 d   1      35.205  41.563  -3.362  0.00  0.00     0.042 H 
ATOM     27  H4  TI3 d   1      35.132  43.356  -3.457  0.00  0.00     0.042 H 
BRANCH  25  28
ATOM     28  CG1 TI3 d   1      36.360  42.588  -1.898  0.00  0.00    -0.057 A 
ATOM     29  CD2 TI3 d   1      36.198  41.545  -0.990  0.00  0.00    -0.077 A 
ATOM     30  CE2 TI3 d   1      36.755  41.613   0.281  0.00  0.00    -0.082 A 
ATOM     31  H6  TI3 d   1      35.630  40.668  -1.279  0.00  0.00     0.084 H 
ATOM     32  CZ1 TI3 d   1      37.482  42.732   0.658  0.00  0.00    -0.083 A 
ATOM     33  H8  TI3 d   1      36.621  40.793   0.977  0.00  0.00     0.083 H 
ATOM     34  CE1 TI3 d   1      37.651  43.792  -0.242  0.00  0.00    -0.082 A 
ATOM     35  H9  TI3 d   1      37.919  42.786   1.648  0.00  0.00     0.083 H 
ATOM     36  CD1 TI3 d   1      37.091  43.714  -1.510  0.00  0.00    -0.077 A 
ATOM     37  H7  TI3 d   1      38.217  44.669   0.050  0.00  0.00     0.083 H 
ATOM     38  H5  TI3 d   1      37.222  44.535  -2.206  0.00  0.00     0.084 H 
ENDBRANCH  25  28
ENDBRANCH  21  25
ENDBRANCH  18  21
ENDBRANCH  14  17
ENDBRANCH   1  14
BRANCH   5  39
ATOM     39  C3  TI3 d   1      38.232  35.568  -6.393  0.00  0.00     0.197 C 
ATOM     40  OXT TI3 d   1      37.750  35.315  -7.525  0.00  0.00    -0.646 OA
ATOM     41  O3  TI3 d   1      37.878  34.971  -5.349  0.00  0.00    -0.646 OA
ENDBRANCH   5  39
BRANCH   4  42
ATOM     42  CG4 TI3 d   1      40.002  36.545  -2.766  0.00  0.00    -0.035 A 
ATOM     43  CD4 TI3 d   1      40.907  36.604  -1.713  0.00  0.00    -0.075 A 
ATOM     44  CE4 TI3 d   1      40.588  36.071  -0.468  0.00  0.00    -0.082 A 
ATOM     45  H20 TI3 d   1      41.873  37.071  -1.863  0.00  0.00     0.084 H 
ATOM     46  CZ3 TI3 d   1      39.348  35.472  -0.265  0.00  0.00    -0.083 A 
ATOM     47  H22 TI3 d   1      41.305  36.122   0.344  0.00  0.00     0.083 H 
ATOM     48  CE5 TI3 d   1      38.429  35.409  -1.307  0.00  0.00    -0.082 A 
ATOM     49  H23 TI3 d   1      39.099  35.055   0.704  0.00  0.00     0.083 H 
ATOM     50  CD5 TI3 d   1      38.760  35.942  -2.546  0.00  0.00    -0.075 A 
ATOM     51  H21 TI3 d   1      37.461  34.947  -1.153  0.00  0.00     0.083 H 
ATOM     52  H19 TI3 d   1      38.043  35.889  -3.357  0.00  0.00     0.084 H 
ENDBRANCH   4  42
TORSDOF 8
