REMARK  3 active torsions:
REMARK  status: ('A' for Active; 'I' for Inactive)
REMARK    1  A    between atoms: CA_2  and  N_1 
REMARK    2  A    between atoms: CA_2  and  CB_3 
REMARK    3  A    between atoms: CB_3  and  CG_4 
ROOT
ATOM      1  CB  HSM d   1      73.043  45.047  26.297  0.00  0.00    -0.001 C 
ATOM      2  H6  HSM d   1      72.118  44.656  26.747  0.00  0.00     0.044 H 
ATOM      3  H7  HSM d   1      73.715  45.404  27.092  0.00  0.00     0.044 H 
ENDROOT
BRANCH   1   4
ATOM      4  CA  HSM d   1      72.683  46.233  25.394  0.00  0.00     0.085 C 
ATOM      5  H4  HSM d   1      73.609  46.718  25.051  0.00  0.00     0.075 H 
ATOM      6  H5  HSM d   1      72.118  45.865  24.525  0.00  0.00     0.075 H 
BRANCH   4   7
ATOM      7  N   HSM d   1      71.872  47.208  26.110  0.00  0.00    -0.079 N 
ATOM      8  H1  HSM d   1      71.649  47.976  25.496  0.00  0.00     0.274 HD
ATOM      9  H2  HSM d   1      72.385  47.553  26.906  0.00  0.00     0.274 HD
ATOM     10  H3  HSM d   1      71.020  46.771  26.424  0.00  0.00     0.274 HD
ENDBRANCH   4   7
ENDBRANCH   1   4
BRANCH   1  11
ATOM     11  CG  HSM d   1      73.721  43.937  25.565  0.00  0.00     0.052 A 
ATOM     12  CD2 HSM d   1      73.222  42.802  25.014  0.00  0.00     0.002 A 
ATOM     13  NE2 HSM d   1      74.270  42.150  24.404  0.00  0.00    -0.359 N 
ATOM     14  H8  HSM d   1      72.186  42.469  25.048  0.00  0.00     0.114 H 
ATOM     15  CE1 HSM d   1      75.378  42.858  24.583  0.00  0.00     0.064 A 
ATOM     16  H10 HSM d   1      74.205  41.258  23.892  0.00  0.00     0.166 HD
ATOM     17  ND1 HSM d   1      75.075  43.939  25.284  0.00  0.00    -0.247 NA
ATOM     18  H9  HSM d   1      76.369  42.594  24.215  0.00  0.00     0.143 H 
ENDBRANCH   1  11
TORSDOF 3
