REMARK  16 active torsions:
REMARK  status: ('A' for Active; 'I' for Inactive)
REMARK    1  A    between atoms: PA_1  and  O3A_8 
REMARK    2  A    between atoms: PA_1  and  O5'_4 
REMARK    3  A    between atoms: O5'_4  and  C5'_23 
REMARK    4  A    between atoms: O3A_8  and  PB_5 
REMARK    5  A    between atoms: PB_5  and  O3_38 
REMARK    6  A    between atoms: O3'_30  and  PG_9 
REMARK    7  A    between atoms: C1'_26  and  N9A_13 
REMARK    8  A    between atoms: C6A_18  and  N6A_19 
REMARK    9  A    between atoms: C5'_23  and  C4'_24 
REMARK   10  A    between atoms: C2'_27  and  O2'_28 
REMARK   11  A    between atoms: C3'_29  and  O3'_30 
REMARK   12  A    between atoms: C5_32  and  O5_31 
REMARK   13  A    between atoms: O5_31  and  PD_39 
REMARK   14  A    between atoms: C4_33  and  C5_32 
REMARK   15  A    between atoms: C1_35  and  N1U_43 
REMARK   16  A    between atoms: O3_38  and  C3_37 
ROOT
ATOM      1  PA  PUA d   1      38.992  -4.356  21.687  0.00  0.00     0.417 P 
ATOM      2  O1A PUA d   1      40.058  -5.337  22.164  0.00  0.00    -0.624 OA
ATOM      3  O2A PUA d   1      39.497  -3.000  21.191  0.00  0.00    -0.624 OA
ENDROOT
BRANCH   1   4
ATOM      4  O3A PUA d   1      37.938  -4.119  22.850  0.00  0.00    -0.180 OA
BRANCH   4   5
ATOM      5  PB  PUA d   1      37.051  -2.892  23.306  0.00  0.00     0.418 P 
ATOM      6  O2B PUA d   1      36.236  -3.330  24.451  0.00  0.00    -0.624 OA
ATOM      7  O1B PUA d   1      36.386  -2.342  22.115  0.00  0.00    -0.624 OA
BRANCH   5   8
ATOM      8  O3  PUA d   1      38.130  -1.874  23.925  0.00  0.00    -0.281 OA
BRANCH   8   9
ATOM      9  C3  PUA d   1      38.509  -0.711  23.201  0.00  0.00     0.081 C 
ATOM     10  C2  PUA d   1      37.350   0.262  23.174  0.00  0.00     0.003 C 
ATOM     11  C1  PUA d   1      37.475   0.918  24.535  0.00  0.00     0.116 C 
ATOM     12  H16 PUA d   1      36.388  -0.261  23.067  0.00  0.00     0.043 H 
ATOM     13  H17 PUA d   1      37.460   0.996  22.362  0.00  0.00     0.043 H 
ATOM     14  O4  PUA d   1      38.864   1.011  24.794  0.00  0.00    -0.356 OA
ATOM     15  H15 PUA d   1      36.977   0.299  25.296  0.00  0.00     0.118 H 
ATOM     16  C4  PUA d   1      39.580   0.047  23.984  0.00  0.00     0.087 C 
ATOM     17  H14 PUA d   1      40.133  -0.657  24.623  0.00  0.00     0.090 H 
ATOM     18  H18 PUA d   1      38.849  -0.976  22.189  0.00  0.00     0.088 H 
BRANCH  11  19
ATOM     19  N1U PUA d   1      36.908   2.272  24.560  0.00  0.00    -0.282 N 
ATOM     20  C2U PUA d   1      35.766   2.479  25.334  0.00  0.00     0.331 A 
ATOM     21  N3U PUA d   1      35.233   3.745  25.241  0.00  0.00    -0.275 N 
ATOM     22  O2U PUA d   1      35.266   1.616  26.029  0.00  0.00    -0.246 OA
ATOM     23  C4U PUA d   1      35.704   4.797  24.463  0.00  0.00     0.250 A 
ATOM     24  H20 PUA d   1      34.419   3.928  25.793  0.00  0.00     0.173 HD
ATOM     25  C5U PUA d   1      36.913   4.521  23.724  0.00  0.00    -0.002 A 
ATOM     26  O4U PUA d   1      35.004   5.795  24.338  0.00  0.00    -0.268 OA
ATOM     27  C6U PUA d   1      37.465   3.302  23.802  0.00  0.00    -0.008 A 
ATOM     28  H21 PUA d   1      37.371   5.295  23.110  0.00  0.00     0.094 H 
ATOM     29  H19 PUA d   1      38.385   3.108  23.252  0.00  0.00     0.112 H 
ENDBRANCH  11  19
BRANCH  16  30
ATOM     30  C5  PUA d   1      40.562   0.786  23.107  0.00  0.00     0.059 C 
ATOM     31  H12 PUA d   1      41.010   0.085  22.387  0.00  0.00     0.079 H 
ATOM     32  H13 PUA d   1      41.353   1.225  23.733  0.00  0.00     0.079 H 
BRANCH  30  33
ATOM     33  O5  PUA d   1      39.878   1.835  22.393  0.00  0.00    -0.280 OA
BRANCH  33  34
ATOM     34  PD  PUA d   1      40.249   2.194  20.843  0.00  0.00     0.422 P 
ATOM     35  O3D PUA d   1      40.755   0.889  20.225  0.00  0.00    -0.617 OA
ATOM     36  O2D PUA d   1      38.951   2.707  20.195  0.00  0.00    -0.617 OA
ATOM     37  O1D PUA d   1      41.335   3.271  20.928  0.00  0.00    -0.617 OA
ENDBRANCH  33  34
ENDBRANCH  30  33
ENDBRANCH  16  30
ENDBRANCH   8   9
ENDBRANCH   5   8
ENDBRANCH   4   5
ENDBRANCH   1   4
BRANCH   1  38
ATOM     38  O5' PUA d   1      38.087  -5.002  20.554  0.00  0.00    -0.287 OA
BRANCH  38  39
ATOM     39  C5' PUA d   1      37.363  -6.186  20.811  0.00  0.00     0.058 C 
ATOM     40  H5  PUA d   1      36.302  -5.940  20.966  0.00  0.00     0.079 H 
ATOM     41  H6  PUA d   1      37.763  -6.672  21.713  0.00  0.00     0.079 H 
BRANCH  39  42
ATOM     42  C4' PUA d   1      37.494  -7.115  19.645  0.00  0.00     0.090 C 
ATOM     43  C3' PUA d   1      38.936  -7.380  19.210  0.00  0.00     0.107 C 
ATOM     44  C2' PUA d   1      39.080  -6.531  17.945  0.00  0.00     0.106 C 
ATOM     45  H11 PUA d   1      39.669  -7.098  19.980  0.00  0.00     0.092 H 
ATOM     46  C1' PUA d   1      37.671  -6.647  17.362  0.00  0.00     0.140 C 
ATOM     47  H9  PUA d   1      39.316  -5.487  18.197  0.00  0.00     0.093 H 
ATOM     48  O4' PUA d   1      36.821  -6.539  18.485  0.00  0.00    -0.353 OA
ATOM     49  H8  PUA d   1      37.577  -7.654  16.929  0.00  0.00     0.122 H 
ATOM     50  H7  PUA d   1      37.022  -8.072  19.913  0.00  0.00     0.090 H 
BRANCH  43  51
ATOM     51  O3' PUA d   1      39.032  -8.766  18.890  0.00  0.00    -0.272 OA
BRANCH  51  52
ATOM     52  PG  PUA d   1      39.722  -9.838  19.904  0.00  0.00     0.422 P 
ATOM     53  O3G PUA d   1      40.087  -9.070  21.174  0.00  0.00    -0.617 OA
ATOM     54  O2G PUA d   1      40.932 -10.357  19.134  0.00  0.00    -0.617 OA
ATOM     55  O1G PUA d   1      38.652 -10.900  20.146  0.00  0.00    -0.617 OA
ENDBRANCH  51  52
ENDBRANCH  43  51
BRANCH  44  56
ATOM     56  O2' PUA d   1      40.081  -7.022  17.064  0.00  0.00    -0.388 OA
ATOM     57  H10 PUA d   1      39.860  -7.907  16.797  0.00  0.00     0.210 HD
ENDBRANCH  44  56
BRANCH  46  58
ATOM     58  N9A PUA d   1      37.240  -5.704  16.315  0.00  0.00    -0.294 N 
ATOM     59  C8A PUA d   1      36.444  -6.045  15.245  0.00  0.00     0.071 A 
ATOM     60  N7A PUA d   1      36.225  -5.060  14.405  0.00  0.00    -0.236 NA
ATOM     61  H4  PUA d   1      36.032  -7.044  15.107  0.00  0.00     0.144 H 
ATOM     62  C5A PUA d   1      36.910  -3.987  14.957  0.00  0.00     0.149 A 
ATOM     63  C4A PUA d   1      37.534  -4.363  16.146  0.00  0.00     0.167 A 
ATOM     64  C6A PUA d   1      37.077  -2.639  14.535  0.00  0.00     0.155 A 
ATOM     65  N3A PUA d   1      38.283  -3.570  16.946  0.00  0.00    -0.222 NA
ATOM     66  C2A PUA d   1      38.365  -2.318  16.444  0.00  0.00     0.091 A 
ATOM     67  N1A PUA d   1      37.818  -1.817  15.313  0.00  0.00    -0.222 NA
ATOM     68  H1  PUA d   1      38.950  -1.618  17.029  0.00  0.00     0.146 H 
BRANCH  64  69
ATOM     69  N6A PUA d   1      36.547  -2.143  13.417  0.00  0.00    -0.382 N 
ATOM     70  H2  PUA d   1      35.978  -2.746  12.805  0.00  0.00     0.157 HD
ATOM     71  H3  PUA d   1      36.706  -1.157  13.165  0.00  0.00     0.157 HD
ENDBRANCH  64  69
ENDBRANCH  46  58
ENDBRANCH  39  42
ENDBRANCH  38  39
ENDBRANCH   1  38
TORSDOF 16
