REMARK  14 active torsions:
REMARK  status: ('A' for Active; 'I' for Inactive)
REMARK    1  A    between atoms: CA_6  and  C_2 
REMARK    2  A    between atoms: CA_6  and  N_5 
REMARK    3  A    between atoms: CB_7  and  CA_6 
REMARK    4  A    between atoms: CG_10  and  CB_7 
REMARK    5  A    between atoms: CB2_8  and  CA2_14 
REMARK    6  A    between atoms: SG2_9  and  CB2_8 
REMARK    7  A    between atoms: CD2_24  and  SG2_9 
REMARK    8  A    between atoms: CD_11  and  CG_10 
REMARK       I    between atoms: N2_13  and  CD_11 
REMARK    9  A    between atoms: CA2_14  and  N2_13 
REMARK   10  A    between atoms: CA2_14  and  C2_15 
REMARK       I    between atoms: C2_15  and  N3_17 
REMARK   11  A    between atoms: N3_17  and  CA3_18 
REMARK   12  A    between atoms: CA3_18  and  C3_19 
REMARK       I    between atoms: NE2_22  and  CD2_24 
REMARK   13  A    between atoms: CG2_26  and  NE2_22 
REMARK   14  A    between atoms: NE2_22  and  OF2_23 
ROOT
ATOM      1  CA2 GIP d   1       2.677 -11.601  10.245  0.00  0.00     0.098 C 
ATOM      2  H12 GIP d   1       2.551 -11.994   9.226  0.00  0.00     0.088 H 
ENDROOT
BRANCH   1   3
ATOM      3  N2  GIP d   1       1.380 -11.730  10.968  0.00  0.00    -0.347 N 
ATOM      4  CD  GIP d   1       0.923 -12.978  11.127  0.00  0.00     0.218 C 
ATOM      5  OE  GIP d   1       1.575 -13.946  10.730  0.00  0.00    -0.274 OA
ATOM      6  H11 GIP d   1       0.882 -10.934  11.313  0.00  0.00     0.163 HD
BRANCH   4   7
ATOM      7  CG  GIP d   1      -0.440 -13.168  11.802  0.00  0.00     0.012 C 
ATOM      8  H9  GIP d   1      -0.384 -12.732  12.810  0.00  0.00     0.047 H 
ATOM      9  H10 GIP d   1      -1.191 -12.626  11.209  0.00  0.00     0.047 H 
BRANCH   7  10
ATOM     10  CB  GIP d   1      -0.916 -14.657  11.943  0.00  0.00    -0.021 C 
ATOM     11  H5  GIP d   1      -1.966 -14.654  12.269  0.00  0.00     0.037 H 
ATOM     12  H6  GIP d   1      -0.839 -15.139  10.957  0.00  0.00     0.037 H 
BRANCH  10  13
ATOM     13  CA  GIP d   1      -0.087 -15.498  12.966  0.00  0.00     0.183 C 
ATOM     14  H4  GIP d   1       0.982 -15.424  12.716  0.00  0.00     0.101 H 
BRANCH  13  15
ATOM     15  C   GIP d   1      -0.279 -14.959  14.416  0.00  0.00     0.204 C 
ATOM     16  OT2 GIP d   1       0.454 -14.023  14.818  0.00  0.00    -0.646 OA
ATOM     17  OT1 GIP d   1      -1.159 -15.449  15.166  0.00  0.00    -0.646 OA
ENDBRANCH  13  15
BRANCH  13  18
ATOM     18  N   GIP d   1      -0.520 -16.906  12.800  0.00  0.00    -0.065 N 
ATOM     19  H1  GIP d   1      -0.371 -17.193  11.845  0.00  0.00     0.275 HD
ATOM     20  H2  GIP d   1      -1.499 -16.985  13.025  0.00  0.00     0.275 HD
ATOM     21  H3  GIP d   1       0.015 -17.497  13.416  0.00  0.00     0.275 HD
ENDBRANCH  13  18
ENDBRANCH  10  13
ENDBRANCH   7  10
ENDBRANCH   4   7
ENDBRANCH   1   3
BRANCH   1  22
ATOM     22  C2  GIP d   1       3.886 -12.363  10.925  0.00  0.00     0.241 C 
ATOM     23  N3  GIP d   1       4.791 -12.807  10.043  0.00  0.00    -0.349 N 
ATOM     24  H13 GIP d   1       4.596 -12.729   9.065  0.00  0.00     0.163 HD
ATOM     25  O2  GIP d   1       4.022 -12.397  12.159  0.00  0.00    -0.271 OA
BRANCH  23  26
ATOM     26  CA3 GIP d   1       6.084 -13.416  10.478  0.00  0.00     0.075 C 
ATOM     27  H14 GIP d   1       5.886 -14.318  11.076  0.00  0.00     0.080 H 
ATOM     28  H15 GIP d   1       6.650 -12.692  11.082  0.00  0.00     0.080 H 
BRANCH  26  29
ATOM     29  C3  GIP d   1       6.897 -13.793   9.223  0.00  0.00     0.191 C 
ATOM     30  O32 GIP d   1       7.851 -14.593   9.355  0.00  0.00    -0.647 OA
ATOM     31  O31 GIP d   1       6.545 -13.285   8.140  0.00  0.00    -0.647 OA
ENDBRANCH  26  29
ENDBRANCH  23  26
ENDBRANCH   1  22
BRANCH   1  32
ATOM     32  CB2 GIP d   1       3.009 -10.111  10.187  0.00  0.00     0.013 C 
ATOM     33  H7  GIP d   1       4.019  -9.996   9.767  0.00  0.00     0.053 H 
ATOM     34  H8  GIP d   1       2.990  -9.711  11.211  0.00  0.00     0.053 H 
BRANCH  32  35
ATOM     35  SG2 GIP d   1       1.839  -9.132   9.160  0.00  0.00    -0.064 SA
BRANCH  35  36
ATOM     36  CD2 GIP d   1       1.618  -7.566  10.094  0.00  0.00     0.310 C 
ATOM     37  OZ1 GIP d   1       1.761  -7.698  11.296  0.00  0.00    -0.258 OA
ATOM     38  NE2 GIP d   1       1.438  -6.369   9.532  0.00  0.00    -0.182 N 
BRANCH  38  39
ATOM     39  CG2 GIP d   1       1.230  -6.340   8.074  0.00  0.00     0.067 A 
ATOM     40  CL2 GIP d   1      -0.077  -6.252   7.615  0.00  0.00    -0.053 A 
ATOM     41  CM2 GIP d   1      -0.334  -6.244   6.235  0.00  0.00    -0.065 A 
ATOM     42  H18 GIP d   1      -0.897  -6.190   8.321  0.00  0.00     0.087 H 
ATOM     43  CZ  GIP d   1       0.730  -6.363   5.396  0.00  0.00     0.006 A 
ATOM     44  H20 GIP d   1      -1.343  -6.147   5.852  0.00  0.00     0.085 H 
ATOM     45  I   GIP d   1       0.410  -6.357   3.268  0.00  0.00    -0.045 I 
ATOM     46  CM1 GIP d   1       2.051  -6.468   5.818  0.00  0.00    -0.065 A 
ATOM     47  CL1 GIP d   1       2.315  -6.457   7.190  0.00  0.00    -0.053 A 
ATOM     48  H19 GIP d   1       2.857  -6.556   5.099  0.00  0.00     0.085 H 
ATOM     49  H17 GIP d   1       3.330  -6.537   7.562  0.00  0.00     0.087 H 
ENDBRANCH  38  39
BRANCH  38  50
ATOM     50  OF2 GIP d   1       1.395  -5.309  10.258  0.00  0.00    -0.279 OA
ATOM     51  H16 GIP d   1       1.554  -5.541  11.165  0.00  0.00     0.245 HD
ENDBRANCH  38  50
ENDBRANCH  35  36
ENDBRANCH  32  35
ENDBRANCH   1  32
TORSDOF 14
