REMARK  7 active torsions:
REMARK  status: ('A' for Active; 'I' for Inactive)
REMARK    1  A    between atoms: P_1  and  O5'_5 
REMARK    2  A    between atoms: O5'_5  and  C5'_6 
REMARK    3  A    between atoms: C5'_6  and  C4'_7 
REMARK    4  A    between atoms: C3'_9  and  O3'_10 
REMARK    5  A    between atoms: C2'_11  and  O2'_12 
REMARK    6  A    between atoms: C1'_13  and  N9_14 
REMARK    7  A    between atoms: C2_21  and  N2_22 
ROOT
ATOM      1  C4' 5GP d   1      61.894 105.201 116.446  0.00  0.00     0.089 C 
ATOM      2  O4' 5GP d   1      60.616 104.495 116.629  0.00  0.00    -0.353 OA
ATOM      3  C3' 5GP d   1      62.589 104.396 115.367  0.00  0.00     0.091 C 
ATOM      4  C2' 5GP d   1      62.271 102.966 115.781  0.00  0.00     0.105 C 
ATOM      5  C1' 5GP d   1      60.824 103.111 116.257  0.00  0.00     0.139 C 
ATOM      6  H3  5GP d   1      62.509 105.170 117.357  0.00  0.00     0.090 H 
ATOM      7  H4  5GP d   1      62.194 104.640 114.370  0.00  0.00     0.091 H 
ATOM      8  H6  5GP d   1      62.361 102.265 114.938  0.00  0.00     0.093 H 
ATOM      9  H8  5GP d   1      60.714 102.481 117.152  0.00  0.00     0.122 H 
ENDROOT
BRANCH   5  10
ATOM     10  N9  5GP d   1      59.755 102.717 115.319  0.00  0.00    -0.293 N 
ATOM     11  C8  5GP d   1      58.986 103.493 114.496  0.00  0.00     0.071 A 
ATOM     12  N7  5GP d   1      58.082 102.847 113.810  0.00  0.00    -0.234 NA
ATOM     13  H9  5GP d   1      59.118 104.571 114.418  0.00  0.00     0.144 H 
ATOM     14  C5  5GP d   1      58.241 101.522 114.280  0.00  0.00     0.173 A 
ATOM     15  C4  5GP d   1      59.249 101.435 115.206  0.00  0.00     0.186 A 
ATOM     16  C6  5GP d   1      57.492 100.382 113.910  0.00  0.00     0.292 A 
ATOM     17  N3  5GP d   1      59.672 100.331 115.887  0.00  0.00    -0.044 NA
ATOM     18  C2  5GP d   1      58.954  99.257 115.535  0.00  0.00     0.703 A 
ATOM     19  N1  5GP d   1      57.923  99.250 114.621  0.00  0.00    -0.152 N 
ATOM     20  H10 5GP d   1      57.452  98.384 114.453  0.00  0.00     0.187 HD
ATOM     21  O6  5GP d   1      56.562 100.311 113.117  0.00  0.00    -0.265 OA
BRANCH  18  22
ATOM     22  N2  5GP d   1      59.176  98.048 116.099  0.00  0.00    -0.233 N 
ATOM     23  H11 5GP d   1      59.924  97.935 116.798  0.00  0.00     0.174 HD
ATOM     24  H12 5GP d   1      58.597  97.240 115.830  0.00  0.00     0.174 HD
ENDBRANCH  18  22
ENDBRANCH   5  10
BRANCH   4  25
ATOM     25  O2' 5GP d   1      63.113 102.542 116.867  0.00  0.00    -0.388 OA
ATOM     26  H7  5GP d   1      62.808 101.704 117.194  0.00  0.00     0.210 HD
ENDBRANCH   4  25
BRANCH   1  27
ATOM     27  C5' 5GP d   1      61.507 106.651 116.180  0.00  0.00     0.059 C 
ATOM     28  H1  5GP d   1      60.758 106.956 116.926  0.00  0.00     0.079 H 
ATOM     29  H2  5GP d   1      62.405 107.278 116.285  0.00  0.00     0.079 H 
BRANCH  27  30
ATOM     30  O5' 5GP d   1      60.955 106.858 114.866  0.00  0.00    -0.280 OA
BRANCH  30  31
ATOM     31  P   5GP d   1      60.519 108.335 114.377  0.00  0.00     0.422 P 
ATOM     32  O3P 5GP d   1      61.453 109.273 115.207  0.00  0.00    -0.617 OA
ATOM     33  O2P 5GP d   1      60.849 108.385 112.896  0.00  0.00    -0.617 OA
ATOM     34  O1P 5GP d   1      59.093 108.574 114.654  0.00  0.00    -0.617 OA
ENDBRANCH  30  31
ENDBRANCH  27  30
ENDBRANCH   1  27
BRANCH   3  35
ATOM     35  O3' 5GP d   1      63.994 104.549 115.385  0.00  0.00    -0.390 OA
ATOM     36  H5  5GP d   1      64.386 103.934 114.776  0.00  0.00     0.210 HD
ENDBRANCH   3  35
TORSDOF 7
