REMARK  6 active torsions:
REMARK  status: ('A' for Active; 'I' for Inactive)
REMARK    1  A    between atoms: P_1  and  O5'_5 
REMARK    2  A    between atoms: O5'_5  and  C5'_6 
REMARK    3  A    between atoms: C5'_6  and  C4'_7 
REMARK    4  A    between atoms: C3'_9  and  O3'_10 
REMARK    5  A    between atoms: C2'_11  and  O2'_12 
REMARK    6  A    between atoms: C1'_13  and  N9_14 
ROOT
ATOM      1  C4' IMP d   1      27.487   7.254   8.795  0.00  0.00     0.089 C 
ATOM      2  O4' IMP d   1      27.765   7.963   7.542  0.00  0.00    -0.353 OA
ATOM      3  C3' IMP d   1      26.247   6.423   8.493  0.00  0.00     0.091 C 
ATOM      4  C2' IMP d   1      25.421   7.324   7.609  0.00  0.00     0.105 C 
ATOM      5  C1' IMP d   1      26.507   8.163   6.900  0.00  0.00     0.139 C 
ATOM      6  H3  IMP d   1      27.245   7.946   9.615  0.00  0.00     0.090 H 
ATOM      7  H4  IMP d   1      26.524   5.496   7.969  0.00  0.00     0.091 H 
ATOM      8  H6  IMP d   1      24.853   6.730   6.878  0.00  0.00     0.093 H 
ATOM      9  H8  IMP d   1      26.228   9.227   6.897  0.00  0.00     0.122 H 
ENDROOT
BRANCH   5  10
ATOM     10  N9  IMP d   1      26.691   7.650   5.517  0.00  0.00    -0.294 N 
ATOM     11  C4  IMP d   1      25.862   8.007   4.474  0.00  0.00     0.169 A 
ATOM     12  C5  IMP d   1      26.364   7.362   3.367  0.00  0.00     0.172 A 
ATOM     13  N3  IMP d   1      24.805   8.816   4.550  0.00  0.00    -0.223 NA
ATOM     14  N7  IMP d   1      27.427   6.573   3.722  0.00  0.00    -0.234 NA
ATOM     15  C6  IMP d   1      25.705   7.534   2.118  0.00  0.00     0.279 A 
ATOM     16  C8  IMP d   1      27.602   6.769   4.995  0.00  0.00     0.071 A 
ATOM     17  H9  IMP d   1      28.384   6.288   5.580  0.00  0.00     0.144 H 
ATOM     18  N1  IMP d   1      24.578   8.389   2.199  0.00  0.00    -0.316 N 
ATOM     19  O6  IMP d   1      25.998   7.022   1.039  0.00  0.00    -0.265 OA
ATOM     20  C2  IMP d   1      24.190   9.010   3.374  0.00  0.00     0.069 A 
ATOM     21  H10 IMP d   1      24.040   8.551   1.372  0.00  0.00     0.170 HD
ATOM     22  H11 IMP d   1      23.341   9.691   3.342  0.00  0.00     0.143 H 
ENDBRANCH   5  10
BRANCH   4  23
ATOM     23  O2' IMP d   1      24.514   8.121   8.338  0.00  0.00    -0.388 OA
ATOM     24  H7  IMP d   1      23.868   7.563   8.755  0.00  0.00     0.210 HD
ENDBRANCH   4  23
BRANCH   1  25
ATOM     25  C5' IMP d   1      28.810   6.594   9.101  0.00  0.00     0.059 C 
ATOM     26  H1  IMP d   1      29.592   7.367   9.067  0.00  0.00     0.079 H 
ATOM     27  H2  IMP d   1      28.754   6.174  10.116  0.00  0.00     0.079 H 
BRANCH  25  28
ATOM     28  O5' IMP d   1      29.189   5.541   8.206  0.00  0.00    -0.280 OA
BRANCH  28  29
ATOM     29  P   IMP d   1      30.597   4.838   8.520  0.00  0.00     0.422 P 
ATOM     30  O3P IMP d   1      30.903   5.283   9.969  0.00  0.00    -0.617 OA
ATOM     31  O2P IMP d   1      30.390   3.361   8.405  0.00  0.00    -0.617 OA
ATOM     32  O1P IMP d   1      31.660   5.252   7.552  0.00  0.00    -0.617 OA
ENDBRANCH  28  29
ENDBRANCH  25  28
ENDBRANCH   1  25
BRANCH   3  33
ATOM     33  O3' IMP d   1      25.497   6.100   9.656  0.00  0.00    -0.390 OA
ATOM     34  H5  IMP d   1      25.281   6.898  10.124  0.00  0.00     0.210 HD
ENDBRANCH   3  33
TORSDOF 6
