REMARK  20 active torsions:
REMARK  status: ('A' for Active; 'I' for Inactive)
REMARK    1  A    between atoms: CA_2  and  N_1 
REMARK    2  A    between atoms: CA_2  and  CB_5 
REMARK    3  A    between atoms: C_3  and  CA_2 
REMARK       I    between atoms: N_10  and  C_3 
REMARK    4  A    between atoms: CB_5  and  CG_6 
REMARK    5  A    between atoms: CG_6  and  CD_7 
REMARK    6  A    between atoms: CD_7  and  CE_8 
REMARK    7  A    between atoms: CE_8  and  NZ_9 
REMARK    8  A    between atoms: CA_11  and  N_10 
REMARK    9  A    between atoms: CA_11  and  CB_14 
REMARK   10  A    between atoms: C_12  and  CA_11 
REMARK       I    between atoms: C_12  and  N_21 
REMARK   11  A    between atoms: CB_14  and  CG_15 
REMARK   12  A    between atoms: CG_15  and  CD_16 
REMARK   13  A    between atoms: CD_16  and  NE_17 
REMARK       I    between atoms: NE_17  and  CZ_18 
REMARK       I    between atoms: CZ_18  and  NH1_19 
REMARK   14  A    between atoms: N_21  and  CA_22 
REMARK   15  A    between atoms: CA_22  and  CB_25 
REMARK   16  A    between atoms: CA_22  and  C_23 
REMARK   17  A    between atoms: CB_25  and  CG_26 
REMARK   18  A    between atoms: CG_26  and  CD_27 
REMARK   19  A    between atoms: CD_27  and  CE_28 
REMARK   20  A    between atoms: CE_28  and  NZ_29 
ROOT
ATOM      1  CA  ARG d   1       3.939  20.466  16.115  0.00  0.00     0.089 C 
ATOM      2  H17 ARG d   1       3.863  20.053  17.132  0.00  0.00     0.087 H 
ENDROOT
BRANCH   1   3
ATOM      3  N   ARG d   1       5.026  19.801  15.463  0.00  0.00    -0.346 N 
ATOM      4  C   LYS d   1       5.183  18.493  15.413  0.00  0.00     0.248 C 
ATOM      5  O   LYS d   1       4.446  17.690  16.010  0.00  0.00    -0.271 OA
ATOM      6  H16 ARG d   1       5.715  20.369  15.013  0.00  0.00     0.163 HD
BRANCH   4   7
ATOM      7  CA  LYS d   1       6.406  17.962  14.668  0.00  0.00     0.176 C 
ATOM      8  H4  LYS d   1       7.233  18.677  14.789  0.00  0.00     0.099 H 
BRANCH   7   9
ATOM      9  N   LYS d   1       6.833  16.654  15.260  0.00  0.00    -0.067 N 
ATOM     10  H1  LYS d   1       7.640  16.308  14.765  0.00  0.00     0.275 HD
ATOM     11  H2  LYS d   1       6.080  15.988  15.182  0.00  0.00     0.275 HD
ATOM     12  H3  LYS d   1       7.066  16.785  16.232  0.00  0.00     0.275 HD
ENDBRANCH   7   9
BRANCH   7  13
ATOM     13  CB  LYS d   1       6.075  17.859  13.166  0.00  0.00    -0.030 C 
ATOM     14  H5  LYS d   1       7.021  17.827  12.606  0.00  0.00     0.036 H 
ATOM     15  H6  LYS d   1       5.507  18.755  12.876  0.00  0.00     0.036 H 
BRANCH  13  16
ATOM     16  CG  LYS d   1       5.249  16.622  12.787  0.00  0.00    -0.061 C 
ATOM     17  H7  LYS d   1       4.229  16.713  13.190  0.00  0.00     0.033 H 
ATOM     18  H8  LYS d   1       5.723  15.715  13.191  0.00  0.00     0.033 H 
BRANCH  16  19
ATOM     19  CD  LYS d   1       5.203  16.552  11.242  0.00  0.00    -0.043 C 
ATOM     20  H9  LYS d   1       5.128  17.568  10.827  0.00  0.00     0.035 H 
ATOM     21  H10 LYS d   1       4.332  15.961  10.924  0.00  0.00     0.035 H 
BRANCH  19  22
ATOM     22  CE  LYS d   1       6.491  15.884  10.743  0.00  0.00     0.080 C 
ATOM     23  H11 LYS d   1       7.355  16.321  11.266  0.00  0.00     0.075 H 
ATOM     24  H12 LYS d   1       6.594  16.053   9.661  0.00  0.00     0.075 H 
BRANCH  22  25
ATOM     25  NZ  LYS d   1       6.439  14.420  11.012  0.00  0.00    -0.079 N 
ATOM     26  H13 LYS d   1       7.288  13.987  10.682  0.00  0.00     0.274 HD
ATOM     27  H14 LYS d   1       5.649  14.018  10.533  0.00  0.00     0.274 HD
ATOM     28  H15 LYS d   1       6.346  14.264  12.003  0.00  0.00     0.274 HD
ENDBRANCH  22  25
ENDBRANCH  19  22
ENDBRANCH  16  19
ENDBRANCH  13  16
ENDBRANCH   7  13
ENDBRANCH   4   7
ENDBRANCH   1   3
BRANCH   1  29
ATOM     29  CB  ARG d   1       4.116  22.007  16.197  0.00  0.00    -0.036 C 
ATOM     30  H18 ARG d   1       3.235  22.437  16.696  0.00  0.00     0.036 H 
ATOM     31  H19 ARG d   1       4.192  22.408  15.176  0.00  0.00     0.036 H 
BRANCH  29  32
ATOM     32  CG  ARG d   1       5.382  22.417  16.986  0.00  0.00    -0.048 C 
ATOM     33  H20 ARG d   1       5.589  23.478  16.782  0.00  0.00     0.035 H 
ATOM     34  H21 ARG d   1       6.224  21.804  16.632  0.00  0.00     0.035 H 
BRANCH  32  35
ATOM     35  CD  ARG d   1       5.256  22.233  18.507  0.00  0.00     0.009 C 
ATOM     36  H22 ARG d   1       4.912  21.213  18.734  0.00  0.00     0.064 H 
ATOM     37  H23 ARG d   1       4.539  22.961  18.915  0.00  0.00     0.064 H 
BRANCH  35  38
ATOM     38  NE  ARG d   1       6.581  22.455  19.093  0.00  0.00    -0.227 N 
ATOM     39  CZ  ARG d   1       7.136  21.931  20.180  0.00  0.00     0.665 C 
ATOM     40  NH2 ARG d   1       8.412  22.223  20.485  0.00  0.00    -0.235 N 
ATOM     41  NH1 ARG d   1       6.464  21.097  20.956  0.00  0.00    -0.235 N 
ATOM     42  H27 ARG d   1       8.948  22.871  19.890  0.00  0.00     0.174 HD
ATOM     43  H28 ARG d   1       8.854  21.799  21.313  0.00  0.00     0.174 HD
ATOM     44  H25 ARG d   1       6.911  20.701  21.795  0.00  0.00     0.174 HD
ATOM     45  H26 ARG d   1       5.494  20.844  20.721  0.00  0.00     0.174 HD
ATOM     46  H24 ARG d   1       7.175  23.123  18.581  0.00  0.00     0.177 HD
ENDBRANCH  35  38
ENDBRANCH  32  35
ENDBRANCH  29  32
ENDBRANCH   1  29
BRANCH   1  47
ATOM     47  C   ARG d   1       2.592  20.295  15.394  0.00  0.00     0.241 C 
ATOM     48  O   ARG d   1       2.503  20.564  14.182  0.00  0.00    -0.271 OA
ATOM     49  N   LYS d   1       1.585  20.024  16.215  0.00  0.00    -0.345 N 
ATOM     50  H29 LYS d   1       1.772  19.869  17.185  0.00  0.00     0.163 HD
BRANCH  49  51
ATOM     51  CA  LYS d   1       0.213  19.948  15.733  0.00  0.00     0.096 C 
ATOM     52  H30 LYS d   1       0.175  20.570  14.826  0.00  0.00     0.089 H 
BRANCH  51  53
ATOM     53  CB  LYS d   1      -0.289  18.567  15.335  0.00  0.00    -0.037 C 
ATOM     54  H31 LYS d   1      -0.731  18.060  16.205  0.00  0.00     0.036 H 
ATOM     55  H32 LYS d   1       0.541  17.962  14.941  0.00  0.00     0.036 H 
BRANCH  53  56
ATOM     56  CG  LYS d   1      -1.371  18.778  14.231  0.00  0.00    -0.061 C 
ATOM     57  H33 LYS d   1      -0.904  19.223  13.340  0.00  0.00     0.033 H 
ATOM     58  H34 LYS d   1      -2.155  19.451  14.609  0.00  0.00     0.033 H 
BRANCH  56  59
ATOM     59  CD  LYS d   1      -1.980  17.451  13.870  0.00  0.00    -0.043 C 
ATOM     60  H35 LYS d   1      -2.387  17.005  14.790  0.00  0.00     0.035 H 
ATOM     61  H36 LYS d   1      -1.180  16.809  13.474  0.00  0.00     0.035 H 
BRANCH  59  62
ATOM     62  CE  LYS d   1      -3.085  17.494  12.850  0.00  0.00     0.080 C 
ATOM     63  H37 LYS d   1      -3.753  16.645  13.059  0.00  0.00     0.075 H 
ATOM     64  H38 LYS d   1      -2.620  17.360  11.862  0.00  0.00     0.075 H 
BRANCH  62  65
ATOM     65  NZ  LYS d   1      -3.927  18.703  12.775  0.00  0.00    -0.079 N 
ATOM     66  H39 LYS d   1      -4.619  18.586  12.051  0.00  0.00     0.274 HD
ATOM     67  H40 LYS d   1      -3.350  19.502  12.563  0.00  0.00     0.274 HD
ATOM     68  H41 LYS d   1      -4.388  18.847  13.660  0.00  0.00     0.274 HD
ENDBRANCH  62  65
ENDBRANCH  59  62
ENDBRANCH  56  59
ENDBRANCH  53  56
ENDBRANCH  51  53
BRANCH  51  69
ATOM     69  C   LYS d   1      -0.776  20.546  16.750  0.00  0.00     0.196 C 
ATOM     70  O   LYS d   1      -1.993  20.305  16.611  0.00  0.00    -0.646 OA
ATOM     71  OXT LYS d   1      -0.409  21.394  17.591  0.00  0.00    -0.646 OA
ENDBRANCH  51  69
ENDBRANCH  49  51
ENDBRANCH   1  47
TORSDOF 20
