REMARK  3 active torsions:
REMARK  status: ('A' for Active; 'I' for Inactive)
REMARK    1  A    between atoms: C3_3  and  O3_4 
REMARK    2  A    between atoms: C13_14  and  C18_20 
REMARK    3  A    between atoms: C17_18  and  O17_19 
ROOT
ATOM      1  C1  EST d   1       0.867  53.138 165.015  0.00  0.00    -0.073 A 
ATOM      2  C2  EST d   1       2.248  53.192 164.790  0.00  0.00    -0.051 A 
ATOM      3  C3  EST d   1       3.036  52.026 164.934  0.00  0.00     0.066 A 
ATOM      4  C4  EST d   1       2.441  50.793 165.309  0.00  0.00    -0.044 A 
ATOM      5  C5  EST d   1       1.021  50.721 165.550  0.00  0.00    -0.049 A 
ATOM      6  C6  EST d   1       0.383  49.385 165.972  0.00  0.00    -0.040 C 
ATOM      7  C7  EST d   1      -1.148  49.432 166.243  0.00  0.00    -0.057 C 
ATOM      8  C8  EST d   1      -1.894  50.448 165.374  0.00  0.00    -0.042 C 
ATOM      9  C9  EST d   1      -1.299  51.878 165.635  0.00  0.00    -0.024 C 
ATOM     10  C10 EST d   1       0.219  51.922 165.392  0.00  0.00    -0.047 A 
ATOM     11  C11 EST d   1      -2.070  52.889 164.762  0.00  0.00    -0.057 C 
ATOM     12  C12 EST d   1      -3.592  52.893 164.963  0.00  0.00    -0.055 C 
ATOM     13  C13 EST d   1      -4.209  51.502 164.763  0.00  0.00    -0.014 C 
ATOM     14  C14 EST d   1      -3.447  50.492 165.685  0.00  0.00    -0.041 C 
ATOM     15  C15 EST d   1      -4.335  49.258 165.546  0.00  0.00    -0.058 C 
ATOM     16  C16 EST d   1      -5.785  49.837 165.713  0.00  0.00    -0.040 C 
ATOM     17  C17 EST d   1      -5.660  51.334 165.301  0.00  0.00     0.043 C 
ATOM     18  H1  EST d   1       0.276  54.040 164.900  0.00  0.00     0.084 H 
ATOM     19  H2  EST d   1       2.714  54.128 164.505  0.00  0.00     0.087 H 
ATOM     20  H4  EST d   1       3.054  49.905 165.414  0.00  0.00     0.088 H 
ATOM     21  H5  EST d   1       0.880  49.048 166.893  0.00  0.00     0.040 H 
ATOM     22  H6  EST d   1       0.563  48.655 165.169  0.00  0.00     0.040 H 
ATOM     23  H7  EST d   1      -1.306  49.696 167.299  0.00  0.00     0.034 H 
ATOM     24  H8  EST d   1      -1.567  48.434 166.047  0.00  0.00     0.034 H 
ATOM     25  H9  EST d   1      -1.752  50.178 164.317  0.00  0.00     0.041 H 
ATOM     26  H10 EST d   1      -1.471  52.136 166.690  0.00  0.00     0.048 H 
ATOM     27  H11 EST d   1      -1.866  52.654 163.707  0.00  0.00     0.034 H 
ATOM     28  H12 EST d   1      -1.693  53.896 164.993  0.00  0.00     0.034 H 
ATOM     29  H13 EST d   1      -4.043  53.587 164.239  0.00  0.00     0.034 H 
ATOM     30  H14 EST d   1      -3.813  53.234 165.985  0.00  0.00     0.034 H 
ATOM     31  H15 EST d   1      -3.520  50.829 166.730  0.00  0.00     0.042 H 
ATOM     32  H16 EST d   1      -4.112  48.521 166.332  0.00  0.00     0.033 H 
ATOM     33  H17 EST d   1      -4.209  48.791 164.558  0.00  0.00     0.033 H 
ATOM     34  H18 EST d   1      -6.121  49.748 166.757  0.00  0.00     0.036 H 
ATOM     35  H19 EST d   1      -6.492  49.311 165.054  0.00  0.00     0.036 H 
ATOM     36  H20 EST d   1      -5.779  51.974 166.188  0.00  0.00     0.084 H 
ENDROOT
BRANCH  13  37
ATOM     37  C18 EST d   1      -4.186  51.104 163.241  0.00  0.00    -0.066 C 
ATOM     38  H22 EST d   1      -3.165  51.218 162.848  0.00  0.00     0.028 H 
ATOM     39  H23 EST d   1      -4.870  51.758 162.681  0.00  0.00     0.028 H 
ATOM     40  H24 EST d   1      -4.506  50.057 163.131  0.00  0.00     0.028 H 
ENDBRANCH  13  37
BRANCH  17  41
ATOM     41  O17 EST d   1      -6.731  51.675 164.356  0.00  0.00    -0.395 OA
ATOM     42  H21 EST d   1      -7.574  51.530 164.769  0.00  0.00     0.210 HD
ENDBRANCH  17  41
BRANCH   3  43
ATOM     43  O3  EST d   1       4.395  52.106 164.705  0.00  0.00    -0.361 OA
ATOM     44  H3  EST d   1       4.548  52.390 163.811  0.00  0.00     0.217 HD
ENDBRANCH   3  43
TORSDOF 3
