REMARK  4 active torsions:
REMARK  status: ('A' for Active; 'I' for Inactive)
REMARK    1  A    between atoms: C4_6  and  N7_7 
REMARK    2  A    between atoms: C10_12  and  C13_13 
REMARK       I    between atoms: C13_13  and  N14_15 
REMARK    3  A    between atoms: N17_20  and  S20_21 
REMARK    4  A    between atoms: S20_21  and  C24_24 
ROOT
ATOM      1  C13 ZEN d   1      26.362   7.226  13.702  0.00  0.00     0.224 C 
ATOM      2  O23 ZEN d   1      26.547   7.177  12.483  0.00  0.00    -0.273 OA
ATOM      3  N14 ZEN d   1      27.369   7.410  14.524  0.00  0.00    -0.349 N 
ATOM      4  C15 ZEN d   1      27.248   7.471  15.993  0.00  0.00     0.009 C 
ATOM      5  C16 ZEN d   1      27.991   8.734  16.508  0.00  0.00     0.008 C 
ATOM      6  C18 ZEN d   1      29.330   8.840  14.479  0.00  0.00     0.008 C 
ATOM      7  C19 ZEN d   1      28.722   7.529  13.977  0.00  0.00     0.009 C 
ATOM      8  N17 ZEN d   1      29.355   8.787  15.938  0.00  0.00    -0.203 NA
ATOM      9  H14 ZEN d   1      27.698   6.571  16.438  0.00  0.00     0.066 H 
ATOM     10  H15 ZEN d   1      26.186   7.527  16.274  0.00  0.00     0.066 H 
ATOM     11  H16 ZEN d   1      28.056   8.696  17.605  0.00  0.00     0.059 H 
ATOM     12  H17 ZEN d   1      27.434   9.633  16.205  0.00  0.00     0.059 H 
ATOM     13  H18 ZEN d   1      30.353   8.952  14.090  0.00  0.00     0.059 H 
ATOM     14  H19 ZEN d   1      28.716   9.690  14.145  0.00  0.00     0.059 H 
ATOM     15  H20 ZEN d   1      28.680   7.536  12.878  0.00  0.00     0.066 H 
ATOM     16  H21 ZEN d   1      29.336   6.681  14.315  0.00  0.00     0.066 H 
ENDROOT
BRANCH   1  17
ATOM     17  C10 ZEN d   1      24.915   7.077  14.123  0.00  0.00     0.026 C 
ATOM     18  C9  ZEN d   1      24.250   5.886  13.333  0.00  0.00    -0.039 C 
ATOM     19  C8  ZEN d   1      22.703   5.901  13.396  0.00  0.00    -0.004 C 
ATOM     20  H7  ZEN d   1      24.558   5.951  12.279  0.00  0.00     0.036 H 
ATOM     21  H8  ZEN d   1      24.608   4.939  13.762  0.00  0.00     0.036 H 
ATOM     22  N7  ZEN d   1      22.221   7.221  12.964  0.00  0.00    -0.381 N 
ATOM     23  H5  ZEN d   1      22.299   5.124  12.730  0.00  0.00     0.064 H 
ATOM     24  H6  ZEN d   1      22.374   5.707  14.428  0.00  0.00     0.064 H 
ATOM     25  C12 ZEN d   1      22.652   8.288  13.879  0.00  0.00    -0.004 C 
ATOM     26  C11 ZEN d   1      24.185   8.425  13.812  0.00  0.00    -0.039 C 
ATOM     27  H11 ZEN d   1      22.350   8.036  14.906  0.00  0.00     0.064 H 
ATOM     28  H12 ZEN d   1      22.184   9.238  13.582  0.00  0.00     0.064 H 
ATOM     29  H9  ZEN d   1      24.467   8.755  12.801  0.00  0.00     0.036 H 
ATOM     30  H10 ZEN d   1      24.505   9.179  14.546  0.00  0.00     0.036 H 
ATOM     31  H13 ZEN d   1      24.861   6.870  15.202  0.00  0.00     0.054 H 
BRANCH  22  32
ATOM     32  C4  ZEN d   1      20.966   7.333  12.303  0.00  0.00     0.032 A 
ATOM     33  C3  ZEN d   1      20.368   6.197  11.726  0.00  0.00    -0.041 A 
ATOM     34  C2  ZEN d   1      19.126   6.332  11.081  0.00  0.00     0.004 A 
ATOM     35  H2  ZEN d   1      20.858   5.231  11.778  0.00  0.00     0.089 H 
ATOM     36  N1  ZEN d   1      18.523   7.548  11.010  0.00  0.00    -0.273 NA
ATOM     37  H1  ZEN d   1      18.648   5.465  10.640  0.00  0.00     0.114 H 
ATOM     38  C6  ZEN d   1      19.080   8.657  11.557  0.00  0.00     0.004 A 
ATOM     39  C5  ZEN d   1      20.314   8.576  12.217  0.00  0.00    -0.041 A 
ATOM     40  H4  ZEN d   1      18.569   9.610  11.483  0.00  0.00     0.114 H 
ATOM     41  H3  ZEN d   1      20.760   9.461  12.656  0.00  0.00     0.089 H 
ENDBRANCH  22  32
ENDBRANCH   1  17
BRANCH   8  42
ATOM     42  S20 ZEN d   1      30.234  10.018  16.554  0.00  0.00     0.243 S 
ATOM     43  O21 ZEN d   1      31.461  10.116  15.785  0.00  0.00    -0.206 OA
ATOM     44  O22 ZEN d   1      30.361   9.775  17.968  0.00  0.00    -0.206 OA
BRANCH  42  45
ATOM     45  C24 ZEN d   1      29.352  11.523  16.346  0.00  0.00     0.075 A 
ATOM     46  C25 ZEN d   1      29.477  12.239  15.163  0.00  0.00    -0.050 A 
ATOM     47  C26 ZEN d   1      28.755  13.412  14.981  0.00  0.00    -0.024 A 
ATOM     48  H22 ZEN d   1      30.138  11.883  14.381  0.00  0.00     0.087 H 
ATOM     49  C27 ZEN d   1      27.889  13.868  16.000  0.00  0.00    -0.024 A 
ATOM     50  C31 ZEN d   1      28.886  14.139  13.799  0.00  0.00    -0.071 A 
ATOM     51  C34 ZEN d   1      27.754  13.140  17.181  0.00  0.00    -0.071 A 
ATOM     52  C28 ZEN d   1      27.165  15.034  15.817  0.00  0.00    -0.051 A 
ATOM     53  C33 ZEN d   1      28.480  11.965  17.350  0.00  0.00    -0.060 A 
ATOM     54  H24 ZEN d   1      27.088  13.487  17.963  0.00  0.00     0.084 H 
ATOM     55  H23 ZEN d   1      28.371  11.389  18.262  0.00  0.00     0.085 H 
ATOM     56  C29 ZEN d   1      27.301  15.752  14.632  0.00  0.00     0.034 A 
ATOM     57  H25 ZEN d   1      26.495  15.386  16.593  0.00  0.00     0.087 H 
ATOM     58 CL32 ZEN d   1      26.382  17.189  14.405  0.00  0.00    -0.084 Cl
ATOM     59  C30 ZEN d   1      28.158  15.309  13.622  0.00  0.00    -0.061 A 
ATOM     60  H26 ZEN d   1      28.255  15.876  12.703  0.00  0.00     0.086 H 
ATOM     61  H27 ZEN d   1      29.555  13.792  13.019  0.00  0.00     0.084 H 
ENDBRANCH  42  45
ENDBRANCH   8  42
TORSDOF 4
