REMARK  4 active torsions:
REMARK  status: ('A' for Active; 'I' for Inactive)
REMARK    1  A    between atoms: C4_6  and  N7_7 
REMARK    2  A    between atoms: C10_12  and  C13_13 
REMARK       I    between atoms: C13_13  and  N14_15 
REMARK    3  A    between atoms: N17_20  and  S20_21 
REMARK    4  A    between atoms: S20_21  and  C24_24 
ROOT
ATOM      1  C13 ZEN d   1      10.566  50.033  62.613  0.00  0.00     0.224 C 
ATOM      2  O23 ZEN d   1      10.577  51.238  62.860  0.00  0.00    -0.273 OA
ATOM      3  N14 ZEN d   1       9.442  49.410  62.337  0.00  0.00    -0.349 N 
ATOM      4  C15 ZEN d   1       9.366  47.951  62.036  0.00  0.00     0.009 C 
ATOM      5  C16 ZEN d   1       8.564  47.732  60.730  0.00  0.00     0.008 C 
ATOM      6  C18 ZEN d   1       7.454  49.904  60.988  0.00  0.00     0.008 C 
ATOM      7  C19 ZEN d   1       8.166  50.157  62.343  0.00  0.00     0.009 C 
ATOM      8  N17 ZEN d   1       7.272  48.443  60.841  0.00  0.00    -0.203 NA
ATOM      9  H14 ZEN d   1       8.864  47.432  62.865  0.00  0.00     0.066 H 
ATOM     10  H15 ZEN d   1      10.383  47.549  61.913  0.00  0.00     0.066 H 
ATOM     11  H16 ZEN d   1       8.383  46.657  60.583  0.00  0.00     0.059 H 
ATOM     12  H17 ZEN d   1       9.132  48.129  59.876  0.00  0.00     0.059 H 
ATOM     13  H18 ZEN d   1       6.475  50.406  60.980  0.00  0.00     0.059 H 
ATOM     14  H19 ZEN d   1       8.071  50.289  60.163  0.00  0.00     0.059 H 
ATOM     15  H20 ZEN d   1       8.364  51.232  62.465  0.00  0.00     0.066 H 
ATOM     16  H21 ZEN d   1       7.531  49.804  63.169  0.00  0.00     0.066 H 
ENDROOT
BRANCH   1  17
ATOM     17  C10 ZEN d   1      11.929  49.353  62.609  0.00  0.00     0.026 C 
ATOM     18  C9  ZEN d   1      13.027  50.203  63.321  0.00  0.00    -0.039 C 
ATOM     19  C8  ZEN d   1      14.429  49.532  63.223  0.00  0.00    -0.004 C 
ATOM     20  H7  ZEN d   1      13.073  51.195  62.848  0.00  0.00     0.036 H 
ATOM     21  H8  ZEN d   1      12.759  50.315  64.382  0.00  0.00     0.036 H 
ATOM     22  N7  ZEN d   1      14.750  49.182  61.813  0.00  0.00    -0.381 N 
ATOM     23  H5  ZEN d   1      15.190  50.229  63.604  0.00  0.00     0.064 H 
ATOM     24  H6  ZEN d   1      14.434  48.616  63.832  0.00  0.00     0.064 H 
ATOM     25  C12 ZEN d   1      13.735  48.393  61.084  0.00  0.00    -0.004 C 
ATOM     26  C11 ZEN d   1      12.377  49.122  61.130  0.00  0.00    -0.039 C 
ATOM     27  H11 ZEN d   1      13.635  47.404  61.554  0.00  0.00     0.064 H 
ATOM     28  H12 ZEN d   1      14.049  48.272  60.037  0.00  0.00     0.064 H 
ATOM     29  H9  ZEN d   1      12.471  50.094  60.624  0.00  0.00     0.036 H 
ATOM     30  H10 ZEN d   1      11.621  48.512  60.614  0.00  0.00     0.036 H 
ATOM     31  H13 ZEN d   1      11.841  48.385  63.123  0.00  0.00     0.054 H 
BRANCH  22  32
ATOM     32  C4  ZEN d   1      15.928  49.658  61.167  0.00  0.00     0.032 A 
ATOM     33  C3  ZEN d   1      16.787  50.559  61.824  0.00  0.00    -0.041 A 
ATOM     34  C2  ZEN d   1      17.942  51.001  61.164  0.00  0.00     0.004 A 
ATOM     35  H2  ZEN d   1      16.559  50.906  62.825  0.00  0.00     0.089 H 
ATOM     36  N1  ZEN d   1      18.223  50.565  59.912  0.00  0.00    -0.273 NA
ATOM     37  H1  ZEN d   1      18.613  51.695  61.657  0.00  0.00     0.114 H 
ATOM     38  C6  ZEN d   1      17.417  49.695  59.264  0.00  0.00     0.004 A 
ATOM     39  C5  ZEN d   1      16.251  49.219  59.874  0.00  0.00    -0.041 A 
ATOM     40  H4  ZEN d   1      17.675  49.364  58.265  0.00  0.00     0.114 H 
ATOM     41  H3  ZEN d   1      15.606  48.520  59.354  0.00  0.00     0.089 H 
ENDBRANCH  22  32
ENDBRANCH   1  17
BRANCH   8  42
ATOM     42  S20 ZEN d   1       6.220  48.030  59.648  0.00  0.00     0.243 S 
ATOM     43  O21 ZEN d   1       5.068  48.916  59.732  0.00  0.00    -0.206 OA
ATOM     44  O22 ZEN d   1       5.952  46.627  59.826  0.00  0.00    -0.206 OA
BRANCH  42  45
ATOM     45  C24 ZEN d   1       6.958  48.255  58.038  0.00  0.00     0.075 A 
ATOM     46  C25 ZEN d   1       6.953  49.525  57.427  0.00  0.00    -0.050 A 
ATOM     47  C26 ZEN d   1       7.535  49.709  56.158  0.00  0.00    -0.024 A 
ATOM     48  H22 ZEN d   1       6.498  50.366  57.938  0.00  0.00     0.087 H 
ATOM     49  C27 ZEN d   1       8.135  48.606  55.500  0.00  0.00    -0.024 A 
ATOM     50  C31 ZEN d   1       7.519  50.972  55.536  0.00  0.00    -0.071 A 
ATOM     51  C34 ZEN d   1       8.150  47.342  56.116  0.00  0.00    -0.071 A 
ATOM     52  C28 ZEN d   1       8.714  48.782  54.247  0.00  0.00    -0.051 A 
ATOM     53  C33 ZEN d   1       7.566  47.169  57.380  0.00  0.00    -0.060 A 
ATOM     54  H24 ZEN d   1       8.613  46.500  55.614  0.00  0.00     0.084 H 
ATOM     55  H23 ZEN d   1       7.583  46.194  57.853  0.00  0.00     0.085 H 
ATOM     56  C29 ZEN d   1       8.704  50.039  53.635  0.00  0.00     0.034 A 
ATOM     57  H25 ZEN d   1       9.175  47.940  53.743  0.00  0.00     0.087 H 
ATOM     58 CL32 ZEN d   1       9.450  50.228  52.069  0.00  0.00    -0.084 Cl
ATOM     59  C30 ZEN d   1       8.104  51.139  54.276  0.00  0.00    -0.061 A 
ATOM     60  H26 ZEN d   1       8.095  52.111  53.796  0.00  0.00     0.086 H 
ATOM     61  H27 ZEN d   1       7.053  51.815  56.033  0.00  0.00     0.084 H 
ENDBRANCH  42  45
ENDBRANCH   8  42
TORSDOF 4
