REMARK  13 active torsions:
REMARK  status: ('A' for Active; 'I' for Inactive)
REMARK    1  A    between atoms: C13_9  and  N2_2 
REMARK    2  A    between atoms: C5_5  and  C8_6 
REMARK       I    between atoms: C8_6  and  N10_8 
REMARK    3  A    between atoms: C13_9  and  C14_10 
REMARK    4  A    between atoms: C18_12  and  C13_9 
REMARK    5  A    between atoms: C14_10  and  O15_11 
REMARK    6  A    between atoms: C19_13  and  C18_12 
REMARK    7  A    between atoms: N22_14  and  C19_13 
REMARK    8  A    between atoms: N1_23  and  C33_21 
REMARK       I    between atoms: C2_24  and  N1_23 
REMARK    9  A    between atoms: C4_26  and  C2_24 
REMARK   10  A    between atoms: C6_27  and  C4_26 
REMARK   11  A    between atoms: C16_34  and  C6_27 
REMARK   12  A    between atoms: C17_35  and  C11_29 
REMARK   13  A    between atoms: C16_34  and  C17_35 
ROOT
ATOM      1  N22 FR8 d   1      48.680  57.387  19.505  0.00  0.00    -0.356 N 
ATOM      2  C27 FR8 d   1      48.079  58.551  19.100  0.00  0.00    -0.019 A 
ATOM      3  C28 FR8 d   1      47.598  58.398  17.800  0.00  0.00    -0.056 A 
ATOM      4  C29 FR8 d   1      47.919  57.063  17.384  0.00  0.00    -0.008 A 
ATOM      5  C30 FR8 d   1      48.583  56.451  18.491  0.00  0.00     0.046 A 
ATOM      6  C31 FR8 d   1      47.707  56.365  16.233  0.00  0.00    -0.069 A 
ATOM      7  C32 FR8 d   1      48.152  55.050  16.129  0.00  0.00    -0.056 A 
ATOM      8  C33 FR8 d   1      48.810  54.438  17.231  0.00  0.00     0.036 A 
ATOM      9  C34 FR8 d   1      49.005  55.164  18.398  0.00  0.00    -0.030 A 
ATOM     10  H13 FR8 d   1      47.991  59.455  19.701  0.00  0.00     0.111 H 
ATOM     11  H14 FR8 d   1      47.076  59.151  17.211  0.00  0.00     0.086 H 
ATOM     12  H15 FR8 d   1      47.193  56.832  15.401  0.00  0.00     0.085 H 
ATOM     13  H16 FR8 d   1      47.997  54.495  15.211  0.00  0.00     0.086 H 
ATOM     14  H17 FR8 d   1      49.499  54.699  19.243  0.00  0.00     0.090 H 
ENDROOT
BRANCH   8  15
ATOM     15  N1  FR8 d   1      49.328  53.194  17.231  0.00  0.00    -0.327 N 
ATOM     16  C2  FR8 d   1      49.043  52.248  16.338  0.00  0.00     0.222 C 
ATOM     17  O1  FR8 d   1      48.427  52.384  15.302  0.00  0.00    -0.273 OA
ATOM     18  H18 FR8 d   1      49.976  52.964  17.957  0.00  0.00     0.169 HD
BRANCH  16  19
ATOM     19  C4  FR8 d   1      49.566  50.908  16.770  0.00  0.00     0.010 C 
ATOM     20  H19 FR8 d   1      50.048  51.014  17.753  0.00  0.00     0.047 H 
ATOM     21  H20 FR8 d   1      50.306  50.560  16.034  0.00  0.00     0.047 H 
BRANCH  19  22
ATOM     22  C6  FR8 d   1      48.451  49.873  16.875  0.00  0.00    -0.057 C 
ATOM     23  H21 FR8 d   1      48.478  49.220  15.990  0.00  0.00     0.033 H 
ATOM     24  H22 FR8 d   1      47.481  50.389  16.921  0.00  0.00     0.033 H 
BRANCH  22  25
ATOM     25  C16 FR8 d   1      48.629  49.029  18.125  0.00  0.00    -0.061 C 
ATOM     26  H28 FR8 d   1      47.992  49.434  18.926  0.00  0.00     0.033 H 
ATOM     27  H29 FR8 d   1      49.683  49.069  18.439  0.00  0.00     0.033 H 
BRANCH  25  28
ATOM     28  C17 FR8 d   1      48.244  47.590  17.867  0.00  0.00    -0.041 C 
ATOM     29  H30 FR8 d   1      48.829  47.211  17.016  0.00  0.00     0.040 H 
ATOM     30  H31 FR8 d   1      48.471  46.994  18.763  0.00  0.00     0.040 H 
BRANCH  28  31
ATOM     31  C11 FR8 d   1      46.807  47.460  17.556  0.00  0.00    -0.058 A 
ATOM     32  C7  FR8 d   1      46.397  47.167  16.255  0.00  0.00    -0.077 A 
ATOM     33  C15 FR8 d   1      45.068  46.899  15.967  0.00  0.00    -0.082 A 
ATOM     34  H23 FR8 d   1      47.130  47.149  15.456  0.00  0.00     0.084 H 
ATOM     35  C10 FR8 d   1      44.159  46.937  17.008  0.00  0.00    -0.083 A 
ATOM     36  H27 FR8 d   1      44.751  46.667  14.957  0.00  0.00     0.083 H 
ATOM     37  C12 FR8 d   1      44.555  47.289  18.295  0.00  0.00    -0.082 A 
ATOM     38  H26 FR8 d   1      43.121  46.689  16.819  0.00  0.00     0.083 H 
ATOM     39  C9  FR8 d   1      45.877  47.577  18.571  0.00  0.00    -0.077 A 
ATOM     40  H25 FR8 d   1      43.818  47.338  19.089  0.00  0.00     0.083 H 
ATOM     41  H24 FR8 d   1      46.179  47.889  19.564  0.00  0.00     0.084 H 
ENDBRANCH  28  31
ENDBRANCH  25  28
ENDBRANCH  22  25
ENDBRANCH  19  22
ENDBRANCH  16  19
ENDBRANCH   8  15
BRANCH   1  42
ATOM     42  C19 FR8 d   1      49.353  57.120  20.808  0.00  0.00     0.002 C 
ATOM     43  H11 FR8 d   1      49.020  57.850  21.560  0.00  0.00     0.065 H 
ATOM     44  H12 FR8 d   1      49.115  56.103  21.153  0.00  0.00     0.065 H 
BRANCH  42  45
ATOM     45  C18 FR8 d   1      50.883  57.258  20.573  0.00  0.00    -0.029 C 
ATOM     46  H9  FR8 d   1      51.168  56.603  19.736  0.00  0.00     0.038 H 
ATOM     47  H10 FR8 d   1      51.103  58.304  20.311  0.00  0.00     0.038 H 
BRANCH  45  48
ATOM     48  C13 FR8 d   1      51.729  56.874  21.804  0.00  0.00     0.039 C 
ATOM     49  H5  FR8 d   1      51.237  57.296  22.693  0.00  0.00     0.076 H 
BRANCH  48  50
ATOM     50  N2  FR8 d   1      51.742  55.429  21.949  0.00  0.00    -0.342 N 
ATOM     51  C1  FR8 d   1      51.620  54.457  20.861  0.00  0.00     0.014 A 
ATOM     52  C5  FR8 d   1      51.559  53.258  21.438  0.00  0.00     0.141 A 
ATOM     53  H1  FR8 d   1      51.586  54.671  19.794  0.00  0.00     0.115 H 
ATOM     54  N4  FR8 d   1      51.718  53.441  22.888  0.00  0.00    -0.237 NA
ATOM     55  C3  FR8 d   1      51.753  54.762  23.099  0.00  0.00     0.067 A 
ATOM     56  H2  FR8 d   1      51.786  55.229  24.082  0.00  0.00     0.143 H 
BRANCH  52  57
ATOM     57  C8  FR8 d   1      51.351  51.956  20.749  0.00  0.00     0.269 C 
ATOM     58  O9  FR8 d   1      51.117  51.907  19.550  0.00  0.00    -0.266 OA
ATOM     59  N10 FR8 d   1      51.462  50.856  21.452  0.00  0.00    -0.365 N 
ATOM     60  H3  FR8 d   1      51.327  49.967  21.014  0.00  0.00     0.159 HD
ATOM     61  H4  FR8 d   1      51.681  50.905  22.426  0.00  0.00     0.159 HD
ENDBRANCH  52  57
ENDBRANCH  48  50
BRANCH  48  62
ATOM     62  C14 FR8 d   1      53.172  57.471  21.748  0.00  0.00     0.036 C 
ATOM     63  H6  FR8 d   1      53.130  58.552  21.945  0.00  0.00     0.077 H 
ATOM     64  H7  FR8 d   1      53.604  57.296  20.752  0.00  0.00     0.077 H 
BRANCH  62  65
ATOM     65  O15 FR8 d   1      54.017  56.809  22.780  0.00  0.00    -0.399 OA
ATOM     66  H8  FR8 d   1      54.051  55.875  22.608  0.00  0.00     0.209 HD
ENDBRANCH  62  65
ENDBRANCH  48  62
ENDBRANCH  45  48
ENDBRANCH  42  45
ENDBRANCH   1  42
TORSDOF 13
