REMARK  6 active torsions:
REMARK  status: ('A' for Active; 'I' for Inactive)
REMARK    1  A    between atoms: C2_2  and  C21_7 
REMARK    2  A    between atoms: C3_3  and  O31_11 
REMARK    3  A    between atoms: C21_7  and  C22_8 
REMARK    4  A    between atoms: C22_8  and  C23_9 
REMARK    5  A    between atoms: C22_8  and  C24_10 
REMARK    6  A    between atoms: O31_11  and  C31_12 
ROOT
ATOM      1  N1  PRZ d   1      50.263  22.961  42.730  0.00  0.00    -0.260 NA
ATOM      2  C2  PRZ d   1      50.250  23.775  41.653  0.00  0.00     0.087 A 
ATOM      3  C3  PRZ d   1      51.216  23.572  40.663  0.00  0.00     0.189 A 
ATOM      4  N4  PRZ d   1      52.117  22.579  40.806  0.00  0.00    -0.234 NA
ATOM      5  C5  PRZ d   1      52.118  21.790  41.871  0.00  0.00     0.022 A 
ATOM      6  C6  PRZ d   1      51.160  21.990  42.865  0.00  0.00     0.019 A 
ATOM      7  H1  PRZ d   1      52.854  21.000  41.968  0.00  0.00     0.117 H 
ATOM      8  H2  PRZ d   1      51.147  21.356  43.744  0.00  0.00     0.117 H 
ENDROOT
BRANCH   2   9
ATOM      9  C21 PRZ d   1      49.149  24.853  41.561  0.00  0.00    -0.018 C 
ATOM     10  H3  PRZ d   1      49.620  25.846  41.510  0.00  0.00     0.043 H 
ATOM     11  H4  PRZ d   1      48.513  24.795  42.456  0.00  0.00     0.043 H 
BRANCH   9  12
ATOM     12  C22 PRZ d   1      48.280  24.644  40.312  0.00  0.00    -0.056 C 
ATOM     13  H5  PRZ d   1      48.919  24.736  39.421  0.00  0.00     0.039 H 
BRANCH  12  14
ATOM     14  C23 PRZ d   1      47.202  25.729  40.257  0.00  0.00    -0.073 C 
ATOM     15  H6  PRZ d   1      46.578  25.581  39.363  0.00  0.00     0.028 H 
ATOM     16  H7  PRZ d   1      47.680  26.719  40.211  0.00  0.00     0.028 H 
ATOM     17  H8  PRZ d   1      46.573  25.667  41.157  0.00  0.00     0.028 H 
ENDBRANCH  12  14
BRANCH  12  18
ATOM     18  C24 PRZ d   1      47.642  23.249  40.307  0.00  0.00    -0.073 C 
ATOM     19  H9  PRZ d   1      48.432  22.485  40.347  0.00  0.00     0.028 H 
ATOM     20  H10 PRZ d   1      47.052  23.119  39.388  0.00  0.00     0.028 H 
ATOM     21  H11 PRZ d   1      46.985  23.143  41.183  0.00  0.00     0.028 H 
ENDBRANCH  12  18
ENDBRANCH   9  12
ENDBRANCH   2   9
BRANCH   3  22
ATOM     22  O31 PRZ d   1      51.234  24.443  39.619  0.00  0.00    -0.338 OA
BRANCH  22  23
ATOM     23  C31 PRZ d   1      52.403  24.333  38.815  0.00  0.00     0.012 C 
ATOM     24  H12 PRZ d   1      52.353  25.062  37.993  0.00  0.00     0.067 H 
ATOM     25  H13 PRZ d   1      52.468  23.317  38.400  0.00  0.00     0.067 H 
ATOM     26  H14 PRZ d   1      53.292  24.535  39.431  0.00  0.00     0.067 H 
ENDBRANCH  22  23
ENDBRANCH   3  22
TORSDOF 6
