REMARK  5 active torsions:
REMARK  status: ('A' for Active; 'I' for Inactive)
REMARK    1  A    between atoms: C9_1  and  C8_2 
REMARK    2  A    between atoms: C8_2  and  C10_3 
REMARK    3  A    between atoms: C8_2  and  C2_4 
REMARK    4  A    between atoms: C3_9  and  O7_10 
REMARK    5  A    between atoms: O7_10  and  C11_11 
ROOT
ATOM      1  C2  IPZ d   1      49.966  23.768  41.325  0.00  0.00     0.090 A 
ATOM      2  N1  IPZ d   1      49.851  23.068  42.460  0.00  0.00    -0.259 NA
ATOM      3  C6  IPZ d   1      50.704  22.112  42.795  0.00  0.00     0.019 A 
ATOM      4  C5  IPZ d   1      51.757  21.808  41.937  0.00  0.00     0.022 A 
ATOM      5  N4  IPZ d   1      51.889  22.485  40.806  0.00  0.00    -0.234 NA
ATOM      6  C3  IPZ d   1      51.028  23.459  40.478  0.00  0.00     0.189 A 
ATOM      7  H8  IPZ d   1      50.584  21.572  43.727  0.00  0.00     0.117 H 
ATOM      8  H9  IPZ d   1      52.462  21.025  42.192  0.00  0.00     0.117 H 
ENDROOT
BRANCH   1   9
ATOM      9  C8  IPZ d   1      48.959  24.854  40.924  0.00  0.00    -0.014 C 
ATOM     10  H4  IPZ d   1      49.455  25.549  40.231  0.00  0.00     0.048 H 
BRANCH   9  11
ATOM     11  C9  IPZ d   1      48.475  25.649  42.140  0.00  0.00    -0.068 C 
ATOM     12  H1  IPZ d   1      47.757  26.416  41.814  0.00  0.00     0.028 H 
ATOM     13  H2  IPZ d   1      49.334  26.134  42.627  0.00  0.00     0.028 H 
ATOM     14  H3  IPZ d   1      47.986  24.968  42.852  0.00  0.00     0.028 H 
ENDBRANCH   9  11
BRANCH   9  15
ATOM     15  C10 IPZ d   1      47.769  24.215  40.210  0.00  0.00    -0.068 C 
ATOM     16  H5  IPZ d   1      48.126  23.647  39.339  0.00  0.00     0.028 H 
ATOM     17  H6  IPZ d   1      47.076  25.002  39.876  0.00  0.00     0.028 H 
ATOM     18  H7  IPZ d   1      47.248  23.537  40.901  0.00  0.00     0.028 H 
ENDBRANCH   9  15
ENDBRANCH   1   9
BRANCH   6  19
ATOM     19  O7  IPZ d   1      51.146  24.192  39.337  0.00  0.00    -0.338 OA
BRANCH  19  20
ATOM     20  C11 IPZ d   1      52.410  24.112  38.667  0.00  0.00     0.012 C 
ATOM     21  H10 IPZ d   1      52.387  24.741  37.765  0.00  0.00     0.067 H 
ATOM     22  H11 IPZ d   1      52.608  23.068  38.381  0.00  0.00     0.067 H 
ATOM     23  H12 IPZ d   1      53.205  24.465  39.340  0.00  0.00     0.067 H 
ENDBRANCH  19  20
ENDBRANCH   6  19
TORSDOF 5
