REMARK  5 active torsions:
REMARK  status: ('A' for Active; 'I' for Inactive)
REMARK    1  A    between atoms: C2_2  and  C15_15 
REMARK    2  A    between atoms: O1_18  and  C3_3 
REMARK    3  A    between atoms: C8_8  and  C9_9 
REMARK    4  A    between atoms: O1_18  and  C8_8 
REMARK    5  A    between atoms: N1_17  and  C16_16 
ROOT
ATOM      1  C1  BCG d   1      22.446  -1.263  26.259  0.00  0.00     0.119 C 
ATOM      2  C2  BCG d   1      23.823  -1.870  25.848  0.00  0.00     0.083 C 
ATOM      3  C3  BCG d   1      23.717  -2.306  24.354  0.00  0.00     0.065 C 
ATOM      4  C4  BCG d   1      22.510  -3.075  23.988  0.00  0.00    -0.013 C 
ATOM      5  C5  BCG d   1      21.202  -2.329  24.566  0.00  0.00     0.106 C 
ATOM      6  C6  BCG d   1      21.157  -0.837  24.176  0.00  0.00    -0.036 C 
ATOM      7  C7  BCG d   1      22.012  -0.081  25.348  0.00  0.00    -0.035 C 
ATOM      8  N1  BCG d   1      21.364  -2.356  26.057  0.00  0.00    -0.065 N 
ATOM      9  H1  BCG d   1      22.486  -0.935  27.308  0.00  0.00     0.086 H 
ATOM     10  H2  BCG d   1      24.576  -1.071  25.915  0.00  0.00     0.064 H 
ATOM     11  H3  BCG d   1      23.681  -1.379  23.763  0.00  0.00     0.085 H 
ATOM     12  H4  BCG d   1      22.575  -4.086  24.417  0.00  0.00     0.040 H 
ATOM     13  H5  BCG d   1      22.438  -3.145  22.893  0.00  0.00     0.040 H 
ATOM     14  H6  BCG d   1      20.285  -2.842  24.240  0.00  0.00     0.084 H 
ATOM     15  H7  BCG d   1      20.120  -0.472  24.155  0.00  0.00     0.036 H 
ATOM     16  H8  BCG d   1      21.622  -0.678  23.192  0.00  0.00     0.036 H 
ATOM     17  H9  BCG d   1      22.885   0.441  24.930  0.00  0.00     0.036 H 
ATOM     18  H10 BCG d   1      21.385   0.636  25.898  0.00  0.00     0.036 H 
ATOM     19  H19 BCG d   1      21.710  -3.258  26.345  0.00  0.00     0.280 HD
ENDROOT
BRANCH   3  20
ATOM     20  O1  BCG d   1      24.923  -3.025  23.964  0.00  0.00    -0.311 OA
BRANCH  20  21
ATOM     21  C8  BCG d   1      26.129  -2.532  24.009  0.00  0.00     0.293 C 
ATOM     22  O2  BCG d   1      26.419  -1.384  24.289  0.00  0.00    -0.259 OA
BRANCH  21  23
ATOM     23  C9  BCG d   1      27.150  -3.532  23.593  0.00  0.00     0.039 A 
ATOM     24  C10 BCG d   1      26.774  -4.854  23.191  0.00  0.00    -0.067 A 
ATOM     25  C11 BCG d   1      27.829  -5.763  22.752  0.00  0.00    -0.082 A 
ATOM     26  H11 BCG d   1      25.737  -5.170  23.212  0.00  0.00     0.085 H 
ATOM     27  C12 BCG d   1      29.174  -5.322  22.736  0.00  0.00    -0.083 A 
ATOM     28  H12 BCG d   1      27.583  -6.771  22.440  0.00  0.00     0.083 H 
ATOM     29  C13 BCG d   1      29.523  -3.999  23.172  0.00  0.00    -0.082 A 
ATOM     30  H13 BCG d   1      29.952  -5.993  22.390  0.00  0.00     0.083 H 
ATOM     31  C14 BCG d   1      28.487  -3.135  23.589  0.00  0.00    -0.067 A 
ATOM     32  H14 BCG d   1      30.556  -3.672  23.181  0.00  0.00     0.083 H 
ATOM     33  H15 BCG d   1      28.738  -2.133  23.916  0.00  0.00     0.085 H 
ENDBRANCH  21  23
ENDBRANCH  20  21
ENDBRANCH   3  20
BRANCH   2  34
ATOM     34  C15 BCG d   1      24.295  -3.002  26.772  0.00  0.00     0.181 C 
ATOM     35  O3  BCG d   1      25.348  -3.099  27.321  0.00  0.00    -0.648 OA
ATOM     36  O4  BCG d   1      23.370  -3.904  26.858  0.00  0.00    -0.648 OA
ENDBRANCH   2  34
BRANCH   8  37
ATOM     37  C16 BCG d   1      20.109  -2.054  26.875  0.00  0.00     0.067 C 
ATOM     38  H16 BCG d   1      20.350  -2.103  27.947  0.00  0.00     0.068 H 
ATOM     39  H17 BCG d   1      19.331  -2.795  26.640  0.00  0.00     0.068 H 
ATOM     40  H18 BCG d   1      19.743  -1.047  26.627  0.00  0.00     0.068 H 
ENDBRANCH   8  37
TORSDOF 5
