REMARK  10 active torsions:
REMARK  status: ('A' for Active; 'I' for Inactive)
REMARK    1  A    between atoms: C22_2  and  O5_3 
REMARK    2  A    between atoms: C22_2  and  C1_5 
REMARK    3  A    between atoms: O5_3  and  C26_4 
REMARK    4  A    between atoms: C1_5  and  O4_6 
REMARK    5  A    between atoms: C2_7  and  C25_9 
REMARK    6  A    between atoms: C2_7  and  N1_10 
REMARK    7  A    between atoms: C3_11  and  C4_12 
REMARK    8  A    between atoms: N2_13  and  C24_14 
REMARK    9  A    between atoms: C5_22  and  C6_23 
REMARK   10  A    between atoms: C7_26  and  C8_29 
ROOT
ATOM      1  C1  KSA d   1      13.605  11.233 137.785  0.00  0.00     0.199 C 
ATOM      2  C2  KSA d   1      14.559  10.540 136.932  0.00  0.00     0.181 C 
ATOM      3  O1  KSA d   1      15.019   9.326 137.560  0.00  0.00    -0.332 OA
ATOM      4  C24 KSA d   1      14.780   9.361 138.942  0.00  0.00     0.117 C 
ATOM      5  C27 KSA d   1      13.925  10.642 139.158  0.00  0.00     0.019 C 
ATOM      6  H8  KSA d   1      14.259   8.470 139.323  0.00  0.00     0.118 H 
ATOM      7  H9  KSA d   1      12.992  10.384 139.680  0.00  0.00     0.045 H 
ATOM      8  H10 KSA d   1      14.491  11.372 139.756  0.00  0.00     0.045 H 
ENDROOT
BRANCH   1   9
ATOM      9  C22 KSA d   1      12.277  10.577 137.359  0.00  0.00     0.298 C 
ATOM     10  O3  KSA d   1      11.483  11.041 136.534  0.00  0.00    -0.262 OA
BRANCH   9  11
ATOM     11  O5  KSA d   1      11.918   9.278 137.898  0.00  0.00    -0.324 OA
BRANCH  11  12
ATOM     12  C26 KSA d   1      10.686   8.606 137.606  0.00  0.00     0.013 C 
ATOM     13  H1  KSA d   1      10.659   7.643 138.136  0.00  0.00     0.067 H 
ATOM     14  H2  KSA d   1      10.612   8.430 136.523  0.00  0.00     0.067 H 
ATOM     15  H3  KSA d   1       9.841   9.229 137.935  0.00  0.00     0.067 H 
ENDBRANCH  11  12
ENDBRANCH   9  11
ENDBRANCH   1   9
BRANCH   1  16
ATOM     16  O4  KSA d   1      13.528  12.618 137.513  0.00  0.00    -0.375 OA
ATOM     17  H4  KSA d   1      14.341  13.036 137.771  0.00  0.00     0.211 HD
ENDBRANCH   1  16
BRANCH   2  18
ATOM     18  C25 KSA d   1      14.180  10.026 135.532  0.00  0.00    -0.027 C 
ATOM     19  H5  KSA d   1      15.052   9.538 135.072  0.00  0.00     0.034 H 
ATOM     20  H6  KSA d   1      13.860  10.871 134.905  0.00  0.00     0.034 H 
ATOM     21  H7  KSA d   1      13.357   9.301 135.618  0.00  0.00     0.034 H 
ENDBRANCH   2  18
BRANCH   2  22
ATOM     22  N1  KSA d   1      15.886  11.247 136.808  0.00  0.00    -0.307 N 
ATOM     23  C3  KSA d   1      16.923  10.996 137.619  0.00  0.00     0.077 A 
ATOM     24  C8  KSA d   1      18.000  11.723 137.161  0.00  0.00     0.015 A 
ATOM     25  C9  KSA d   1      17.581  12.400 136.031  0.00  0.00     0.004 A 
ATOM     26  C10 KSA d   1      16.245  12.106 135.835  0.00  0.00     0.049 A 
ATOM     27  C14 KSA d   1      18.320  13.300 135.186  0.00  0.00    -0.070 A 
ATOM     28  C11 KSA d   1      15.587  12.733 134.723  0.00  0.00    -0.056 A 
ATOM     29  C12 KSA d   1      16.293  13.583 133.893  0.00  0.00    -0.081 A 
ATOM     30  H18 KSA d   1      14.537  12.540 134.535  0.00  0.00     0.087 H 
ATOM     31  C13 KSA d   1      17.649  13.861 134.101  0.00  0.00    -0.082 A 
ATOM     32  H21 KSA d   1      15.782  14.047 133.057  0.00  0.00     0.083 H 
ATOM     33  H20 KSA d   1      18.178  14.514 133.417  0.00  0.00     0.083 H 
ATOM     34  H19 KSA d   1      19.360  13.533 135.386  0.00  0.00     0.084 H 
BRANCH  23  35
ATOM     35  C4  KSA d   1      17.128  10.187 138.836  0.00  0.00     0.077 A 
ATOM     36  N2  KSA d   1      16.146   9.455 139.470  0.00  0.00    -0.316 N 
ATOM     37  C17 KSA d   1      16.776   8.844 140.556  0.00  0.00     0.048 A 
ATOM     38  C18 KSA d   1      16.243   7.978 141.506  0.00  0.00    -0.056 A 
ATOM     39  C16 KSA d   1      18.104   9.238 140.592  0.00  0.00     0.004 A 
ATOM     40  C19 KSA d   1      17.085   7.524 142.525  0.00  0.00    -0.081 A 
ATOM     41  H11 KSA d   1      15.206   7.665 141.457  0.00  0.00     0.087 H 
ATOM     42  C20 KSA d   1      18.431   7.927 142.565  0.00  0.00    -0.082 A 
ATOM     43  H12 KSA d   1      16.698   6.858 143.288  0.00  0.00     0.083 H 
ATOM     44  C21 KSA d   1      18.959   8.784 141.596  0.00  0.00    -0.070 A 
ATOM     45  H13 KSA d   1      19.071   7.566 143.362  0.00  0.00     0.083 H 
ATOM     46  H14 KSA d   1      20.000   9.086 141.624  0.00  0.00     0.084 H 
ATOM     47  C5  KSA d   1      18.331  10.062 139.495  0.00  0.00     0.022 A 
BRANCH  47  48
ATOM     48  C6  KSA d   1      19.467  10.835 138.953  0.00  0.00     0.054 A 
ATOM     49  C15 KSA d   1      20.868  10.960 139.390  0.00  0.00     0.253 A 
ATOM     50  O2  KSA d   1      21.382  10.318 140.307  0.00  0.00    -0.268 OA
ATOM     51  N3  KSA d   1      21.443  11.797 138.546  0.00  0.00    -0.353 N 
ATOM     52  C23 KSA d   1      20.593  12.330 137.484  0.00  0.00     0.021 A 
ATOM     53  H17 KSA d   1      22.406  12.052 138.629  0.00  0.00     0.163 HD
ATOM     54  C7  KSA d   1      19.308  11.635 137.836  0.00  0.00    -0.010 A 
ATOM     55  H15 KSA d   1      20.499  13.424 137.542  0.00  0.00     0.071 H 
ATOM     56  H16 KSA d   1      20.955  12.046 136.485  0.00  0.00     0.071 H 
ENDBRANCH  47  48
ENDBRANCH  23  35
ENDBRANCH   2  22
TORSDOF 10
