REMARK  12 active torsions:
REMARK  status: ('A' for Active; 'I' for Inactive)
REMARK    1  A    between atoms: C3_1  and  C2_2 
REMARK    2  A    between atoms: C2_2  and  N1_3 
REMARK    3  A    between atoms: C2_2  and  P4_4 
REMARK    4  A    between atoms: P4_4  and  C7_7 
REMARK    5  A    between atoms: C7_7  and  C8_8 
REMARK    6  A    between atoms: C8_8  and  C10_9 
REMARK    7  A    between atoms: C8_8  and  C9_17 
REMARK       I    between atoms: C10_9  and  N24_11 
REMARK    8  A    between atoms: N24_11  and  C25_12 
REMARK    9  A    between atoms: C25_12  and  C26_13 
REMARK   10  A    between atoms: C25_12  and  C27_14 
REMARK   11  A    between atoms: C9_17  and  C11_18 
REMARK   12  A    between atoms: C14_21  and  C17_24 
ROOT
ATOM      1  C8  BIR d   1      30.148  44.742  33.211  0.00  0.00     0.036 C 
ATOM      2  H10 BIR d   1      31.000  44.808  32.519  0.00  0.00     0.056 H 
ENDROOT
BRANCH   1   3
ATOM      3  C7  BIR d   1      28.861  44.556  32.394  0.00  0.00     0.021 C 
ATOM      4  H8  BIR d   1      28.090  44.142  33.060  0.00  0.00     0.050 H 
ATOM      5  H9  BIR d   1      28.540  45.544  32.031  0.00  0.00     0.050 H 
BRANCH   3   6
ATOM      6  P4  BIR d   1      29.016  43.502  31.026  0.00  0.00     0.137 P 
ATOM      7  O6  BIR d   1      30.230  42.650  31.223  0.00  0.00    -0.666 OA
ATOM      8  O5  BIR d   1      28.936  44.315  29.767  0.00  0.00    -0.666 OA
BRANCH   6   9
ATOM      9  C2  BIR d   1      27.708  42.362  31.092  0.00  0.00     0.170 C 
ATOM     10  H4  BIR d   1      27.770  41.822  32.048  0.00  0.00     0.100 H 
BRANCH   9  11
ATOM     11  C3  BIR d   1      27.859  41.356  29.945  0.00  0.00    -0.041 C 
ATOM     12  H1  BIR d   1      27.032  40.631  29.982  0.00  0.00     0.031 H 
ATOM     13  H2  BIR d   1      28.817  40.825  30.047  0.00  0.00     0.031 H 
ATOM     14  H3  BIR d   1      27.836  41.890  28.983  0.00  0.00     0.031 H 
ENDBRANCH   9  11
BRANCH   9  15
ATOM     15  N1  BIR d   1      26.400  42.999  31.015  0.00  0.00    -0.066 N 
ATOM     16  H5  BIR d   1      25.680  42.295  31.058  0.00  0.00     0.275 HD
ATOM     17  H6  BIR d   1      26.323  43.505  30.147  0.00  0.00     0.275 HD
ATOM     18  H7  BIR d   1      26.291  43.638  31.787  0.00  0.00     0.275 HD
ENDBRANCH   9  15
ENDBRANCH   6   9
ENDBRANCH   3   6
ENDBRANCH   1   3
BRANCH   1  19
ATOM     19  C10 BIR d   1      30.375  43.578  34.141  0.00  0.00     0.223 C 
ATOM     20  O23 BIR d   1      31.501  43.177  34.391  0.00  0.00    -0.273 OA
ATOM     21  N24 BIR d   1      29.310  42.986  34.665  0.00  0.00    -0.347 N 
ATOM     22  H11 BIR d   1      28.385  43.263  34.404  0.00  0.00     0.163 HD
BRANCH  21  23
ATOM     23  C25 BIR d   1      29.528  41.922  35.631  0.00  0.00     0.092 C 
ATOM     24  H12 BIR d   1      30.532  41.503  35.469  0.00  0.00     0.089 H 
BRANCH  23  25
ATOM     25  C26 BIR d   1      29.447  42.472  37.053  0.00  0.00    -0.048 C 
ATOM     26  H13 BIR d   1      29.614  41.656  37.772  0.00  0.00     0.030 H 
ATOM     27  H14 BIR d   1      28.452  42.910  37.221  0.00  0.00     0.030 H 
ATOM     28  H15 BIR d   1      30.217  43.246  37.191  0.00  0.00     0.030 H 
ENDBRANCH  23  25
BRANCH  23  29
ATOM     29  C27 BIR d   1      28.525  40.835  35.461  0.00  0.00     0.196 C 
ATOM     30  O28 BIR d   1      27.600  40.977  34.658  0.00  0.00    -0.646 OA
ATOM     31  O29 BIR d   1      28.647  39.816  36.123  0.00  0.00    -0.646 OA
ENDBRANCH  23  29
ENDBRANCH  21  23
ENDBRANCH   1  19
BRANCH   1  32
ATOM     32  C9  BIR d   1      30.052  46.051  34.009  0.00  0.00    -0.029 C 
ATOM     33  H16 BIR d   1      29.230  45.968  34.735  0.00  0.00     0.041 H 
ATOM     34  H17 BIR d   1      29.845  46.879  33.315  0.00  0.00     0.041 H 
BRANCH  32  35
ATOM     35  C11 BIR d   1      31.328  46.340  34.747  0.00  0.00    -0.057 A 
ATOM     36  C12 BIR d   1      31.318  46.489  36.132  0.00  0.00    -0.076 A 
ATOM     37  C13 BIR d   1      32.501  46.740  36.819  0.00  0.00    -0.072 A 
ATOM     38  H18 BIR d   1      30.384  46.409  36.677  0.00  0.00     0.084 H 
ATOM     39  C14 BIR d   1      33.717  46.841  36.131  0.00  0.00    -0.026 A 
ATOM     40  H19 BIR d   1      32.482  46.858  37.896  0.00  0.00     0.084 H 
ATOM     41  C15 BIR d   1      33.717  46.695  34.739  0.00  0.00    -0.072 A 
ATOM     42  C16 BIR d   1      32.533  46.448  34.054  0.00  0.00    -0.076 A 
ATOM     43  H20 BIR d   1      34.648  46.775  34.190  0.00  0.00     0.084 H 
ATOM     44  H21 BIR d   1      32.547  46.339  32.976  0.00  0.00     0.084 H 
BRANCH  39  45
ATOM     45  C17 BIR d   1      34.970  47.086  36.855  0.00  0.00    -0.026 A 
ATOM     46  C18 BIR d   1      36.121  46.348  36.552  0.00  0.00    -0.072 A 
ATOM     47  C19 BIR d   1      37.310  46.574  37.240  0.00  0.00    -0.082 A 
ATOM     48  H22 BIR d   1      36.086  45.594  35.774  0.00  0.00     0.084 H 
ATOM     49  C20 BIR d   1      37.365  47.544  38.238  0.00  0.00    -0.083 A 
ATOM     50  H23 BIR d   1      38.194  45.995  36.999  0.00  0.00     0.083 H 
ATOM     51  C21 BIR d   1      36.226  48.285  38.547  0.00  0.00    -0.082 A 
ATOM     52  H24 BIR d   1      38.291  47.722  38.773  0.00  0.00     0.083 H 
ATOM     53  C22 BIR d   1      35.037  48.056  37.862  0.00  0.00    -0.072 A 
ATOM     54  H25 BIR d   1      36.267  49.041  39.323  0.00  0.00     0.083 H 
ATOM     55  H26 BIR d   1      34.154  48.634  38.110  0.00  0.00     0.084 H 
ENDBRANCH  39  45
ENDBRANCH  32  35
ENDBRANCH   1  32
TORSDOF 12
