REMARK  5 active torsions:
REMARK  status: ('A' for Active; 'I' for Inactive)
REMARK    1  A    between atoms: N_1  and  CA_2 
REMARK    2  A    between atoms: N_1  and  C1_6 
REMARK    3  A    between atoms: N_1  and  C2_7 
REMARK    4  A    between atoms: N_1  and  C3_8 
REMARK    5  A    between atoms: CA_2  and  C_3 
ROOT
ATOM      1  N   BET d   1      26.676  22.955  72.682  0.00  0.00    -0.069 N 
ENDROOT
BRANCH   1   2
ATOM      2  CA  BET d   1      25.229  22.942  72.376  0.00  0.00     0.162 C 
ATOM      3  H1  BET d   1      25.047  22.087  71.708  0.00  0.00     0.093 H 
ATOM      4  H2  BET d   1      25.002  23.878  71.844  0.00  0.00     0.093 H 
BRANCH   2   5
ATOM      5  C   BET d   1      24.253  22.831  73.511  0.00  0.00     0.199 C 
ATOM      6  O1  BET d   1      23.098  23.186  73.311  0.00  0.00    -0.647 OA
ATOM      7  O2  BET d   1      24.627  22.377  74.658  0.00  0.00    -0.647 OA
ENDBRANCH   2   5
ENDBRANCH   1   2
BRANCH   1   8
ATOM      8  C1  BET d   1      27.358  23.372  71.442  0.00  0.00     0.068 C 
ATOM      9  H3  BET d   1      28.444  23.399  71.612  0.00  0.00     0.068 H 
ATOM     10  H4  BET d   1      27.008  24.373  71.150  0.00  0.00     0.068 H 
ATOM     11  H5  BET d   1      27.131  22.655  70.639  0.00  0.00     0.068 H 
ENDBRANCH   1   8
BRANCH   1  12
ATOM     12  C2  BET d   1      27.014  23.919  73.746  0.00  0.00     0.068 C 
ATOM     13  H6  BET d   1      26.514  23.624  74.680  0.00  0.00     0.068 H 
ATOM     14  H7  BET d   1      26.677  24.924  73.451  0.00  0.00     0.068 H 
ATOM     15  H8  BET d   1      28.103  23.928  73.900  0.00  0.00     0.068 H 
ENDBRANCH   1  12
BRANCH   1  16
ATOM     16  C3  BET d   1      27.087  21.582  73.040  0.00  0.00     0.068 C 
ATOM     17  H9  BET d   1      26.819  20.895  72.224  0.00  0.00     0.068 H 
ATOM     18  H10 BET d   1      26.573  21.274  73.963  0.00  0.00     0.068 H 
ATOM     19  H11 BET d   1      28.175  21.555  73.200  0.00  0.00     0.068 H 
ENDBRANCH   1  16
TORSDOF 5
