REMARK  11 active torsions:
REMARK  status: ('A' for Active; 'I' for Inactive)
REMARK    1  A    between atoms: C1_1  and  C16_16 
REMARK    2  A    between atoms: C1_1  and  C17_17 
REMARK    3  A    between atoms: C5_5  and  C18_18 
REMARK    4  A    between atoms: C6_6  and  C7_7 
REMARK    5  A    between atoms: C8_8  and  C9_9 
REMARK    6  A    between atoms: C9_9  and  C19_19 
REMARK    7  A    between atoms: C10_10  and  C11_11 
REMARK    8  A    between atoms: C12_12  and  C13_13 
REMARK    9  A    between atoms: C13_13  and  C20_20 
REMARK   10  A    between atoms: C14_14  and  C15_15 
REMARK   11  A    between atoms: C15_15  and  O21_21 
ROOT
ATOM      1  C7  RTL d   1      30.414  19.748  47.187  0.00  0.00    -0.075 C 
ATOM      2  C8  RTL d   1      31.534  19.557  47.920  0.00  0.00    -0.077 C 
ATOM      3  H7  RTL d   1      29.458  19.698  47.705  0.00  0.00     0.084 H 
ATOM      4  H8  RTL d   1      32.480  19.613  47.383  0.00  0.00     0.084 H 
ENDROOT
BRANCH   1   5
ATOM      5  C6  RTL d   1      30.391  20.023  45.717  0.00  0.00    -0.048 C 
ATOM      6  C1  RTL d   1      29.611  21.373  45.313  0.00  0.00    -0.020 C 
ATOM      7  C2  RTL d   1      29.353  21.382  43.799  0.00  0.00    -0.054 C 
ATOM      8  C3  RTL d   1      30.405  20.840  42.987  0.00  0.00    -0.061 C 
ATOM      9  H1  RTL d   1      29.190  22.425  43.490  0.00  0.00     0.034 H 
ATOM     10  H2  RTL d   1      28.442  20.796  43.608  0.00  0.00     0.034 H 
ATOM     11  C4  RTL d   1      30.678  19.375  43.278  0.00  0.00    -0.044 C 
ATOM     12  H3  RTL d   1      31.325  21.413  43.175  0.00  0.00     0.033 H 
ATOM     13  H4  RTL d   1      30.120  20.941  41.929  0.00  0.00     0.033 H 
ATOM     14  C5  RTL d   1      30.870  19.136  44.759  0.00  0.00    -0.077 C 
ATOM     15  H5  RTL d   1      31.589  19.067  42.744  0.00  0.00     0.039 H 
ATOM     16  H6  RTL d   1      29.826  18.775  42.926  0.00  0.00     0.039 H 
BRANCH   6  17
ATOM     17  C16 RTL d   1      28.241  21.481  46.026  0.00  0.00    -0.065 C 
ATOM     18  H15 RTL d   1      28.393  21.477  47.115  0.00  0.00     0.028 H 
ATOM     19  H16 RTL d   1      27.611  20.626  45.741  0.00  0.00     0.028 H 
ATOM     20  H17 RTL d   1      27.746  22.417  45.728  0.00  0.00     0.028 H 
ENDBRANCH   6  17
BRANCH   6  21
ATOM     21  C17 RTL d   1      30.456  22.597  45.686  0.00  0.00    -0.065 C 
ATOM     22  H18 RTL d   1      31.434  22.534  45.186  0.00  0.00     0.028 H 
ATOM     23  H19 RTL d   1      30.603  22.623  46.776  0.00  0.00     0.028 H 
ATOM     24  H20 RTL d   1      29.938  23.512  45.364  0.00  0.00     0.028 H 
ENDBRANCH   6  21
BRANCH  14  25
ATOM     25  C18 RTL d   1      31.737  17.897  45.005  0.00  0.00    -0.054 C 
ATOM     26  H21 RTL d   1      31.861  17.745  46.087  0.00  0.00     0.033 H 
ATOM     27  H22 RTL d   1      32.723  18.041  44.539  0.00  0.00     0.033 H 
ATOM     28  H23 RTL d   1      31.249  17.015  44.565  0.00  0.00     0.033 H 
ENDBRANCH  14  25
ENDBRANCH   1   5
BRANCH   2  29
ATOM     29  C9  RTL d   1      31.615  19.289  49.328  0.00  0.00    -0.062 C 
ATOM     30  C10 RTL d   1      32.869  19.106  49.829  0.00  0.00    -0.077 C 
ATOM     31  H9  RTL d   1      33.684  19.125  49.107  0.00  0.00     0.084 H 
BRANCH  30  32
ATOM     32  C11 RTL d   1      33.241  18.889  51.213  0.00  0.00    -0.082 C 
ATOM     33  C12 RTL d   1      34.527  18.665  51.595  0.00  0.00    -0.077 C 
ATOM     34  H11 RTL d   1      35.286  18.613  50.816  0.00  0.00     0.084 H 
ATOM     35  H10 RTL d   1      32.463  18.906  51.974  0.00  0.00     0.083 H 
BRANCH  33  36
ATOM     36  C13 RTL d   1      34.959  18.490  52.975  0.00  0.00    -0.064 C 
ATOM     37  C14 RTL d   1      36.268  18.238  53.230  0.00  0.00    -0.075 C 
ATOM     38  H12 RTL d   1      36.969  18.181  52.399  0.00  0.00     0.081 H 
BRANCH  37  39
ATOM     39  C15 RTL d   1      36.758  18.042  54.587  0.00  0.00     0.032 C 
ATOM     40  H13 RTL d   1      36.193  17.189  54.991  0.00  0.00     0.080 H 
ATOM     41  H14 RTL d   1      36.489  18.954  55.139  0.00  0.00     0.080 H 
BRANCH  39  42
ATOM     42  O21 RTL d   1      38.122  17.788  54.897  0.00  0.00    -0.397 OA
ATOM     43  H30 RTL d   1      38.219  17.693  55.837  0.00  0.00     0.209 HD
ENDBRANCH  39  42
ENDBRANCH  37  39
BRANCH  36  44
ATOM     44  C20 RTL d   1      33.889  18.609  54.109  0.00  0.00    -0.051 C 
ATOM     45  H27 RTL d   1      32.904  18.815  53.664  0.00  0.00     0.033 H 
ATOM     46  H28 RTL d   1      34.164  19.430  54.788  0.00  0.00     0.033 H 
ATOM     47  H29 RTL d   1      33.846  17.666  54.673  0.00  0.00     0.033 H 
ENDBRANCH  36  44
ENDBRANCH  33  36
ENDBRANCH  30  32
BRANCH  29  48
ATOM     48  C19 RTL d   1      30.295  19.156  50.116  0.00  0.00    -0.051 C 
ATOM     49  H24 RTL d   1      29.446  19.361  49.447  0.00  0.00     0.033 H 
ATOM     50  H25 RTL d   1      30.290  19.877  50.947  0.00  0.00     0.033 H 
ATOM     51  H26 RTL d   1      30.208  18.135  50.516  0.00  0.00     0.033 H 
ENDBRANCH  29  48
ENDBRANCH   2  29
TORSDOF 11
