REMARK  9 active torsions:
REMARK  status: ('A' for Active; 'I' for Inactive)
REMARK    1  A    between atoms: N3_2  and  C11_3 
REMARK    2  A    between atoms: C10_4  and  S1_24 
REMARK    3  A    between atoms: C13_7  and  C16_9 
REMARK    4  A    between atoms: C18_13  and  N1_14 
REMARK       I    between atoms: N2_17  and  C23_20 
REMARK    5  A    between atoms: C23_20  and  C24_22 
REMARK    6  A    between atoms: S1_24  and  C1_25 
REMARK    7  A    between atoms: C2_26  and  O7_31 
REMARK    8  A    between atoms: O7_31  and  C9_32 
REMARK    9  A    between atoms: C9_32  and  C33_33 
ROOT
ATOM      1  C11 L08 d   1       2.049  -4.793  -6.919  0.00  0.00     0.120 A 
ATOM      2  C10 L08 d   1       3.229  -5.687  -6.861  0.00  0.00     0.038 A 
ATOM      3  C15 L08 d   1       3.029  -7.140  -7.106  0.00  0.00    -0.063 A 
ATOM      4  C14 L08 d   1       1.744  -7.697  -7.392  0.00  0.00    -0.071 A 
ATOM      5  C13 L08 d   1       0.542  -6.851  -7.462  0.00  0.00    -0.023 A 
ATOM      6  C12 L08 d   1       0.708  -5.424  -7.226  0.00  0.00    -0.039 A 
ATOM      7  H1  L08 d   1       3.888  -7.800  -7.066  0.00  0.00     0.085 H 
ATOM      8  H2  L08 d   1       1.653  -8.764  -7.561  0.00  0.00     0.084 H 
ATOM      9  H3  L08 d   1      -0.167  -4.786  -7.272  0.00  0.00     0.088 H 
ENDROOT
BRANCH   5  10
ATOM     10  C16 L08 d   1      -0.809  -7.493  -7.763  0.00  0.00    -0.021 A 
ATOM     11  C8  L08 d   1      -1.887  -6.801  -8.473  0.00  0.00    -0.055 A 
ATOM     12  C35 L08 d   1      -3.112  -7.534  -8.679  0.00  0.00     0.005 A 
ATOM     13  H4  L08 d   1      -1.770  -5.784  -8.828  0.00  0.00     0.087 H 
ATOM     14  N20 L08 d   1      -3.281  -8.894  -8.206  0.00  0.00    -0.243 NA
ATOM     15  H5  L08 d   1      -3.930  -7.054  -9.203  0.00  0.00     0.114 H 
ATOM     16  C18 L08 d   1      -2.355  -9.552  -7.570  0.00  0.00     0.126 A 
ATOM     17  C17 L08 d   1      -1.019  -8.855  -7.307  0.00  0.00    -0.028 A 
ATOM     18  H17 L08 d   1      -0.229  -9.378  -6.780  0.00  0.00     0.090 H 
BRANCH  16  19
ATOM     19  N1  L08 d   1      -2.520 -10.903  -7.087  0.00  0.00    -0.364 N 
ATOM     20  C19 L08 d   1      -3.302 -10.987  -5.864  0.00  0.00     0.008 C 
ATOM     21  C20 L08 d   1      -4.414 -11.963  -6.092  0.00  0.00     0.001 C 
ATOM     22  H6  L08 d   1      -3.717  -9.999  -5.618  0.00  0.00     0.066 H 
ATOM     23  H7  L08 d   1      -2.665 -11.333  -5.037  0.00  0.00     0.066 H 
ATOM     24  N2  L08 d   1      -3.849 -13.246  -6.662  0.00  0.00    -0.251 NA
ATOM     25  H8  L08 d   1      -5.138 -11.535  -6.800  0.00  0.00     0.059 H 
ATOM     26  H9  L08 d   1      -4.917 -12.176  -5.137  0.00  0.00     0.059 H 
ATOM     27  C21 L08 d   1      -3.062 -13.109  -7.965  0.00  0.00     0.001 C 
ATOM     28  C23 L08 d   1      -4.897 -14.193  -6.872  0.00  0.00     0.195 C 
ATOM     29  C22 L08 d   1      -1.899 -12.036  -7.794  0.00  0.00     0.008 C 
ATOM     30  H10 L08 d   1      -3.741 -12.784  -8.767  0.00  0.00     0.059 H 
ATOM     31  H11 L08 d   1      -2.623 -14.082  -8.228  0.00  0.00     0.059 H 
ATOM     32  H12 L08 d   1      -1.072 -12.454  -7.201  0.00  0.00     0.066 H 
ATOM     33  H13 L08 d   1      -1.521 -11.717  -8.777  0.00  0.00     0.066 H 
ATOM     34  O2  L08 d   1      -4.890 -15.321  -6.292  0.00  0.00    -0.280 OA
BRANCH  28  35
ATOM     35  C24 L08 d   1      -6.083 -13.861  -7.806  0.00  0.00    -0.007 C 
ATOM     36  H14 L08 d   1      -6.778 -14.713  -7.834  0.00  0.00     0.039 H 
ATOM     37  H15 L08 d   1      -5.707 -13.662  -8.820  0.00  0.00     0.039 H 
ATOM     38  H16 L08 d   1      -6.609 -12.972  -7.429  0.00  0.00     0.039 H 
ENDBRANCH  28  35
ENDBRANCH  16  19
ENDBRANCH   5  10
BRANCH   1  39
ATOM     39  N3  L08 d   1       2.156  -3.381  -6.693  0.00  0.00    -0.114 N 
ATOM     40  O4  L08 d   1       1.290  -2.597  -7.052  0.00  0.00    -0.532 OA
ATOM     41  O3  L08 d   1       3.116  -2.829  -6.113  0.00  0.00    -0.532 OA
ENDBRANCH   1  39
BRANCH   2  42
ATOM     42  S1  L08 d   1       4.869  -4.979  -6.493  0.00  0.00    -0.085 SA
BRANCH  42  43
ATOM     43  C1  L08 d   1       5.770  -6.298  -5.788  0.00  0.00     0.039 A 
ATOM     44  C2  L08 d   1       6.444  -7.273  -6.697  0.00  0.00     0.085 A 
ATOM     45  C3  L08 d   1       7.210  -8.394  -6.069  0.00  0.00    -0.049 A 
ATOM     46  C4  L08 d   1       7.268  -8.494  -4.578  0.00  0.00    -0.080 A 
ATOM     47  H18 L08 d   1       7.717  -9.126  -6.688  0.00  0.00     0.087 H 
ATOM     48  C5  L08 d   1       6.573  -7.495  -3.713  0.00  0.00    -0.082 A 
ATOM     49  H19 L08 d   1       7.823  -9.304  -4.118  0.00  0.00     0.083 H 
ATOM     50  C6  L08 d   1       5.832  -6.407  -4.318  0.00  0.00    -0.064 A 
ATOM     51  H20 L08 d   1       6.623  -7.584  -2.634  0.00  0.00     0.083 H 
ATOM     52  H21 L08 d   1       5.327  -5.678  -3.695  0.00  0.00     0.085 H 
BRANCH  44  53
ATOM     53  O7  L08 d   1       6.307  -7.069  -8.149  0.00  0.00    -0.350 OA
BRANCH  53  54
ATOM     54  C9  L08 d   1       6.369  -8.212  -9.106  0.00  0.00     0.023 C 
ATOM     55  H22 L08 d   1       5.763  -9.049  -8.728  0.00  0.00     0.074 H 
ATOM     56  H23 L08 d   1       7.412  -8.540  -9.228  0.00  0.00     0.074 H 
BRANCH  54  57
ATOM     57  C33 L08 d   1       5.806  -7.728 -10.470  0.00  0.00    -0.056 C 
ATOM     58  H24 L08 d   1       5.841  -8.555 -11.195  0.00  0.00     0.030 H 
ATOM     59  H25 L08 d   1       6.414  -6.889 -10.841  0.00  0.00     0.030 H 
ATOM     60  H26 L08 d   1       4.765  -7.397 -10.341  0.00  0.00     0.030 H 
ENDBRANCH  54  57
ENDBRANCH  53  54
ENDBRANCH  44  53
ENDBRANCH  42  43
ENDBRANCH   2  42
TORSDOF 9
