REMARK  13 active torsions:
REMARK  status: ('A' for Active; 'I' for Inactive)
REMARK    1  A    between atoms: O1_1  and  C1_2 
REMARK    2  A    between atoms: C3_5  and  O2_6 
REMARK    3  A    between atoms: C6_10  and  C7_11 
REMARK    4  A    between atoms: C13_16  and  C18_18 
REMARK    5  A    between atoms: C17_21  and  C20_22 
REMARK    6  A    between atoms: C20_22  and  C21_23 
REMARK    7  A    between atoms: C20_22  and  C22_24 
REMARK    8  A    between atoms: C22_24  and  C23_25 
REMARK    9  A    between atoms: C23_25  and  C24_26 
REMARK   10  A    between atoms: C24_26  and  C25_27 
REMARK   11  A    between atoms: C25_27  and  C26_28 
REMARK   12  A    between atoms: C25_27  and  C27_29 
REMARK   13  A    between atoms: C25_27  and  O3_30 
ROOT
ATOM      1  C7  VDZ d   1      60.087   5.589  -2.985  0.00  0.00    -0.080 C 
ATOM      2  C8  VDZ d   1      60.417   5.432  -4.250  0.00  0.00    -0.075 C 
ATOM      3  C9  VDZ d   1      61.209   6.465  -5.004  0.00  0.00    -0.044 C 
ATOM      4  C11 VDZ d   1      62.524   5.788  -5.463  0.00  0.00    -0.061 C 
ATOM      5  C14 VDZ d   1      60.079   4.108  -4.903  0.00  0.00    -0.025 C 
ATOM      6  C13 VDZ d   1      61.472   3.461  -5.335  0.00  0.00    -0.033 C 
ATOM      7  C12 VDZ d   1      62.385   4.401  -6.141  0.00  0.00    -0.057 C 
ATOM      8  C15 VDZ d   1      59.198   3.027  -4.321  0.00  0.00    -0.057 C 
ATOM      9  C16 VDZ d   1      59.651   1.753  -5.105  0.00  0.00    -0.060 C 
ATOM     10  C17 VDZ d   1      60.946   2.140  -5.909  0.00  0.00    -0.043 C 
ATOM     11  H12 VDZ d   1      59.572   4.768  -2.488  0.00  0.00     0.083 H 
ATOM     12  H13 VDZ d   1      61.434   7.320  -4.349  0.00  0.00     0.039 H 
ATOM     13  H14 VDZ d   1      60.639   6.813  -5.878  0.00  0.00     0.039 H 
ATOM     14  H15 VDZ d   1      63.164   5.665  -4.577  0.00  0.00     0.033 H 
ATOM     15  H16 VDZ d   1      63.016   6.463  -6.179  0.00  0.00     0.033 H 
ATOM     16  H17 VDZ d   1      59.551   4.396  -5.824  0.00  0.00     0.048 H 
ATOM     17  H18 VDZ d   1      63.382   3.944  -6.225  0.00  0.00     0.034 H 
ATOM     18  H19 VDZ d   1      61.958   4.537  -7.146  0.00  0.00     0.034 H 
ATOM     19  H23 VDZ d   1      58.134   3.244  -4.498  0.00  0.00     0.034 H 
ATOM     20  H24 VDZ d   1      59.373   2.911  -3.241  0.00  0.00     0.034 H 
ATOM     21  H25 VDZ d   1      58.858   1.435  -5.798  0.00  0.00     0.033 H 
ATOM     22  H26 VDZ d   1      59.873   0.937  -4.402  0.00  0.00     0.033 H 
ATOM     23  H27 VDZ d   1      60.649   2.367  -6.944  0.00  0.00     0.041 H 
ENDROOT
BRANCH  10  24
ATOM     24  C20 VDZ d   1      61.840   0.914  -6.008  0.00  0.00    -0.053 C 
ATOM     25  H28 VDZ d   1      61.973   0.517  -4.991  0.00  0.00     0.040 H 
BRANCH  24  26
ATOM     26  C21 VDZ d   1      61.004  -0.108  -6.815  0.00  0.00    -0.072 C 
ATOM     27  H29 VDZ d   1      61.579  -1.038  -6.937  0.00  0.00     0.028 H 
ATOM     28  H30 VDZ d   1      60.769   0.310  -7.805  0.00  0.00     0.028 H 
ATOM     29  H31 VDZ d   1      60.069  -0.324  -6.277  0.00  0.00     0.028 H 
ENDBRANCH  24  26
BRANCH  24  30
ATOM     30  C22 VDZ d   1      63.271   1.147  -6.557  0.00  0.00    -0.061 C 
ATOM     31  H32 VDZ d   1      63.790   1.869  -5.910  0.00  0.00     0.033 H 
ATOM     32  H33 VDZ d   1      63.202   1.552  -7.577  0.00  0.00     0.033 H 
BRANCH  30  33
ATOM     33  C23 VDZ d   1      64.070  -0.151  -6.592  0.00  0.00    -0.062 C 
ATOM     34  H34 VDZ d   1      63.677  -0.770  -7.412  0.00  0.00     0.033 H 
ATOM     35  H35 VDZ d   1      63.917  -0.670  -5.635  0.00  0.00     0.033 H 
BRANCH  33  36
ATOM     36  C24 VDZ d   1      65.574   0.014  -6.804  0.00  0.00    -0.037 C 
ATOM     37  H36 VDZ d   1      65.954   0.724  -6.055  0.00  0.00     0.037 H 
ATOM     38  H37 VDZ d   1      65.740   0.421  -7.812  0.00  0.00     0.037 H 
BRANCH  36  39
ATOM     39  C25 VDZ d   1      66.378  -1.318  -6.672  0.00  0.00     0.051 C 
BRANCH  39  40
ATOM     40  C26 VDZ d   1      67.692  -1.049  -7.347  0.00  0.00    -0.048 C 
ATOM     41  H38 VDZ d   1      68.322  -1.950  -7.296  0.00  0.00     0.031 H 
ATOM     42  H39 VDZ d   1      68.201  -0.216  -6.840  0.00  0.00     0.031 H 
ATOM     43  H40 VDZ d   1      67.516  -0.784  -8.400  0.00  0.00     0.031 H 
ENDBRANCH  39  40
BRANCH  39  44
ATOM     44  C27 VDZ d   1      66.537  -1.890  -5.234  0.00  0.00    -0.048 C 
ATOM     45  H41 VDZ d   1      65.543  -2.064  -4.797  0.00  0.00     0.031 H 
ATOM     46  H42 VDZ d   1      67.090  -1.171  -4.612  0.00  0.00     0.031 H 
ATOM     47  H43 VDZ d   1      67.091  -2.840  -5.276  0.00  0.00     0.031 H 
ENDBRANCH  39  44
BRANCH  39  48
ATOM     48  O3  VDZ d   1      65.723  -2.313  -7.402  0.00  0.00    -0.391 OA
ATOM     49  H44 VDZ d   1      65.583  -2.011  -8.292  0.00  0.00     0.210 HD
ENDBRANCH  39  48
ENDBRANCH  36  39
ENDBRANCH  33  36
ENDBRANCH  30  33
ENDBRANCH  24  30
ENDBRANCH  10  24
BRANCH   6  50
ATOM     50  C18 VDZ d   1      62.288   3.114  -3.984  0.00  0.00    -0.068 C 
ATOM     51  H20 VDZ d   1      61.687   2.440  -3.356  0.00  0.00     0.028 H 
ATOM     52  H21 VDZ d   1      62.495   4.043  -3.432  0.00  0.00     0.028 H 
ATOM     53  H22 VDZ d   1      63.237   2.624  -4.245  0.00  0.00     0.028 H 
ENDBRANCH   6  50
BRANCH   1  54
ATOM     54  C6  VDZ d   1      60.373   6.819  -2.186  0.00  0.00    -0.080 C 
ATOM     55  C5  VDZ d   1      60.738   6.773  -0.822  0.00  0.00    -0.074 C 
ATOM     56  C4  VDZ d   1      60.935   8.127  -0.223  0.00  0.00    -0.017 C 
ATOM     57  C10 VDZ d   1      60.912   5.543   0.105  0.00  0.00    -0.017 C 
ATOM     58  C3  VDZ d   1      60.568   8.207   1.231  0.00  0.00     0.062 C 
ATOM     59  H7  VDZ d   1      61.995   8.402  -0.329  0.00  0.00     0.043 H 
ATOM     60  H8  VDZ d   1      60.313   8.845  -0.777  0.00  0.00     0.043 H 
ATOM     61  C2  VDZ d   1      60.774   6.948   2.031  0.00  0.00    -0.032 C 
ATOM     62  H5  VDZ d   1      61.044   9.079   1.704  0.00  0.00     0.090 H 
ATOM     63  C1  VDZ d   1      60.342   5.624   1.550  0.00  0.00     0.062 C 
ATOM     64  C28 VDZ d   1      61.437   7.054   3.164  0.00  0.00    -0.114 C 
ATOM     65  H2  VDZ d   1      59.243   5.614   1.514  0.00  0.00     0.090 H 
ATOM     66  H3  VDZ d   1      61.756   8.033   3.519  0.00  0.00     0.067 H 
ATOM     67  H4  VDZ d   1      61.666   6.163   3.746  0.00  0.00     0.067 H 
ATOM     68  H9  VDZ d   1      60.425   4.690  -0.390  0.00  0.00     0.043 H 
ATOM     69  H10 VDZ d   1      61.992   5.350   0.191  0.00  0.00     0.043 H 
ATOM     70  H11 VDZ d   1      60.297   7.789  -2.675  0.00  0.00     0.083 H 
BRANCH  58  71
ATOM     71  O2  VDZ d   1      59.068   8.230   1.261  0.00  0.00    -0.391 OA
ATOM     72  H6  VDZ d   1      58.771   8.276   2.162  0.00  0.00     0.210 HD
ENDBRANCH  58  71
BRANCH  63  73
ATOM     73  O1  VDZ d   1      60.750   4.465   2.321  0.00  0.00    -0.391 OA
ATOM     74  H1  VDZ d   1      61.699   4.424   2.352  0.00  0.00     0.210 HD
ENDBRANCH  63  73
ENDBRANCH   1  54
TORSDOF 13
