REMARK  11 active torsions:
REMARK  status: ('A' for Active; 'I' for Inactive)
REMARK    1  A    between atoms: C3_3  and  O1_7 
REMARK    2  A    between atoms: C6_6  and  S1_9 
REMARK    3  A    between atoms: O1_7  and  C7_8 
REMARK    4  A    between atoms: S1_9  and  N_12 
REMARK    5  A    between atoms: N_12  and  C9_13 
REMARK    6  A    between atoms: N_12  and  C10_14 
REMARK    7  A    between atoms: C9_13  and  C12_19 
REMARK    8  A    between atoms: C10_14  and  C11_15 
REMARK       I    between atoms: C11_15  and  N1_16 
REMARK    9  A    between atoms: N1_16  and  O4_17 
REMARK   10  A    between atoms: C12_19  and  C13_20 
REMARK   11  A    between atoms: C12_19  and  C14_21 
ROOT
ATOM      1  N   NGH d   1       7.873  27.189   2.687  0.00  0.00    -0.301 N 
ENDROOT
BRANCH   1   2
ATOM      2  S1  NGH d   1       8.031  26.803   4.198  0.00  0.00     0.261 S 
ATOM      3  O2  NGH d   1       9.475  26.297   4.224  0.00  0.00    -0.200 OA
ATOM      4  O3  NGH d   1       7.714  27.925   5.221  0.00  0.00    -0.200 OA
BRANCH   2   5
ATOM      5  C6  NGH d   1       6.971  25.530   4.371  0.00  0.00     0.079 C 
ATOM      6  C1  NGH d   1       5.686  25.773   5.103  0.00  0.00    -0.058 C 
ATOM      7  C2  NGH d   1       4.819  24.588   5.431  0.00  0.00    -0.049 C 
ATOM      8  H1  NGH d   1       5.389  26.776   5.388  0.00  0.00     0.086 H 
ATOM      9  C3  NGH d   1       5.344  23.222   5.039  0.00  0.00     0.068 C 
ATOM     10  H2  NGH d   1       3.862  24.706   5.926  0.00  0.00     0.087 H 
ATOM     11  C4  NGH d   1       6.749  22.992   4.607  0.00  0.00    -0.049 C 
ATOM     12  C5  NGH d   1       7.588  24.157   4.321  0.00  0.00    -0.058 C 
ATOM     13  H3  NGH d   1       7.142  21.987   4.506  0.00  0.00     0.087 H 
ATOM     14  H4  NGH d   1       8.637  24.033   4.077  0.00  0.00     0.086 H 
BRANCH   9  15
ATOM     15  O1  NGH d   1       4.806  22.052   5.608  0.00  0.00    -0.356 OA
BRANCH  15  16
ATOM     16  C7  NGH d   1       3.481  22.123   6.127  0.00  0.00     0.010 C 
ATOM     17  H5  NGH d   1       3.195  21.143   6.537  0.00  0.00     0.066 H 
ATOM     18  H6  NGH d   1       2.786  22.401   5.321  0.00  0.00     0.066 H 
ATOM     19  H7  NGH d   1       3.439  22.880   6.924  0.00  0.00     0.066 H 
ENDBRANCH  15  16
ENDBRANCH   9  15
ENDBRANCH   2   5
ENDBRANCH   1   2
BRANCH   1  20
ATOM     20  C9  NGH d   1       6.776  28.063   2.229  0.00  0.00     0.008 C 
ATOM     21  H8  NGH d   1       6.199  28.384   3.109  0.00  0.00     0.066 H 
ATOM     22  H9  NGH d   1       6.128  27.481   1.558  0.00  0.00     0.066 H 
BRANCH  20  23
ATOM     23  C12 NGH d   1       7.248  29.324   1.473  0.00  0.00    -0.045 C 
ATOM     24  H14 NGH d   1       8.150  29.051   0.906  0.00  0.00     0.041 H 
BRANCH  23  25
ATOM     25  C13 NGH d   1       7.624  30.430   2.439  0.00  0.00    -0.072 C 
ATOM     26  H15 NGH d   1       7.955  31.314   1.874  0.00  0.00     0.028 H 
ATOM     27  H16 NGH d   1       8.439  30.085   3.092  0.00  0.00     0.028 H 
ATOM     28  H17 NGH d   1       6.750  30.694   3.052  0.00  0.00     0.028 H 
ENDBRANCH  23  25
BRANCH  23  29
ATOM     29  C14 NGH d   1       6.204  29.825   0.470  0.00  0.00    -0.072 C 
ATOM     30  H18 NGH d   1       5.942  29.012  -0.223  0.00  0.00     0.028 H 
ATOM     31  H19 NGH d   1       6.617  30.672  -0.098  0.00  0.00     0.028 H 
ATOM     32  H20 NGH d   1       5.303  30.151   1.010  0.00  0.00     0.028 H 
ENDBRANCH  23  29
ENDBRANCH  20  23
ENDBRANCH   1  20
BRANCH   1  33
ATOM     33  C10 NGH d   1       8.719  26.518   1.677  0.00  0.00     0.061 C 
ATOM     34  H10 NGH d   1       9.668  26.183   2.121  0.00  0.00     0.073 H 
ATOM     35  H11 NGH d   1       8.927  27.190   0.831  0.00  0.00     0.073 H 
BRANCH  33  36
ATOM     36  C11 NGH d   1       7.871  25.318   1.228  0.00  0.00     0.259 C 
ATOM     37  N1  NGH d   1       8.543  24.135   0.810  0.00  0.00    -0.261 N 
ATOM     38  H12 NGH d   1       9.541  24.105   0.758  0.00  0.00     0.191 HD
ATOM     39  O5  NGH d   1       6.887  25.530   0.282  0.00  0.00    -0.196 OA
BRANCH  37  40
ATOM     40  O4  NGH d   1       7.845  23.119   0.504  0.00  0.00    -0.291 OA
ATOM     41  H13 NGH d   1       8.419  22.408   0.246  0.00  0.00     0.244 HD
ENDBRANCH  37  40
ENDBRANCH  33  36
ENDBRANCH   1  33
TORSDOF 11
