REMARK  7 active torsions:
REMARK  status: ('A' for Active; 'I' for Inactive)
REMARK    1  A    between atoms: P_2  and  O5'_5 
REMARK    2  A    between atoms: O5'_5  and  C5'_6 
REMARK    3  A    between atoms: C5'_6  and  C4'_7 
REMARK    4  A    between atoms: C3'_9  and  O3'_10 
REMARK    5  A    between atoms: C2'_11  and  O2'_12 
REMARK    6  A    between atoms: C1'_13  and  N1_14 
REMARK    7  A    between atoms: C4_17  and  N4_21 
ROOT
ATOM      1  C4' C5P d   1      13.862  14.961  27.623  0.00  0.00     0.089 C 
ATOM      2  O4' C5P d   1      14.013  16.314  27.407  0.00  0.00    -0.353 OA
ATOM      3  C3' C5P d   1      15.004  14.575  28.414  0.00  0.00     0.091 C 
ATOM      4  C2' C5P d   1      16.113  15.518  28.087  0.00  0.00     0.105 C 
ATOM      5  C1' C5P d   1      15.365  16.621  27.473  0.00  0.00     0.141 C 
ATOM      6  H3  C5P d   1      13.828  14.407  26.674  0.00  0.00     0.090 H 
ATOM      7  H4  C5P d   1      14.808  14.592  29.496  0.00  0.00     0.091 H 
ATOM      8  H6  C5P d   1      16.718  15.794  28.963  0.00  0.00     0.093 H 
ATOM      9  H8  C5P d   1      15.754  16.750  26.452  0.00  0.00     0.123 H 
ENDROOT
BRANCH   5  10
ATOM     10  N1  C5P d   1      15.464  17.894  28.153  0.00  0.00    -0.280 N 
ATOM     11  C2  C5P d   1      16.465  18.718  27.708  0.00  0.00     0.330 A 
ATOM     12  N3  C5P d   1      16.494  19.940  28.244  0.00  0.00    -0.293 N 
ATOM     13  O2  C5P d   1      17.341  18.360  26.917  0.00  0.00    -0.246 OA
ATOM     14  C4  C5P d   1      15.602  20.361  29.186  0.00  0.00     0.125 A 
ATOM     15  H9  C5P d   1      17.203  20.577  27.941  0.00  0.00     0.172 HD
ATOM     16  C5  C5P d   1      14.578  19.508  29.663  0.00  0.00    -0.024 A 
ATOM     17  C6  C5P d   1      14.548  18.286  29.114  0.00  0.00    -0.009 A 
ATOM     18  H10 C5P d   1      13.864  19.823  30.423  0.00  0.00     0.091 H 
ATOM     19  H11 C5P d   1      13.781  17.581  29.433  0.00  0.00     0.112 H 
BRANCH  14  20
ATOM     20  N4  C5P d   1      15.710  21.583  29.696  0.00  0.00    -0.284 NA
ATOM     21  H12 C5P d   1      15.053  21.898  30.392  0.00  0.00     0.188 HD
ENDBRANCH  14  20
ENDBRANCH   5  10
BRANCH   4  22
ATOM     22  O2' C5P d   1      16.888  15.052  27.015  0.00  0.00    -0.388 OA
ATOM     23  H7  C5P d   1      17.266  14.210  27.241  0.00  0.00     0.210 HD
ENDBRANCH   4  22
BRANCH   1  24
ATOM     24  C5' C5P d   1      12.645  14.728  28.395  0.00  0.00     0.059 C 
ATOM     25  H1  C5P d   1      11.764  14.829  27.744  0.00  0.00     0.079 H 
ATOM     26  H2  C5P d   1      12.666  13.717  28.829  0.00  0.00     0.079 H 
BRANCH  24  27
ATOM     27  O5' C5P d   1      12.592  15.706  29.441  0.00  0.00    -0.280 OA
BRANCH  27  28
ATOM     28  P   C5P d   1      11.552  15.564  30.696  0.00  0.00     0.422 P 
ATOM     29  O3P C5P d   1      10.240  15.677  29.964  0.00  0.00    -0.617 OA
ATOM     30  O1P C5P d   1      11.907  16.712  31.624  0.00  0.00    -0.617 OA
ATOM     31  O2P C5P d   1      11.962  14.183  31.167  0.00  0.00    -0.617 OA
ENDBRANCH  27  28
ENDBRANCH  24  27
ENDBRANCH   1  24
BRANCH   3  32
ATOM     32  O3' C5P d   1      15.158  13.250  27.937  0.00  0.00    -0.390 OA
ATOM     33  H5  C5P d   1      15.314  13.268  27.000  0.00  0.00     0.210 HD
ENDBRANCH   3  32
TORSDOF 7
