REMARK  7 active torsions:
REMARK  status: ('A' for Active; 'I' for Inactive)
REMARK    1  A    between atoms: O2_12  and  P_1 
REMARK    2  A    between atoms: C5_6  and  O5_5 
REMARK    3  A    between atoms: C4_7  and  C5_6 
REMARK    4  A    between atoms: C3_9  and  O3_10 
REMARK    5  A    between atoms: C2_11  and  O2_12 
REMARK    6  A    between atoms: C1_13  and  N9_14 
REMARK    7  A    between atoms: C2_21  and  N2_22 
ROOT
ATOM      1  C4  2GP d   1      19.426  33.073  23.541  0.00  0.00     0.088 C 
ATOM      2  O4  2GP d   1      18.389  32.312  22.824  0.00  0.00    -0.353 OA
ATOM      3  C3  2GP d   1      20.277  33.764  22.453  0.00  0.00     0.092 C 
ATOM      4  C2  2GP d   1      19.233  33.920  21.334  0.00  0.00     0.121 C 
ATOM      5  C1  2GP d   1      18.504  32.608  21.416  0.00  0.00     0.140 C 
ATOM      6  H4  2GP d   1      20.085  32.374  24.078  0.00  0.00     0.090 H 
ATOM      7  H5  2GP d   1      20.718  34.720  22.773  0.00  0.00     0.091 H 
ATOM      8  H7  2GP d   1      18.545  34.755  21.533  0.00  0.00     0.095 H 
ATOM      9  H8  2GP d   1      19.154  31.862  20.935  0.00  0.00     0.123 H 
ENDROOT
BRANCH   5  10
ATOM     10  N9  2GP d   1      17.188  32.423  20.848  0.00  0.00    -0.293 N 
ATOM     11  C8  2GP d   1      16.781  31.361  20.131  0.00  0.00     0.071 A 
ATOM     12  N7  2GP d   1      15.492  31.271  20.035  0.00  0.00    -0.234 NA
ATOM     13  H9  2GP d   1      17.466  30.647  19.676  0.00  0.00     0.144 H 
ATOM     14  C5  2GP d   1      14.960  32.331  20.765  0.00  0.00     0.173 A 
ATOM     15  C6  2GP d   1      13.637  32.755  21.028  0.00  0.00     0.292 A 
ATOM     16  C4  2GP d   1      16.019  33.040  21.275  0.00  0.00     0.186 A 
ATOM     17  O6  2GP d   1      12.527  32.298  20.669  0.00  0.00    -0.265 OA
ATOM     18  N1  2GP d   1      13.574  33.890  21.815  0.00  0.00    -0.152 N 
ATOM     19  C2  2GP d   1      14.728  34.526  22.267  0.00  0.00     0.703 A 
ATOM     20  H10 2GP d   1      12.680  34.263  22.065  0.00  0.00     0.187 HD
ATOM     21  N3  2GP d   1      15.948  34.153  22.039  0.00  0.00    -0.044 NA
BRANCH  19  22
ATOM     22  N2  2GP d   1      14.485  35.596  23.032  0.00  0.00    -0.233 N 
ATOM     23  H11 2GP d   1      15.269  36.141  23.419  0.00  0.00     0.174 HD
ATOM     24  H12 2GP d   1      13.514  35.875  23.233  0.00  0.00     0.174 HD
ENDBRANCH  19  22
ENDBRANCH   5  10
BRANCH   4  25
ATOM     25  O2  2GP d   1      19.903  34.154  20.106  0.00  0.00    -0.270 OA
BRANCH  25  26
ATOM     26  P   2GP d   1      19.664  35.430  19.218  0.00  0.00     0.422 P 
ATOM     27  O1P 2GP d   1      20.756  35.186  18.064  0.00  0.00    -0.617 OA
ATOM     28  O2P 2GP d   1      20.158  36.605  20.027  0.00  0.00    -0.617 OA
ATOM     29  O3P 2GP d   1      18.407  35.450  18.511  0.00  0.00    -0.617 OA
ENDBRANCH  25  26
ENDBRANCH   4  25
BRANCH   1  30
ATOM     30  C5  2GP d   1      18.759  33.935  24.586  0.00  0.00     0.043 C 
ATOM     31  H2  2GP d   1      18.279  33.288  25.335  0.00  0.00     0.078 H 
ATOM     32  H3  2GP d   1      19.519  34.562  25.075  0.00  0.00     0.078 H 
BRANCH  30  33
ATOM     33  O5  2GP d   1      17.770  34.775  23.990  0.00  0.00    -0.398 OA
ATOM     34  H1  2GP d   1      17.111  34.236  23.569  0.00  0.00     0.209 HD
ENDBRANCH  30  33
ENDBRANCH   1  30
BRANCH   3  35
ATOM     35  O3  2GP d   1      21.265  32.832  22.049  0.00  0.00    -0.390 OA
ATOM     36  H6  2GP d   1      21.811  33.222  21.377  0.00  0.00     0.210 HD
ENDBRANCH   3  35
TORSDOF 7
