REMARK  5 active torsions:
REMARK  status: ('A' for Active; 'I' for Inactive)
REMARK    1  A    between atoms: C5_1  and  C3_7 
REMARK    2  A    between atoms: C7_3  and  O3_13 
REMARK    3  A    between atoms: C8_4  and  O2_19 
REMARK    4  A    between atoms: O3_13  and  C11_14 
REMARK    5  A    between atoms: O2_19  and  C16_20 
ROOT
ATOM      1  C5  ROL d   1      32.388  75.367  22.066  0.00  0.00    -0.049 A 
ATOM      2  C6  ROL d   1      32.070  75.908  20.817  0.00  0.00    -0.042 A 
ATOM      3  C7  ROL d   1      31.744  77.284  20.641  0.00  0.00     0.103 A 
ATOM      4  C8  ROL d   1      31.780  78.147  21.750  0.00  0.00     0.101 A 
ATOM      5  C9  ROL d   1      32.080  77.601  23.014  0.00  0.00    -0.048 A 
ATOM      6  C10 ROL d   1      32.368  76.231  23.180  0.00  0.00    -0.074 A 
ATOM      7  H1  ROL d   1      32.071  75.257  19.950  0.00  0.00     0.088 H 
ATOM      8  H2  ROL d   1      32.090  78.251  23.881  0.00  0.00     0.087 H 
ATOM      9  H3  ROL d   1      32.575  75.840  24.169  0.00  0.00     0.084 H 
ENDROOT
BRANCH   3  10
ATOM     10  O3  ROL d   1      31.373  77.886  19.432  0.00  0.00    -0.343 OA
BRANCH  10  11
ATOM     11  C11 ROL d   1      31.164  77.076  18.268  0.00  0.00     0.045 C 
ATOM     12  C15 ROL d   1      32.503  76.793  17.587  0.00  0.00    -0.040 C 
ATOM     13  C14 ROL d   1      32.832  78.118  16.910  0.00  0.00    -0.063 C 
ATOM     14  H11 ROL d   1      32.407  75.985  16.847  0.00  0.00     0.036 H 
ATOM     15  H12 ROL d   1      33.273  76.525  18.325  0.00  0.00     0.036 H 
ATOM     16  C13 ROL d   1      31.486  78.666  16.447  0.00  0.00    -0.063 C 
ATOM     17  H13 ROL d   1      33.501  77.959  16.052  0.00  0.00     0.033 H 
ATOM     18  H14 ROL d   1      33.307  78.809  17.622  0.00  0.00     0.033 H 
ATOM     19  C12 ROL d   1      30.415  77.902  17.218  0.00  0.00    -0.040 C 
ATOM     20  H15 ROL d   1      31.363  78.505  15.366  0.00  0.00     0.033 H 
ATOM     21  H16 ROL d   1      31.418  79.741  16.668  0.00  0.00     0.033 H 
ATOM     22  H17 ROL d   1      29.721  78.603  17.706  0.00  0.00     0.036 H 
ATOM     23  H18 ROL d   1      29.854  77.242  16.541  0.00  0.00     0.036 H 
ATOM     24  H10 ROL d   1      30.630  76.150  18.527  0.00  0.00     0.084 H 
ENDBRANCH  10  11
ENDBRANCH   3  10
BRANCH   4  25
ATOM     25  O2  ROL d   1      31.502  79.488  21.488  0.00  0.00    -0.353 OA
BRANCH  25  26
ATOM     26  C16 ROL d   1      31.698  80.464  22.506  0.00  0.00     0.010 C 
ATOM     27  H19 ROL d   1      31.428  81.457  22.118  0.00  0.00     0.066 H 
ATOM     28  H20 ROL d   1      32.754  80.465  22.814  0.00  0.00     0.066 H 
ATOM     29  H21 ROL d   1      31.063  80.224  23.372  0.00  0.00     0.066 H 
ENDBRANCH  25  26
ENDBRANCH   4  25
BRANCH   1  30
ATOM     30  C3  ROL d   1      32.714  73.882  22.146  0.00  0.00    -0.005 C 
ATOM     31  C2  ROL d   1      34.024  73.489  22.868  0.00  0.00     0.018 C 
ATOM     32  C1  ROL d   1      33.570  72.439  23.895  0.00  0.00     0.218 C 
ATOM     33  H5  ROL d   1      34.473  74.359  23.369  0.00  0.00     0.048 H 
ATOM     34  H6  ROL d   1      34.748  73.059  22.161  0.00  0.00     0.048 H 
ATOM     35  O1  ROL d   1      34.276  71.994  24.798  0.00  0.00    -0.274 OA
ATOM     36  N1  ROL d   1      32.289  72.103  23.668  0.00  0.00    -0.360 N 
ATOM     37  C4  ROL d   1      31.612  73.095  22.846  0.00  0.00     0.003 C 
ATOM     38  H7  ROL d   1      31.855  71.274  24.020  0.00  0.00     0.162 HD
ATOM     39  H8  ROL d   1      30.965  72.601  22.106  0.00  0.00     0.065 H 
ATOM     40  H9  ROL d   1      31.005  73.763  23.475  0.00  0.00     0.065 H 
ATOM     41  H4  ROL d   1      32.790  73.527  21.108  0.00  0.00     0.050 H 
ENDBRANCH   1  30
TORSDOF 5
