REMARK  10 active torsions:
REMARK  status: ('A' for Active; 'I' for Inactive)
REMARK    1  A    between atoms: C2_2  and  C2A_3 
REMARK    2  A    between atoms: C7_7  and  C35_9 
REMARK    3  A    between atoms: C35_9  and  N3_10 
REMARK    4  A    between atoms: C5_14  and  C5A_17 
REMARK    5  A    between atoms: C4_15  and  C4A_16 
REMARK    6  A    between atoms: C5A_17  and  C5B_18 
REMARK    7  A    between atoms: C5B_18  and  O5G_19 
REMARK    8  A    between atoms: O5G_19  and  P1_20 
REMARK    9  A    between atoms: P1_20  and  O11_21 
REMARK   10  A    between atoms: O11_21  and  P2_24 
ROOT
ATOM      1  N3  TZD d   1      26.929 -32.853  10.807  0.00  0.00    -0.307 N 
ATOM      2  C2  TZD d   1      27.639 -32.576  11.935  0.00  0.00     0.291 A 
ATOM      3  OC2 TZD d   1      28.874 -32.673  12.085  0.00  0.00    -0.259 OA
ATOM      4  S1  TZD d   1      26.546 -32.071  13.217  0.00  0.00    -0.032 SA
ATOM      5  C5  TZD d   1      25.153 -32.266  12.181  0.00  0.00     0.012 A 
ATOM      6  C4  TZD d   1      25.517 -32.681  10.929  0.00  0.00     0.025 A 
ENDROOT
BRANCH   1   7
ATOM      7  C35 TZD d   1      27.583 -33.269   9.498  0.00  0.00     0.032 C 
ATOM      8  H7  TZD d   1      27.032 -32.798   8.670  0.00  0.00     0.072 H 
ATOM      9  H8  TZD d   1      28.622 -32.908   9.500  0.00  0.00     0.072 H 
BRANCH   7  10
ATOM     10  C7  TZD d   1      27.598 -34.766   9.270  0.00  0.00     0.023 A 
ATOM     11  C5  TZD d   1      28.357 -35.732  10.107  0.00  0.00     0.132 A 
ATOM     12  N4  TZD d   1      28.306 -37.101   9.814  0.00  0.00    -0.216 NA
ATOM     13  N6  TZD d   1      29.119 -35.385  11.121  0.00  0.00    -0.383 N 
ATOM     14  C2  TZD d   1      27.573 -37.510   8.776  0.00  0.00     0.124 A 
ATOM     15  N1  TZD d   1      26.855 -36.642   7.976  0.00  0.00    -0.245 NA
ATOM     16  C8  TZD d   1      26.874 -35.286   8.226  0.00  0.00     0.015 A 
ATOM     17  H6  TZD d   1      26.307 -34.619   7.587  0.00  0.00     0.116 H 
ATOM     18  H4  TZD d   1      29.200 -34.394  11.389  0.00  0.00     0.157 HD
ATOM     19  H5  TZD d   1      29.635 -36.105  11.648  0.00  0.00     0.157 HD
BRANCH  14  20
ATOM     20  C2A TZD d   1      27.525 -38.956   8.421  0.00  0.00    -0.019 C 
ATOM     21  H1  TZD d   1      26.875 -39.097   7.545  0.00  0.00     0.037 H 
ATOM     22  H2  TZD d   1      27.125 -39.529   9.271  0.00  0.00     0.037 H 
ATOM     23  H3  TZD d   1      28.540 -39.310   8.185  0.00  0.00     0.037 H 
ENDBRANCH  14  20
ENDBRANCH   7  10
ENDBRANCH   1   7
BRANCH   6  24
ATOM     24  C4A TZD d   1      24.598 -32.944   9.764  0.00  0.00    -0.036 C 
ATOM     25  H9  TZD d   1      23.558 -32.753  10.067  0.00  0.00     0.035 H 
ATOM     26  H10 TZD d   1      24.701 -33.992   9.445  0.00  0.00     0.035 H 
ATOM     27  H11 TZD d   1      24.865 -32.279   8.929  0.00  0.00     0.035 H 
ENDBRANCH   6  24
BRANCH   5  28
ATOM     28  C5A TZD d   1      23.766 -32.064  12.700  0.00  0.00    -0.013 C 
ATOM     29  H12 TZD d   1      23.049 -32.464  11.967  0.00  0.00     0.044 H 
ATOM     30  H13 TZD d   1      23.589 -30.987  12.835  0.00  0.00     0.044 H 
BRANCH  28  31
ATOM     31  C5B TZD d   1      23.558 -32.759  14.012  0.00  0.00     0.036 C 
ATOM     32  H14 TZD d   1      24.003 -32.165  14.824  0.00  0.00     0.075 H 
ATOM     33  H15 TZD d   1      24.026 -33.754  13.986  0.00  0.00     0.075 H 
BRANCH  31  34
ATOM     34  O5G TZD d   1      22.143 -32.890  14.221  0.00  0.00    -0.289 OA
BRANCH  34  35
ATOM     35  P1  TZD d   1      21.572 -33.764  15.429  0.00  0.00     0.418 P 
ATOM     36  O12 TZD d   1      20.137 -33.440  15.584  0.00  0.00    -0.624 OA
ATOM     37  O13 TZD d   1      21.976 -35.185  15.224  0.00  0.00    -0.624 OA
BRANCH  35  38
ATOM     38  O11 TZD d   1      22.370 -33.202  16.696  0.00  0.00    -0.173 OA
BRANCH  38  39
ATOM     39  P2  TZD d   1      22.316 -31.867  17.575  0.00  0.00     0.431 P 
ATOM     40  O21 TZD d   1      22.332 -32.318  19.068  0.00  0.00    -0.616 OA
ATOM     41  O22 TZD d   1      23.554 -31.103  17.282  0.00  0.00    -0.616 OA
ATOM     42  O23 TZD d   1      21.024 -31.210  17.281  0.00  0.00    -0.616 OA
ENDBRANCH  38  39
ENDBRANCH  35  38
ENDBRANCH  34  35
ENDBRANCH  31  34
ENDBRANCH  28  31
ENDBRANCH   5  28
TORSDOF 10
