REMARK  7 active torsions:
REMARK  status: ('A' for Active; 'I' for Inactive)
REMARK    1  A    between atoms: O3'_10  and  P_1 
REMARK    2  A    between atoms: C5'_6  and  O5'_5 
REMARK    3  A    between atoms: C4'_7  and  C5'_6 
REMARK    4  A    between atoms: C3'_9  and  O3'_10 
REMARK    5  A    between atoms: C2'_11  and  O2'_12 
REMARK    6  A    between atoms: C1'_13  and  N1_14 
REMARK    7  A    between atoms: C4_17  and  N4_21 
ROOT
ATOM      1  C4' C3P d   1     -12.940  51.438   5.823  0.00  0.00     0.089 C 
ATOM      2  O4' C3P d   1     -11.881  52.123   5.071  0.00  0.00    -0.353 OA
ATOM      3  C3' C3P d   1     -12.385  50.076   6.114  0.00  0.00     0.107 C 
ATOM      4  C2' C3P d   1     -11.198  49.911   5.169  0.00  0.00     0.106 C 
ATOM      5  C1' C3P d   1     -10.733  51.309   4.911  0.00  0.00     0.141 C 
ATOM      6  H4  C3P d   1     -13.763  51.297   5.106  0.00  0.00     0.090 H 
ATOM      7  H5  C3P d   1     -11.998  50.087   7.144  0.00  0.00     0.092 H 
ATOM      8  H6  C3P d   1     -10.384  49.536   5.806  0.00  0.00     0.093 H 
ATOM      9  H8  C3P d   1     -10.384  51.359   3.869  0.00  0.00     0.123 H 
ENDROOT
BRANCH   5  10
ATOM     10  N1  C3P d   1      -9.685  51.840   5.735  0.00  0.00    -0.280 N 
ATOM     11  C2  C3P d   1      -8.441  51.398   5.523  0.00  0.00     0.330 A 
ATOM     12  N3  C3P d   1      -7.435  51.961   6.211  0.00  0.00    -0.293 N 
ATOM     13  O2  C3P d   1      -8.287  50.525   4.700  0.00  0.00    -0.246 OA
ATOM     14  C4  C3P d   1      -7.666  52.898   7.128  0.00  0.00     0.125 A 
ATOM     15  H9  C3P d   1      -6.495  51.671   6.031  0.00  0.00     0.172 HD
ATOM     16  C5  C3P d   1      -8.971  53.330   7.365  0.00  0.00    -0.024 A 
ATOM     17  C6  C3P d   1      -9.942  52.824   6.643  0.00  0.00    -0.009 A 
ATOM     18  H10 C3P d   1      -9.179  54.072   8.134  0.00  0.00     0.091 H 
ATOM     19  H11 C3P d   1     -10.959  53.192   6.769  0.00  0.00     0.112 H 
BRANCH  14  20
ATOM     20  N4  C3P d   1      -6.724  53.496   7.843  0.00  0.00    -0.284 NA
ATOM     21  H12 C3P d   1      -6.975  54.198   8.521  0.00  0.00     0.188 HD
ENDBRANCH  14  20
ENDBRANCH   5  10
BRANCH   4  22
ATOM     22  O2' C3P d   1     -11.347  48.779   4.286  0.00  0.00    -0.388 OA
ATOM     23  H7  C3P d   1     -11.424  47.985   4.801  0.00  0.00     0.210 HD
ENDBRANCH   4  22
BRANCH   1  24
ATOM     24  C5' C3P d   1     -13.624  52.123   7.034  0.00  0.00     0.043 C 
ATOM     25  H2  C3P d   1     -14.036  51.358   7.708  0.00  0.00     0.078 H 
ATOM     26  H3  C3P d   1     -12.889  52.734   7.578  0.00  0.00     0.078 H 
BRANCH  24  27
ATOM     27  O5' C3P d   1     -14.672  52.951   6.555  0.00  0.00    -0.398 OA
ATOM     28  H1  C3P d   1     -15.099  53.376   7.289  0.00  0.00     0.209 HD
ENDBRANCH  24  27
ENDBRANCH   1  24
BRANCH   3  29
ATOM     29  O3' C3P d   1     -13.300  49.035   6.062  0.00  0.00    -0.272 OA
BRANCH  29  30
ATOM     30  P   C3P d   1     -13.007  47.578   6.678  0.00  0.00     0.422 P 
ATOM     31  O1P C3P d   1     -12.495  47.755   8.066  0.00  0.00    -0.617 OA
ATOM     32  O2P C3P d   1     -11.909  46.966   5.845  0.00  0.00    -0.617 OA
ATOM     33  O3P C3P d   1     -14.292  46.843   6.513  0.00  0.00    -0.617 OA
ENDBRANCH  29  30
ENDBRANCH   3  29
TORSDOF 7
