REMARK  6 active torsions:
REMARK  status: ('A' for Active; 'I' for Inactive)
REMARK    1  A    between atoms: C1'_1  and  O1'_7 
REMARK    2  A    between atoms: C2'_2  and  O2'_8 
REMARK    3  A    between atoms: C3'_3  and  O3'_9 
REMARK    4  A    between atoms: C4'_4  and  O4'_10 
REMARK    5  A    between atoms: C5'_5  and  C6'_6 
REMARK    6  A    between atoms: C6'_6  and  O6'_12 
ROOT
ATOM      1  C1' ALL d   1       4.859   7.133  10.458  0.00  0.00     0.156 C 
ATOM      2  C2' ALL d   1       5.190   8.536  11.023  0.00  0.00     0.110 C 
ATOM      3  C3' ALL d   1       4.750   8.629  12.481  0.00  0.00     0.092 C 
ATOM      4  C4' ALL d   1       3.247   8.334  12.570  0.00  0.00     0.090 C 
ATOM      5  C5' ALL d   1       2.995   6.960  11.933  0.00  0.00     0.089 C 
ATOM      6  O5' ALL d   1       3.467   6.921  10.592  0.00  0.00    -0.349 OA
ATOM      7  H1  ALL d   1       5.399   6.376  11.046  0.00  0.00     0.133 H 
ATOM      8  H2  ALL d   1       4.657   9.299  10.436  0.00  0.00     0.094 H 
ATOM      9  H3  ALL d   1       4.969   9.628  12.887  0.00  0.00     0.091 H 
ATOM     10  H4  ALL d   1       2.690   9.114  12.030  0.00  0.00     0.091 H 
ATOM     11  H5  ALL d   1       3.603   6.246  12.508  0.00  0.00     0.090 H 
ENDROOT
BRANCH   5  12
ATOM     12  C6' ALL d   1       1.590   6.455  12.004  0.00  0.00     0.043 C 
ATOM     13  H6  ALL d   1       1.283   6.390  13.058  0.00  0.00     0.078 H 
ATOM     14  H7  ALL d   1       1.543   5.456  11.546  0.00  0.00     0.078 H 
BRANCH  12  15
ATOM     15  O6' ALL d   1       0.684   7.345  11.299  0.00  0.00    -0.398 OA
ATOM     16  H12 ALL d   1      -0.201   7.005  11.357  0.00  0.00     0.209 HD
ENDBRANCH  12  15
ENDBRANCH   5  12
BRANCH   4  17
ATOM     17  O4' ALL d   1       2.787   8.270  13.925  0.00  0.00    -0.390 OA
ATOM     18  H11 ALL d   1       2.951   9.102  14.354  0.00  0.00     0.210 HD
ENDBRANCH   4  17
BRANCH   3  19
ATOM     19  O3' ALL d   1       5.473   7.595  13.234  0.00  0.00    -0.390 OA
ATOM     20  H10 ALL d   1       5.216   7.632  14.148  0.00  0.00     0.210 HD
ENDBRANCH   3  19
BRANCH   1  21
ATOM     21  O1' ALL d   1       5.242   7.006   9.107  0.00  0.00    -0.369 OA
ATOM     22  H8  ALL d   1       4.777   7.649   8.585  0.00  0.00     0.212 HD
ENDBRANCH   1  21
BRANCH   2  23
ATOM     23  O2' ALL d   1       6.585   8.761  10.925  0.00  0.00    -0.388 OA
ATOM     24  H9  ALL d   1       6.849   8.713  10.014  0.00  0.00     0.210 HD
ENDBRANCH   2  23
TORSDOF 6
