REMARK  1 active torsions:
REMARK  status: ('A' for Active; 'I' for Inactive)
REMARK    1  A    between atoms: S2_2  and  C3_3 
ROOT
ATOM      1  C3  VSO d   1      86.570  -6.372   6.751  0.00  0.00     0.019 C 
ATOM      2  C4  VSO d   1      87.530  -5.488   6.442  0.00  0.00    -0.108 C 
ATOM      3  H1  VSO d   1      86.304  -7.146   6.033  0.00  0.00     0.104 H 
ATOM      4  H2  VSO d   1      88.037  -5.548   5.480  0.00  0.00     0.067 H 
ATOM      5  H3  VSO d   1      87.803  -4.710   7.153  0.00  0.00     0.067 H 
ENDROOT
BRANCH   1   6
ATOM      6  S2  VSO d   1      85.746  -6.303   8.272  0.00  0.00     0.126 S 
ATOM      7  O1  VSO d   1      84.830  -7.410   8.216  0.00  0.00    -0.592 OA
ATOM      8  O8  VSO d   1      86.795  -6.456   9.219  0.00  0.00    -0.592 OA
ATOM      9  O9  VSO d   1      85.087  -5.009   8.310  0.00  0.00    -0.592 OA
ENDBRANCH   1   6
TORSDOF 1
