REMARK  5 active torsions:
REMARK  status: ('A' for Active; 'I' for Inactive)
REMARK    1  A    between atoms: C1'_19  and  C9_1 
REMARK    2  A    between atoms: C5'_12  and  O5'_11 
REMARK    3  A    between atoms: C4'_13  and  C5'_12 
REMARK    4  A    between atoms: C3'_15  and  O3'_16 
REMARK    5  A    between atoms: C2'_17  and  O2'_18 
ROOT
ATOM      1  C4' IMH d   1       2.983  19.747  23.053  0.00  0.00     0.149 C 
ATOM      2  N4' IMH d   1       3.664  19.841  24.322  0.00  0.00    -0.055 N 
ATOM      3  C3' IMH d   1       3.051  18.322  22.598  0.00  0.00     0.092 C 
ATOM      4  C2' IMH d   1       3.514  17.561  23.811  0.00  0.00     0.094 C 
ATOM      5  C1' IMH d   1       4.006  18.561  24.896  0.00  0.00     0.158 C 
ATOM      6  H8  IMH d   1       3.511  20.380  22.325  0.00  0.00     0.091 H 
ATOM      7  H9  IMH d   1       3.065  20.329  24.969  0.00  0.00     0.278 HD
ATOM      8  H10 IMH d   1       4.514  20.367  24.189  0.00  0.00     0.278 HD
ATOM      9  H11 IMH d   1       2.075  17.947  22.255  0.00  0.00     0.090 H 
ATOM     10  H13 IMH d   1       2.662  16.995  24.215  0.00  0.00     0.090 H 
ATOM     11  H15 IMH d   1       5.085  18.452  25.082  0.00  0.00     0.096 H 
ENDROOT
BRANCH   5  12
ATOM     12  C9  IMH d   1       3.211  18.453  26.217  0.00  0.00     0.022 A 
ATOM     13  C8  IMH d   1       3.168  19.440  27.192  0.00  0.00    -0.012 A 
ATOM     14  N7  IMH d   1       2.425  19.159  28.233  0.00  0.00    -0.359 N 
ATOM     15  H1  IMH d   1       3.712  20.379  27.098  0.00  0.00     0.112 H 
ATOM     16  C5  IMH d   1       1.906  17.895  27.978  0.00  0.00     0.130 A 
ATOM     17  H2  IMH d   1       2.261  19.748  29.062  0.00  0.00     0.165 HD
ATOM     18  C6  IMH d   1       1.012  17.078  28.782  0.00  0.00     0.275 A 
ATOM     19  C4  IMH d   1       2.371  17.417  26.751  0.00  0.00     0.100 A 
ATOM     20  O6  IMH d   1       0.521  17.367  29.870  0.00  0.00    -0.266 OA
ATOM     21  N1  IMH d   1       0.701  15.835  28.194  0.00  0.00    -0.316 N 
ATOM     22  C2  IMH d   1       1.197  15.403  26.957  0.00  0.00     0.067 A 
ATOM     23  H3  IMH d   1       0.087  15.222  28.692  0.00  0.00     0.170 HD
ATOM     24  N3  IMH d   1       2.043  16.175  26.191  0.00  0.00    -0.241 NA
ATOM     25  H4  IMH d   1       0.903  14.422  26.588  0.00  0.00     0.143 H 
ENDBRANCH   5  12
BRANCH   4  26
ATOM     26  O2' IMH d   1       4.556  16.630  23.471  0.00  0.00    -0.390 OA
ATOM     27  H14 IMH d   1       5.295  17.103  23.108  0.00  0.00     0.210 HD
ENDBRANCH   4  26
BRANCH   1  28
ATOM     28  C5' IMH d   1       1.574  20.207  23.125  0.00  0.00     0.046 C 
ATOM     29  H6  IMH d   1       1.106  20.130  22.133  0.00  0.00     0.077 H 
ATOM     30  H7  IMH d   1       1.016  19.587  23.843  0.00  0.00     0.077 H 
BRANCH  28  31
ATOM     31  O5' IMH d   1       1.572  21.559  23.554  0.00  0.00    -0.399 OA
ATOM     32  H5  IMH d   1       2.058  22.088  22.932  0.00  0.00     0.209 HD
ENDBRANCH  28  31
ENDBRANCH   1  28
BRANCH   3  33
ATOM     33  O3' IMH d   1       4.001  18.312  21.517  0.00  0.00    -0.391 OA
ATOM     34  H12 IMH d   1       4.089  17.427  21.183  0.00  0.00     0.210 HD
ENDBRANCH   3  33
TORSDOF 5
