REMARK  2 active torsions:
REMARK  status: ('A' for Active; 'I' for Inactive)
REMARK    1  A    between atoms: C1_1  and  C_7 
REMARK    2  A    between atoms: C_7  and  N1_8 
ROOT
ATOM      1  C1  BEN d   1      -6.921  31.206  33.893  0.00  0.00     0.007 A 
ATOM      2  C2  BEN d   1      -8.189  30.836  34.344  0.00  0.00    -0.069 A 
ATOM      3  C3  BEN d   1      -8.335  29.863  35.342  0.00  0.00    -0.082 A 
ATOM      4  C4  BEN d   1      -7.206  29.254  35.893  0.00  0.00    -0.083 A 
ATOM      5  C5  BEN d   1      -5.932  29.618  35.445  0.00  0.00    -0.082 A 
ATOM      6  C6  BEN d   1      -5.794  30.589  34.450  0.00  0.00    -0.069 A 
ATOM      7  H1  BEN d   1      -9.069  31.305  33.919  0.00  0.00     0.085 H 
ATOM      8  H2  BEN d   1      -9.324  29.583  35.686  0.00  0.00     0.083 H 
ATOM      9  H3  BEN d   1      -7.316  28.502  36.666  0.00  0.00     0.083 H 
ATOM     10  H4  BEN d   1      -5.053  29.147  35.869  0.00  0.00     0.083 H 
ATOM     11  H5  BEN d   1      -4.805  30.868  34.106  0.00  0.00     0.085 H 
ENDROOT
BRANCH   1  12
ATOM     12  C   BEN d   1      -6.767  32.249  32.859  0.00  0.00     0.102 C 
ATOM     13  N2  BEN d   1      -7.824  32.785  32.299  0.00  0.00    -0.385 N 
ATOM     14  H8  BEN d   1      -8.767  32.480  32.581  0.00  0.00     0.157 HD
ATOM     15  H9  BEN d   1      -7.712  33.511  31.577  0.00  0.00     0.157 HD
BRANCH  12  16
ATOM     16  N1  BEN d   1      -5.570  32.641  32.497  0.00  0.00    -0.385 N 
ATOM     17  H6  BEN d   1      -5.463  33.368  31.776  0.00  0.00     0.157 HD
ATOM     18  H7  BEN d   1      -4.737  32.222  32.934  0.00  0.00     0.157 HD
ENDBRANCH  12  16
ENDBRANCH   1  12
TORSDOF 2
