REMARK  10 active torsions:
REMARK  status: ('A' for Active; 'I' for Inactive)
REMARK    1  A    between atoms: C3_5  and  O2_1 
REMARK    2  A    between atoms: C1_3  and  O1_2 
REMARK    3  A    between atoms: C7_9  and  C6_8 
REMARK    4  A    between atoms: C13_15  and  C18_20 
REMARK    5  A    between atoms: C20_22  and  C17_19 
REMARK    6  A    between atoms: C22_23  and  C20_22 
REMARK    7  A    between atoms: C20_22  and  C21_25 
REMARK    8  A    between atoms: C24_24  and  C25_26 
REMARK    9  A    between atoms: C24_24  and  O3_29 
REMARK   10  A    between atoms: C24_24  and  C23_30 
ROOT
ATOM      1  C7  MC9 d   1      14.201  22.415  34.314  0.00  0.00    -0.080 C 
ATOM      2  C8  MC9 d   1      13.986  23.624  33.852  0.00  0.00    -0.075 C 
ATOM      3  C9  MC9 d   1      14.435  24.111  32.379  0.00  0.00    -0.044 C 
ATOM      4  C11 MC9 d   1      13.187  24.646  31.491  0.00  0.00    -0.061 C 
ATOM      5  C12 MC9 d   1      12.231  25.592  32.391  0.00  0.00    -0.057 C 
ATOM      6  C13 MC9 d   1      11.814  25.129  33.960  0.00  0.00    -0.032 C 
ATOM      7  C14 MC9 d   1      13.250  24.729  34.667  0.00  0.00    -0.025 C 
ATOM      8  C15 MC9 d   1      12.699  24.372  36.222  0.00  0.00    -0.057 C 
ATOM      9  C16 MC9 d   1      11.475  25.384  36.380  0.00  0.00    -0.060 C 
ATOM     10  C17 MC9 d   1      11.418  26.180  35.020  0.00  0.00    -0.040 C 
ATOM     11  H10 MC9 d   1      13.843  22.234  35.326  0.00  0.00     0.083 H 
ATOM     12  H11 MC9 d   1      14.902  23.264  31.855  0.00  0.00     0.039 H 
ATOM     13  H12 MC9 d   1      15.167  24.926  32.485  0.00  0.00     0.039 H 
ATOM     14  H13 MC9 d   1      12.607  23.787  31.123  0.00  0.00     0.033 H 
ATOM     15  H14 MC9 d   1      13.569  25.223  30.636  0.00  0.00     0.033 H 
ATOM     16  H15 MC9 d   1      11.289  25.711  31.835  0.00  0.00     0.034 H 
ATOM     17  H16 MC9 d   1      12.735  26.566  32.472  0.00  0.00     0.034 H 
ATOM     18  H17 MC9 d   1      13.922  25.599  34.712  0.00  0.00     0.048 H 
ATOM     19  H18 MC9 d   1      13.477  24.564  36.976  0.00  0.00     0.034 H 
ATOM     20  H19 MC9 d   1      12.366  23.326  36.298  0.00  0.00     0.034 H 
ATOM     21  H20 MC9 d   1      11.648  26.071  37.222  0.00  0.00     0.033 H 
ATOM     22  H21 MC9 d   1      10.537  24.833  36.544  0.00  0.00     0.033 H 
ATOM     23  H22 MC9 d   1      12.170  26.983  35.036  0.00  0.00     0.042 H 
ENDROOT
BRANCH   1  24
ATOM     24  C6  MC9 d   1      14.863  21.255  33.657  0.00  0.00    -0.076 C 
ATOM     25  C5  MC9 d   1      14.678  19.885  33.787  0.00  0.00    -0.048 C 
ATOM     26  C4  MC9 d   1      15.483  18.807  32.987  0.00  0.00    -0.016 C 
ATOM     27  C10 MC9 d   1      13.601  19.195  34.773  0.00  0.00    -0.033 C 
ATOM     28  C3  MC9 d   1      16.075  17.628  33.885  0.00  0.00     0.042 C 
ATOM     29  H7  MC9 d   1      14.813  18.364  32.236  0.00  0.00     0.043 H 
ATOM     30  H8  MC9 d   1      16.321  19.308  32.481  0.00  0.00     0.043 H 
ATOM     31  C2  MC9 d   1      14.915  16.959  34.784  0.00  0.00    -0.013 C 
ATOM     32  H6  MC9 d   1      16.519  16.863  33.230  0.00  0.00     0.083 H 
ATOM     33  C1  MC9 d   1      14.181  18.037  35.698  0.00  0.00     0.063 C 
ATOM     34  H4  MC9 d   1      14.174  16.492  34.119  0.00  0.00     0.041 H 
ATOM     35  H5  MC9 d   1      15.364  16.190  35.430  0.00  0.00     0.041 H 
ATOM     36  H3  MC9 d   1      14.932  18.477  36.371  0.00  0.00     0.090 H 
ATOM     37  C19 MC9 d   1      12.257  19.556  34.813  0.00  0.00    -0.113 C 
ATOM     38  H26 MC9 d   1      11.888  20.352  34.169  0.00  0.00     0.067 H 
ATOM     39  H27 MC9 d   1      11.575  19.042  35.489  0.00  0.00     0.067 H 
ATOM     40  H9  MC9 d   1      15.636  21.532  32.942  0.00  0.00     0.084 H 
BRANCH  28  41
ATOM     41  O2  MC9 d   1      17.096  18.159  34.784  0.00  0.00    -0.395 OA
ATOM     42  H1  MC9 d   1      17.454  17.452  35.308  0.00  0.00     0.210 HD
ENDBRANCH  28  41
BRANCH  33  43
ATOM     43  O1  MC9 d   1      13.126  17.454  36.535  0.00  0.00    -0.391 OA
ATOM     44  H2  MC9 d   1      12.470  17.050  35.980  0.00  0.00     0.210 HD
ENDBRANCH  33  43
ENDBRANCH   1  24
BRANCH   6  45
ATOM     45  C18 MC9 d   1      10.787  23.783  33.642  0.00  0.00    -0.068 C 
ATOM     46  H23 MC9 d   1      11.239  23.153  32.861  0.00  0.00     0.028 H 
ATOM     47  H24 MC9 d   1       9.806  24.143  33.300  0.00  0.00     0.028 H 
ATOM     48  H25 MC9 d   1      10.661  23.193  34.562  0.00  0.00     0.028 H 
ENDBRANCH   6  45
BRANCH  10  49
ATOM     49  C20 MC9 d   1       9.938  26.886  34.725  0.00  0.00    -0.037 C 
ATOM     50  H28 MC9 d   1       9.910  27.064  33.640  0.00  0.00     0.046 H 
BRANCH  49  51
ATOM     51  C22 MC9 d   1       8.608  26.155  35.079  0.00  0.00    -0.100 C 
ATOM     52  C23 MC9 d   1       7.504  26.093  34.282  0.00  0.00    -0.079 C 
ATOM     53  H40 MC9 d   1       7.626  26.418  33.250  0.00  0.00     0.080 H 
ATOM     54  H29 MC9 d   1       8.556  25.652  36.043  0.00  0.00     0.077 H 
BRANCH  52  55
ATOM     55  C24 MC9 d   1       6.108  25.611  34.694  0.00  0.00     0.055 C 
ATOM     56  H30 MC9 d   1       6.206  25.049  35.634  0.00  0.00     0.089 H 
BRANCH  55  57
ATOM     57  C25 MC9 d   1       5.548  24.580  33.585  0.00  0.00    -0.026 A 
ATOM     58  C26 MC9 d   1       5.038  25.524  32.472  0.00  0.00    -0.059 A 
ATOM     59  C27 MC9 d   1       4.294  24.349  33.231  0.00  0.00    -0.059 A 
ATOM     60  H35 MC9 d   1       5.370  25.416  31.429  0.00  0.00     0.033 H 
ATOM     61  H36 MC9 d   1       4.804  26.579  32.675  0.00  0.00     0.033 H 
ATOM     62  H37 MC9 d   1       3.482  24.589  33.933  0.00  0.00     0.033 H 
ATOM     63  H38 MC9 d   1       4.048  23.425  32.687  0.00  0.00     0.033 H 
ATOM     64  H34 MC9 d   1       6.261  23.758  33.421  0.00  0.00     0.044 H 
ENDBRANCH  55  57
BRANCH  55  65
ATOM     65  O3  MC9 d   1       5.253  26.752  34.973  0.00  0.00    -0.391 OA
ATOM     66  H39 MC9 d   1       5.662  27.299  35.633  0.00  0.00     0.210 HD
ENDBRANCH  55  65
ENDBRANCH  52  55
ENDBRANCH  49  51
BRANCH  49  67
ATOM     67  C21 MC9 d   1       9.865  28.248  35.448  0.00  0.00    -0.069 C 
ATOM     68  H31 MC9 d   1       8.888  28.715  35.254  0.00  0.00     0.028 H 
ATOM     69  H32 MC9 d   1      10.665  28.904  35.075  0.00  0.00     0.028 H 
ATOM     70  H33 MC9 d   1       9.990  28.096  36.530  0.00  0.00     0.028 H 
ENDBRANCH  49  67
ENDBRANCH  10  49
TORSDOF 10
