REMARK  2 active torsions:
REMARK  status: ('A' for Active; 'I' for Inactive)
REMARK    1  A    between atoms: C2_2  and  C9_3 
REMARK    2  A    between atoms: C8_6  and  N2_7 
ROOT
ATOM      1  C1  MAQ d   1      17.111  16.767  18.777  0.00  0.00    -0.075 A 
ATOM      2  C2  MAQ d   1      16.068  16.478  19.718  0.00  0.00    -0.032 A 
ATOM      3  C3  MAQ d   1      16.309  16.731  21.129  0.00  0.00     0.097 A 
ATOM      4  N3  MAQ d   1      15.337  16.474  22.092  0.00  0.00    -0.064 NA
ATOM      5  C8  MAQ d   1      15.514  16.690  23.380  0.00  0.00     0.701 A 
ATOM      6  N1  MAQ d   1      16.674  17.186  23.860  0.00  0.00    -0.154 N 
ATOM      7  C7  MAQ d   1      17.720  17.489  23.073  0.00  0.00     0.272 A 
ATOM      8  O1  MAQ d   1      18.783  17.941  23.493  0.00  0.00    -0.267 OA
ATOM      9  C4  MAQ d   1      17.590  17.263  21.548  0.00  0.00     0.062 A 
ATOM     10  C5  MAQ d   1      18.615  17.543  20.589  0.00  0.00    -0.065 A 
ATOM     11  C6  MAQ d   1      18.379  17.295  19.196  0.00  0.00    -0.081 A 
ATOM     12  H1  MAQ d   1      16.938  16.582  17.723  0.00  0.00     0.084 H 
ATOM     13  H7  MAQ d   1      16.759  17.335  24.845  0.00  0.00     0.187 HD
ATOM     14  H8  MAQ d   1      19.569  17.942  20.915  0.00  0.00     0.085 H 
ATOM     15  H9  MAQ d   1      19.152  17.505  18.465  0.00  0.00     0.083 H 
ENDROOT
BRANCH   2  16
ATOM     16  C9  MAQ d   1      14.691  15.909  19.296  0.00  0.00    -0.049 C 
ATOM     17  H2  MAQ d   1      14.668  15.775  18.204  0.00  0.00     0.033 H 
ATOM     18  H3  MAQ d   1      13.897  16.609  19.596  0.00  0.00     0.033 H 
ATOM     19  H4  MAQ d   1      14.529  14.938  19.788  0.00  0.00     0.033 H 
ENDBRANCH   2  16
BRANCH   5  20
ATOM     20  N2  MAQ d   1      14.531  16.417  24.214  0.00  0.00    -0.233 N 
ATOM     21  H5  MAQ d   1      13.642  16.038  23.856  0.00  0.00     0.174 HD
ATOM     22  H6  MAQ d   1      14.651  16.582  25.224  0.00  0.00     0.174 HD
ENDBRANCH   5  20
TORSDOF 2
