REMARK  9 active torsions:
REMARK  status: ('A' for Active; 'I' for Inactive)
REMARK    1  A    between atoms: PB_1  and  CB_5 
REMARK    2  A    between atoms: CB_5  and  CA_6 
REMARK    3  A    between atoms: CA_6  and  O5'_8 
REMARK    4  A    between atoms: O5'_8  and  C5'_9 
REMARK    5  A    between atoms: C5'_9  and  C4'_10 
REMARK    6  A    between atoms: C1'_12  and  N9_13 
REMARK    7  A    between atoms: C6_18  and  N6_19 
REMARK    8  A    between atoms: C2'_23  and  O2'_24 
REMARK    9  A    between atoms: C3'_25  and  O3'_26 
ROOT
ATOM      1  C4' SON d   1      -0.510 -19.263   5.389  0.00  0.00     0.089 C 
ATOM      2  O4' SON d   1      -1.657 -19.793   6.102  0.00  0.00    -0.353 OA
ATOM      3  C1' SON d   1      -1.694 -19.255   7.415  0.00  0.00     0.139 C 
ATOM      4  C2' SON d   1      -0.466 -18.356   7.582  0.00  0.00     0.105 C 
ATOM      5  C3' SON d   1       0.463 -18.896   6.497  0.00  0.00     0.091 C 
ATOM      6  H5  SON d   1      -0.789 -18.357   4.831  0.00  0.00     0.090 H 
ATOM      7  H6  SON d   1      -2.602 -18.649   7.546  0.00  0.00     0.122 H 
ATOM      8  H11 SON d   1      -0.011 -18.473   8.577  0.00  0.00     0.093 H 
ATOM      9  H13 SON d   1       1.008 -19.782   6.856  0.00  0.00     0.091 H 
ENDROOT
BRANCH   3  10
ATOM     10  N9  SON d   1      -1.724 -20.364   8.369  0.00  0.00    -0.294 N 
ATOM     11  C4  SON d   1      -2.559 -20.480   9.453  0.00  0.00     0.167 A 
ATOM     12  N3  SON d   1      -3.510 -19.616   9.845  0.00  0.00    -0.222 NA
ATOM     13  C5  SON d   1      -2.221 -21.677  10.062  0.00  0.00     0.149 A 
ATOM     14  C2  SON d   1      -4.123 -20.062  10.942  0.00  0.00     0.091 A 
ATOM     15  N1  SON d   1      -3.907 -21.190  11.637  0.00  0.00    -0.222 NA
ATOM     16  H7  SON d   1      -4.908 -19.422  11.328  0.00  0.00     0.146 H 
ATOM     17  C6  SON d   1      -2.942 -22.035  11.212  0.00  0.00     0.155 A 
ATOM     18  N7  SON d   1      -1.193 -22.304   9.374  0.00  0.00    -0.236 NA
ATOM     19  C8  SON d   1      -0.936 -21.488   8.381  0.00  0.00     0.071 A 
ATOM     20  H10 SON d   1      -0.168 -21.684   7.634  0.00  0.00     0.144 H 
BRANCH  17  21
ATOM     21  N6  SON d   1      -2.723 -23.157  11.902  0.00  0.00    -0.382 N 
ATOM     22  H8  SON d   1      -1.992 -23.815  11.596  0.00  0.00     0.157 HD
ATOM     23  H9  SON d   1      -3.285 -23.364  12.740  0.00  0.00     0.157 HD
ENDBRANCH  17  21
ENDBRANCH   3  10
BRANCH   4  24
ATOM     24  O2' SON d   1      -0.836 -17.005   7.398  0.00  0.00    -0.388 OA
ATOM     25  H12 SON d   1      -0.071 -16.451   7.503  0.00  0.00     0.210 HD
ENDBRANCH   4  24
BRANCH   1  26
ATOM     26  C5' SON d   1       0.009 -20.285   4.404  0.00  0.00     0.055 C 
ATOM     27  H3  SON d   1      -0.822 -20.638   3.775  0.00  0.00     0.079 H 
ATOM     28  H4  SON d   1       0.778 -19.820   3.769  0.00  0.00     0.079 H 
BRANCH  26  29
ATOM     29  O5' SON d   1       0.579 -21.395   5.100  0.00  0.00    -0.318 OA
BRANCH  29  30
ATOM     30  CA  SON d   1       1.528 -22.062   4.261  0.00  0.00     0.271 C 
ATOM     31  OA  SON d   1       1.676 -23.284   4.264  0.00  0.00    -0.265 OA
BRANCH  30  32
ATOM     32  CB  SON d   1       2.653 -21.183   3.760  0.00  0.00     0.119 C 
ATOM     33  H1  SON d   1       3.263 -21.814   3.097  0.00  0.00     0.069 H 
ATOM     34  H2  SON d   1       2.179 -20.384   3.171  0.00  0.00     0.069 H 
BRANCH  32  35
ATOM     35  PB  SON d   1       3.760 -20.399   4.834  0.00  0.00     0.269 P 
ATOM     36  O1B SON d   1       4.976 -21.228   5.022  0.00  0.00    -0.639 OA
ATOM     37  O2B SON d   1       3.116 -20.106   6.138  0.00  0.00    -0.639 OA
ATOM     38  O3B SON d   1       4.267 -18.996   4.273  0.00  0.00    -0.639 OA
ENDBRANCH  32  35
ENDBRANCH  30  32
ENDBRANCH  29  30
ENDBRANCH  26  29
ENDBRANCH   1  26
BRANCH   5  39
ATOM     39  O3' SON d   1       1.401 -17.924   6.045  0.00  0.00    -0.390 OA
ATOM     40  H14 SON d   1       1.953 -18.307   5.374  0.00  0.00     0.210 HD
ENDBRANCH   5  39
TORSDOF 9
