REMARK  3 active torsions:
REMARK  status: ('A' for Active; 'I' for Inactive)
REMARK    1  A    between atoms: P_1  and  O1P_2 
REMARK    2  A    between atoms: O1P_2  and  C2_6 
REMARK    3  A    between atoms: C2_6  and  C1_7 
ROOT
ATOM      1  C2  PGA d   1      86.172 -14.475  66.308  0.00  0.00     0.112 C 
ATOM      2  H1  PGA d   1      85.256 -14.903  66.740  0.00  0.00     0.092 H 
ATOM      3  H2  PGA d   1      86.935 -14.372  67.094  0.00  0.00     0.092 H 
ENDROOT
BRANCH   1   4
ATOM      4  O1P PGA d   1      85.879 -13.202  65.786  0.00  0.00    -0.272 OA
BRANCH   4   5
ATOM      5  P   PGA d   1      84.678 -12.356  66.437  0.00  0.00     0.422 P 
ATOM      6  O2P PGA d   1      85.095 -12.270  67.848  0.00  0.00    -0.617 OA
ATOM      7  O3P PGA d   1      84.712 -11.082  65.645  0.00  0.00    -0.617 OA
ATOM      8  O4P PGA d   1      83.451 -13.157  66.218  0.00  0.00    -0.617 OA
ENDBRANCH   4   5
ENDBRANCH   1   4
BRANCH   1   9
ATOM      9  C1  PGA d   1      86.691 -15.405  65.239  0.00  0.00     0.198 C 
ATOM     10  O1  PGA d   1      85.997 -15.559  64.209  0.00  0.00    -0.646 OA
ATOM     11  O2  PGA d   1      87.792 -15.985  65.424  0.00  0.00    -0.646 OA
ENDBRANCH   1   9
TORSDOF 3
