REMARK  10 active torsions:
REMARK  status: ('A' for Active; 'I' for Inactive)
REMARK       I    between atoms: N19_1  and  C18_19 
REMARK    1  A    between atoms: C23_2  and  C24_6 
REMARK       I    between atoms: C24_6  and  N25_8 
REMARK    2  A    between atoms: N25_8  and  C26_9 
REMARK    3  A    between atoms: C33_13  and  N35_14 
REMARK    4  A    between atoms: C18_19  and  C10_21 
REMARK    5  A    between atoms: C10_21  and  N9_22 
REMARK    6  A    between atoms: C10_21  and  C11_33 
REMARK    7  A    between atoms: N9_22  and  S8_23 
REMARK    8  A    between atoms: S8_23  and  C7_26 
REMARK    9  A    between atoms: C7_26  and  C5_27 
REMARK   10  A    between atoms: C11_33  and  C12_34 
ROOT
ATOM      1  C10 165 d   1      10.346 -15.548  13.112  0.00  0.00     0.097 C 
ATOM      2  H18 165 d   1       9.287 -15.766  13.312  0.00  0.00     0.088 H 
ENDROOT
BRANCH   1   3
ATOM      3  C18 165 d   1      10.797 -14.130  13.697  0.00  0.00     0.244 C 
ATOM      4  N19 165 d   1      10.260 -13.702  15.049  0.00  0.00    -0.337 N 
ATOM      5  C23 165 d   1      10.571 -12.390  15.619  0.00  0.00     0.091 C 
ATOM      6  C20 165 d   1       9.323 -14.584  15.780  0.00  0.00    -0.001 C 
ATOM      7  C22 165 d   1       9.590 -12.621  16.825  0.00  0.00    -0.036 C 
ATOM      8  H1  165 d   1      10.309 -11.557  14.950  0.00  0.00     0.087 H 
ATOM      9  C21 165 d   1       8.475 -13.407  16.201  0.00  0.00    -0.048 C 
ATOM     10  H2  165 d   1       9.224 -11.665  17.227  0.00  0.00     0.036 H 
ATOM     11  H3  165 d   1      10.077 -13.194  17.628  0.00  0.00     0.036 H 
ATOM     12  H4  165 d   1       8.016 -12.888  15.347  0.00  0.00     0.035 H 
ATOM     13  H5  165 d   1       7.694 -13.684  16.925  0.00  0.00     0.035 H 
ATOM     14  H6  165 d   1       9.785 -15.120  16.622  0.00  0.00     0.064 H 
ATOM     15  H7  165 d   1       8.795 -15.301  15.134  0.00  0.00     0.064 H 
ATOM     16  O38 165 d   1      11.527 -13.332  13.029  0.00  0.00    -0.271 OA
BRANCH   5  17
ATOM     17  C24 165 d   1      11.971 -12.181  16.199  0.00  0.00     0.241 C 
ATOM     18  O39 165 d   1      12.072 -11.438  17.195  0.00  0.00    -0.271 OA
ATOM     19  N25 165 d   1      13.098 -12.864  15.519  0.00  0.00    -0.354 N 
ATOM     20  H8  165 d   1      12.930 -13.454  14.729  0.00  0.00     0.162 HD
BRANCH  19  21
ATOM     21  C26 165 d   1      14.489 -12.660  16.030  0.00  0.00     0.017 C 
ATOM     22  C31 165 d   1      14.988 -11.330  15.374  0.00  0.00    -0.014 C 
ATOM     23  C30 165 d   1      15.859 -11.480  14.133  0.00  0.00     0.013 A 
ATOM     24  H10 165 d   1      15.570 -10.781  16.129  0.00  0.00     0.044 H 
ATOM     25  H11 165 d   1      14.102 -10.741  15.094  0.00  0.00     0.044 H 
ATOM     26  S34 165 d   1      16.295 -10.069  13.248  0.00  0.00    -0.055 SA
ATOM     27  C29 165 d   1      16.340 -12.668  13.596  0.00  0.00     0.050 A 
ATOM     28  C33 165 d   1      17.192 -11.108  12.059  0.00  0.00     0.165 A 
ATOM     29  N32 165 d   1      17.131 -12.374  12.369  0.00  0.00    -0.228 NA
ATOM     30  C28 165 d   1      16.097 -14.055  14.190  0.00  0.00    -0.022 C 
ATOM     31  C27 165 d   1      15.373 -14.002  15.667  0.00  0.00    -0.041 C 
ATOM     32  H14 165 d   1      17.065 -14.568  14.292  0.00  0.00     0.042 H 
ATOM     33  H15 165 d   1      15.452 -14.623  13.503  0.00  0.00     0.042 H 
ATOM     34  H16 165 d   1      14.700 -14.869  15.736  0.00  0.00     0.036 H 
ATOM     35  H17 165 d   1      16.164 -14.091  16.426  0.00  0.00     0.036 H 
ATOM     36  H9  165 d   1      14.480 -12.536  17.123  0.00  0.00     0.073 H 
BRANCH  28  37
ATOM     37  N35 165 d   1      17.831 -10.553  10.981  0.00  0.00    -0.378 N 
ATOM     38  H12 165 d   1      18.336 -11.155  10.315  0.00  0.00     0.158 HD
ATOM     39  H13 165 d   1      17.806  -9.534  10.837  0.00  0.00     0.158 HD
ENDBRANCH  28  37
ENDBRANCH  19  21
ENDBRANCH   5  17
ENDBRANCH   1   3
BRANCH   1  40
ATOM     40  N9  165 d   1      11.326 -16.473  13.999  0.00  0.00    -0.305 N 
ATOM     41  H19 165 d   1      10.906 -16.964  14.762  0.00  0.00     0.173 HD
BRANCH  40  42
ATOM     42  S8  165 d   1      13.005 -16.704  13.776  0.00  0.00     0.231 S 
ATOM     43  O36 165 d   1      13.759 -16.648  12.580  0.00  0.00    -0.206 OA
ATOM     44  O37 165 d   1      13.539 -17.455  14.868  0.00  0.00    -0.206 OA
BRANCH  42  45
ATOM     45  C7  165 d   1      12.227 -18.276  13.068  0.00  0.00     0.070 C 
ATOM     46  H20 165 d   1      11.441 -17.966  12.364  0.00  0.00     0.066 H 
ATOM     47  H21 165 d   1      11.773 -18.825  13.906  0.00  0.00     0.066 H 
BRANCH  45  48
ATOM     48  C5  165 d   1      13.159 -19.261  12.318  0.00  0.00    -0.043 A 
ATOM     49  C6  165 d   1      12.924 -19.399  10.845  0.00  0.00    -0.076 A 
ATOM     50  C1  165 d   1      13.779 -20.281  10.035  0.00  0.00    -0.082 A 
ATOM     51  H22 165 d   1      12.120 -18.846  10.373  0.00  0.00     0.084 H 
ATOM     52  C2  165 d   1      14.892 -21.043  10.685  0.00  0.00    -0.083 A 
ATOM     53  H23 165 d   1      13.604 -20.379   8.970  0.00  0.00     0.083 H 
ATOM     54  C3  165 d   1      15.121 -20.916  12.141  0.00  0.00    -0.082 A 
ATOM     55  H24 165 d   1      15.529 -21.687  10.089  0.00  0.00     0.083 H 
ATOM     56  C4  165 d   1      14.245 -20.012  12.974  0.00  0.00    -0.076 A 
ATOM     57  H25 165 d   1      15.922 -21.475  12.612  0.00  0.00     0.083 H 
ATOM     58  H26 165 d   1      14.412 -19.916  14.041  0.00  0.00     0.084 H 
ENDBRANCH  45  48
ENDBRANCH  42  45
ENDBRANCH  40  42
ENDBRANCH   1  40
BRANCH   1  59
ATOM     59  C11 165 d   1      10.610 -15.637  11.550  0.00  0.00    -0.034 C 
ATOM     60  H27 165 d   1      10.609 -16.668  11.166  0.00  0.00     0.037 H 
ATOM     61  H28 165 d   1      11.533 -15.129  11.235  0.00  0.00     0.037 H 
BRANCH  59  62
ATOM     62  C12 165 d   1       9.187 -14.765  11.157  0.00  0.00    -0.052 C 
ATOM     63  C13 165 d   1       7.746 -15.526  11.566  0.00  0.00    -0.062 C 
ATOM     64  C14 165 d   1       6.422 -14.662  11.224  0.00  0.00    -0.065 C 
ATOM     65  H30 165 d   1       7.757 -15.728  12.647  0.00  0.00     0.033 H 
ATOM     66  H31 165 d   1       7.689 -16.477  11.016  0.00  0.00     0.033 H 
ATOM     67  C15 165 d   1       6.448 -14.005   9.764  0.00  0.00    -0.065 C 
ATOM     68  H32 165 d   1       6.331 -13.856  11.967  0.00  0.00     0.033 H 
ATOM     69  H33 165 d   1       5.547 -15.325  11.292  0.00  0.00     0.033 H 
ATOM     70  C16 165 d   1       7.846 -13.347   9.373  0.00  0.00    -0.065 C 
ATOM     71  H34 165 d   1       5.675 -13.224   9.723  0.00  0.00     0.033 H 
ATOM     72  H35 165 d   1       6.217 -14.789   9.028  0.00  0.00     0.033 H 
ATOM     73  C17 165 d   1       9.069 -14.332   9.657  0.00  0.00    -0.062 C 
ATOM     74  H36 165 d   1       7.984 -12.429   9.963  0.00  0.00     0.033 H 
ATOM     75  H37 165 d   1       7.833 -13.096   8.302  0.00  0.00     0.033 H 
ATOM     76  H38 165 d   1       8.938 -15.235   9.043  0.00  0.00     0.033 H 
ATOM     77  H39 165 d   1      10.000 -13.823   9.367  0.00  0.00     0.033 H 
ATOM     78  H29 165 d   1       9.239 -13.841  11.752  0.00  0.00     0.040 H 
ENDBRANCH  59  62
ENDBRANCH   1  59
TORSDOF 10
