REMARK  20 active torsions:
REMARK  status: ('A' for Active; 'I' for Inactive)
REMARK    1  A    between atoms: C1_1  and  O5_5 
REMARK    2  A    between atoms: C1_1  and  C4_4 
REMARK    3  A    between atoms: C1_1  and  C3_3 
REMARK    4  A    between atoms: C1_1  and  C2_2 
REMARK    5  A    between atoms: O5_5  and  C6_6 
REMARK       I    between atoms: C6_6  and  N8_8 
REMARK    6  A    between atoms: N8_8  and  C9_9 
REMARK    7  A    between atoms: C9_9  and  C17_17 
REMARK    8  A    between atoms: C9_9  and  C10_10 
REMARK    9  A    between atoms: C10_10  and  C11_11 
REMARK   10  A    between atoms: C17_17  and  C19_19 
REMARK   11  A    between atoms: C17_17  and  O18_18 
REMARK   12  A    between atoms: C19_19  and  C20_20 
REMARK   13  A    between atoms: C20_20  and  C28_28 
REMARK   14  A    between atoms: C20_20  and  C21_21 
REMARK   15  A    between atoms: C21_21  and  C22_22 
REMARK       I    between atoms: C28_28  and  N30_30 
REMARK   16  A    between atoms: N30_30  and  C31_31 
REMARK   17  A    between atoms: C31_31  and  C35_35 
REMARK   18  A    between atoms: C31_31  and  C32_32 
REMARK   19  A    between atoms: C32_32  and  C34_34 
REMARK   20  A    between atoms: C32_32  and  C33_33 
ROOT
ATOM      1  C19 IM1 d   1      -9.275  17.428  27.884  0.00  0.00    -0.028 C 
ATOM      2  H21 IM1 d   1      -9.001  16.366  27.970  0.00  0.00     0.038 H 
ATOM      3  H22 IM1 d   1      -9.040  17.944  28.826  0.00  0.00     0.038 H 
ENDROOT
BRANCH   1   4
ATOM      4  C17 IM1 d   1     -10.748  17.476  27.729  0.00  0.00     0.056 C 
ATOM      5  H19 IM1 d   1     -11.066  17.457  26.676  0.00  0.00     0.086 H 
BRANCH   4   6
ATOM      6  C9  IM1 d   1     -11.253  16.217  28.484  0.00  0.00     0.043 C 
ATOM      7  H11 IM1 d   1     -10.557  15.412  28.204  0.00  0.00     0.077 H 
BRANCH   6   8
ATOM      8  N8  IM1 d   1     -11.288  16.218  29.974  0.00  0.00    -0.329 N 
ATOM      9  C6  IM1 d   1     -10.341  15.574  30.698  0.00  0.00     0.361 C 
ATOM     10  O7  IM1 d   1      -9.433  14.991  30.076  0.00  0.00    -0.238 OA
ATOM     11  H10 IM1 d   1     -12.023  16.703  30.448  0.00  0.00     0.165 HD
BRANCH   9  12
ATOM     12  O5  IM1 d   1     -10.369  15.562  32.109  0.00  0.00    -0.294 OA
BRANCH  12  13
ATOM     13  C1  IM1 d   1      -9.377  16.132  32.929  0.00  0.00     0.061 C 
BRANCH  13  14
ATOM     14  C4  IM1 d   1      -9.955  16.417  34.303  0.00  0.00    -0.048 C 
ATOM     15  H7  IM1 d   1      -9.178  16.862  34.942  0.00  0.00     0.031 H 
ATOM     16  H8  IM1 d   1     -10.307  15.478  34.755  0.00  0.00     0.031 H 
ATOM     17  H9  IM1 d   1     -10.798  17.117  34.208  0.00  0.00     0.031 H 
ENDBRANCH  13  14
BRANCH  13  18
ATOM     18  C3  IM1 d   1      -8.803  17.384  32.315  0.00  0.00    -0.048 C 
ATOM     19  H4  IM1 d   1      -8.034  17.800  32.982  0.00  0.00     0.031 H 
ATOM     20  H5  IM1 d   1      -9.605  18.124  32.174  0.00  0.00     0.031 H 
ATOM     21  H6  IM1 d   1      -8.352  17.142  31.341  0.00  0.00     0.031 H 
ENDBRANCH  13  18
BRANCH  13  22
ATOM     22  C2  IM1 d   1      -8.194  15.227  33.247  0.00  0.00    -0.048 C 
ATOM     23  H1  IM1 d   1      -7.482  15.766  33.889  0.00  0.00     0.031 H 
ATOM     24  H2  IM1 d   1      -7.694  14.934  32.312  0.00  0.00     0.031 H 
ATOM     25  H3  IM1 d   1      -8.551  14.327  33.770  0.00  0.00     0.031 H 
ENDBRANCH  13  22
ENDBRANCH  12  13
ENDBRANCH   9  12
ENDBRANCH   6   8
BRANCH   6  26
ATOM     26  C10 IM1 d   1     -12.663  15.818  27.970  0.00  0.00    -0.020 C 
ATOM     27  H12 IM1 d   1     -12.599  15.539  26.908  0.00  0.00     0.043 H 
ATOM     28  H13 IM1 d   1     -13.348  16.671  28.085  0.00  0.00     0.043 H 
BRANCH  26  29
ATOM     29  C11 IM1 d   1     -13.194  14.625  28.779  0.00  0.00    -0.056 A 
ATOM     30  C16 IM1 d   1     -14.250  14.817  29.691  0.00  0.00    -0.077 A 
ATOM     31  C15 IM1 d   1     -14.649  13.761  30.508  0.00  0.00    -0.082 A 
ATOM     32  H18 IM1 d   1     -14.748  15.778  29.757  0.00  0.00     0.084 H 
ATOM     33  C14 IM1 d   1     -14.009  12.514  30.428  0.00  0.00    -0.083 A 
ATOM     34  H17 IM1 d   1     -15.461  13.904  31.212  0.00  0.00     0.083 H 
ATOM     35  C13 IM1 d   1     -12.972  12.319  29.526  0.00  0.00    -0.082 A 
ATOM     36  H16 IM1 d   1     -14.325  11.701  31.072  0.00  0.00     0.083 H 
ATOM     37  C12 IM1 d   1     -12.566  13.372  28.698  0.00  0.00    -0.077 A 
ATOM     38  H15 IM1 d   1     -12.479  11.356  29.463  0.00  0.00     0.083 H 
ATOM     39  H14 IM1 d   1     -11.761  13.219  27.989  0.00  0.00     0.084 H 
ENDBRANCH  26  29
ENDBRANCH   6  26
ENDBRANCH   4   6
BRANCH   4  40
ATOM     40  O18 IM1 d   1     -11.128  18.694  28.350  0.00  0.00    -0.393 OA
ATOM     41  H20 IM1 d   1     -10.700  19.419  27.910  0.00  0.00     0.210 HD
ENDBRANCH   4  40
ENDBRANCH   1   4
BRANCH   1  42
ATOM     42  C20 IM1 d   1      -8.395  18.010  26.852  0.00  0.00     0.030 C 
ATOM     43  H23 IM1 d   1      -8.825  18.948  26.471  0.00  0.00     0.055 H 
BRANCH  42  44
ATOM     44  C28 IM1 d   1      -8.237  17.030  25.655  0.00  0.00     0.222 C 
ATOM     45  N30 IM1 d   1      -8.112  17.608  24.469  0.00  0.00    -0.349 N 
ATOM     46  H31 IM1 d   1      -8.148  18.605  24.408  0.00  0.00     0.163 HD
ATOM     47  O29 IM1 d   1      -8.210  15.782  25.739  0.00  0.00    -0.273 OA
BRANCH  45  48
ATOM     48  C31 IM1 d   1      -7.926  16.839  23.267  0.00  0.00     0.072 C 
ATOM     49  H32 IM1 d   1      -7.487  15.851  23.468  0.00  0.00     0.085 H 
BRANCH  48  50
ATOM     50  C35 IM1 d   1      -6.960  17.747  22.534  0.00  0.00     0.126 A 
ATOM     51  N39 IM1 d   1      -5.830  17.188  22.102  0.00  0.00    -0.351 N 
ATOM     52  C38 IM1 d   1      -5.131  18.203  21.642  0.00  0.00    -0.005 A 
ATOM     53  H42 IM1 d   1      -5.566  16.193  22.123  0.00  0.00     0.166 HD
ATOM     54  C37 IM1 d   1      -5.945  19.347  21.849  0.00  0.00     0.019 A 
ATOM     55  H41 IM1 d   1      -4.138  18.172  21.197  0.00  0.00     0.113 H 
ATOM     56  N36 IM1 d   1      -7.104  19.070  22.405  0.00  0.00    -0.244 NA
ATOM     57  H40 IM1 d   1      -5.640  20.356  21.574  0.00  0.00     0.117 H 
ENDBRANCH  48  50
BRANCH  48  58
ATOM     58  C32 IM1 d   1      -9.233  16.676  22.534  0.00  0.00    -0.035 C 
ATOM     59  H33 IM1 d   1      -9.895  17.520  22.779  0.00  0.00     0.042 H 
BRANCH  58  60
ATOM     60  C34 IM1 d   1      -9.875  15.370  23.010  0.00  0.00    -0.071 C 
ATOM     61  H37 IM1 d   1     -10.023  15.410  24.099  0.00  0.00     0.028 H 
ATOM     62  H38 IM1 d   1      -9.216  14.525  22.760  0.00  0.00     0.028 H 
ATOM     63  H39 IM1 d   1     -10.847  15.236  22.512  0.00  0.00     0.028 H 
ENDBRANCH  58  60
BRANCH  58  64
ATOM     64  C33 IM1 d   1      -9.019  16.645  21.038  0.00  0.00    -0.071 C 
ATOM     65  H34 IM1 d   1      -9.988  16.526  20.531  0.00  0.00     0.028 H 
ATOM     66  H35 IM1 d   1      -8.363  15.801  20.779  0.00  0.00     0.028 H 
ATOM     67  H36 IM1 d   1      -8.550  17.586  20.715  0.00  0.00     0.028 H 
ENDBRANCH  58  64
ENDBRANCH  48  58
ENDBRANCH  45  48
ENDBRANCH  42  44
BRANCH  42  68
ATOM     68  C21 IM1 d   1      -7.086  18.319  27.609  0.00  0.00    -0.029 C 
ATOM     69  H24 IM1 d   1      -6.873  17.470  28.276  0.00  0.00     0.041 H 
ATOM     70  H25 IM1 d   1      -7.250  19.226  28.210  0.00  0.00     0.041 H 
BRANCH  68  71
ATOM     71  C22 IM1 d   1      -5.853  18.551  26.739  0.00  0.00    -0.057 A 
ATOM     72  C27 IM1 d   1      -4.896  17.528  26.629  0.00  0.00    -0.077 A 
ATOM     73  C26 IM1 d   1      -3.763  17.688  25.834  0.00  0.00    -0.082 A 
ATOM     74  H30 IM1 d   1      -5.041  16.600  27.171  0.00  0.00     0.084 H 
ATOM     75  C25 IM1 d   1      -3.582  18.876  25.142  0.00  0.00    -0.083 A 
ATOM     76  H29 IM1 d   1      -3.031  16.892  25.757  0.00  0.00     0.083 H 
ATOM     77  C24 IM1 d   1      -4.537  19.913  25.245  0.00  0.00    -0.082 A 
ATOM     78  H28 IM1 d   1      -2.705  19.010  24.520  0.00  0.00     0.083 H 
ATOM     79  C23 IM1 d   1      -5.675  19.757  26.043  0.00  0.00    -0.077 A 
ATOM     80  H27 IM1 d   1      -4.386  20.838  24.700  0.00  0.00     0.083 H 
ATOM     81  H26 IM1 d   1      -6.406  20.553  26.123  0.00  0.00     0.084 H 
ENDBRANCH  68  71
ENDBRANCH  42  68
ENDBRANCH   1  42
TORSDOF 20
