REMARK  17 active torsions:
REMARK  status: ('A' for Active; 'I' for Inactive)
REMARK    1  A    between atoms: N1_1  and  C31_39 
REMARK    2  A    between atoms: C2_3  and  C3_4 
REMARK       I    between atoms: C3_4  and  N2_6 
REMARK    3  A    between atoms: N2_6  and  C4_7 
REMARK    4  A    between atoms: C4_7  and  C5_8 
REMARK    5  A    between atoms: C4_7  and  C6_9 
REMARK    6  A    between atoms: C4_7  and  C7_10 
REMARK    7  A    between atoms: N3_11  and  C10_14 
REMARK    8  A    between atoms: C10_14  and  C11_15 
REMARK    9  A    between atoms: C11_15  and  O2_16 
REMARK   10  A    between atoms: C11_15  and  C12_17 
REMARK   11  A    between atoms: C12_17  and  C13_18 
REMARK   12  A    between atoms: C13_18  and  C14_19 
REMARK   13  A    between atoms: C13_18  and  C21_26 
REMARK   14  A    between atoms: C14_19  and  C15_20 
REMARK       I    between atoms: C21_26  and  N4_28 
REMARK   15  A    between atoms: N4_28  and  C22_29 
REMARK   16  A    between atoms: C23_30  and  O4_31 
REMARK   17  A    between atoms: C31_39  and  C32_40 
ROOT
ATOM      1  C10 MK1 d   1      24.744  16.936   4.761  0.00  0.00     0.108 C 
ATOM      2  H20 MK1 d   1      25.336  17.180   5.655  0.00  0.00     0.080 H 
ATOM      3  H21 MK1 d   1      25.420  16.731   3.918  0.00  0.00     0.080 H 
ENDROOT
BRANCH   1   4
ATOM      4  N3  MK1 d   1      23.903  18.063   4.429  0.00  0.00    -0.053 N 
ATOM      5  C2  MK1 d   1      24.429  19.363   4.988  0.00  0.00     0.203 C 
ATOM      6  C1  MK1 d   1      23.454  20.413   4.481  0.00  0.00     0.119 C 
ATOM      7  H4  MK1 d   1      25.451  19.556   4.630  0.00  0.00     0.102 H 
ATOM      8  N1  MK1 d   1      23.390  20.537   2.988  0.00  0.00    -0.063 N 
ATOM      9  H2  MK1 d   1      22.450  20.154   4.847  0.00  0.00     0.080 H 
ATOM     10  H3  MK1 d   1      23.754  21.387   4.894  0.00  0.00     0.080 H 
ATOM     11  C9  MK1 d   1      23.030  19.280   2.469  0.00  0.00     0.106 C 
ATOM     12  H1  MK1 d   1      24.300  20.786   2.633  0.00  0.00     0.280 HD
ATOM     13  C8  MK1 d   1      23.824  18.105   2.951  0.00  0.00     0.107 C 
ATOM     14  H18 MK1 d   1      23.135  19.328   1.375  0.00  0.00     0.078 H 
ATOM     15  H19 MK1 d   1      21.976  19.101   2.729  0.00  0.00     0.078 H 
ATOM     16  H16 MK1 d   1      23.345  17.181   2.594  0.00  0.00     0.078 H 
ATOM     17  H17 MK1 d   1      24.843  18.172   2.542  0.00  0.00     0.078 H 
ATOM     18  H15 MK1 d   1      22.982  17.909   4.808  0.00  0.00     0.281 HD
BRANCH   5  19
ATOM     19  C3  MK1 d   1      24.400  19.379   6.480  0.00  0.00     0.251 C 
ATOM     20  O1  MK1 d   1      23.379  19.022   7.081  0.00  0.00    -0.271 OA
ATOM     21  N2  MK1 d   1      25.510  19.792   7.084  0.00  0.00    -0.351 N 
ATOM     22  H5  MK1 d   1      26.287  20.048   6.510  0.00  0.00     0.163 HD
BRANCH  21  23
ATOM     23  C4  MK1 d   1      25.665  19.894   8.511  0.00  0.00     0.022 C 
BRANCH  23  24
ATOM     24  C5  MK1 d   1      27.090  20.465   8.722  0.00  0.00    -0.054 C 
ATOM     25  H6  MK1 d   1      27.286  20.573   9.799  0.00  0.00     0.030 H 
ATOM     26  H7  MK1 d   1      27.167  21.448   8.235  0.00  0.00     0.030 H 
ATOM     27  H8  MK1 d   1      27.829  19.779   8.282  0.00  0.00     0.030 H 
ENDBRANCH  23  24
BRANCH  23  28
ATOM     28  C6  MK1 d   1      25.566  18.590   9.067  0.00  0.00    -0.054 C 
ATOM     29  H9  MK1 d   1      25.682  18.647  10.159  0.00  0.00     0.030 H 
ATOM     30  H10 MK1 d   1      26.357  17.951   8.647  0.00  0.00     0.030 H 
ATOM     31  H11 MK1 d   1      24.582  18.162   8.825  0.00  0.00     0.030 H 
ENDBRANCH  23  28
BRANCH  23  32
ATOM     32  C7  MK1 d   1      24.712  20.832   9.085  0.00  0.00    -0.054 C 
ATOM     33  H12 MK1 d   1      24.859  20.884  10.174  0.00  0.00     0.030 H 
ATOM     34  H13 MK1 d   1      23.688  20.493   8.869  0.00  0.00     0.030 H 
ATOM     35  H14 MK1 d   1      24.868  21.828   8.646  0.00  0.00     0.030 H 
ENDBRANCH  23  32
ENDBRANCH  21  23
ENDBRANCH   5  19
BRANCH   8  36
ATOM     36  C31 MK1 d   1      22.442  21.598   2.619  0.00  0.00     0.108 C 
ATOM     37  H44 MK1 d   1      21.480  21.348   3.090  0.00  0.00     0.083 H 
ATOM     38  H45 MK1 d   1      22.334  21.566   1.525  0.00  0.00     0.083 H 
BRANCH  36  39
ATOM     39  C32 MK1 d   1      22.762  23.054   2.997  0.00  0.00    -0.015 A 
ATOM     40  C33 MK1 d   1      23.878  23.712   2.445  0.00  0.00     0.009 A 
ATOM     41  N5  MK1 d   1      24.256  25.050   2.691  0.00  0.00    -0.273 NA
ATOM     42  H46 MK1 d   1      24.504  23.139   1.770  0.00  0.00     0.115 H 
ATOM     43  C34 MK1 d   1      23.355  25.644   3.576  0.00  0.00     0.002 A 
ATOM     44  C35 MK1 d   1      22.227  25.072   4.152  0.00  0.00    -0.066 A 
ATOM     45  H47 MK1 d   1      23.559  26.674   3.846  0.00  0.00     0.114 H 
ATOM     46  C36 MK1 d   1      21.920  23.750   3.866  0.00  0.00    -0.072 A 
ATOM     47  H48 MK1 d   1      21.596  25.651   4.816  0.00  0.00     0.085 H 
ATOM     48  H49 MK1 d   1      21.052  23.271   4.304  0.00  0.00     0.084 H 
ENDBRANCH  36  39
ENDBRANCH   8  36
ENDBRANCH   1   4
BRANCH   1  49
ATOM     49  C11 MK1 d   1      23.898  15.680   5.045  0.00  0.00     0.059 C 
ATOM     50  H22 MK1 d   1      22.994  15.696   4.419  0.00  0.00     0.085 H 
BRANCH  49  51
ATOM     51  O2  MK1 d   1      24.697  14.598   4.706  0.00  0.00    -0.394 OA
ATOM     52  H23 MK1 d   1      25.485  14.609   5.236  0.00  0.00     0.210 HD
ENDBRANCH  49  51
BRANCH  49  53
ATOM     53  C12 MK1 d   1      23.478  15.564   6.521  0.00  0.00    -0.028 C 
ATOM     54  H24 MK1 d   1      22.924  16.475   6.792  0.00  0.00     0.038 H 
ATOM     55  H25 MK1 d   1      24.390  15.494   7.132  0.00  0.00     0.038 H 
BRANCH  53  56
ATOM     56  C13 MK1 d   1      22.580  14.336   6.850  0.00  0.00     0.029 C 
ATOM     57  H26 MK1 d   1      23.053  13.424   6.457  0.00  0.00     0.055 H 
BRANCH  56  58
ATOM     58  C14 MK1 d   1      22.448  14.226   8.378  0.00  0.00    -0.029 C 
ATOM     59  H27 MK1 d   1      22.123  15.199   8.774  0.00  0.00     0.041 H 
ATOM     60  H28 MK1 d   1      23.431  13.969   8.799  0.00  0.00     0.041 H 
BRANCH  58  61
ATOM     61  C15 MK1 d   1      21.465  13.189   8.795  0.00  0.00    -0.057 A 
ATOM     62  C16 MK1 d   1      21.650  11.865   8.471  0.00  0.00    -0.077 A 
ATOM     63  C17 MK1 d   1      20.788  10.882   8.916  0.00  0.00    -0.082 A 
ATOM     64  H29 MK1 d   1      22.494  11.586   7.851  0.00  0.00     0.084 H 
ATOM     65  C18 MK1 d   1      19.686  11.271   9.683  0.00  0.00    -0.083 A 
ATOM     66  H30 MK1 d   1      20.961   9.839   8.677  0.00  0.00     0.083 H 
ATOM     67  C19 MK1 d   1      19.485  12.603   9.998  0.00  0.00    -0.082 A 
ATOM     68  H31 MK1 d   1      18.984  10.523  10.034  0.00  0.00     0.083 H 
ATOM     69  C20 MK1 d   1      20.385  13.570   9.568  0.00  0.00    -0.077 A 
ATOM     70  H32 MK1 d   1      18.620  12.894  10.584  0.00  0.00     0.083 H 
ATOM     71  H33 MK1 d   1      20.242  14.611   9.836  0.00  0.00     0.084 H 
ENDBRANCH  58  61
ENDBRANCH  56  58
BRANCH  56  72
ATOM     72  C21 MK1 d   1      21.224  14.490   6.226  0.00  0.00     0.222 C 
ATOM     73  O3  MK1 d   1      20.546  15.520   6.304  0.00  0.00    -0.273 OA
ATOM     74  N4  MK1 d   1      20.758  13.390   5.664  0.00  0.00    -0.350 N 
ATOM     75  H34 MK1 d   1      21.400  12.653   5.452  0.00  0.00     0.163 HD
BRANCH  74  76
ATOM     76  C22 MK1 d   1      19.388  13.206   5.348  0.00  0.00     0.063 C 
ATOM     77  C23 MK1 d   1      18.791  11.856   5.696  0.00  0.00     0.063 C 
ATOM     78  C24 MK1 d   1      17.552  11.729   4.809  0.00  0.00    -0.014 C 
ATOM     79  H36 MK1 d   1      18.528  11.807   6.763  0.00  0.00     0.087 H 
ATOM     80  C25 MK1 d   1      17.904  12.414   3.512  0.00  0.00    -0.047 A 
ATOM     81  H38 MK1 d   1      16.690  12.223   5.282  0.00  0.00     0.044 H 
ATOM     82  H39 MK1 d   1      17.315  10.670   4.631  0.00  0.00     0.044 H 
ATOM     83  C26 MK1 d   1      17.435  12.350   2.235  0.00  0.00    -0.076 A 
ATOM     84  C30 MK1 d   1      19.048  13.390   3.856  0.00  0.00    -0.027 A 
ATOM     85  C27 MK1 d   1      18.019  13.180   1.280  0.00  0.00    -0.082 A 
ATOM     86  H40 MK1 d   1      16.631  11.673   1.969  0.00  0.00     0.084 H 
ATOM     87  C28 MK1 d   1      19.038  14.069   1.572  0.00  0.00    -0.082 A 
ATOM     88  H41 MK1 d   1      17.657  13.127   0.259  0.00  0.00     0.083 H 
ATOM     89  C29 MK1 d   1      19.531  14.156   2.862  0.00  0.00    -0.074 A 
ATOM     90  H42 MK1 d   1      19.450  14.697   0.790  0.00  0.00     0.083 H 
ATOM     91  H43 MK1 d   1      20.327  14.860   3.077  0.00  0.00     0.084 H 
ATOM     92  H35 MK1 d   1      18.844  13.971   5.921  0.00  0.00     0.084 H 
BRANCH  77  93
ATOM     93  O4  MK1 d   1      19.695  10.793   5.358  0.00  0.00    -0.393 OA
ATOM     94  H37 MK1 d   1      19.300   9.959   5.585  0.00  0.00     0.210 HD
ENDBRANCH  77  93
ENDBRANCH  74  76
ENDBRANCH  56  72
ENDBRANCH  53  56
ENDBRANCH  49  53
ENDBRANCH   1  49
TORSDOF 17
