REMARK  17 active torsions:
REMARK  status: ('A' for Active; 'I' for Inactive)
REMARK    1  A    between atoms: N1_1  and  C31_39 
REMARK    2  A    between atoms: C2_3  and  C3_4 
REMARK       I    between atoms: C3_4  and  N2_6 
REMARK    3  A    between atoms: N2_6  and  C4_7 
REMARK    4  A    between atoms: C4_7  and  C5_8 
REMARK    5  A    between atoms: C4_7  and  C6_9 
REMARK    6  A    between atoms: C4_7  and  C7_10 
REMARK    7  A    between atoms: N3_11  and  C10_14 
REMARK    8  A    between atoms: C10_14  and  C11_15 
REMARK    9  A    between atoms: C11_15  and  O2_16 
REMARK   10  A    between atoms: C11_15  and  C12_17 
REMARK   11  A    between atoms: C12_17  and  C13_18 
REMARK   12  A    between atoms: C13_18  and  C14_19 
REMARK   13  A    between atoms: C13_18  and  C21_26 
REMARK   14  A    between atoms: C14_19  and  C15_20 
REMARK       I    between atoms: C21_26  and  N4_28 
REMARK   15  A    between atoms: N4_28  and  C22_29 
REMARK   16  A    between atoms: C23_30  and  O4_31 
REMARK   17  A    between atoms: C31_39  and  C32_40 
ROOT
ATOM      1  C10 MK1 d   1      20.353  30.988  16.488  0.00  0.00     0.108 C 
ATOM      2  H20 MK1 d   1      19.280  31.199  16.608  0.00  0.00     0.080 H 
ATOM      3  H21 MK1 d   1      20.793  30.755  17.469  0.00  0.00     0.080 H 
ENDROOT
BRANCH   1   4
ATOM      4  N3  MK1 d   1      21.037  32.162  15.892  0.00  0.00    -0.053 N 
ATOM      5  C2  MK1 d   1      20.208  33.398  16.207  0.00  0.00     0.203 C 
ATOM      6  C1  MK1 d   1      21.086  34.522  15.653  0.00  0.00     0.119 C 
ATOM      7  H4  MK1 d   1      20.050  33.498  17.291  0.00  0.00     0.102 H 
ATOM      8  N1  MK1 d   1      22.490  34.649  16.276  0.00  0.00    -0.063 N 
ATOM      9  H2  MK1 d   1      21.210  34.351  14.573  0.00  0.00     0.080 H 
ATOM     10  H3  MK1 d   1      20.558  35.473  15.815  0.00  0.00     0.080 H 
ATOM     11  C9  MK1 d   1      23.120  33.441  15.983  0.00  0.00     0.106 C 
ATOM     12  H1  MK1 d   1      22.442  34.784  17.274  0.00  0.00     0.280 HD
ATOM     13  C8  MK1 d   1      22.396  32.217  16.438  0.00  0.00     0.107 C 
ATOM     14  H18 MK1 d   1      24.110  33.449  16.463  0.00  0.00     0.078 H 
ATOM     15  H19 MK1 d   1      23.242  33.377  14.892  0.00  0.00     0.078 H 
ATOM     16  H16 MK1 d   1      22.952  31.328  16.104  0.00  0.00     0.078 H 
ATOM     17  H17 MK1 d   1      22.340  32.223  17.537  0.00  0.00     0.078 H 
ATOM     18  H15 MK1 d   1      21.093  32.055  14.891  0.00  0.00     0.281 HD
BRANCH   5  19
ATOM     19  C3  MK1 d   1      18.893  33.429  15.505  0.00  0.00     0.251 C 
ATOM     20  O1  MK1 d   1      18.902  33.057  14.326  0.00  0.00    -0.271 OA
ATOM     21  N2  MK1 d   1      17.905  33.885  16.260  0.00  0.00    -0.351 N 
ATOM     22  H5  MK1 d   1      18.114  34.219  17.179  0.00  0.00     0.163 HD
BRANCH  21  23
ATOM     23  C4  MK1 d   1      16.534  33.916  15.801  0.00  0.00     0.022 C 
BRANCH  23  24
ATOM     24  C5  MK1 d   1      15.667  34.599  16.915  0.00  0.00    -0.054 C 
ATOM     25  H6  MK1 d   1      14.617  34.636  16.591  0.00  0.00     0.030 H 
ATOM     26  H7  MK1 d   1      16.033  35.622  17.089  0.00  0.00     0.030 H 
ATOM     27  H8  MK1 d   1      15.743  34.019  17.846  0.00  0.00     0.030 H 
ENDBRANCH  23  24
BRANCH  23  28
ATOM     28  C6  MK1 d   1      16.065  32.601  15.675  0.00  0.00    -0.054 C 
ATOM     29  H9  MK1 d   1      15.022  32.616  15.326  0.00  0.00     0.030 H 
ATOM     30  H10 MK1 d   1      16.118  32.098  16.652  0.00  0.00     0.030 H 
ATOM     31  H11 MK1 d   1      16.687  32.058  14.948  0.00  0.00     0.030 H 
ENDBRANCH  23  28
BRANCH  23  32
ATOM     32  C7  MK1 d   1      16.371  34.724  14.604  0.00  0.00    -0.054 C 
ATOM     33  H12 MK1 d   1      15.315  34.715  14.297  0.00  0.00     0.030 H 
ATOM     34  H13 MK1 d   1      16.991  34.311  13.795  0.00  0.00     0.030 H 
ATOM     35  H14 MK1 d   1      16.683  35.758  14.814  0.00  0.00     0.030 H 
ENDBRANCH  23  32
ENDBRANCH  21  23
ENDBRANCH   5  19
BRANCH   8  36
ATOM     36  C31 MK1 d   1      23.130  35.806  15.650  0.00  0.00     0.108 C 
ATOM     37  H44 MK1 d   1      23.019  35.704  14.560  0.00  0.00     0.083 H 
ATOM     38  H45 MK1 d   1      24.198  35.784  15.913  0.00  0.00     0.083 H 
BRANCH  36  39
ATOM     39  C32 MK1 d   1      22.583  37.156  16.047  0.00  0.00    -0.015 A 
ATOM     40  C33 MK1 d   1      22.509  37.508  17.397  0.00  0.00     0.009 A 
ATOM     41  N5  MK1 d   1      21.964  38.748  17.781  0.00  0.00    -0.273 NA
ATOM     42  H46 MK1 d   1      22.873  36.822  18.153  0.00  0.00     0.115 H 
ATOM     43  C34 MK1 d   1      21.526  39.552  16.737  0.00  0.00     0.002 A 
ATOM     44  C35 MK1 d   1      21.567  39.246  15.374  0.00  0.00    -0.066 A 
ATOM     45  H47 MK1 d   1      21.110  40.516  17.007  0.00  0.00     0.114 H 
ATOM     46  C36 MK1 d   1      22.118  38.010  15.061  0.00  0.00    -0.072 A 
ATOM     47  H48 MK1 d   1      21.195  39.925  14.615  0.00  0.00     0.085 H 
ATOM     48  H49 MK1 d   1      22.186  37.707  14.022  0.00  0.00     0.084 H 
ENDBRANCH  36  39
ENDBRANCH   8  36
ENDBRANCH   1   4
BRANCH   1  49
ATOM     49  C11 MK1 d   1      20.550  29.803  15.531  0.00  0.00     0.059 C 
ATOM     50  H22 MK1 d   1      21.503  29.855  14.984  0.00  0.00     0.085 H 
BRANCH  49  51
ATOM     51  O2  MK1 d   1      20.491  28.733  16.436  0.00  0.00    -0.394 OA
ATOM     52  H23 MK1 d   1      19.648  28.736  16.874  0.00  0.00     0.210 HD
ENDBRANCH  49  51
BRANCH  49  53
ATOM     53  C12 MK1 d   1      19.354  29.677  14.554  0.00  0.00    -0.028 C 
ATOM     54  H24 MK1 d   1      19.298  30.599  13.956  0.00  0.00     0.038 H 
ATOM     55  H25 MK1 d   1      18.434  29.569  15.147  0.00  0.00     0.038 H 
BRANCH  53  56
ATOM     56  C13 MK1 d   1      19.451  28.476  13.586  0.00  0.00     0.029 C 
ATOM     57  H26 MK1 d   1      19.587  27.550  14.164  0.00  0.00     0.055 H 
BRANCH  56  58
ATOM     58  C14 MK1 d   1      18.136  28.413  12.750  0.00  0.00    -0.029 C 
ATOM     59  H27 MK1 d   1      17.984  29.392  12.272  0.00  0.00     0.041 H 
ATOM     60  H28 MK1 d   1      17.301  28.206  13.435  0.00  0.00     0.041 H 
BRANCH  58  61
ATOM     61  C15 MK1 d   1      18.138  27.376  11.694  0.00  0.00    -0.057 A 
ATOM     62  C16 MK1 d   1      18.296  26.028  12.050  0.00  0.00    -0.077 A 
ATOM     63  C17 MK1 d   1      18.300  25.069  11.023  0.00  0.00    -0.082 A 
ATOM     64  H29 MK1 d   1      18.412  25.735  13.087  0.00  0.00     0.084 H 
ATOM     65  C18 MK1 d   1      18.134  25.498   9.716  0.00  0.00    -0.083 A 
ATOM     66  H30 MK1 d   1      18.430  24.017  11.248  0.00  0.00     0.083 H 
ATOM     67  C19 MK1 d   1      17.971  26.834   9.377  0.00  0.00    -0.082 A 
ATOM     68  H31 MK1 d   1      18.131  24.758   8.924  0.00  0.00     0.083 H 
ATOM     69  C20 MK1 d   1      17.986  27.790  10.381  0.00  0.00    -0.077 A 
ATOM     70  H32 MK1 d   1      17.834  27.126   8.342  0.00  0.00     0.083 H 
ATOM     71  H33 MK1 d   1      17.881  28.842  10.143  0.00  0.00     0.084 H 
ENDBRANCH  58  61
ENDBRANCH  56  58
BRANCH  56  72
ATOM     72  C21 MK1 d   1      20.579  28.631  12.599  0.00  0.00     0.222 C 
ATOM     73  O3  MK1 d   1      20.884  29.685  11.985  0.00  0.00    -0.273 OA
ATOM     74  N4  MK1 d   1      21.206  27.516  12.344  0.00  0.00    -0.350 N 
ATOM     75  H34 MK1 d   1      20.981  26.708  12.889  0.00  0.00     0.163 HD
BRANCH  74  76
ATOM     76  C22 MK1 d   1      22.210  27.392  11.313  0.00  0.00     0.063 C 
ATOM     77  C23 MK1 d   1      22.136  26.041  10.625  0.00  0.00     0.063 C 
ATOM     78  C24 MK1 d   1      23.472  25.970   9.895  0.00  0.00    -0.014 C 
ATOM     79  H36 MK1 d   1      21.294  26.017   9.918  0.00  0.00     0.087 H 
ATOM     80  C25 MK1 d   1      24.505  26.670  10.754  0.00  0.00    -0.047 A 
ATOM     81  H38 MK1 d   1      23.393  26.473   8.920  0.00  0.00     0.044 H 
ATOM     82  H39 MK1 d   1      23.761  24.919   9.744  0.00  0.00     0.044 H 
ATOM     83  C26 MK1 d   1      25.852  26.685  10.931  0.00  0.00    -0.076 A 
ATOM     84  C30 MK1 d   1      23.680  27.623  11.625  0.00  0.00    -0.027 A 
ATOM     85  C27 MK1 d   1      26.461  27.526  11.858  0.00  0.00    -0.082 A 
ATOM     86  H40 MK1 d   1      26.470  26.024  10.334  0.00  0.00     0.084 H 
ATOM     87  C28 MK1 d   1      25.730  28.401  12.650  0.00  0.00    -0.082 A 
ATOM     88  H41 MK1 d   1      27.539  27.497  11.965  0.00  0.00     0.083 H 
ATOM     89  C29 MK1 d   1      24.367  28.430  12.487  0.00  0.00    -0.074 A 
ATOM     90  H42 MK1 d   1      26.220  29.041  13.374  0.00  0.00     0.083 H 
ATOM     91  H43 MK1 d   1      23.800  29.138  13.080  0.00  0.00     0.084 H 
ATOM     92  H35 MK1 d   1      21.941  28.157  10.570  0.00  0.00     0.084 H 
BRANCH  77  93
ATOM     93  O4  MK1 d   1      22.014  24.916  11.544  0.00  0.00    -0.393 OA
ATOM     94  H37 MK1 d   1      21.973  24.107  11.048  0.00  0.00     0.210 HD
ENDBRANCH  77  93
ENDBRANCH  74  76
ENDBRANCH  56  72
ENDBRANCH  53  56
ENDBRANCH  49  53
ENDBRANCH   1  49
TORSDOF 17
