REMARK  17 active torsions:
REMARK  status: ('A' for Active; 'I' for Inactive)
REMARK    1  A    between atoms: N1_1  and  C31_39 
REMARK    2  A    between atoms: C2_3  and  C3_4 
REMARK       I    between atoms: C3_4  and  N2_6 
REMARK    3  A    between atoms: N2_6  and  C4_7 
REMARK    4  A    between atoms: C4_7  and  C5_8 
REMARK    5  A    between atoms: C4_7  and  C6_9 
REMARK    6  A    between atoms: C4_7  and  C7_10 
REMARK    7  A    between atoms: N3_11  and  C10_14 
REMARK    8  A    between atoms: C10_14  and  C11_15 
REMARK    9  A    between atoms: C11_15  and  O2_16 
REMARK   10  A    between atoms: C11_15  and  C12_17 
REMARK   11  A    between atoms: C12_17  and  C13_18 
REMARK   12  A    between atoms: C13_18  and  C14_19 
REMARK   13  A    between atoms: C13_18  and  C21_26 
REMARK   14  A    between atoms: C14_19  and  C15_20 
REMARK       I    between atoms: C21_26  and  N4_28 
REMARK   15  A    between atoms: N4_28  and  C22_29 
REMARK   16  A    between atoms: C23_30  and  O4_31 
REMARK   17  A    between atoms: C31_39  and  C32_40 
ROOT
ATOM      1  C10 MK1 d   1      24.769  16.889   4.680  0.00  0.00     0.108 C 
ATOM      2  H20 MK1 d   1      25.344  17.113   5.591  0.00  0.00     0.080 H 
ATOM      3  H21 MK1 d   1      25.461  16.657   3.857  0.00  0.00     0.080 H 
ENDROOT
BRANCH   1   4
ATOM      4  N3  MK1 d   1      23.959  18.070   4.315  0.00  0.00    -0.053 N 
ATOM      5  C2  MK1 d   1      24.493  19.332   4.970  0.00  0.00     0.203 C 
ATOM      6  C1  MK1 d   1      23.532  20.378   4.390  0.00  0.00     0.119 C 
ATOM      7  H4  MK1 d   1      25.534  19.523   4.671  0.00  0.00     0.102 H 
ATOM      8  N1  MK1 d   1      23.591  20.568   2.901  0.00  0.00    -0.063 N 
ATOM      9  H2  MK1 d   1      22.507  20.076   4.651  0.00  0.00     0.080 H 
ATOM     10  H3  MK1 d   1      23.761  21.345   4.863  0.00  0.00     0.080 H 
ATOM     11  C9  MK1 d   1      23.251  19.374   2.280  0.00  0.00     0.106 C 
ATOM     12  H1  MK1 d   1      24.553  20.762   2.671  0.00  0.00     0.280 HD
ATOM     13  C8  MK1 d   1      23.950  18.147   2.833  0.00  0.00     0.107 C 
ATOM     14  H18 MK1 d   1      23.503  19.459   1.213  0.00  0.00     0.078 H 
ATOM     15  H19 MK1 d   1      22.166  19.228   2.390  0.00  0.00     0.078 H 
ATOM     16  H16 MK1 d   1      23.439  17.254   2.444  0.00  0.00     0.078 H 
ATOM     17  H17 MK1 d   1      24.992  18.156   2.481  0.00  0.00     0.078 H 
ATOM     18  H15 MK1 d   1      23.014  17.932   4.637  0.00  0.00     0.281 HD
BRANCH   5  19
ATOM     19  C3  MK1 d   1      24.405  19.317   6.460  0.00  0.00     0.251 C 
ATOM     20  O1  MK1 d   1      23.377  18.942   7.009  0.00  0.00    -0.271 OA
ATOM     21  N2  MK1 d   1      25.499  19.727   7.096  0.00  0.00    -0.351 N 
ATOM     22  H5  MK1 d   1      26.264  20.048   6.537  0.00  0.00     0.163 HD
BRANCH  21  23
ATOM     23  C4  MK1 d   1      25.671  19.746   8.538  0.00  0.00     0.022 C 
BRANCH  23  24
ATOM     24  C5  MK1 d   1      27.069  20.297   8.831  0.00  0.00    -0.054 C 
ATOM     25  H6  MK1 d   1      27.232  20.325   9.919  0.00  0.00     0.030 H 
ATOM     26  H7  MK1 d   1      27.155  21.314   8.421  0.00  0.00     0.030 H 
ATOM     27  H8  MK1 d   1      27.824  19.648   8.364  0.00  0.00     0.030 H 
ENDBRANCH  23  24
BRANCH  23  28
ATOM     28  C6  MK1 d   1      25.549  18.443   9.043  0.00  0.00    -0.054 C 
ATOM     29  H9  MK1 d   1      25.680  18.459  10.135  0.00  0.00     0.030 H 
ATOM     30  H10 MK1 d   1      26.320  17.801   8.591  0.00  0.00     0.030 H 
ATOM     31  H11 MK1 d   1      24.552  18.047   8.799  0.00  0.00     0.030 H 
ENDBRANCH  23  28
BRANCH  23  32
ATOM     32  C7  MK1 d   1      24.668  20.627   9.140  0.00  0.00    -0.054 C 
ATOM     33  H12 MK1 d   1      24.800  20.640  10.232  0.00  0.00     0.030 H 
ATOM     34  H13 MK1 d   1      23.661  20.257   8.897  0.00  0.00     0.030 H 
ATOM     35  H14 MK1 d   1      24.790  21.646   8.744  0.00  0.00     0.030 H 
ENDBRANCH  23  32
ENDBRANCH  21  23
ENDBRANCH   5  19
BRANCH   8  36
ATOM     36  C31 MK1 d   1      22.820  21.692   2.390  0.00  0.00     0.108 C 
ATOM     37  H44 MK1 d   1      21.756  21.440   2.508  0.00  0.00     0.083 H 
ATOM     38  H45 MK1 d   1      23.056  21.792   1.320  0.00  0.00     0.083 H 
BRANCH  36  39
ATOM     39  C32 MK1 d   1      23.038  23.067   3.036  0.00  0.00    -0.015 A 
ATOM     40  C33 MK1 d   1      24.207  23.807   2.814  0.00  0.00     0.009 A 
ATOM     41  N5  MK1 d   1      24.441  25.123   3.275  0.00  0.00    -0.273 NA
ATOM     42  H46 MK1 d   1      24.996  23.332   2.242  0.00  0.00     0.115 H 
ATOM     43  C34 MK1 d   1      23.345  25.564   3.997  0.00  0.00     0.002 A 
ATOM     44  C35 MK1 d   1      22.173  24.866   4.261  0.00  0.00    -0.066 A 
ATOM     45  H47 MK1 d   1      23.409  26.567   4.402  0.00  0.00     0.114 H 
ATOM     46  C36 MK1 d   1      21.988  23.574   3.791  0.00  0.00    -0.072 A 
ATOM     47  H48 MK1 d   1      21.391  25.339   4.844  0.00  0.00     0.085 H 
ATOM     48  H49 MK1 d   1      21.090  23.002   3.998  0.00  0.00     0.084 H 
ENDBRANCH  36  39
ENDBRANCH   8  36
ENDBRANCH   1   4
BRANCH   1  49
ATOM     49  C11 MK1 d   1      23.866  15.673   4.939  0.00  0.00     0.059 C 
ATOM     50  H22 MK1 d   1      22.979  15.734   4.292  0.00  0.00     0.085 H 
BRANCH  49  51
ATOM     51  O2  MK1 d   1      24.631  14.574   4.598  0.00  0.00    -0.394 OA
ATOM     52  H23 MK1 d   1      25.411  14.552   5.140  0.00  0.00     0.210 HD
ENDBRANCH  49  51
BRANCH  49  53
ATOM     53  C12 MK1 d   1      23.397  15.545   6.400  0.00  0.00    -0.028 C 
ATOM     54  H24 MK1 d   1      22.815  16.446   6.644  0.00  0.00     0.038 H 
ATOM     55  H25 MK1 d   1      24.294  15.504   7.036  0.00  0.00     0.038 H 
BRANCH  53  56
ATOM     56  C13 MK1 d   1      22.518  14.308   6.743  0.00  0.00     0.029 C 
ATOM     57  H26 MK1 d   1      22.994  13.392   6.364  0.00  0.00     0.055 H 
BRANCH  56  58
ATOM     58  C14 MK1 d   1      22.356  14.217   8.274  0.00  0.00    -0.029 C 
ATOM     59  H27 MK1 d   1      21.988  15.189   8.633  0.00  0.00     0.041 H 
ATOM     60  H28 MK1 d   1      23.347  14.017   8.708  0.00  0.00     0.041 H 
BRANCH  58  61
ATOM     61  C15 MK1 d   1      21.434  13.178   8.756  0.00  0.00    -0.057 A 
ATOM     62  C16 MK1 d   1      21.707  11.827   8.527  0.00  0.00    -0.077 A 
ATOM     63  C17 MK1 d   1      20.829  10.865   9.016  0.00  0.00    -0.082 A 
ATOM     64  H29 MK1 d   1      22.592  11.532   7.975  0.00  0.00     0.084 H 
ATOM     65  C18 MK1 d   1      19.699  11.246   9.723  0.00  0.00    -0.083 A 
ATOM     66  H30 MK1 d   1      21.029   9.814   8.844  0.00  0.00     0.083 H 
ATOM     67  C19 MK1 d   1      19.437  12.590   9.964  0.00  0.00    -0.082 A 
ATOM     68  H31 MK1 d   1      19.014  10.490  10.091  0.00  0.00     0.083 H 
ATOM     69  C20 MK1 d   1      20.312  13.536   9.477  0.00  0.00    -0.077 A 
ATOM     70  H32 MK1 d   1      18.559  12.888  10.526  0.00  0.00     0.083 H 
ATOM     71  H33 MK1 d   1      20.115  14.585   9.664  0.00  0.00     0.084 H 
ENDBRANCH  58  61
ENDBRANCH  56  58
BRANCH  56  72
ATOM     72  C21 MK1 d   1      21.156  14.484   6.100  0.00  0.00     0.222 C 
ATOM     73  O3  MK1 d   1      20.472  15.525   6.112  0.00  0.00    -0.273 OA
ATOM     74  N4  MK1 d   1      20.722  13.353   5.576  0.00  0.00    -0.350 N 
ATOM     75  H34 MK1 d   1      21.352  12.594   5.410  0.00  0.00     0.163 HD
BRANCH  74  76
ATOM     76  C22 MK1 d   1      19.310  13.231   5.245  0.00  0.00     0.063 C 
ATOM     77  C23 MK1 d   1      18.695  11.877   5.569  0.00  0.00     0.063 C 
ATOM     78  C24 MK1 d   1      17.473  11.797   4.684  0.00  0.00    -0.014 C 
ATOM     79  H36 MK1 d   1      18.412  11.825   6.631  0.00  0.00     0.087 H 
ATOM     80  C25 MK1 d   1      17.838  12.453   3.366  0.00  0.00    -0.047 A 
ATOM     81  H38 MK1 d   1      16.632  12.330   5.152  0.00  0.00     0.044 H 
ATOM     82  H39 MK1 d   1      17.194  10.746   4.519  0.00  0.00     0.044 H 
ATOM     83  C26 MK1 d   1      17.365  12.390   2.083  0.00  0.00    -0.076 A 
ATOM     84  C30 MK1 d   1      19.003  13.390   3.738  0.00  0.00    -0.027 A 
ATOM     85  C27 MK1 d   1      17.990  13.197   1.142  0.00  0.00    -0.082 A 
ATOM     86  H40 MK1 d   1      16.540  11.740   1.814  0.00  0.00     0.084 H 
ATOM     87  C28 MK1 d   1      19.045  14.051   1.460  0.00  0.00    -0.082 A 
ATOM     88  H41 MK1 d   1      17.643  13.162   0.116  0.00  0.00     0.083 H 
ATOM     89  C29 MK1 d   1      19.528  14.143   2.742  0.00  0.00    -0.074 A 
ATOM     90  H42 MK1 d   1      19.493  14.655   0.679  0.00  0.00     0.083 H 
ATOM     91  H43 MK1 d   1      20.340  14.827   2.960  0.00  0.00     0.084 H 
ATOM     92  H35 MK1 d   1      18.779  14.012   5.809  0.00  0.00     0.084 H 
BRANCH  77  93
ATOM     93  O4  MK1 d   1      19.597  10.812   5.265  0.00  0.00    -0.393 OA
ATOM     94  H37 MK1 d   1      19.187   9.981   5.477  0.00  0.00     0.210 HD
ENDBRANCH  77  93
ENDBRANCH  74  76
ENDBRANCH  56  72
ENDBRANCH  53  56
ENDBRANCH  49  53
ENDBRANCH   1  49
TORSDOF 17
