REMARK  17 active torsions:
REMARK  status: ('A' for Active; 'I' for Inactive)
REMARK    1  A    between atoms: N1_1  and  C31_39 
REMARK    2  A    between atoms: C2_3  and  C3_4 
REMARK       I    between atoms: C3_4  and  N2_6 
REMARK    3  A    between atoms: N2_6  and  C4_7 
REMARK    4  A    between atoms: C4_7  and  C5_8 
REMARK    5  A    between atoms: C4_7  and  C6_9 
REMARK    6  A    between atoms: C4_7  and  C7_10 
REMARK    7  A    between atoms: N3_11  and  C10_14 
REMARK    8  A    between atoms: C10_14  and  C11_15 
REMARK    9  A    between atoms: C11_15  and  O2_16 
REMARK   10  A    between atoms: C11_15  and  C12_17 
REMARK   11  A    between atoms: C12_17  and  C13_18 
REMARK   12  A    between atoms: C13_18  and  C14_19 
REMARK   13  A    between atoms: C13_18  and  C21_26 
REMARK   14  A    between atoms: C14_19  and  C15_20 
REMARK       I    between atoms: C21_26  and  N4_28 
REMARK   15  A    between atoms: N4_28  and  C22_29 
REMARK   16  A    between atoms: C23_30  and  O4_31 
REMARK   17  A    between atoms: C31_39  and  C32_40 
ROOT
ATOM      1  C10 MK1 d   1      20.070   0.789  11.670  0.00  0.00     0.108 C 
ATOM      2  H20 MK1 d   1      20.006   0.233  12.617  0.00  0.00     0.080 H 
ATOM      3  H21 MK1 d   1      21.046   1.292  11.606  0.00  0.00     0.080 H 
ENDROOT
BRANCH   1   4
ATOM      4  N3  MK1 d   1      19.007   1.822  11.658  0.00  0.00    -0.053 N 
ATOM      5  C2  MK1 d   1      18.596   2.235  13.034  0.00  0.00     0.203 C 
ATOM      6  C1  MK1 d   1      17.532   3.337  12.909  0.00  0.00     0.119 C 
ATOM      7  H4  MK1 d   1      19.479   2.628  13.559  0.00  0.00     0.102 H 
ATOM      8  N1  MK1 d   1      17.923   4.536  12.115  0.00  0.00    -0.063 N 
ATOM      9  H2  MK1 d   1      16.643   2.895  12.435  0.00  0.00     0.080 H 
ATOM     10  H3  MK1 d   1      17.276   3.674  13.924  0.00  0.00     0.080 H 
ATOM     11  C9  MK1 d   1      18.267   4.075  10.729  0.00  0.00     0.106 C 
ATOM     12  H1  MK1 d   1      18.765   4.912  12.523  0.00  0.00     0.280 HD
ATOM     13  C8  MK1 d   1      19.348   2.958  10.745  0.00  0.00     0.107 C 
ATOM     14  H18 MK1 d   1      18.648   4.931  10.153  0.00  0.00     0.078 H 
ATOM     15  H19 MK1 d   1      17.358   3.684  10.248  0.00  0.00     0.078 H 
ATOM     16  H16 MK1 d   1      19.460   2.565   9.724  0.00  0.00     0.078 H 
ATOM     17  H17 MK1 d   1      20.301   3.398  11.075  0.00  0.00     0.078 H 
ATOM     18  H15 MK1 d   1      18.195   1.382  11.254  0.00  0.00     0.281 HD
BRANCH   5  19
ATOM     19  C3  MK1 d   1      17.994   1.105  13.870  0.00  0.00     0.251 C 
ATOM     20  O1  MK1 d   1      17.277   0.243  13.326  0.00  0.00    -0.271 OA
ATOM     21  N2  MK1 d   1      18.290   1.099  15.187  0.00  0.00    -0.351 N 
ATOM     22  H5  MK1 d   1      18.871   1.842  15.520  0.00  0.00     0.163 HD
BRANCH  21  23
ATOM     23  C4  MK1 d   1      17.819   0.052  16.242  0.00  0.00     0.022 C 
BRANCH  23  24
ATOM     24  C5  MK1 d   1      18.372   0.401  17.657  0.00  0.00    -0.054 C 
ATOM     25  H6  MK1 d   1      18.026  -0.351  18.381  0.00  0.00     0.030 H 
ATOM     26  H7  MK1 d   1      18.008   1.395  17.958  0.00  0.00     0.030 H 
ATOM     27  H8  MK1 d   1      19.472   0.406  17.630  0.00  0.00     0.030 H 
ENDBRANCH  23  24
BRANCH  23  28
ATOM     28  C6  MK1 d   1      18.461  -1.348  16.067  0.00  0.00    -0.054 C 
ATOM     29  H9  MK1 d   1      18.080  -2.026  16.845  0.00  0.00     0.030 H 
ATOM     30  H10 MK1 d   1      19.554  -1.264  16.157  0.00  0.00     0.030 H 
ATOM     31  H11 MK1 d   1      18.204  -1.748  15.075  0.00  0.00     0.030 H 
ENDBRANCH  23  28
BRANCH  23  32
ATOM     32  C7  MK1 d   1      16.195  -0.029  16.290  0.00  0.00    -0.054 C 
ATOM     33  H12 MK1 d   1      15.887  -0.773  17.040  0.00  0.00     0.030 H 
ATOM     34  H13 MK1 d   1      15.813  -0.325  15.302  0.00  0.00     0.030 H 
ATOM     35  H14 MK1 d   1      15.787   0.956  16.561  0.00  0.00     0.030 H 
ENDBRANCH  23  32
ENDBRANCH  21  23
ENDBRANCH   5  19
BRANCH   8  36
ATOM     36  C31 MK1 d   1      16.904   5.626  12.176  0.00  0.00     0.108 C 
ATOM     37  H44 MK1 d   1      15.996   5.222  11.705  0.00  0.00     0.083 H 
ATOM     38  H45 MK1 d   1      17.300   6.449  11.563  0.00  0.00     0.083 H 
BRANCH  36  39
ATOM     39  C32 MK1 d   1      16.436   6.282  13.543  0.00  0.00    -0.015 A 
ATOM     40  C33 MK1 d   1      17.275   7.107  14.303  0.00  0.00     0.009 A 
ATOM     41  N5  MK1 d   1      16.858   7.729  15.587  0.00  0.00    -0.273 NA
ATOM     42  H46 MK1 d   1      18.277   7.301  13.937  0.00  0.00     0.115 H 
ATOM     43  C34 MK1 d   1      15.518   7.420  15.995  0.00  0.00     0.002 A 
ATOM     44  C35 MK1 d   1      14.661   6.601  15.255  0.00  0.00    -0.066 A 
ATOM     45  H47 MK1 d   1      15.152   7.843  16.924  0.00  0.00     0.114 H 
ATOM     46  C36 MK1 d   1      15.122   6.033  14.032  0.00  0.00    -0.072 A 
ATOM     47  H48 MK1 d   1      13.656   6.400  15.608  0.00  0.00     0.085 H 
ATOM     48  H49 MK1 d   1      14.457   5.396  13.460  0.00  0.00     0.084 H 
ENDBRANCH  36  39
ENDBRANCH   8  36
ENDBRANCH   1   4
BRANCH   1  49
ATOM     49  C11 MK1 d   1      19.960  -0.198  10.523  0.00  0.00     0.059 C 
ATOM     50  H22 MK1 d   1      19.417   0.299   9.706  0.00  0.00     0.085 H 
BRANCH  49  51
ATOM     51  O2  MK1 d   1      21.271  -0.568  10.081  0.00  0.00    -0.394 OA
ATOM     52  H23 MK1 d   1      21.745  -0.970  10.800  0.00  0.00     0.210 HD
ENDBRANCH  49  51
BRANCH  49  53
ATOM     53  C12 MK1 d   1      19.251  -1.527  10.842  0.00  0.00    -0.028 C 
ATOM     54  H24 MK1 d   1      18.233  -1.290  11.184  0.00  0.00     0.038 H 
ATOM     55  H25 MK1 d   1      19.806  -2.017  11.655  0.00  0.00     0.038 H 
BRANCH  53  56
ATOM     56  C13 MK1 d   1      19.136  -2.523   9.692  0.00  0.00     0.029 C 
ATOM     57  H26 MK1 d   1      20.136  -2.770   9.307  0.00  0.00     0.055 H 
BRANCH  56  58
ATOM     58  C14 MK1 d   1      18.490  -3.773  10.326  0.00  0.00    -0.029 C 
ATOM     59  H27 MK1 d   1      17.498  -3.496  10.711  0.00  0.00     0.041 H 
ATOM     60  H28 MK1 d   1      19.125  -4.110  11.158  0.00  0.00     0.041 H 
BRANCH  58  61
ATOM     61  C15 MK1 d   1      18.325  -4.913   9.360  0.00  0.00    -0.057 A 
ATOM     62  C16 MK1 d   1      19.443  -5.565   8.756  0.00  0.00    -0.077 A 
ATOM     63  C17 MK1 d   1      19.226  -6.636   7.842  0.00  0.00    -0.082 A 
ATOM     64  H29 MK1 d   1      20.452  -5.246   8.992  0.00  0.00     0.084 H 
ATOM     65  C18 MK1 d   1      17.896  -7.052   7.533  0.00  0.00    -0.083 A 
ATOM     66  H30 MK1 d   1      20.071  -7.135   7.381  0.00  0.00     0.083 H 
ATOM     67  C19 MK1 d   1      16.791  -6.403   8.134  0.00  0.00    -0.082 A 
ATOM     68  H31 MK1 d   1      17.732  -7.867   6.837  0.00  0.00     0.083 H 
ATOM     69  C20 MK1 d   1      16.998  -5.338   9.044  0.00  0.00    -0.077 A 
ATOM     70  H32 MK1 d   1      15.783  -6.722   7.897  0.00  0.00     0.083 H 
ATOM     71  H33 MK1 d   1      16.148  -4.844   9.502  0.00  0.00     0.084 H 
ENDBRANCH  58  61
ENDBRANCH  56  58
BRANCH  56  72
ATOM     72  C21 MK1 d   1      18.282  -1.963   8.523  0.00  0.00     0.222 C 
ATOM     73  O3  MK1 d   1      17.440  -1.084   8.681  0.00  0.00    -0.273 OA
ATOM     74  N4  MK1 d   1      18.525  -2.517   7.341  0.00  0.00    -0.350 N 
ATOM     75  H34 MK1 d   1      19.219  -3.237   7.310  0.00  0.00     0.163 HD
BRANCH  74  76
ATOM     76  C22 MK1 d   1      17.866  -2.168   6.073  0.00  0.00     0.063 C 
ATOM     77  C23 MK1 d   1      18.383  -3.089   4.937  0.00  0.00     0.063 C 
ATOM     78  C24 MK1 d   1      18.033  -2.321   3.680  0.00  0.00    -0.014 C 
ATOM     79  H36 MK1 d   1      17.806  -4.026   4.933  0.00  0.00     0.087 H 
ATOM     80  C25 MK1 d   1      18.274  -0.861   3.918  0.00  0.00    -0.047 A 
ATOM     81  H38 MK1 d   1      16.974  -2.484   3.431  0.00  0.00     0.044 H 
ATOM     82  H39 MK1 d   1      18.663  -2.668   2.848  0.00  0.00     0.044 H 
ATOM     83  C26 MK1 d   1      18.540   0.251   3.105  0.00  0.00    -0.076 A 
ATOM     84  C30 MK1 d   1      18.164  -0.763   5.484  0.00  0.00    -0.027 A 
ATOM     85  C27 MK1 d   1      18.716   1.509   3.730  0.00  0.00    -0.082 A 
ATOM     86  H40 MK1 d   1      18.609   0.150   2.028  0.00  0.00     0.084 H 
ATOM     87  C28 MK1 d   1      18.629   1.659   5.150  0.00  0.00    -0.082 A 
ATOM     88  H41 MK1 d   1      18.922   2.380   3.118  0.00  0.00     0.083 H 
ATOM     89  C29 MK1 d   1      18.359   0.546   6.002  0.00  0.00    -0.074 A 
ATOM     90  H42 MK1 d   1      18.771   2.640   5.589  0.00  0.00     0.083 H 
ATOM     91  H43 MK1 d   1      18.301   0.703   7.073  0.00  0.00     0.084 H 
ATOM     92  H35 MK1 d   1      16.781  -2.285   6.213  0.00  0.00     0.084 H 
BRANCH  77  93
ATOM     93  O4  MK1 d   1      19.747  -3.454   5.154  0.00  0.00    -0.393 OA
ATOM     94  H37 MK1 d   1      20.040  -4.017   4.447  0.00  0.00     0.210 HD
ENDBRANCH  77  93
ENDBRANCH  74  76
ENDBRANCH  56  72
ENDBRANCH  53  56
ENDBRANCH  49  53
ENDBRANCH   1  49
TORSDOF 17
