REMARK  24 active torsions:
REMARK  status: ('A' for Active; 'I' for Inactive)
REMARK    1  A    between atoms: C6_6  and  C2_2 
REMARK    2  A    between atoms: O7_7  and  C6_6 
REMARK    3  A    between atoms: C10_8  and  O7_7 
REMARK       I    between atoms: N11_9  and  C10_8 
REMARK    4  A    between atoms: C12_10  and  N11_9 
REMARK    5  A    between atoms: C13_11  and  C12_10 
REMARK    6  A    between atoms: C12_10  and  C26_19 
REMARK    7  A    between atoms: C14_12  and  C13_11 
REMARK    8  A    between atoms: C13_11  and  O41_26 
REMARK    9  A    between atoms: C15_13  and  C14_12 
REMARK   10  A    between atoms: C15_13  and  C44_27 
REMARK   11  A    between atoms: N58_34  and  C15_13 
REMARK   12  A    between atoms: C18_14  and  C19_15 
REMARK       I    between atoms: C18_14  and  N58_34 
REMARK   13  A    between atoms: C19_15  and  N20_16 
REMARK   14  A    between atoms: C19_15  and  C62_36 
REMARK       I    between atoms: N20_16  and  C21_17 
REMARK       I    between atoms: C21_17  and  N74_39 
REMARK   15  A    between atoms: C26_19  and  C28_20 
REMARK   16  A    between atoms: C44_27  and  C45_28 
REMARK   17  A    between atoms: C62_36  and  C64_37 
REMARK   18  A    between atoms: C62_36  and  C68_38 
REMARK   19  A    between atoms: N74_39  and  C75_40 
REMARK   20  A    between atoms: N74_39  and  C95_50 
REMARK   21  A    between atoms: C75_40  and  C77_42 
REMARK   22  A    between atoms: C82_45  and  C85_47 
REMARK   23  A    between atoms: C85_47  and  C86_48 
REMARK   24  A    between atoms: C85_47  and  C90_49 
ROOT
ATOM      1  C15 RIT d   1      19.201   1.886  11.665  0.00  0.00     0.018 C 
ATOM      2  H10 RIT d   1      18.218   1.557  11.298  0.00  0.00     0.073 H 
ENDROOT
BRANCH   1   3
ATOM      3  C14 RIT d   1      20.325   1.060  10.984  0.00  0.00    -0.020 C 
ATOM      4  H8  RIT d   1      20.209   1.220   9.902  0.00  0.00     0.040 H 
ATOM      5  H9  RIT d   1      21.275   1.501  11.320  0.00  0.00     0.040 H 
BRANCH   3   6
ATOM      6  C13 RIT d   1      20.463  -0.435  11.176  0.00  0.00     0.057 C 
ATOM      7  H7  RIT d   1      20.397  -0.655  12.252  0.00  0.00     0.086 H 
BRANCH   6   8
ATOM      8  C12 RIT d   1      19.416  -1.280  10.426  0.00  0.00     0.043 C 
ATOM      9  H6  RIT d   1      18.445  -1.053  10.890  0.00  0.00     0.077 H 
BRANCH   8  10
ATOM     10  N11 RIT d   1      19.271  -0.919   9.003  0.00  0.00    -0.329 N 
ATOM     11  C10 RIT d   1      18.088  -0.856   8.331  0.00  0.00     0.361 C 
ATOM     12  O24 RIT d   1      16.968  -1.095   8.803  0.00  0.00    -0.238 OA
ATOM     13  H5  RIT d   1      20.104  -0.704   8.493  0.00  0.00     0.165 HD
BRANCH  11  14
ATOM     14  O7  RIT d   1      18.295  -0.479   7.010  0.00  0.00    -0.299 OA
BRANCH  14  15
ATOM     15  C6  RIT d   1      17.292  -0.314   6.035  0.00  0.00     0.061 C 
ATOM     16  H3  RIT d   1      16.753  -1.262   5.889  0.00  0.00     0.083 H 
ATOM     17  H4  RIT d   1      16.584   0.465   6.355  0.00  0.00     0.083 H 
BRANCH  15  18
ATOM     18  C2  RIT d   1      17.921   0.075   4.821  0.00  0.00     0.025 A 
ATOM     19  C1  RIT d   1      18.257   1.219   4.158  0.00  0.00     0.017 A 
ATOM     20  N5  RIT d   1      18.846   1.031   3.039  0.00  0.00    -0.265 NA
ATOM     21  H1  RIT d   1      18.041   2.212   4.550  0.00  0.00     0.116 H 
ATOM     22  C4  RIT d   1      18.955  -0.236   2.858  0.00  0.00     0.040 A 
ATOM     23  S3  RIT d   1      18.363  -1.446   4.014  0.00  0.00    -0.084 SA
ATOM     24  H2  RIT d   1      19.436  -0.587   1.946  0.00  0.00     0.126 H 
ENDBRANCH  15  18
ENDBRANCH  14  15
ENDBRANCH  11  14
ENDBRANCH   8  10
BRANCH   8  25
ATOM     25  C26 RIT d   1      19.672  -2.792  10.667  0.00  0.00    -0.020 C 
ATOM     26  H13 RIT d   1      19.617  -2.951  11.754  0.00  0.00     0.043 H 
ATOM     27  H14 RIT d   1      20.695  -2.997  10.318  0.00  0.00     0.043 H 
BRANCH  25  28
ATOM     28  C28 RIT d   1      18.819  -3.791  10.059  0.00  0.00    -0.056 A 
ATOM     29  C31 RIT d   1      17.677  -4.008  10.881  0.00  0.00    -0.077 A 
ATOM     30  C32 RIT d   1      16.705  -4.960  10.446  0.00  0.00    -0.082 A 
ATOM     31  H15 RIT d   1      17.549  -3.466  11.811  0.00  0.00     0.084 H 
ATOM     32  C33 RIT d   1      16.854  -5.685   9.221  0.00  0.00    -0.083 A 
ATOM     33  H16 RIT d   1      15.830  -5.138  11.061  0.00  0.00     0.083 H 
ATOM     34  C34 RIT d   1      18.013  -5.450   8.409  0.00  0.00    -0.082 A 
ATOM     35  H17 RIT d   1      16.102  -6.401   8.911  0.00  0.00     0.083 H 
ATOM     36  C35 RIT d   1      18.993  -4.507   8.824  0.00  0.00    -0.077 A 
ATOM     37  H18 RIT d   1      18.142  -5.992   7.479  0.00  0.00     0.083 H 
ATOM     38  H19 RIT d   1      19.869  -4.328   8.211  0.00  0.00     0.084 H 
ENDBRANCH  25  28
ENDBRANCH   8  25
ENDBRANCH   6   8
BRANCH   6  39
ATOM     39  O41 RIT d   1      21.715  -0.845  10.670  0.00  0.00    -0.393 OA
ATOM     40  H20 RIT d   1      22.408  -0.395  11.139  0.00  0.00     0.210 HD
ENDBRANCH   6  39
ENDBRANCH   3   6
ENDBRANCH   1   3
BRANCH   1  41
ATOM     41  C44 RIT d   1      19.483   3.316  11.253  0.00  0.00    -0.022 C 
ATOM     42  H21 RIT d   1      19.634   3.362  10.165  0.00  0.00     0.043 H 
ATOM     43  H22 RIT d   1      20.388   3.675  11.765  0.00  0.00     0.043 H 
BRANCH  41  44
ATOM     44  C45 RIT d   1      18.351   4.152  11.623  0.00  0.00    -0.056 A 
ATOM     45  C48 RIT d   1      18.487   4.944  12.806  0.00  0.00    -0.077 A 
ATOM     46  C49 RIT d   1      17.418   5.788  13.240  0.00  0.00    -0.082 A 
ATOM     47  H23 RIT d   1      19.407   4.904  13.378  0.00  0.00     0.084 H 
ATOM     48  C50 RIT d   1      16.226   5.827  12.476  0.00  0.00    -0.083 A 
ATOM     49  H24 RIT d   1      17.518   6.387  14.138  0.00  0.00     0.083 H 
ATOM     50  C51 RIT d   1      16.091   5.047  11.304  0.00  0.00    -0.082 A 
ATOM     51  H25 RIT d   1      15.407   6.463  12.793  0.00  0.00     0.083 H 
ATOM     52  C52 RIT d   1      17.148   4.206  10.869  0.00  0.00    -0.077 A 
ATOM     53  H26 RIT d   1      15.171   5.092  10.732  0.00  0.00     0.083 H 
ATOM     54  H27 RIT d   1      17.039   3.610   9.970  0.00  0.00     0.084 H 
ENDBRANCH  41  44
ENDBRANCH   1  41
BRANCH   1  55
ATOM     55  N58 RIT d   1      19.220   1.805  13.127  0.00  0.00    -0.354 N 
ATOM     56  C18 RIT d   1      18.218   1.332  13.901  0.00  0.00     0.241 C 
ATOM     57  O61 RIT d   1      17.140   0.899  13.441  0.00  0.00    -0.271 OA
ATOM     58  H28 RIT d   1      20.044   2.127  13.592  0.00  0.00     0.162 HD
BRANCH  56  59
ATOM     59  C19 RIT d   1      18.526   1.395  15.410  0.00  0.00     0.093 C 
ATOM     60  H11 RIT d   1      19.620   1.450  15.514  0.00  0.00     0.088 H 
BRANCH  59  61
ATOM     61  N20 RIT d   1      17.934   2.610  16.006  0.00  0.00    -0.329 N 
ATOM     62  C21 RIT d   1      18.701   3.675  16.387  0.00  0.00     0.319 C 
ATOM     63  N74 RIT d   1      17.978   4.765  16.835  0.00  0.00    -0.333 N 
ATOM     64  O76 RIT d   1      19.957   3.627  16.324  0.00  0.00    -0.247 OA
ATOM     65  H12 RIT d   1      16.943   2.655  16.134  0.00  0.00     0.165 HD
BRANCH  63  66
ATOM     66  C75 RIT d   1      18.669   5.994  17.286  0.00  0.00     0.039 C 
ATOM     67  H36 RIT d   1      19.623   5.684  17.738  0.00  0.00     0.074 H 
ATOM     68  H37 RIT d   1      18.034   6.462  18.053  0.00  0.00     0.074 H 
BRANCH  66  69
ATOM     69  C77 RIT d   1      18.978   7.032  16.282  0.00  0.00     0.060 A 
ATOM     70  C80 RIT d   1      20.213   6.994  15.697  0.00  0.00    -0.018 A 
ATOM     71  S81 RIT d   1      20.258   8.359  14.553  0.00  0.00    -0.084 SA
ATOM     72  H38 RIT d   1      21.008   6.275  15.891  0.00  0.00     0.098 H 
ATOM     73  C82 RIT d   1      18.606   8.792  15.021  0.00  0.00     0.078 A 
ATOM     74  N83 RIT d   1      18.143   7.969  15.928  0.00  0.00    -0.248 NA
BRANCH  73  75
ATOM     75  C85 RIT d   1      18.228   9.916  14.279  0.00  0.00    -0.012 C 
ATOM     76  H39 RIT d   1      18.197   9.517  13.254  0.00  0.00     0.049 H 
BRANCH  75  77
ATOM     77  C86 RIT d   1      18.924  11.265  14.104  0.00  0.00    -0.067 C 
ATOM     78  H40 RIT d   1      18.323  11.905  13.441  0.00  0.00     0.028 H 
ATOM     79  H41 RIT d   1      19.918  11.110  13.660  0.00  0.00     0.028 H 
ATOM     80  H42 RIT d   1      19.032  11.752  15.085  0.00  0.00     0.028 H 
ENDBRANCH  75  77
BRANCH  75  81
ATOM     81  C90 RIT d   1      16.849  10.290  14.653  0.00  0.00    -0.067 C 
ATOM     82  H43 RIT d   1      16.251   9.380  14.806  0.00  0.00     0.028 H 
ATOM     83  H44 RIT d   1      16.401  10.892  13.849  0.00  0.00     0.028 H 
ATOM     84  H45 RIT d   1      16.868  10.877  15.583  0.00  0.00     0.028 H 
ENDBRANCH  75  81
ENDBRANCH  73  75
ENDBRANCH  66  69
ENDBRANCH  63  66
BRANCH  63  85
ATOM     85  C95 RIT d   1      16.653   4.908  16.941  0.00  0.00    -0.014 C 
ATOM     86  H46 RIT d   1      16.157   3.987  16.602  0.00  0.00     0.056 H 
ATOM     87  H47 RIT d   1      16.324   5.752  16.317  0.00  0.00     0.056 H 
ATOM     88  H48 RIT d   1      16.388   5.102  17.991  0.00  0.00     0.056 H 
ENDBRANCH  63  85
ENDBRANCH  59  61
BRANCH  59  89
ATOM     89  C62 RIT d   1      18.028   0.160  16.253  0.00  0.00    -0.033 C 
ATOM     90  H29 RIT d   1      16.931   0.145  16.167  0.00  0.00     0.042 H 
BRANCH  89  91
ATOM     91  C64 RIT d   1      18.535  -1.228  15.777  0.00  0.00    -0.071 C 
ATOM     92  H30 RIT d   1      18.128  -2.012  16.433  0.00  0.00     0.028 H 
ATOM     93  H31 RIT d   1      19.634  -1.250  15.817  0.00  0.00     0.028 H 
ATOM     94  H32 RIT d   1      18.202  -1.405  14.744  0.00  0.00     0.028 H 
ENDBRANCH  89  91
BRANCH  89  95
ATOM     95  C68 RIT d   1      18.384   0.341  17.752  0.00  0.00    -0.071 C 
ATOM     96  H33 RIT d   1      18.028   1.323  18.097  0.00  0.00     0.028 H 
ATOM     97  H34 RIT d   1      19.475   0.281  17.880  0.00  0.00     0.028 H 
ATOM     98  H35 RIT d   1      17.901  -0.452  18.342  0.00  0.00     0.028 H 
ENDBRANCH  89  95
ENDBRANCH  59  89
ENDBRANCH  56  59
ENDBRANCH   1  55
TORSDOF 24
