REMARK  9 active torsions:
REMARK  status: ('A' for Active; 'I' for Inactive)
REMARK    1  A    between atoms: C11_7  and  C2_2 
REMARK    2  A    between atoms: C1_8  and  C11_7 
REMARK    3  A    between atoms: N18_9  and  C1_8 
REMARK    4  A    between atoms: C21_10  and  N18_9 
REMARK    5  A    between atoms: C33_18  and  N23_12 
REMARK    6  A    between atoms: C34_19  and  C33_18 
REMARK       I    between atoms: N37_20  and  C34_19 
REMARK    7  A    between atoms: C39_22  and  N37_20 
REMARK    8  A    between atoms: C40_23  and  C39_22 
REMARK    9  A    between atoms: N11_36  and  C50_27 
ROOT
ATOM      1  C21 170 d   1      17.943 -15.375  22.884  0.00  0.00     0.193 A 
ATOM      2  C22 170 d   1      17.422 -14.138  22.276  0.00  0.00     0.295 A 
ATOM      3  N23 170 d   1      18.145 -13.509  21.290  0.00  0.00    -0.291 N 
ATOM      4  C24 170 d   1      19.445 -13.924  20.814  0.00  0.00     0.126 A 
ATOM      5  C25 170 d   1      19.952 -15.078  21.446  0.00  0.00     0.042 A 
ATOM      6  N3  170 d   1      19.219 -15.785  22.393  0.00  0.00    -0.235 NA
ATOM      7  O28 170 d   1      16.347 -13.676  22.647  0.00  0.00    -0.264 OA
ATOM      8 CL2  170 d   1      20.294 -13.068  19.627  0.00  0.00    -0.063 Cl
ATOM      9  H8  170 d   1      20.950 -15.427  21.184  0.00  0.00     0.119 H 
ENDROOT
BRANCH   3  10
ATOM     10  C33 170 d   1      17.612 -12.270  20.689  0.00  0.00     0.077 C 
ATOM     11  H9  170 d   1      18.171 -12.049  19.767  0.00  0.00     0.079 H 
ATOM     12  H10 170 d   1      17.739 -11.442  21.402  0.00  0.00     0.079 H 
BRANCH  10  13
ATOM     13  C34 170 d   1      16.136 -12.412  20.352  0.00  0.00     0.236 C 
ATOM     14  N37 170 d   1      15.399 -11.312  20.555  0.00  0.00    -0.355 N 
ATOM     15  H11 170 d   1      15.820 -10.477  20.910  0.00  0.00     0.162 HD
ATOM     16  O38 170 d   1      15.696 -13.463  19.897  0.00  0.00    -0.272 OA
BRANCH  14  17
ATOM     17  C39 170 d   1      13.962 -11.352  20.248  0.00  0.00     0.021 C 
ATOM     18  H12 170 d   1      13.748 -12.264  19.672  0.00  0.00     0.071 H 
ATOM     19  H13 170 d   1      13.704 -10.469  19.646  0.00  0.00     0.071 H 
BRANCH  17  20
ATOM     20  C40 170 d   1      13.105 -11.355  21.507  0.00  0.00    -0.010 A 
ATOM     21  C43 170 d   1      13.096 -10.161  22.309  0.00  0.00    -0.052 A 
ATOM     22  C44 170 d   1      12.284 -10.195  23.495  0.00  0.00     0.034 A 
ATOM     23  H14 170 d   1      13.670  -9.284  22.034  0.00  0.00     0.087 H 
ATOM     24  C45 170 d   1      11.504 -11.337  23.899  0.00  0.00    -0.060 A 
ATOM     25 CL1  170 d   1      12.238  -8.757  24.485  0.00  0.00    -0.084 Cl
ATOM     26  C47 170 d   1      11.510 -12.522  23.098  0.00  0.00    -0.053 A 
ATOM     27  H15 170 d   1      10.914 -11.298  24.808  0.00  0.00     0.086 H 
ATOM     28  C50 170 d   1      12.334 -12.497  21.900  0.00  0.00     0.069 A 
ATOM     29  H16 170 d   1      10.929 -13.396  23.370  0.00  0.00     0.087 H 
BRANCH  28  30
ATOM     30  N11 170 d   1      12.475 -13.668  21.215  0.00  0.00    -0.206 N 
ATOM     31  N12 170 d   1      11.967 -14.102  20.201  0.00  0.00    -0.040 NA
ATOM     32  N13 170 d   1      12.384 -15.232  19.803  0.00  0.00    -0.023 NA
ATOM     33  N14 170 d   1      13.235 -15.703  20.545  0.00  0.00    -0.122 NA
ATOM     34  C46 170 d   1      13.351 -14.726  21.584  0.00  0.00     0.113 A 
ATOM     35  H17 170 d   1      13.979 -14.781  22.472  0.00  0.00     0.149 H 
ENDBRANCH  28  30
ENDBRANCH  17  20
ENDBRANCH  14  17
ENDBRANCH  10  13
ENDBRANCH   3  10
BRANCH   1  36
ATOM     36  N18 170 d   1      17.239 -16.049  23.918  0.00  0.00    -0.364 N 
ATOM     37  H7  170 d   1      16.281 -15.773  24.178  0.00  0.00     0.161 HD
BRANCH  36  38
ATOM     38  C1  170 d   1      17.927 -17.156  24.605  0.00  0.00     0.061 C 
ATOM     39  H5  170 d   1      17.199 -17.957  24.801  0.00  0.00     0.073 H 
ATOM     40  H6  170 d   1      18.725 -17.537  23.951  0.00  0.00     0.073 H 
BRANCH  38  41
ATOM     41  C11 170 d   1      18.542 -16.722  25.922  0.00  0.00     0.303 C 
ATOM     42  F1  170 d   1      18.832 -17.878  26.542  0.00  0.00    -0.197 F 
ATOM     43  F2  170 d   1      17.618 -16.078  26.655  0.00  0.00    -0.197 F 
BRANCH  41  44
ATOM     44  C2  170 d   1      19.809 -15.892  25.716  0.00  0.00     0.115 A 
ATOM     45  C8  170 d   1      19.885 -14.493  26.092  0.00  0.00    -0.052 A 
ATOM     46  C6  170 d   1      21.099 -13.817  25.744  0.00  0.00    -0.080 A 
ATOM     47  H1  170 d   1      19.073 -13.990  26.605  0.00  0.00     0.086 H 
ATOM     48  C5  170 d   1      22.184 -14.477  25.045  0.00  0.00    -0.065 A 
ATOM     49  H4  170 d   1      21.210 -12.773  26.013  0.00  0.00     0.083 H 
ATOM     50  C4  170 d   1      22.063 -15.864  24.698  0.00  0.00     0.011 A 
ATOM     51  H3  170 d   1      23.081 -13.926  24.786  0.00  0.00     0.085 H 
ATOM     52  N1  170 d   1      20.884 -16.499  25.055  0.00  0.00    -0.198 N 
ATOM     53  H2  170 d   1      22.857 -16.391  24.181  0.00  0.00     0.115 H 
ATOM     54  O1  170 d   1      20.772 -17.803  24.723  0.00  0.00    -0.081 OA
ENDBRANCH  41  44
ENDBRANCH  38  41
ENDBRANCH  36  38
ENDBRANCH   1  36
TORSDOF 9
