REMARK  10 active torsions:
REMARK  status: ('A' for Active; 'I' for Inactive)
REMARK    1  A    between atoms: C_1  and  CH3A_3 
REMARK       I    between atoms: N_4  and  C_1 
REMARK    2  A    between atoms: CA_5  and  N_4 
REMARK    3  A    between atoms: CA_11  and  CB_14 
REMARK    4  A    between atoms: CB_14  and  CG_15 
REMARK    5  A    between atoms: CA_28  and  CB_31 
REMARK    6  A    between atoms: CB_31  and  CG_32 
REMARK    7  A    between atoms: CG_32  and  CD_33 
REMARK       I    between atoms: CD_33  and  NE2_35 
REMARK    8  A    between atoms: CA_37  and  CB_40 
REMARK    9  A    between atoms: CB_40  and  CG_41 
REMARK   10  A    between atoms: CA_48  and  C_49 
REMARK       I    between atoms: C_49  and  N_53 
ROOT
ATOM      1  CA  CYS d   1      10.107  -0.977 -18.792  0.00  0.00     0.098 C 
ATOM      2  C   CYS d   1      10.852   0.270 -18.302  0.00  0.00     0.242 C 
ATOM      3  O   CYS d   1      11.585   0.985 -19.013  0.00  0.00    -0.271 OA
ATOM      4  CB  CYS d   1      11.073  -2.100 -19.096  0.00  0.00     0.013 C 
ATOM      5  SG  CYS d   1      12.064  -2.458 -17.632  0.00  0.00    -0.095 SA
ATOM      6  N   CYS d   1      15.001  -0.905 -15.541  0.00  0.00    -0.345 N 
ATOM      7  CA  CYS d   1      15.954  -1.140 -16.610  0.00  0.00     0.098 C 
ATOM      8  CB  CYS d   1      15.237  -1.956 -17.686  0.00  0.00     0.013 C 
ATOM      9  SG  CYS d   1      13.620  -1.234 -18.155  0.00  0.00    -0.095 SA
ATOM     10  H5  CYS d   1       9.431  -1.306 -17.989  0.00  0.00     0.088 H 
ATOM     11  H6  CYS d   1      11.735  -1.800 -19.922  0.00  0.00     0.053 H 
ATOM     12  H7  CYS d   1      10.510  -2.999 -19.386  0.00  0.00     0.053 H 
ATOM     13  H39 CYS d   1      14.366  -0.137 -15.618  0.00  0.00     0.163 HD
ATOM     14  H40 CYS d   1      16.804  -1.719 -16.220  0.00  0.00     0.088 H 
ATOM     15  H41 CYS d   1      15.071  -2.974 -17.304  0.00  0.00     0.053 H 
ATOM     16  H42 CYS d   1      15.876  -1.999 -18.580  0.00  0.00     0.053 H 
ATOM     17  N   HIS d   1      10.488   0.511 -17.035  0.00  0.00    -0.346 N 
ATOM     18  CA  HIS d   1      10.719   1.770 -16.345  0.00  0.00     0.094 C 
ATOM     19  C   HIS d   1      12.151   1.900 -15.902  0.00  0.00     0.243 C 
ATOM     20  O   HIS d   1      12.674   0.856 -15.493  0.00  0.00    -0.271 OA
ATOM     21  H8  HIS d   1      10.028  -0.221 -16.532  0.00  0.00     0.163 HD
ATOM     22  H9  HIS d   1      10.491   2.605 -17.023  0.00  0.00     0.088 H 
ATOM     23  N   PRO d   1      12.776   3.091 -15.825  0.00  0.00    -0.337 N 
ATOM     24  CA  PRO d   1      14.137   3.222 -15.361  0.00  0.00     0.091 C 
ATOM     25  C   PRO d   1      14.439   2.709 -13.948  0.00  0.00     0.241 C 
ATOM     26  O   PRO d   1      15.595   2.431 -13.612  0.00  0.00    -0.271 OA
ATOM     27  CB  PRO d   1      14.410   4.710 -15.583  0.00  0.00    -0.036 C 
ATOM     28  CG  PRO d   1      13.120   5.434 -15.751  0.00  0.00    -0.048 C 
ATOM     29  CD  PRO d   1      12.285   4.355 -16.394  0.00  0.00    -0.001 C 
ATOM     30  H15 PRO d   1      14.787   2.643 -16.034  0.00  0.00     0.087 H 
ATOM     31  H16 PRO d   1      15.023   4.839 -16.487  0.00  0.00     0.036 H 
ATOM     32  H17 PRO d   1      14.948   5.117 -14.714  0.00  0.00     0.036 H 
ATOM     33  H18 PRO d   1      13.228   6.310 -16.407  0.00  0.00     0.035 H 
ATOM     34  H19 PRO d   1      12.702   5.750 -14.784  0.00  0.00     0.035 H 
ATOM     35  H20 PRO d   1      12.419   4.364 -17.486  0.00  0.00     0.064 H 
ATOM     36  H21 PRO d   1      11.221   4.497 -16.154  0.00  0.00     0.064 H 
ATOM     37  N   GLN d   1      13.440   2.553 -13.058  0.00  0.00    -0.346 N 
ATOM     38  CA  GLN d   1      13.674   1.914 -11.758  0.00  0.00     0.090 C 
ATOM     39  C   GLN d   1      14.097   0.453 -11.915  0.00  0.00     0.241 C 
ATOM     40  O   GLN d   1      14.767  -0.120 -11.046  0.00  0.00    -0.271 OA
ATOM     41  H22 GLN d   1      12.523   2.878 -13.287  0.00  0.00     0.163 HD
ATOM     42  H23 GLN d   1      14.477   2.459 -11.240  0.00  0.00     0.087 H 
ATOM     43  N   PHE d   1      13.698  -0.104 -13.059  0.00  0.00    -0.346 N 
ATOM     44  CA  PHE d   1      13.855  -1.497 -13.370  0.00  0.00     0.093 C 
ATOM     45  C   PHE d   1      14.946  -1.683 -14.457  0.00  0.00     0.241 C 
ATOM     46  O   PHE d   1      15.846  -2.524 -14.276  0.00  0.00    -0.271 OA
ATOM     47  H30 PHE d   1      13.263   0.484 -13.741  0.00  0.00     0.163 HD
ATOM     48  H31 PHE d   1      14.194  -2.036 -12.473  0.00  0.00     0.088 H 
ENDROOT
BRANCH  44  49
ATOM     49  CB  PHE d   1      12.390  -2.019 -13.741  0.00  0.00    -0.014 C 
ATOM     50  H32 PHE d   1      12.431  -3.097 -13.955  0.00  0.00     0.043 H 
ATOM     51  H33 PHE d   1      12.026  -1.482 -14.630  0.00  0.00     0.043 H 
BRANCH  49  52
ATOM     52  CG  PHE d   1      11.431  -1.770 -12.569  0.00  0.00    -0.056 A 
ATOM     53  CD2 PHE d   1      10.429  -0.778 -12.633  0.00  0.00    -0.077 A 
ATOM     54  CE2 PHE d   1       9.624  -0.485 -11.506  0.00  0.00    -0.082 A 
ATOM     55  H35 PHE d   1      10.274  -0.233 -13.557  0.00  0.00     0.084 H 
ATOM     56  CZ  PHE d   1       9.798  -1.167 -10.304  0.00  0.00    -0.083 A 
ATOM     57  H37 PHE d   1       8.861   0.281 -11.579  0.00  0.00     0.083 H 
ATOM     58  CE1 PHE d   1      10.785  -2.150 -10.247  0.00  0.00    -0.082 A 
ATOM     59  H38 PHE d   1       9.185  -0.940  -9.439  0.00  0.00     0.083 H 
ATOM     60  CD1 PHE d   1      11.603  -2.461 -11.362  0.00  0.00    -0.077 A 
ATOM     61  H36 PHE d   1      10.931  -2.694  -9.321  0.00  0.00     0.083 H 
ATOM     62  H34 PHE d   1      12.361  -3.232 -11.281  0.00  0.00     0.084 H 
ENDBRANCH  49  52
ENDBRANCH  44  49
BRANCH   7  63
ATOM     63  C   CYS d   1      16.482   0.178 -17.174  0.00  0.00     0.239 C 
ATOM     64  O   CYS d   1      15.787   0.943 -17.845  0.00  0.00    -0.271 OA
ATOM     65  N   NH2 d   1      17.740   0.498 -16.918  0.00  0.00    -0.368 N 
ATOM     66  H43 NH2 d   1      18.120   1.353 -17.271  0.00  0.00     0.159 HD
ATOM     67  H44 NH2 d   1      18.311  -0.115 -16.372  0.00  0.00     0.159 HD
ENDBRANCH   7  63
BRANCH  38  68
ATOM     68  CB  GLN d   1      12.407   1.979 -10.916  0.00  0.00    -0.030 C 
ATOM     69  H24 GLN d   1      11.674   1.280 -11.344  0.00  0.00     0.037 H 
ATOM     70  H25 GLN d   1      12.011   3.004 -10.969  0.00  0.00     0.037 H 
BRANCH  68  71
ATOM     71  CG  GLN d   1      12.609   1.619  -9.440  0.00  0.00     0.011 C 
ATOM     72  H26 GLN d   1      13.348   2.313  -9.012  0.00  0.00     0.047 H 
ATOM     73  H27 GLN d   1      12.996   0.591  -9.384  0.00  0.00     0.047 H 
BRANCH  71  74
ATOM     74  CD  GLN d   1      11.340   1.699  -8.610  0.00  0.00     0.215 C 
ATOM     75  OE1 GLN d   1      10.533   2.587  -8.840  0.00  0.00    -0.274 OA
ATOM     76  NE2 GLN d   1      10.999   0.854  -7.654  0.00  0.00    -0.370 N 
ATOM     77  H28 GLN d   1      10.142   0.982  -7.156  0.00  0.00     0.159 HD
ATOM     78  H29 GLN d   1      11.598   0.086  -7.428  0.00  0.00     0.159 HD
ENDBRANCH  71  74
ENDBRANCH  68  71
ENDBRANCH  38  68
BRANCH   1  79
ATOM     79  N   CYS d   1       9.313  -0.704 -19.971  0.00  0.00    -0.347 N 
ATOM     80  C   ACE d   1       8.159  -0.042 -19.859  0.00  0.00     0.214 C 
ATOM     81  O   ACE d   1       7.810   0.460 -18.790  0.00  0.00    -0.274 OA
ATOM     82  H4  CYS d   1       9.629  -1.011 -20.869  0.00  0.00     0.163 HD
BRANCH  80  83
ATOM     83  CH3 ACE d   1       7.235   0.031 -21.066  0.00  0.00    -0.003 C 
ATOM     84  H1  ACE d   1       7.712  -0.467 -21.923  0.00  0.00     0.040 H 
ATOM     85  H2  ACE d   1       7.040   1.085 -21.316  0.00  0.00     0.040 H 
ATOM     86  H3  ACE d   1       6.285  -0.472 -20.832  0.00  0.00     0.040 H 
ENDBRANCH  80  83
ENDBRANCH   1  79
BRANCH  18  87
ATOM     87  CB  HIS d   1       9.746   1.798 -15.166  0.00  0.00     0.002 C 
ATOM     88  H10 HIS d   1       9.994   0.957 -14.502  0.00  0.00     0.046 H 
ATOM     89  H11 HIS d   1       8.729   1.664 -15.563  0.00  0.00     0.046 H 
BRANCH  87  90
ATOM     90  CG  HIS d   1       9.760   3.070 -14.334  0.00  0.00     0.030 A 
ATOM     91  CD2 HIS d   1       8.903   4.120 -14.491  0.00  0.00     0.025 A 
ATOM     92  NE2 HIS d   1       9.348   4.964 -13.591  0.00  0.00    -0.254 NA
ATOM     93  H13 HIS d   1       8.069   4.229 -15.182  0.00  0.00     0.117 H 
ATOM     94  CE1 HIS d   1      10.389   4.448 -12.946  0.00  0.00     0.063 A 
ATOM     95  ND1 HIS d   1      10.688   3.240 -13.395  0.00  0.00    -0.353 N 
ATOM     96  H14 HIS d   1      10.928   4.956 -12.148  0.00  0.00     0.143 H 
ATOM     97  H12 HIS d   1      11.439   2.601 -13.097  0.00  0.00     0.166 HD
ENDBRANCH  87  90
ENDBRANCH  18  87
TORSDOF 10
