REMARK  4 active torsions:
REMARK  status: ('A' for Active; 'I' for Inactive)
REMARK    1  A    between atoms: C5_5  and  N17_11 
REMARK    2  A    between atoms: C12_9  and  C28_18 
REMARK    3  A    between atoms: N17_11  and  C18_12 
REMARK    4  A    between atoms: C28_18  and  N29_19 
ROOT
ATOM      1  C1  UI2 d   1      22.848  15.604  33.486  0.00  0.00    -0.080 A 
ATOM      2  C2  UI2 d   1      21.563  15.615  32.925  0.00  0.00    -0.072 A 
ATOM      3  C3  UI2 d   1      20.683  16.743  33.131  0.00  0.00    -0.024 A 
ATOM      4  C4  UI2 d   1      21.183  17.831  33.920  0.00  0.00     0.002 A 
ATOM      5  C5  UI2 d   1      22.484  17.860  34.472  0.00  0.00     0.060 A 
ATOM      6  C6  UI2 d   1      23.314  16.720  34.258  0.00  0.00    -0.056 A 
ATOM      7  C10 UI2 d   1      19.395  16.702  32.592  0.00  0.00    -0.071 A 
ATOM      8  C11 UI2 d   1      18.519  17.766  32.944  0.00  0.00    -0.069 A 
ATOM      9  C12 UI2 d   1      18.939  18.849  33.778  0.00  0.00     0.008 A 
ATOM     10  C13 UI2 d   1      20.251  18.926  34.232  0.00  0.00    -0.057 A 
ATOM     11  H1  UI2 d   1      23.494  14.746  33.335  0.00  0.00     0.083 H 
ATOM     12  H2  UI2 d   1      21.227  14.772  32.333  0.00  0.00     0.084 H 
ATOM     13  H3  UI2 d   1      24.310  16.696  34.684  0.00  0.00     0.087 H 
ATOM     14  H4  UI2 d   1      19.078  15.898  31.937  0.00  0.00     0.084 H 
ATOM     15  H5  UI2 d   1      17.502  17.756  32.569  0.00  0.00     0.085 H 
ATOM     16  H6  UI2 d   1      20.583  19.782  34.809  0.00  0.00     0.086 H 
ENDROOT
BRANCH   5  17
ATOM     17  N17 UI2 d   1      23.023  18.979  35.199  0.00  0.00    -0.187 N 
ATOM     18  H7  UI2 d   1      23.000  19.896  34.731  0.00  0.00     0.184 HD
BRANCH  17  19
ATOM     19  C18 UI2 d   1      23.573  18.935  36.477  0.00  0.00     0.726 A 
ATOM     20  N19 UI2 d   1      23.542  17.827  37.284  0.00  0.00    -0.075 NA
ATOM     21  C20 UI2 d   1      24.018  17.762  38.555  0.00  0.00     0.022 A 
ATOM     22  C21 UI2 d   1      24.623  18.926  39.179  0.00  0.00    -0.048 A 
ATOM     23  H8  UI2 d   1      23.946  16.833  39.109  0.00  0.00     0.115 H 
ATOM     24  C22 UI2 d   1      24.565  20.060  38.270  0.00  0.00     0.022 A 
ATOM     25  H9  UI2 d   1      25.053  18.946  40.174  0.00  0.00     0.087 H 
ATOM     26  N23 UI2 d   1      24.123  20.087  37.040  0.00  0.00    -0.075 NA
ATOM     27  H10 UI2 d   1      24.935  21.001  38.662  0.00  0.00     0.115 H 
ENDBRANCH  17  19
ENDBRANCH   5  17
BRANCH   9  28
ATOM     28  C28 UI2 d   1      18.109  19.891  34.190  0.00  0.00     0.102 C 
ATOM     29  N30 UI2 d   1      18.543  21.090  34.651  0.00  0.00    -0.385 N 
ATOM     30  H13 UI2 d   1      19.553  21.282  34.715  0.00  0.00     0.157 HD
ATOM     31  H14 UI2 d   1      17.863  21.809  34.937  0.00  0.00     0.157 HD
BRANCH  28  32
ATOM     32  N29 UI2 d   1      16.803  19.779  34.160  0.00  0.00    -0.385 N 
ATOM     33  H11 UI2 d   1      16.212  20.563  34.470  0.00  0.00     0.157 HD
ATOM     34  H12 UI2 d   1      16.368  18.907  33.827  0.00  0.00     0.157 HD
ENDBRANCH  28  32
ENDBRANCH   9  28
TORSDOF 4
