REMARK  9 active torsions:
REMARK  status: ('A' for Active; 'I' for Inactive)
REMARK    1  A    between atoms: C24_7  and  C31_9 
REMARK    2  A    between atoms: C15_12  and  O21_13 
REMARK    3  A    between atoms: C3_18  and  C10_19 
REMARK    4  A    between atoms: C2_20  and  C8_22 
REMARK    5  A    between atoms: C1_23  and  C5_24 
REMARK    6  A    between atoms: C1_23  and  O4_28 
REMARK    7  A    between atoms: C5_24  and  C12_26 
REMARK    8  A    between atoms: O4_28  and  C11_29 
REMARK    9  A    between atoms: C11_29  and  C16_31 
ROOT
ATOM      1  O35 MOF d   1      -5.129 -11.227  30.409  0.00  0.00    -0.293 OA
ATOM      2  C34 MOF d   1      -4.681 -10.347  29.700  0.00  0.00     0.149 C 
ATOM      3  C33 MOF d   1      -5.614  -9.325  29.161  0.00  0.00    -0.005 C 
ATOM      4  C32 MOF d   1      -3.283 -10.392  29.226  0.00  0.00    -0.036 C 
ATOM      5  C29 MOF d   1      -2.747  -9.511  28.295  0.00  0.00    -0.066 C 
ATOM      6  C26 MOF d   1      -1.269  -9.632  27.869  0.00  0.00    -0.043 C 
ATOM      7  C24 MOF d   1      -3.570  -8.337  27.782  0.00  0.00     0.004 C 
ATOM      8  C30 MOF d   1      -5.032  -8.343  28.208  0.00  0.00    -0.046 C 
ATOM      9  C19 MOF d   1      -3.452  -8.404  26.229  0.00  0.00     0.078 C 
ATOM     10 CL25 MOF d   1      -4.159 -10.012  25.664  0.00  0.00    -0.115 Cl
ATOM     11  C15 MOF d   1      -4.333  -7.381  25.468  0.00  0.00     0.058 C 
ATOM     12  C14 MOF d   1      -1.972  -8.370  25.753  0.00  0.00    -0.025 C 
ATOM     13  C20 MOF d   1      -1.247  -9.583  26.319  0.00  0.00    -0.056 C 
ATOM     14  C6  MOF d   1      -1.926  -8.310  24.233  0.00  0.00    -0.038 C 
ATOM     15  C9  MOF d   1      -0.610  -8.417  23.400  0.00  0.00    -0.054 C 
ATOM     16  C3  MOF d   1      -1.036  -8.081  22.022  0.00  0.00    -0.019 C 
ATOM     17  C2  MOF d   1      -2.854  -7.333  23.493  0.00  0.00     0.002 C 
ATOM     18  C7  MOF d   1      -4.328  -7.486  23.995  0.00  0.00    -0.029 C 
ATOM     19  C1  MOF d   1      -2.509  -7.658  22.024  0.00  0.00     0.143 C 
ATOM     20  H1  MOF d   1      -6.025  -8.763  30.013  0.00  0.00     0.044 H 
ATOM     21  H2  MOF d   1      -6.428  -9.853  28.643  0.00  0.00     0.044 H 
ATOM     22  H3  MOF d   1      -2.631 -11.164  29.632  0.00  0.00     0.089 H 
ATOM     23  H4  MOF d   1      -0.849 -10.585  28.224  0.00  0.00     0.039 H 
ATOM     24  H5  MOF d   1      -0.685  -8.797  28.283  0.00  0.00     0.039 H 
ATOM     25  H6  MOF d   1      -5.219  -7.353  28.648  0.00  0.00     0.035 H 
ATOM     26  H7  MOF d   1      -5.613  -8.447  27.280  0.00  0.00     0.035 H 
ATOM     27  H11 MOF d   1      -5.347  -7.705  25.744  0.00  0.00     0.086 H 
ATOM     28  H13 MOF d   1      -1.490  -7.463  26.147  0.00  0.00     0.043 H 
ATOM     29  H14 MOF d   1      -1.730 -10.492  25.932  0.00  0.00     0.034 H 
ATOM     30  H15 MOF d   1      -0.200  -9.554  25.984  0.00  0.00     0.034 H 
ATOM     31  H16 MOF d   1      -2.394  -9.280  24.012  0.00  0.00     0.042 H 
ATOM     32  H17 MOF d   1      -0.199  -9.436  23.445  0.00  0.00     0.034 H 
ATOM     33  H18 MOF d   1       0.143  -7.702  23.763  0.00  0.00     0.034 H 
ATOM     34  H19 MOF d   1      -0.532  -7.131  21.789  0.00  0.00     0.044 H 
ATOM     35  H23 MOF d   1      -4.952  -6.689  23.564  0.00  0.00     0.038 H 
ATOM     36  H24 MOF d   1      -4.724  -8.466  23.691  0.00  0.00     0.038 H 
ENDROOT
BRANCH  19  37
ATOM     37  C5  MOF d   1      -2.993  -6.650  21.102  0.00  0.00     0.176 C 
ATOM     38  O13 MOF d   1      -2.138  -6.003  20.466  0.00  0.00    -0.293 OA
BRANCH  37  39
ATOM     39  C12 MOF d   1      -4.414  -6.356  21.048  0.00  0.00     0.060 C 
ATOM     40 CL18 MOF d   1      -4.763  -5.458  19.610  0.00  0.00    -0.122 Cl
ATOM     41  H28 MOF d   1      -4.699  -5.763  21.929  0.00  0.00     0.068 H 
ATOM     42  H29 MOF d   1      -4.983  -7.297  21.040  0.00  0.00     0.068 H 
ENDBRANCH  37  39
ENDBRANCH  19  37
BRANCH  19  43
ATOM     43  O4  MOF d   1      -3.247  -8.929  21.858  0.00  0.00    -0.295 OA
BRANCH  43  44
ATOM     44  C11 MOF d   1      -3.464  -9.339  20.561  0.00  0.00     0.318 C 
ATOM     45  O17 MOF d   1      -3.235  -8.695  19.544  0.00  0.00    -0.257 OA
BRANCH  44  46
ATOM     46  C16 MOF d   1      -3.860 -10.748  20.612  0.00  0.00     0.149 A 
ATOM     47  C22 MOF d   1      -3.955 -11.415  21.738  0.00  0.00    -0.042 A 
ATOM     48  C27 MOF d   1      -4.342 -12.732  21.417  0.00  0.00    -0.059 A 
ATOM     49  H30 MOF d   1      -3.769 -11.023  22.737  0.00  0.00     0.088 H 
ATOM     50  C28 MOF d   1      -4.407 -12.795  20.021  0.00  0.00     0.020 A 
ATOM     51  H31 MOF d   1      -4.549 -13.540  22.117  0.00  0.00     0.086 H 
ATOM     52  O23 MOF d   1      -4.113 -11.551  19.479  0.00  0.00    -0.317 OA
ATOM     53  H32 MOF d   1      -4.652 -13.687  19.445  0.00  0.00     0.123 H 
ENDBRANCH  44  46
ENDBRANCH  43  44
ENDBRANCH  19  43
BRANCH  16  54
ATOM     54  C10 MOF d   1      -0.363  -9.041  21.037  0.00  0.00    -0.070 C 
ATOM     55  H20 MOF d   1       0.701  -9.145  21.295  0.00  0.00     0.028 H 
ATOM     56  H21 MOF d   1      -0.456  -8.643  20.016  0.00  0.00     0.028 H 
ATOM     57  H22 MOF d   1      -0.851 -10.025  21.093  0.00  0.00     0.028 H 
ENDBRANCH  16  54
BRANCH  17  58
ATOM     58  C8  MOF d   1      -2.376  -5.892  23.848  0.00  0.00    -0.065 C 
ATOM     59  H25 MOF d   1      -2.626  -5.670  24.896  0.00  0.00     0.028 H 
ATOM     60  H26 MOF d   1      -2.877  -5.167  23.190  0.00  0.00     0.028 H 
ATOM     61  H27 MOF d   1      -1.287  -5.822  23.709  0.00  0.00     0.028 H 
ENDBRANCH  17  58
BRANCH  11  62
ATOM     62  O21 MOF d   1      -4.313  -6.040  25.870  0.00  0.00    -0.394 OA
ATOM     63  H12 MOF d   1      -4.897  -5.536  25.316  0.00  0.00     0.210 HD
ENDBRANCH  11  62
BRANCH   7  64
ATOM     64  C31 MOF d   1      -2.975  -7.052  28.398  0.00  0.00    -0.063 C 
ATOM     65  H8  MOF d   1      -3.096  -7.079  29.491  0.00  0.00     0.029 H 
ATOM     66  H9  MOF d   1      -3.500  -6.174  27.993  0.00  0.00     0.029 H 
ATOM     67  H10 MOF d   1      -1.905  -6.987  28.149  0.00  0.00     0.029 H 
ENDBRANCH   7  64
TORSDOF 9
