REMARK  4 active torsions:
REMARK  status: ('A' for Active; 'I' for Inactive)
REMARK    1  A    between atoms: N_1  and  CA_2 
REMARK    2  A    between atoms: CA_2  and  C_3 
REMARK    3  A    between atoms: CA_2  and  CB_5 
REMARK    4  A    between atoms: CB_5  and  SG_6 
ROOT
ATOM      1  CA  CYS d   1       8.861  42.284  50.009  0.00  0.00     0.190 C 
ATOM      2  H4  CYS d   1       8.173  41.518  49.623  0.00  0.00     0.102 H 
ENDROOT
BRANCH   1   3
ATOM      3  N   CYS d   1       8.594  42.521  51.464  0.00  0.00    -0.065 N 
ATOM      4  H1  CYS d   1       7.647  42.846  51.583  0.00  0.00     0.275 HD
ATOM      5  H2  CYS d   1       9.234  43.216  51.814  0.00  0.00     0.275 HD
ATOM      6  H3  CYS d   1       8.721  41.660  51.973  0.00  0.00     0.275 HD
ENDBRANCH   1   3
BRANCH   1   7
ATOM      7  C   CYS d   1      10.322  41.788  49.872  0.00  0.00     0.205 C 
ATOM      8  O   CYS d   1      11.060  41.765  50.877  0.00  0.00    -0.646 OA
ATOM      9  OXT CYS d   1      10.715  41.465  48.725  0.00  0.00    -0.646 OA
ENDBRANCH   1   7
BRANCH   1  10
ATOM     10  CB  CYS d   1       8.654  43.603  49.217  0.00  0.00     0.010 C 
ATOM     11  H5  CYS d   1       7.591  43.879  49.279  0.00  0.00     0.052 H 
ATOM     12  H6  CYS d   1       8.924  43.420  48.167  0.00  0.00     0.052 H 
BRANCH  10  13
ATOM     13  SG  CYS d   1       9.650  45.018  49.827  0.00  0.00    -0.180 SA
ATOM     14  H7  CYS d   1      10.630  44.789  49.766  0.00  0.00     0.101 HD
ENDBRANCH  10  13
ENDBRANCH   1  10
TORSDOF 4
