REMARK  10 active torsions:
REMARK  status: ('A' for Active; 'I' for Inactive)
REMARK    1  A    between atoms: N6_6  and  C24_24 
REMARK    2  A    between atoms: C7_7  and  C8_8 
REMARK    3  A    between atoms: N9_9  and  C28_28 
REMARK    4  A    between atoms: C16_16  and  C17_17 
REMARK    5  A    between atoms: C22_22  and  C21_21 
REMARK    6  A    between atoms: C24_24  and  C35_35 
REMARK    7  A    between atoms: C25_25  and  O33_33 
REMARK    8  A    between atoms: C26_26  and  N31_31 
REMARK    9  A    between atoms: N31_31  and  C32_32 
REMARK   10  A    between atoms: O33_33  and  C34_34 
ROOT
ATOM      1  C24 STU d   1       6.261  24.255  29.976  0.00  0.00     0.168 C 
ATOM      2  C25 STU d   1       5.948  24.296  28.455  0.00  0.00     0.113 C 
ATOM      3  C26 STU d   1       5.378  25.634  27.995  0.00  0.00     0.134 C 
ATOM      4  C27 STU d   1       6.220  26.809  28.476  0.00  0.00     0.005 C 
ATOM      5  C28 STU d   1       6.603  26.722  29.955  0.00  0.00     0.115 C 
ATOM      6  O29 STU d   1       6.071  25.549  30.582  0.00  0.00    -0.333 OA
ATOM      7  H12 STU d   1       5.275  23.476  28.165  0.00  0.00     0.094 H 
ATOM      8  H13 STU d   1       4.419  25.746  28.521  0.00  0.00     0.088 H 
ATOM      9  H14 STU d   1       7.143  26.843  27.879  0.00  0.00     0.042 H 
ATOM     10  H15 STU d   1       5.647  27.735  28.319  0.00  0.00     0.042 H 
ATOM     11  H16 STU d   1       6.121  27.583  30.442  0.00  0.00     0.118 H 
ENDROOT
BRANCH   3  12
ATOM     12  N31 STU d   1       5.023  25.603  26.580  0.00  0.00    -0.072 N 
ATOM     13  H17 STU d   1       5.561  24.879  26.130  0.00  0.00     0.277 HD
ATOM     14  H18 STU d   1       5.253  26.496  26.172  0.00  0.00     0.277 HD
BRANCH  12  15
ATOM     15  C32 STU d   1       3.609  25.339  26.351  0.00  0.00     0.065 C 
ATOM     16  H19 STU d   1       3.408  25.329  25.270  0.00  0.00     0.067 H 
ATOM     17  H20 STU d   1       3.007  26.126  26.828  0.00  0.00     0.067 H 
ATOM     18  H21 STU d   1       3.344  24.363  26.782  0.00  0.00     0.067 H 
ENDBRANCH  12  15
ENDBRANCH   3  12
BRANCH   2  19
ATOM     19  O33 STU d   1       7.263  24.167  27.866  0.00  0.00    -0.384 OA
BRANCH  19  20
ATOM     20  C34 STU d   1       7.429  23.486  26.622  0.00  0.00     0.005 C 
ATOM     21  H22 STU d   1       8.492  23.492  26.340  0.00  0.00     0.066 H 
ATOM     22  H23 STU d   1       6.840  23.994  25.844  0.00  0.00     0.066 H 
ATOM     23  H24 STU d   1       7.082  22.447  26.724  0.00  0.00     0.066 H 
ENDBRANCH  19  20
ENDBRANCH   2  19
BRANCH   5  24
ATOM     24  N9  STU d   1       8.048  26.859  30.221  0.00  0.00    -0.316 N 
ATOM     25  C8  STU d   1       8.958  25.832  30.424  0.00  0.00     0.077 A 
ATOM     26  C16 STU d   1      10.279  26.356  30.488  0.00  0.00     0.022 A 
ATOM     27  C15 STU d   1      10.155  27.778  30.297  0.00  0.00     0.004 A 
ATOM     28  C10 STU d   1       8.770  28.060  30.143  0.00  0.00     0.048 A 
ATOM     29  C14 STU d   1      11.095  28.844  30.166  0.00  0.00    -0.070 A 
ATOM     30  C11 STU d   1       8.321  29.361  29.844  0.00  0.00    -0.056 A 
ATOM     31  C12 STU d   1       9.283  30.389  29.710  0.00  0.00    -0.081 A 
ATOM     32  H5  STU d   1       7.264  29.569  29.720  0.00  0.00     0.087 H 
ATOM     33  C13 STU d   1      10.647  30.126  29.875  0.00  0.00    -0.082 A 
ATOM     34  H6  STU d   1       8.958  31.396  29.476  0.00  0.00     0.083 H 
ATOM     35  H7  STU d   1      11.364  30.933  29.774  0.00  0.00     0.083 H 
ATOM     36  H8  STU d   1      12.155  28.654  30.293  0.00  0.00     0.084 H 
BRANCH  25  37
ATOM     37  C7  STU d   1       8.739  24.423  30.515  0.00  0.00     0.077 A 
ATOM     38  N6  STU d   1       7.583  23.668  30.355  0.00  0.00    -0.308 N 
ATOM     39  C5  STU d   1       7.938  22.300  30.441  0.00  0.00     0.049 A 
ATOM     40  C4  STU d   1       7.189  21.100  30.270  0.00  0.00    -0.056 A 
ATOM     41  C23 STU d   1       9.338  22.214  30.664  0.00  0.00     0.004 A 
ATOM     42  C3  STU d   1       7.853  19.876  30.290  0.00  0.00    -0.081 A 
ATOM     43  H4  STU d   1       6.115  21.139  30.126  0.00  0.00     0.087 H 
ATOM     44  C2  STU d   1       9.237  19.805  30.502  0.00  0.00    -0.082 A 
ATOM     45  H3  STU d   1       7.290  18.962  30.139  0.00  0.00     0.083 H 
ATOM     46  C1  STU d   1       9.988  20.953  30.691  0.00  0.00    -0.070 A 
ATOM     47  H2  STU d   1       9.726  18.838  30.518  0.00  0.00     0.083 H 
ATOM     48  H1  STU d   1      11.057  20.889  30.857  0.00  0.00     0.084 H 
ATOM     49  C22 STU d   1       9.849  23.551  30.682  0.00  0.00     0.015 A 
BRANCH  49  50
ATOM     50  C21 STU d   1      11.161  24.081  30.736  0.00  0.00    -0.010 A 
ATOM     51  C17 STU d   1      11.382  25.444  30.618  0.00  0.00     0.054 A 
ATOM     52  C18 STU d   1      12.832  25.666  30.838  0.00  0.00     0.253 A 
ATOM     53  O30 STU d   1      13.445  26.705  30.861  0.00  0.00    -0.268 OA
ATOM     54  N19 STU d   1      13.376  24.478  31.108  0.00  0.00    -0.353 N 
ATOM     55  C20 STU d   1      12.449  23.372  31.080  0.00  0.00     0.021 A 
ATOM     56  H9  STU d   1      14.348  24.363  31.313  0.00  0.00     0.163 HD
ATOM     57  H10 STU d   1      12.386  22.873  32.058  0.00  0.00     0.071 H 
ATOM     58  H11 STU d   1      12.722  22.636  30.310  0.00  0.00     0.071 H 
ENDBRANCH  49  50
ENDBRANCH  25  37
ENDBRANCH   5  24
BRANCH   1  59
ATOM     59  C35 STU d   1       5.095  23.536  30.664  0.00  0.00    -0.028 C 
ATOM     60  H25 STU d   1       4.146  24.000  30.357  0.00  0.00     0.034 H 
ATOM     61  H26 STU d   1       5.207  23.617  31.755  0.00  0.00     0.034 H 
ATOM     62  H27 STU d   1       5.096  22.475  30.373  0.00  0.00     0.034 H 
ENDBRANCH   1  59
TORSDOF 10
