REMARK  24 active torsions:
REMARK  status: ('A' for Active; 'I' for Inactive)
REMARK    1  A    between atoms: C_1  and  CH3_3 
REMARK       I    between atoms: N_4  and  C_1 
REMARK    2  A    between atoms: CA_5  and  N_4 
REMARK    3  A    between atoms: C_6  and  CA_5 
REMARK    4  A    between atoms: CA_5  and  CB_8 
REMARK       I    between atoms: N_10  and  C_6 
REMARK    5  A    between atoms: CB_8  and  SG_9 
REMARK    6  A    between atoms: CA_11  and  N_10 
REMARK    7  A    between atoms: C_12  and  CA_11 
REMARK    8  A    between atoms: CA_11  and  CB_14 
REMARK       I    between atoms: N_20  and  C_12 
REMARK    9  A    between atoms: CB_14  and  CG_15 
REMARK   10  A    between atoms: C_22  and  CA_21 
REMARK       I    between atoms: N_27  and  C_22 
REMARK   11  A    between atoms: CA_28  and  N_27 
REMARK   12  A    between atoms: C_29  and  CA_28 
REMARK   13  A    between atoms: CA_28  and  CB_31 
REMARK       I    between atoms: N_36  and  C_29 
REMARK   14  A    between atoms: CB_31  and  CG_32 
REMARK   15  A    between atoms: CG_32  and  CD_33 
REMARK       I    between atoms: CD_33  and  NE2_35 
REMARK   16  A    between atoms: CA_37  and  N_36 
REMARK   17  A    between atoms: C_38  and  CA_37 
REMARK   18  A    between atoms: CA_37  and  CB_40 
REMARK       I    between atoms: N_44  and  C_38 
REMARK   19  A    between atoms: CB_40  and  CG_41 
REMARK       I    between atoms: CG_41  and  ND2_43 
REMARK   20  A    between atoms: N_44  and  CA_45 
REMARK   21  A    between atoms: CA_45  and  C_46 
REMARK   22  A    between atoms: CA_45  and  CB_48 
REMARK       I    between atoms: C_46  and  N_51 
REMARK   23  A    between atoms: CB_48  and  OG1_49 
REMARK   24  A    between atoms: CB_48  and  CG2_50 
ROOT
ATOM      1  C   PRO d   1      18.370   5.683  17.374  0.00  0.00     0.241 C 
ATOM      2  O   PRO d   1      17.262   6.199  17.339  0.00  0.00    -0.271 OA
ATOM      3  N   GLN d   1      18.982   5.242  16.265  0.00  0.00    -0.346 N 
ATOM      4  H23 GLN d   1      19.862   4.775  16.355  0.00  0.00     0.163 HD
ENDROOT
BRANCH   1   5
ATOM      5  CA  PRO d   1      19.080   5.531  18.702  0.00  0.00     0.091 C 
ATOM      6  N   PRO d   1      20.062   4.466  18.768  0.00  0.00    -0.337 N 
ATOM      7  CD  PRO d   1      21.399   5.027  19.027  0.00  0.00    -0.001 C 
ATOM      8  C   HIS d   1      19.731   3.157  18.615  0.00  0.00     0.243 C 
ATOM      9  CG  PRO d   1      21.128   6.343  19.649  0.00  0.00    -0.048 C 
ATOM     10  H21 PRO d   1      21.967   4.381  19.713  0.00  0.00     0.064 H 
ATOM     11  H22 PRO d   1      21.960   5.147  18.088  0.00  0.00     0.064 H 
ATOM     12  CB  PRO d   1      19.847   6.774  19.054  0.00  0.00    -0.036 C 
ATOM     13  H19 PRO d   1      21.037   6.246  20.741  0.00  0.00     0.035 H 
ATOM     14  H20 PRO d   1      21.928   7.059  19.410  0.00  0.00     0.035 H 
ATOM     15  H17 PRO d   1      19.278   7.375  19.779  0.00  0.00     0.036 H 
ATOM     16  H18 PRO d   1      20.034   7.371  18.149  0.00  0.00     0.036 H 
ATOM     17  O   HIS d   1      18.517   2.883  18.475  0.00  0.00    -0.271 OA
ATOM     18  H16 PRO d   1      18.310   5.346  19.466  0.00  0.00     0.087 H 
BRANCH   8  19
ATOM     19  CA  HIS d   1      20.768   2.006  18.724  0.00  0.00     0.094 C 
ATOM     20  H10 HIS d   1      21.660   2.274  19.308  0.00  0.00     0.088 H 
BRANCH  19  21
ATOM     21  CB  HIS d   1      21.208   1.472  17.332  0.00  0.00     0.002 C 
ATOM     22  H11 HIS d   1      20.322   1.256  16.718  0.00  0.00     0.046 H 
ATOM     23  H12 HIS d   1      21.802   0.554  17.455  0.00  0.00     0.046 H 
BRANCH  21  24
ATOM     24  CG  HIS d   1      22.063   2.563  16.653  0.00  0.00     0.030 A 
ATOM     25  CD2 HIS d   1      23.414   2.735  16.809  0.00  0.00     0.025 A 
ATOM     26  NE2 HIS d   1      23.617   3.927  16.318  0.00  0.00    -0.254 NA
ATOM     27  H14 HIS d   1      24.140   2.046  17.238  0.00  0.00     0.117 H 
ATOM     28  CE1 HIS d   1      22.494   4.455  15.884  0.00  0.00     0.063 A 
ATOM     29  ND1 HIS d   1      21.495   3.617  16.074  0.00  0.00    -0.353 N 
ATOM     30  H15 HIS d   1      22.403   5.442  15.433  0.00  0.00     0.143 H 
ATOM     31  H13 HIS d   1      20.503   3.748  15.830  0.00  0.00     0.166 HD
ENDBRANCH  21  24
ENDBRANCH  19  21
BRANCH  19  32
ATOM     32  N   HIS d   1      19.868   1.149  19.441  0.00  0.00    -0.346 N 
ATOM     33  C   CYS d   1      20.241   0.424  20.465  0.00  0.00     0.241 C 
ATOM     34  O   CYS d   1      21.425   0.181  20.753  0.00  0.00    -0.271 OA
ATOM     35  H9  HIS d   1      18.914   1.104  19.145  0.00  0.00     0.163 HD
BRANCH  33  36
ATOM     36  CA  CYS d   1      18.984  -0.216  21.057  0.00  0.00     0.097 C 
ATOM     37  H5  CYS d   1      18.133   0.160  20.470  0.00  0.00     0.088 H 
BRANCH  36  38
ATOM     38  CB  CYS d   1      18.888   0.365  22.451  0.00  0.00     0.001 C 
ATOM     39  H6  CYS d   1      17.946   0.080  22.943  0.00  0.00     0.052 H 
ATOM     40  H7  CYS d   1      18.977   1.461  22.438  0.00  0.00     0.052 H 
BRANCH  38  41
ATOM     41  SG  CYS d   1      20.307  -0.402  23.249  0.00  0.00    -0.180 SA
ATOM     42  H8  CYS d   1      21.149  -0.138  22.761  0.00  0.00     0.101 HD
ENDBRANCH  38  41
ENDBRANCH  36  38
BRANCH  36  43
ATOM     43  N   CYS d   1      18.840  -1.664  21.051  0.00  0.00    -0.347 N 
ATOM     44  C   ACE d   1      17.677  -2.220  21.398  0.00  0.00     0.214 C 
ATOM     45  O   ACE d   1      16.706  -1.532  21.733  0.00  0.00    -0.274 OA
ATOM     46  H4  CYS d   1      19.612  -2.242  20.787  0.00  0.00     0.163 HD
BRANCH  44  47
ATOM     47  CH3 ACE d   1      17.543  -3.736  21.321  0.00  0.00    -0.003 C 
ATOM     48  H1  ACE d   1      18.503  -4.173  21.009  0.00  0.00     0.040 H 
ATOM     49  H2  ACE d   1      16.765  -3.999  20.589  0.00  0.00     0.040 H 
ATOM     50  H3  ACE d   1      17.265  -4.130  22.310  0.00  0.00     0.040 H 
ENDBRANCH  44  47
ENDBRANCH  36  43
ENDBRANCH  33  36
ENDBRANCH  19  32
ENDBRANCH   8  19
ENDBRANCH   1   5
BRANCH   3  51
ATOM     51  CA  GLN d   1      18.418   5.415  14.938  0.00  0.00     0.090 C 
ATOM     52  H24 GLN d   1      18.398   6.498  14.746  0.00  0.00     0.087 H 
BRANCH  51  53
ATOM     53  C   GLN d   1      17.013   4.910  14.731  0.00  0.00     0.241 C 
ATOM     54  O   GLN d   1      16.254   5.584  14.035  0.00  0.00    -0.271 OA
ATOM     55  N   ASN d   1      16.609   3.752  15.206  0.00  0.00    -0.346 N 
ATOM     56  H31 ASN d   1      17.222   3.147  15.715  0.00  0.00     0.163 HD
BRANCH  55  57
ATOM     57  CA  ASN d   1      15.246   3.406  14.954  0.00  0.00     0.097 C 
ATOM     58  H32 ASN d   1      14.643   4.310  14.781  0.00  0.00     0.088 H 
BRANCH  57  59
ATOM     59  C   ASN d   1      14.834   2.729  16.197  0.00  0.00     0.241 C 
ATOM     60  O   ASN d   1      15.621   2.007  16.817  0.00  0.00    -0.271 OA
ATOM     61  N   THR d   1      13.590   3.118  16.482  0.00  0.00    -0.344 N 
ATOM     62  H37 THR d   1      13.185   3.760  15.831  0.00  0.00     0.163 HD
BRANCH  61  63
ATOM     63  CA  THR d   1      12.731   2.745  17.606  0.00  0.00     0.113 C 
ATOM     64  H38 THR d   1      11.966   3.527  17.715  0.00  0.00     0.091 H 
BRANCH  63  65
ATOM     65  C   THR d   1      13.453   2.673  18.951  0.00  0.00     0.240 C 
ATOM     66  O   THR d   1      14.268   3.553  19.258  0.00  0.00    -0.271 OA
ATOM     67  N   NH2 d   1      13.214   1.698  19.824  0.00  0.00    -0.368 N 
ATOM     68  H44 NH2 d   1      13.702   1.677  20.697  0.00  0.00     0.159 HD
ATOM     69  H45 NH2 d   1      12.546   0.986  19.608  0.00  0.00     0.159 HD
ENDBRANCH  63  65
BRANCH  63  70
ATOM     70  CB  THR d   1      11.982   1.394  17.165  0.00  0.00     0.060 C 
ATOM     71  H39 THR d   1      11.569   1.542  16.156  0.00  0.00     0.086 H 
BRANCH  70  72
ATOM     72  OG1 THR d   1      10.901   1.227  18.092  0.00  0.00    -0.393 OA
ATOM     73  H40 THR d   1      10.420   0.437  17.877  0.00  0.00     0.210 HD
ENDBRANCH  70  72
BRANCH  70  74
ATOM     74  CG2 THR d   1      12.882   0.132  17.111  0.00  0.00    -0.050 C 
ATOM     75  H41 THR d   1      12.280  -0.735  16.801  0.00  0.00     0.031 H 
ATOM     76  H42 THR d   1      13.310  -0.056  18.107  0.00  0.00     0.031 H 
ATOM     77  H43 THR d   1      13.695   0.292  16.387  0.00  0.00     0.031 H 
ENDBRANCH  70  74
ENDBRANCH  63  70
ENDBRANCH  61  63
ENDBRANCH  57  59
BRANCH  57  78
ATOM     78  CB  ASN d   1      15.101   2.478  13.764  0.00  0.00     0.036 C 
ATOM     79  H33 ASN d   1      14.164   1.912  13.869  0.00  0.00     0.051 H 
ATOM     80  H34 ASN d   1      15.951   1.780  13.754  0.00  0.00     0.051 H 
BRANCH  78  81
ATOM     81  CG  ASN d   1      15.071   3.240  12.432  0.00  0.00     0.217 C 
ATOM     82  OD1 ASN d   1      14.144   3.980  12.070  0.00  0.00    -0.274 OA
ATOM     83  ND2 ASN d   1      16.097   3.028  11.625  0.00  0.00    -0.370 N 
ATOM     84  H35 ASN d   1      16.142   3.492  10.741  0.00  0.00     0.159 HD
ATOM     85  H36 ASN d   1      16.828   2.403  11.899  0.00  0.00     0.159 HD
ENDBRANCH  78  81
ENDBRANCH  57  78
ENDBRANCH  55  57
ENDBRANCH  51  53
BRANCH  51  86
ATOM     86  CB  GLN d   1      19.316   4.770  13.903  0.00  0.00    -0.030 C 
ATOM     87  H25 GLN d   1      19.222   3.676  13.967  0.00  0.00     0.037 H 
ATOM     88  H26 GLN d   1      20.360   5.060  14.092  0.00  0.00     0.037 H 
BRANCH  86  89
ATOM     89  CG  GLN d   1      18.900   5.239  12.494  0.00  0.00     0.011 C 
ATOM     90  H27 GLN d   1      18.781   6.332  12.508  0.00  0.00     0.047 H 
ATOM     91  H28 GLN d   1      17.939   4.769  12.236  0.00  0.00     0.047 H 
BRANCH  89  92
ATOM     92  CD  GLN d   1      19.908   4.880  11.439  0.00  0.00     0.215 C 
ATOM     93  OE1 GLN d   1      21.101   5.102  11.667  0.00  0.00    -0.274 OA
ATOM     94  NE2 GLN d   1      19.479   4.293  10.316  0.00  0.00    -0.370 N 
ATOM     95  H29 GLN d   1      20.132   4.045   9.600  0.00  0.00     0.159 HD
ATOM     96  H30 GLN d   1      18.505   4.102  10.192  0.00  0.00     0.159 HD
ENDBRANCH  89  92
ENDBRANCH  86  89
ENDBRANCH  51  86
ENDBRANCH   3  51
TORSDOF 24
