REMARK  3 active torsions:
REMARK  status: ('A' for Active; 'I' for Inactive)
REMARK    1  A    between atoms: C8_1  and  O3_2 
REMARK    2  A    between atoms: O3_2  and  C5_3 
REMARK    3  A    between atoms: C2_6  and  C1_9 
ROOT
ATOM      1  C5  ANN d   1      47.580  30.934   5.684  0.00  0.00     0.068 A 
ATOM      2  C6  ANN d   1      47.625  30.541   4.351  0.00  0.00    -0.050 A 
ATOM      3  C7  ANN d   1      48.657  30.956   3.514  0.00  0.00    -0.064 A 
ATOM      4  C2  ANN d   1      49.667  31.775   4.007  0.00  0.00     0.041 A 
ATOM      5  C3  ANN d   1      49.625  32.176   5.334  0.00  0.00    -0.064 A 
ATOM      6  C4  ANN d   1      48.594  31.757   6.174  0.00  0.00    -0.050 A 
ATOM      7  H4  ANN d   1      46.844  29.901   3.957  0.00  0.00     0.087 H 
ATOM      8  H5  ANN d   1      48.673  30.640   2.477  0.00  0.00     0.085 H 
ATOM      9  H6  ANN d   1      50.403  32.823   5.723  0.00  0.00     0.085 H 
ATOM     10  H7  ANN d   1      48.580  32.072   7.211  0.00  0.00     0.087 H 
ENDROOT
BRANCH   1  11
ATOM     11  O3  ANN d   1      46.535  30.499   6.475  0.00  0.00    -0.356 OA
BRANCH  11  12
ATOM     12  C8  ANN d   1      46.420  30.786   7.874  0.00  0.00     0.010 C 
ATOM     13  H1  ANN d   1      45.501  30.327   8.268  0.00  0.00     0.066 H 
ATOM     14  H2  ANN d   1      46.378  31.875   8.023  0.00  0.00     0.066 H 
ATOM     15  H3  ANN d   1      47.292  30.376   8.405  0.00  0.00     0.066 H 
ENDBRANCH  11  12
ENDBRANCH   1  11
BRANCH   4  16
ATOM     16  C1  ANN d   1      50.794  32.231   3.122  0.00  0.00     0.209 C 
ATOM     17  O1  ANN d   1      51.691  32.954   3.540  0.00  0.00    -0.644 OA
ATOM     18  O2  ANN d   1      50.817  31.834   1.863  0.00  0.00    -0.644 OA
ENDBRANCH   4  16
TORSDOF 3
