REMARK  5 active torsions:
REMARK  status: ('A' for Active; 'I' for Inactive)
REMARK    1  A    between atoms: N_1  and  CA_2 
REMARK    2  A    between atoms: N_1  and  C1_6 
REMARK    3  A    between atoms: N_1  and  C2_7 
REMARK    4  A    between atoms: N_1  and  C3_8 
REMARK    5  A    between atoms: CA_2  and  C_3 
ROOT
ATOM      1  N   BET d   1      14.456  19.263  12.709  0.00  0.00    -0.069 N 
ENDROOT
BRANCH   1   2
ATOM      2  CA  BET d   1      15.386  18.819  11.639  0.00  0.00     0.162 C 
ATOM      3  H1  BET d   1      16.381  19.245  11.838  0.00  0.00     0.093 H 
ATOM      4  H2  BET d   1      15.014  19.191  10.673  0.00  0.00     0.093 H 
BRANCH   2   5
ATOM      5  C   BET d   1      15.512  17.295  11.562  0.00  0.00     0.199 C 
ATOM      6  O1  BET d   1      16.383  16.774  12.195  0.00  0.00    -0.647 OA
ATOM      7  O2  BET d   1      14.710  16.532  10.841  0.00  0.00    -0.647 OA
ENDBRANCH   2   5
ENDBRANCH   1   2
BRANCH   1   8
ATOM      8  C1  BET d   1      13.097  18.800  12.406  0.00  0.00     0.068 C 
ATOM      9  H3  BET d   1      12.412  19.131  13.200  0.00  0.00     0.068 H 
ATOM     10  H4  BET d   1      13.088  17.702  12.348  0.00  0.00     0.068 H 
ATOM     11  H5  BET d   1      12.772  19.221  11.443  0.00  0.00     0.068 H 
ENDBRANCH   1   8
BRANCH   1  12
ATOM     12  C2  BET d   1      14.907  18.780  14.019  0.00  0.00     0.068 C 
ATOM     13  H6  BET d   1      15.926  19.145  14.213  0.00  0.00     0.068 H 
ATOM     14  H7  BET d   1      14.904  17.680  14.025  0.00  0.00     0.068 H 
ATOM     15  H8  BET d   1      14.229  19.153  14.801  0.00  0.00     0.068 H 
ENDBRANCH   1  12
BRANCH   1  16
ATOM     16  C3  BET d   1      14.435  20.740  12.736  0.00  0.00     0.068 C 
ATOM     17  H9  BET d   1      14.099  21.120  11.760  0.00  0.00     0.068 H 
ATOM     18  H10 BET d   1      15.446  21.117  12.947  0.00  0.00     0.068 H 
ATOM     19  H11 BET d   1      13.744  21.083  13.521  0.00  0.00     0.068 H 
ENDBRANCH   1  16
TORSDOF 5
