REMARK  5 active torsions:
REMARK  status: ('A' for Active; 'I' for Inactive)
REMARK    1  A    between atoms: C11_1  and  C10_4 
REMARK    2  A    between atoms: C10_4  and  C9_5 
REMARK    3  A    between atoms: C9_5  and  C8_6 
REMARK    4  A    between atoms: C8_6  and  C7_7 
REMARK    5  A    between atoms: C7_7  and  C2_8 
ROOT
ATOM      1  C2  BTN d   1      11.495  20.479  18.797  0.00  0.00     0.012 C 
ATOM      2  S1  BTN d   1      11.038  20.558  20.583  0.00  0.00    -0.160 SA
ATOM      3  C6  BTN d   1      11.472  22.332  20.586  0.00  0.00    -0.002 C 
ATOM      4  C5  BTN d   1      10.939  22.904  19.294  0.00  0.00     0.042 A 
ATOM      5  N1  BTN d   1       9.541  23.311  19.331  0.00  0.00    -0.336 N 
ATOM      6  C3  BTN d   1       8.777  22.591  18.506  0.00  0.00     0.316 A 
ATOM      7  O3  BTN d   1       7.546  22.702  18.298  0.00  0.00    -0.247 OA
ATOM      8  N2  BTN d   1       9.572  21.711  17.852  0.00  0.00    -0.335 N 
ATOM      9  C4  BTN d   1      10.955  21.770  18.232  0.00  0.00     0.046 A 
ATOM     10  H9  BTN d   1      12.591  20.538  18.728  0.00  0.00     0.059 H 
ATOM     11  H10 BTN d   1      12.564  22.456  20.635  0.00  0.00     0.052 H 
ATOM     12  H11 BTN d   1      11.006  22.836  21.446  0.00  0.00     0.052 H 
ATOM     13  H12 BTN d   1      11.569  23.752  18.988  0.00  0.00     0.077 H 
ATOM     14  H13 BTN d   1       9.192  24.048  19.910  0.00  0.00     0.164 HD
ATOM     15  H14 BTN d   1       9.225  21.074  17.163  0.00  0.00     0.164 HD
ATOM     16  H15 BTN d   1      11.575  22.054  17.369  0.00  0.00     0.077 H 
ENDROOT
BRANCH   1  17
ATOM     17  C7  BTN d   1      11.133  19.159  18.118  0.00  0.00    -0.051 C 
ATOM     18  H7  BTN d   1      10.053  18.994  18.241  0.00  0.00     0.034 H 
ATOM     19  H8  BTN d   1      11.371  19.246  17.047  0.00  0.00     0.034 H 
BRANCH  17  20
ATOM     20  C8  BTN d   1      11.876  17.930  18.678  0.00  0.00    -0.063 C 
ATOM     21  H5  BTN d   1      12.955  18.118  18.577  0.00  0.00     0.033 H 
ATOM     22  H6  BTN d   1      11.617  17.841  19.743  0.00  0.00     0.033 H 
BRANCH  20  23
ATOM     23  C9  BTN d   1      11.578  16.594  18.018  0.00  0.00    -0.056 C 
ATOM     24  H3  BTN d   1      10.507  16.363  18.121  0.00  0.00     0.033 H 
ATOM     25  H4  BTN d   1      11.842  16.643  16.951  0.00  0.00     0.033 H 
BRANCH  23  26
ATOM     26  C10 BTN d   1      12.411  15.494  18.705  0.00  0.00     0.016 C 
ATOM     27  H1  BTN d   1      12.396  15.668  19.791  0.00  0.00     0.049 H 
ATOM     28  H2  BTN d   1      11.955  14.518  18.484  0.00  0.00     0.049 H 
BRANCH  26  29
ATOM     29  C11 BTN d   1      13.823  15.472  18.248  0.00  0.00     0.172 C 
ATOM     30  O12 BTN d   1      14.754  15.009  18.972  0.00  0.00    -0.648 OA
ATOM     31  O11 BTN d   1      14.045  15.921  17.092  0.00  0.00    -0.648 OA
ENDBRANCH  26  29
ENDBRANCH  23  26
ENDBRANCH  20  23
ENDBRANCH  17  20
ENDBRANCH   1  17
TORSDOF 5
