REMARK  5 active torsions:
REMARK  status: ('A' for Active; 'I' for Inactive)
REMARK    1  A    between atoms: C11_1  and  C10_4 
REMARK    2  A    between atoms: C10_4  and  C9_5 
REMARK    3  A    between atoms: C9_5  and  C8_6 
REMARK    4  A    between atoms: C8_6  and  C7_7 
REMARK    5  A    between atoms: C7_7  and  C2_8 
ROOT
ATOM      1  C2  BTN d   1      11.952 -12.988  23.208  0.00  0.00     0.012 C 
ATOM      2  S1  BTN d   1      13.115 -14.110  22.348  0.00  0.00    -0.160 SA
ATOM      3  C6  BTN d   1      13.750 -12.712  21.385  0.00  0.00    -0.002 C 
ATOM      4  C5  BTN d   1      13.811 -11.520  22.322  0.00  0.00     0.042 A 
ATOM      5  N1  BTN d   1      15.056 -11.448  23.056  0.00  0.00    -0.336 N 
ATOM      6  C3  BTN d   1      14.865 -11.573  24.375  0.00  0.00     0.316 A 
ATOM      7  O3  BTN d   1      15.748 -11.518  25.252  0.00  0.00    -0.247 OA
ATOM      8  N2  BTN d   1      13.553 -11.738  24.630  0.00  0.00    -0.335 N 
ATOM      9  C4  BTN d   1      12.747 -11.721  23.434  0.00  0.00     0.046 A 
ATOM     10  H9  BTN d   1      11.185 -12.716  22.468  0.00  0.00     0.059 H 
ATOM     11  H10 BTN d   1      13.076 -12.496  20.543  0.00  0.00     0.052 H 
ATOM     12  H11 BTN d   1      14.755 -12.943  21.001  0.00  0.00     0.052 H 
ATOM     13  H12 BTN d   1      13.638 -10.592  21.757  0.00  0.00     0.077 H 
ATOM     14  H13 BTN d   1      15.951 -11.320  22.629  0.00  0.00     0.164 HD
ATOM     15  H14 BTN d   1      13.178 -11.859  25.549  0.00  0.00     0.164 HD
ATOM     16  H15 BTN d   1      12.047 -10.873  23.461  0.00  0.00     0.077 H 
ENDROOT
BRANCH   1  17
ATOM     17  C7  BTN d   1      11.145 -13.611  24.320  0.00  0.00    -0.051 C 
ATOM     18  H7  BTN d   1      11.843 -13.908  25.117  0.00  0.00     0.034 H 
ATOM     19  H8  BTN d   1      10.454 -12.846  24.704  0.00  0.00     0.034 H 
BRANCH  17  20
ATOM     20  C8  BTN d   1      10.304 -14.862  23.933  0.00  0.00    -0.063 C 
ATOM     21  H5  BTN d   1       9.552 -14.560  23.189  0.00  0.00     0.033 H 
ATOM     22  H6  BTN d   1      10.977 -15.611  23.491  0.00  0.00     0.033 H 
BRANCH  20  23
ATOM     23  C9  BTN d   1       9.583 -15.499  25.119  0.00  0.00    -0.056 C 
ATOM     24  H3  BTN d   1      10.328 -15.909  25.817  0.00  0.00     0.033 H 
ATOM     25  H4  BTN d   1       8.983 -14.733  25.631  0.00  0.00     0.033 H 
BRANCH  23  26
ATOM     26  C10 BTN d   1       8.659 -16.630  24.644  0.00  0.00     0.016 C 
ATOM     27  H1  BTN d   1       9.189 -17.231  23.890  0.00  0.00     0.049 H 
ATOM     28  H2  BTN d   1       8.401 -17.265  25.504  0.00  0.00     0.049 H 
BRANCH  26  29
ATOM     29  C11 BTN d   1       7.408 -16.099  24.045  0.00  0.00     0.172 C 
ATOM     30  O12 BTN d   1       6.764 -16.741  23.183  0.00  0.00    -0.648 OA
ATOM     31  O11 BTN d   1       7.007 -14.983  24.447  0.00  0.00    -0.648 OA
ENDBRANCH  26  29
ENDBRANCH  23  26
ENDBRANCH  20  23
ENDBRANCH  17  20
ENDBRANCH   1  17
TORSDOF 5
