REMARK  8 active torsions:
REMARK  status: ('A' for Active; 'I' for Inactive)
REMARK    1  A    between atoms: C9_6  and  P1_2 
REMARK    2  A    between atoms: C10_8  and  C9_6 
REMARK    3  A    between atoms: C9_6  and  C4_24 
REMARK    4  A    between atoms: C11_16  and  C10_8 
REMARK    5  A    between atoms: C19_20  and  C12_17 
REMARK       I    between atoms: N1_31  and  C19_20 
REMARK    6  A    between atoms: N1_31  and  C20_32 
REMARK    7  A    between atoms: C21_37  and  N1_31 
REMARK       I    between atoms: C26_39  and  N2_34 
REMARK    8  A    between atoms: C27_42  and  C26_39 
ROOT
ATOM      1  C17 OHH d   1       2.364  40.176  21.008  0.00  0.00    -0.072 A 
ATOM      2  C16 OHH d   1       3.820  40.185  21.124  0.00  0.00    -0.082 A 
ATOM      3  C15 OHH d   1       4.496  39.812  22.401  0.00  0.00    -0.082 A 
ATOM      4  C14 OHH d   1       3.735  39.429  23.577  0.00  0.00    -0.072 A 
ATOM      5  C4B OHH d   1       2.256  39.404  23.515  0.00  0.00    -0.025 A 
ATOM      6  C8B OHH d   1       1.537  39.792  22.173  0.00  0.00    -0.025 A 
ATOM      7  C18 OHH d   1       0.090  39.769  22.124  0.00  0.00    -0.058 A 
ATOM      8  C11 OHH d   1      -0.750  39.400  23.290  0.00  0.00     0.028 A 
ATOM      9  C12 OHH d   1       0.022  39.020  24.609  0.00  0.00     0.046 A 
ATOM     10  C13 OHH d   1       1.449  39.036  24.664  0.00  0.00    -0.056 A 
ATOM     11  H2  OHH d   1       1.891  40.450  20.072  0.00  0.00     0.084 H 
ATOM     12  H3  OHH d   1       4.420  40.468  20.267  0.00  0.00     0.083 H 
ATOM     13  H4  OHH d   1       5.579  39.827  22.452  0.00  0.00     0.083 H 
ATOM     14  H5  OHH d   1       4.247  39.163  24.495  0.00  0.00     0.084 H 
ATOM     15  H6  OHH d   1      -0.401  40.033  21.194  0.00  0.00     0.086 H 
ATOM     16  H7  OHH d   1       1.943  38.766  25.590  0.00  0.00     0.086 H 
ENDROOT
BRANCH   9  17
ATOM     17  C19 OHH d   1      -0.696  38.602  25.918  0.00  0.00     0.254 C 
ATOM     18  O5  OHH d   1      -0.776  39.455  26.787  0.00  0.00    -0.267 OA
ATOM     19  N1  OHH d   1      -1.221  37.242  26.007  0.00  0.00    -0.347 N 
BRANCH  19  20
ATOM     20  C20 OHH d   1      -1.919  36.900  27.300  0.00  0.00    -0.015 C 
ATOM     21  H15 OHH d   1      -1.898  37.772  27.970  0.00  0.00     0.056 H 
ATOM     22  H16 OHH d   1      -1.405  36.056  27.782  0.00  0.00     0.056 H 
ATOM     23  H17 OHH d   1      -2.963  36.623  27.091  0.00  0.00     0.056 H 
ENDBRANCH  19  20
BRANCH  19  24
ATOM     24  C21 OHH d   1      -1.110  36.231  24.927  0.00  0.00     0.017 C 
ATOM     25  C22 OHH d   1      -2.479  35.960  24.250  0.00  0.00    -0.031 C 
ATOM     26  C23 OHH d   1      -2.230  34.957  23.119  0.00  0.00    -0.000 C 
ATOM     27  H22 OHH d   1      -3.184  35.538  24.981  0.00  0.00     0.038 H 
ATOM     28  H23 OHH d   1      -2.890  36.895  23.842  0.00  0.00     0.038 H 
ATOM     29  N2  OHH d   1      -1.675  33.669  23.610  0.00  0.00    -0.348 N 
ATOM     30  H20 OHH d   1      -3.184  34.758  22.608  0.00  0.00     0.064 H 
ATOM     31  H21 OHH d   1      -1.518  35.399  22.407  0.00  0.00     0.064 H 
ATOM     32  C24 OHH d   1      -0.307  33.818  24.273  0.00  0.00    -0.000 C 
ATOM     33  C26 OHH d   1      -2.291  32.356  23.511  0.00  0.00     0.253 C 
ATOM     34  C25 OHH d   1      -0.405  34.871  25.430  0.00  0.00    -0.031 C 
ATOM     35  H18 OHH d   1       0.427  34.158  23.528  0.00  0.00     0.064 H 
ATOM     36  H19 OHH d   1       0.010  32.848  24.684  0.00  0.00     0.064 H 
ATOM     37  H25 OHH d   1       0.608  35.104  25.789  0.00  0.00     0.038 H 
ATOM     38  H26 OHH d   1      -0.996  34.444  26.253  0.00  0.00     0.038 H 
ATOM     39  O6  OHH d   1      -1.764  31.335  23.932  0.00  0.00    -0.267 OA
ATOM     40  H24 OHH d   1      -0.453  36.661  24.156  0.00  0.00     0.072 H 
BRANCH  33  41
ATOM     41  C27 OHH d   1      -3.694  32.236  22.838  0.00  0.00     0.033 A 
ATOM     42  C28 OHH d   1      -3.867  31.449  21.561  0.00  0.00    -0.067 A 
ATOM     43  C29 OHH d   1      -5.145  31.317  20.901  0.00  0.00    -0.071 A 
ATOM     44  H28 OHH d   1      -3.001  30.966  21.124  0.00  0.00     0.085 H 
ATOM     45  C4C OHH d   1      -6.357  31.962  21.462  0.00  0.00    -0.026 A 
ATOM     46  H27 OHH d   1      -5.219  30.741  19.986  0.00  0.00     0.084 H 
ATOM     47  C8C OHH d   1      -6.219  32.790  22.790  0.00  0.00    -0.025 A 
ATOM     48  C30 OHH d   1      -7.703  31.869  20.828  0.00  0.00    -0.072 A 
ATOM     49  C34 OHH d   1      -4.905  32.885  23.409  0.00  0.00    -0.057 A 
ATOM     50  C33 OHH d   1      -7.432  33.443  23.361  0.00  0.00    -0.072 A 
ATOM     51  H29 OHH d   1      -4.804  33.454  24.326  0.00  0.00     0.086 H 
ATOM     52  C32 OHH d   1      -8.727  33.319  22.698  0.00  0.00    -0.082 A 
ATOM     53  H33 OHH d   1      -7.351  34.016  24.278  0.00  0.00     0.084 H 
ATOM     54  C31 OHH d   1      -8.858  32.536  21.437  0.00  0.00    -0.082 A 
ATOM     55  H32 OHH d   1      -9.599  33.800  23.126  0.00  0.00     0.083 H 
ATOM     56  H31 OHH d   1      -9.828  32.458  20.960  0.00  0.00     0.083 H 
ATOM     57  H30 OHH d   1      -7.829  31.305  19.911  0.00  0.00     0.084 H 
ENDBRANCH  33  41
ENDBRANCH  19  24
ENDBRANCH   9  17
BRANCH   8  58
ATOM     58  C10 OHH d   1      -2.352  39.374  23.275  0.00  0.00     0.182 C 
ATOM     59  O4  OHH d   1      -2.956  39.116  24.272  0.00  0.00    -0.291 OA
BRANCH  58  60
ATOM     60  C9  OHH d   1      -2.932  39.521  21.855  0.00  0.00     0.143 C 
ATOM     61  H1  OHH d   1      -2.178  39.175  21.133  0.00  0.00     0.081 H 
BRANCH  60  62
ATOM     62  P1  OHH d   1      -3.313  41.169  21.441  0.00  0.00     0.276 P 
ATOM     63  O1  OHH d   1      -2.086  41.946  21.195  0.00  0.00    -0.639 OA
ATOM     64  O3  OHH d   1      -4.289  41.087  20.273  0.00  0.00    -0.639 OA
ATOM     65  O2  OHH d   1      -4.350  41.723  22.423  0.00  0.00    -0.639 OA
ENDBRANCH  60  62
BRANCH  60  66
ATOM     66  C4  OHH d   1      -4.146  38.561  21.790  0.00  0.00    -0.022 A 
ATOM     67  C3  OHH d   1      -5.453  38.728  22.462  0.00  0.00    -0.075 A 
ATOM     68  C2  OHH d   1      -6.557  37.801  22.372  0.00  0.00    -0.082 A 
ATOM     69  H10 OHH d   1      -5.593  39.615  23.069  0.00  0.00     0.084 H 
ATOM     70  C1  OHH d   1      -6.419  36.612  21.579  0.00  0.00    -0.072 A 
ATOM     71  H9  OHH d   1      -7.483  38.001  22.899  0.00  0.00     0.083 H 
ATOM     72  C8A OHH d   1      -5.174  36.310  20.853  0.00  0.00    -0.025 A 
ATOM     73  H8  OHH d   1      -7.251  35.920  21.513  0.00  0.00     0.084 H 
ATOM     74  C4A OHH d   1      -3.960  37.309  20.943  0.00  0.00    -0.018 A 
ATOM     75  C8  OHH d   1      -5.055  35.074  20.038  0.00  0.00    -0.072 A 
ATOM     76  C5  OHH d   1      -2.735  36.905  20.170  0.00  0.00    -0.072 A 
ATOM     77  C6  OHH d   1      -2.672  35.670  19.385  0.00  0.00    -0.082 A 
ATOM     78  H14 OHH d   1      -1.866  37.552  20.195  0.00  0.00     0.084 H 
ATOM     79  C7  OHH d   1      -3.845  34.760  19.326  0.00  0.00    -0.082 A 
ATOM     80  H13 OHH d   1      -1.766  35.419  18.845  0.00  0.00     0.083 H 
ATOM     81  H12 OHH d   1      -3.788  33.850  18.740  0.00  0.00     0.083 H 
ATOM     82  H11 OHH d   1      -5.897  34.394  19.978  0.00  0.00     0.084 H 
ENDBRANCH  60  66
ENDBRANCH  58  60
ENDBRANCH   8  58
TORSDOF 8
