REMARK  8 active torsions:
REMARK  status: ('A' for Active; 'I' for Inactive)
REMARK    1  A    between atoms: C9_6  and  P1_2 
REMARK    2  A    between atoms: C10_8  and  C9_6 
REMARK    3  A    between atoms: C9_6  and  C4_24 
REMARK    4  A    between atoms: C11_16  and  C10_8 
REMARK    5  A    between atoms: C19_20  and  C12_17 
REMARK       I    between atoms: N1_31  and  C19_20 
REMARK    6  A    between atoms: N1_31  and  C20_32 
REMARK    7  A    between atoms: C21_37  and  N1_31 
REMARK       I    between atoms: C26_39  and  N2_34 
REMARK    8  A    between atoms: C27_42  and  C26_39 
ROOT
ATOM      1  C17 OHH d   1      13.431  67.734   1.592  0.00  0.00    -0.072 A 
ATOM      2  C16 OHH d   1      14.061  67.707   0.284  0.00  0.00    -0.082 A 
ATOM      3  C15 OHH d   1      13.472  68.466  -0.842  0.00  0.00    -0.082 A 
ATOM      4  C14 OHH d   1      12.260  69.271  -0.721  0.00  0.00    -0.072 A 
ATOM      5  C4B OHH d   1      11.583  69.324   0.599  0.00  0.00    -0.025 A 
ATOM      6  C8B OHH d   1      12.186  68.520   1.838  0.00  0.00    -0.025 A 
ATOM      7  C18 OHH d   1      11.564  68.546   3.147  0.00  0.00    -0.058 A 
ATOM      8  C11 OHH d   1      10.335  69.349   3.338  0.00  0.00     0.028 A 
ATOM      9  C12 OHH d   1       9.721  70.135   2.173  0.00  0.00     0.046 A 
ATOM     10  C13 OHH d   1      10.365  70.099   0.826  0.00  0.00    -0.056 A 
ATOM     11  H2  OHH d   1      13.874  67.172   2.406  0.00  0.00     0.084 H 
ATOM     12  H3  OHH d   1      14.966  67.129   0.132  0.00  0.00     0.083 H 
ATOM     13  H4  OHH d   1      13.966  68.422  -1.806  0.00  0.00     0.083 H 
ATOM     14  H5  OHH d   1      11.865  69.815  -1.572  0.00  0.00     0.084 H 
ATOM     15  H6  OHH d   1      11.991  67.987   3.972  0.00  0.00     0.086 H 
ATOM     16  H7  OHH d   1       9.924  70.655   0.007  0.00  0.00     0.086 H 
ENDROOT
BRANCH   9  17
ATOM     17  C19 OHH d   1       8.442  71.044   2.176  0.00  0.00     0.254 C 
ATOM     18  O5  OHH d   1       7.407  70.506   1.745  0.00  0.00    -0.267 OA
ATOM     19  N1  OHH d   1       8.529  72.406   2.658  0.00  0.00    -0.347 N 
BRANCH  19  20
ATOM     20  C20 OHH d   1       7.310  73.294   2.665  0.00  0.00    -0.015 C 
ATOM     21  H15 OHH d   1       6.445  72.733   2.282  0.00  0.00     0.056 H 
ATOM     22  H16 OHH d   1       7.491  74.170   2.025  0.00  0.00     0.056 H 
ATOM     23  H17 OHH d   1       7.105  73.627   3.693  0.00  0.00     0.056 H 
ENDBRANCH  19  20
BRANCH  19  24
ATOM     24  C21 OHH d   1       9.978  72.841   3.135  0.00  0.00     0.017 C 
ATOM     25  C22 OHH d   1       9.793  73.666   4.493  0.00  0.00    -0.031 C 
ATOM     26  C23 OHH d   1      11.190  74.162   5.049  0.00  0.00    -0.000 C 
ATOM     27  H22 OHH d   1       9.152  74.539   4.299  0.00  0.00     0.038 H 
ATOM     28  H23 OHH d   1       9.315  73.020   5.244  0.00  0.00     0.038 H 
ATOM     29  N2  OHH d   1      11.962  74.841   3.914  0.00  0.00    -0.348 N 
ATOM     30  H20 OHH d   1      11.028  74.880   5.867  0.00  0.00     0.064 H 
ATOM     31  H21 OHH d   1      11.765  73.302   5.424  0.00  0.00     0.064 H 
ATOM     32  C24 OHH d   1      12.231  73.917   2.709  0.00  0.00    -0.000 C 
ATOM     33  C26 OHH d   1      12.440  76.178   3.961  0.00  0.00     0.253 C 
ATOM     34  C25 OHH d   1      10.845  73.600   2.086  0.00  0.00    -0.031 C 
ATOM     35  H18 OHH d   1      12.720  72.990   3.042  0.00  0.00     0.064 H 
ATOM     36  H19 OHH d   1      12.872  74.426   1.974  0.00  0.00     0.064 H 
ATOM     37  H25 OHH d   1      10.977  72.972   1.193  0.00  0.00     0.038 H 
ATOM     38  H26 OHH d   1      10.345  74.538   1.804  0.00  0.00     0.038 H 
ATOM     39  O6  OHH d   1      12.290  76.826   5.023  0.00  0.00    -0.267 OA
ATOM     40  H24 OHH d   1      10.530  71.920   3.374  0.00  0.00     0.072 H 
BRANCH  33  41
ATOM     41  C27 OHH d   1      13.173  76.888   2.759  0.00  0.00     0.033 A 
ATOM     42  C28 OHH d   1      14.482  77.574   3.017  0.00  0.00    -0.067 A 
ATOM     43  C29 OHH d   1      15.224  78.256   1.953  0.00  0.00    -0.071 A 
ATOM     44  H28 OHH d   1      14.891  77.565   4.021  0.00  0.00     0.085 H 
ATOM     45  C4C OHH d   1      14.687  78.273   0.592  0.00  0.00    -0.026 A 
ATOM     46  H27 OHH d   1      16.166  78.745   2.173  0.00  0.00     0.084 H 
ATOM     47  C8C OHH d   1      13.313  77.559   0.287  0.00  0.00    -0.025 A 
ATOM     48  C30 OHH d   1      15.386  78.923  -0.506  0.00  0.00    -0.072 A 
ATOM     49  C34 OHH d   1      12.621  76.910   1.359  0.00  0.00    -0.057 A 
ATOM     50  C33 OHH d   1      12.773  77.570  -1.076  0.00  0.00    -0.072 A 
ATOM     51  H29 OHH d   1      11.675  76.422   1.157  0.00  0.00     0.086 H 
ATOM     52  C32 OHH d   1      13.513  78.241  -2.144  0.00  0.00    -0.082 A 
ATOM     53  H33 OHH d   1      11.829  77.083  -1.291  0.00  0.00     0.084 H 
ATOM     54  C31 OHH d   1      14.802  78.902  -1.860  0.00  0.00    -0.082 A 
ATOM     55  H32 OHH d   1      13.112  78.253  -3.151  0.00  0.00     0.083 H 
ATOM     56  H31 OHH d   1      15.335  79.386  -2.670  0.00  0.00     0.083 H 
ATOM     57  H30 OHH d   1      16.333  79.421  -0.330  0.00  0.00     0.084 H 
ENDBRANCH  33  41
ENDBRANCH  19  24
ENDBRANCH   9  17
BRANCH   8  58
ATOM     58  C10 OHH d   1       9.656  69.421   4.730  0.00  0.00     0.182 C 
ATOM     59  O4  OHH d   1       8.497  69.731   4.789  0.00  0.00    -0.291 OA
BRANCH  58  60
ATOM     60  C9  OHH d   1      10.490  69.116   5.974  0.00  0.00     0.143 C 
ATOM     61  H1  OHH d   1      11.560  69.100   5.719  0.00  0.00     0.081 H 
BRANCH  60  62
ATOM     62  P1  OHH d   1      10.008  67.547   6.589  0.00  0.00     0.276 P 
ATOM     63  O1  OHH d   1       8.484  67.252   6.893  0.00  0.00    -0.639 OA
ATOM     64  O3  OHH d   1      10.339  66.530   5.501  0.00  0.00    -0.639 OA
ATOM     65  O2  OHH d   1      10.837  67.275   7.799  0.00  0.00    -0.639 OA
ENDBRANCH  60  62
BRANCH  60  66
ATOM     66  C4  OHH d   1      10.218  70.235   7.033  0.00  0.00    -0.022 A 
ATOM     67  C3  OHH d   1       9.068  70.684   7.876  0.00  0.00    -0.075 A 
ATOM     68  C2  OHH d   1       9.132  71.838   8.843  0.00  0.00    -0.082 A 
ATOM     69  H10 OHH d   1       8.131  70.147   7.786  0.00  0.00     0.084 H 
ATOM     70  C1  OHH d   1      10.335  72.598   9.028  0.00  0.00    -0.072 A 
ATOM     71  H9  OHH d   1       8.248  72.100   9.413  0.00  0.00     0.083 H 
ATOM     72  C8A OHH d   1      11.565  72.306   8.286  0.00  0.00    -0.025 A 
ATOM     73  H8  OHH d   1      10.334  73.415   9.740  0.00  0.00     0.084 H 
ATOM     74  C4A OHH d   1      11.597  71.060   7.189  0.00  0.00    -0.018 A 
ATOM     75  C8  OHH d   1      12.796  73.133   8.520  0.00  0.00    -0.072 A 
ATOM     76  C5  OHH d   1      12.923  70.898   6.513  0.00  0.00    -0.072 A 
ATOM     77  C6  OHH d   1      14.111  71.753   6.784  0.00  0.00    -0.082 A 
ATOM     78  H14 OHH d   1      13.024  70.107   5.779  0.00  0.00     0.084 H 
ATOM     79  C7  OHH d   1      14.032  72.869   7.797  0.00  0.00    -0.082 A 
ATOM     80  H13 OHH d   1      15.038  71.573   6.251  0.00  0.00     0.083 H 
ATOM     81  H12 OHH d   1      14.906  73.481   7.989  0.00  0.00     0.083 H 
ATOM     82  H11 OHH d   1      12.764  73.942   9.241  0.00  0.00     0.084 H 
ENDBRANCH  60  66
ENDBRANCH  58  60
ENDBRANCH   8  58
TORSDOF 8
