REMARK  10 active torsions:
REMARK  status: ('A' for Active; 'I' for Inactive)
REMARK       I    between atoms: N1_1  and  C2_2 
REMARK       I    between atoms: C2_2  and  N3_3 
REMARK    1  A    between atoms: N4_4  and  O5_5 
REMARK    2  A    between atoms: O5_5  and  C6_6 
REMARK    3  A    between atoms: C6_6  and  C7_7 
REMARK    4  A    between atoms: C7_7  and  C8_8 
REMARK    5  A    between atoms: C8_8  and  O9_9 
REMARK    6  A    between atoms: O9_9  and  C10_10 
REMARK    7  A    between atoms: C14_14  and  C17_17 
REMARK       I    between atoms: C17_17  and  N19_19 
REMARK    8  A    between atoms: N19_19  and  C20_20 
REMARK    9  A    between atoms: N19_19  and  C23_23 
REMARK   10  A    between atoms: C20_20  and  C21_21 
ROOT
ATOM      1  C10 14A d   1      16.431 -13.482  21.642  0.00  0.00     0.071 A 
ATOM      2  C11 14A d   1      17.466 -12.973  20.841  0.00  0.00    -0.030 A 
ATOM      3  C12 14A d   1      18.750 -13.569  20.911  0.00  0.00     0.037 A 
ATOM      4  C13 14A d   1      18.968 -14.625  21.740  0.00  0.00    -0.046 A 
ATOM      5  C14 14A d   1      17.968 -15.109  22.525  0.00  0.00     0.036 A 
ATOM      6  C15 14A d   1      16.701 -14.566  22.486  0.00  0.00    -0.035 A 
ATOM      7 CL16 14A d   1      20.038 -12.982  19.978  0.00  0.00    -0.084 Cl
ATOM      8  H12 14A d   1      17.285 -12.135  20.178  0.00  0.00     0.090 H 
ATOM      9  H13 14A d   1      19.949 -15.086  21.776  0.00  0.00     0.087 H 
ATOM     10  H14 14A d   1      15.915 -14.978  23.108  0.00  0.00     0.089 H 
ENDROOT
BRANCH   5  11
ATOM     11  C17 14A d   1      18.257 -16.270  23.398  0.00  0.00     0.254 C 
ATOM     12  O18 14A d   1      17.459 -17.203  23.297  0.00  0.00    -0.267 OA
ATOM     13  N19 14A d   1      19.256 -16.348  24.308  0.00  0.00    -0.340 N 
BRANCH  13  14
ATOM     14  C20 14A d   1      19.299 -17.503  25.269  0.00  0.00     0.013 C 
ATOM     15  H15 14A d   1      20.093 -17.286  25.999  0.00  0.00     0.070 H 
ATOM     16  H16 14A d   1      19.570 -18.397  24.688  0.00  0.00     0.070 H 
BRANCH  14  17
ATOM     17  C21 14A d   1      18.034 -17.851  26.068  0.00  0.00    -0.095 C 
ATOM     18  C22 14A d   1      18.023 -18.320  27.302  0.00  0.00    -0.123 C 
ATOM     19  H18 14A d   1      17.076 -18.540  27.793  0.00  0.00     0.066 H 
ATOM     20  H19 14A d   1      18.961 -18.487  27.829  0.00  0.00     0.066 H 
ATOM     21  H17 14A d   1      17.073 -17.699  25.579  0.00  0.00     0.078 H 
ENDBRANCH  14  17
ENDBRANCH  13  14
BRANCH  13  22
ATOM     22  C23 14A d   1      19.783 -15.007  24.668  0.00  0.00     0.015 C 
ATOM     23  C24 14A d   1      21.305 -15.149  24.549  0.00  0.00    -0.046 C 
ATOM     24  C25 14A d   1      21.979 -14.542  25.718  0.00  0.00    -0.063 C 
ATOM     25  H21 14A d   1      21.645 -14.643  23.633  0.00  0.00     0.036 H 
ATOM     26  H22 14A d   1      21.565 -16.216  24.496  0.00  0.00     0.036 H 
ATOM     27  C26 14A d   1      20.915 -14.431  26.797  0.00  0.00    -0.063 C 
ATOM     28  H23 14A d   1      22.369 -13.546  25.461  0.00  0.00     0.033 H 
ATOM     29  H24 14A d   1      22.805 -15.183  26.059  0.00  0.00     0.033 H 
ATOM     30  C27 14A d   1      19.623 -14.914  26.187  0.00  0.00    -0.046 C 
ATOM     31  H25 14A d   1      20.813 -13.385  27.122  0.00  0.00     0.033 H 
ATOM     32  H26 14A d   1      21.184 -15.058  27.660  0.00  0.00     0.033 H 
ATOM     33  H27 14A d   1      19.374 -15.906  26.591  0.00  0.00     0.036 H 
ATOM     34  H28 14A d   1      18.816 -14.207  26.429  0.00  0.00     0.036 H 
ATOM     35  H20 14A d   1      19.342 -14.176  24.098  0.00  0.00     0.072 H 
ENDBRANCH  13  22
ENDBRANCH   5  11
BRANCH   1  36
ATOM     36  O9  14A d   1      15.153 -12.945  21.627  0.00  0.00    -0.351 OA
BRANCH  36  37
ATOM     37  C8  14A d   1      14.937 -11.908  20.676  0.00  0.00     0.028 C 
ATOM     38  H10 14A d   1      15.414 -10.977  21.016  0.00  0.00     0.075 H 
ATOM     39  H11 14A d   1      15.353 -12.197  19.700  0.00  0.00     0.075 H 
BRANCH  37  40
ATOM     40  C7  14A d   1      13.439 -11.716  20.568  0.00  0.00    -0.023 C 
ATOM     41  H8  14A d   1      13.208 -11.327  19.566  0.00  0.00     0.039 H 
ATOM     42  H9  14A d   1      12.950 -12.692  20.704  0.00  0.00     0.039 H 
BRANCH  40  43
ATOM     43  C6  14A d   1      12.875 -10.733  21.619  0.00  0.00     0.048 C 
ATOM     44  H6  14A d   1      13.470  -9.808  21.605  0.00  0.00     0.078 H 
ATOM     45  H7  14A d   1      11.829 -10.500  21.371  0.00  0.00     0.078 H 
BRANCH  43  46
ATOM     46  O5  14A d   1      12.932 -11.315  22.941  0.00  0.00    -0.266 OA
BRANCH  46  47
ATOM     47  N4  14A d   1      11.950 -12.180  23.223  0.00  0.00    -0.097 N 
ATOM     48  C2  14A d   1      11.038 -11.963  24.139  0.00  0.00     0.689 C 
ATOM     49  N1  14A d   1      10.221 -12.942  24.494  0.00  0.00    -0.233 N 
ATOM     50  N3  14A d   1      10.899 -10.742  24.642  0.00  0.00    -0.233 N 
ATOM     51  H1  14A d   1       9.502 -12.778  25.213  0.00  0.00     0.174 HD
ATOM     52  H2  14A d   1      10.304 -13.868  24.051  0.00  0.00     0.174 HD
ATOM     53  H3  14A d   1      11.543  -9.991  24.356  0.00  0.00     0.174 HD
ATOM     54  H4  14A d   1      10.147 -10.546  25.318  0.00  0.00     0.174 HD
ATOM     55  H5  14A d   1      11.909 -13.062  22.692  0.00  0.00     0.213 HD
ENDBRANCH  46  47
ENDBRANCH  43  46
ENDBRANCH  40  43
ENDBRANCH  37  40
ENDBRANCH  36  37
ENDBRANCH   1  36
TORSDOF 10
