REMARK  9 active torsions:
REMARK  status: ('A' for Active; 'I' for Inactive)
REMARK    1  A    between atoms: NP1_1  and  C02_2 
REMARK    2  A    between atoms: C02_2  and  C03_3 
REMARK    3  A    between atoms: C02_2  and  C06_6 
REMARK    4  A    between atoms: C06_6  and  C07_7 
REMARK    5  A    between atoms: C07_7  and  C08_8 
REMARK    6  A    between atoms: C08_8  and  C09_9 
REMARK    7  A    between atoms: C09_9  and  C10_10 
REMARK    8  A    between atoms: C10_10  and  O1_11 
REMARK    9  A    between atoms: C10_10  and  O2_12 
ROOT
ATOM      1  C07 DHH d   1      85.927  44.767  -8.239  0.00  0.00    -0.062 C 
ATOM      2  H7  DHH d   1      86.265  45.441  -9.040  0.00  0.00     0.033 H 
ATOM      3  H8  DHH d   1      85.917  45.311  -7.283  0.00  0.00     0.033 H 
ENDROOT
BRANCH   1   4
ATOM      4  C06 DHH d   1      86.873  43.520  -8.144  0.00  0.00    -0.029 C 
ATOM      5  H5  DHH d   1      86.500  42.853  -7.353  0.00  0.00     0.036 H 
ATOM      6  H6  DHH d   1      86.858  42.990  -9.108  0.00  0.00     0.036 H 
BRANCH   4   7
ATOM      7  C02 DHH d   1      88.375  43.924  -7.806  0.00  0.00     0.182 C 
ATOM      8  H4  DHH d   1      89.019  43.156  -8.258  0.00  0.00     0.101 H 
BRANCH   7   9
ATOM      9  NP1 DHH d   1      88.570  43.842  -6.292  0.00  0.00    -0.065 N 
ATOM     10  H1  DHH d   1      88.250  42.946  -5.960  0.00  0.00     0.275 HD
ATOM     11  H2  DHH d   1      88.041  44.574  -5.845  0.00  0.00     0.275 HD
ATOM     12  H3  DHH d   1      89.548  43.952  -6.073  0.00  0.00     0.275 HD
ENDBRANCH   7   9
BRANCH   7  13
ATOM     13  C03 DHH d   1      88.826  45.229  -8.385  0.00  0.00     0.204 C 
ATOM     14  O04 DHH d   1      88.968  45.482  -9.561  0.00  0.00    -0.646 OA
ATOM     15  O05 DHH d   1      88.960  46.131  -7.417  0.00  0.00    -0.646 OA
ENDBRANCH   7  13
ENDBRANCH   4   7
ENDBRANCH   1   4
BRANCH   1  16
ATOM     16  C08 DHH d   1      84.526  44.226  -8.556  0.00  0.00    -0.061 C 
ATOM     17  H9  DHH d   1      84.473  43.154  -8.317  0.00  0.00     0.033 H 
ATOM     18  H10 DHH d   1      84.295  44.377  -9.621  0.00  0.00     0.033 H 
BRANCH  16  19
ATOM     19  C09 DHH d   1      83.555  44.991  -7.706  0.00  0.00    -0.019 C 
ATOM     20  H11 DHH d   1      83.821  46.057  -7.747  0.00  0.00     0.040 H 
ATOM     21  H12 DHH d   1      83.640  44.631  -6.670  0.00  0.00     0.040 H 
BRANCH  19  22
ATOM     22  C10 DHH d   1      82.114  44.839  -8.150  0.00  0.00     0.126 C 
ATOM     23  H13 DHH d   1      82.010  44.000  -8.854  0.00  0.00     0.128 H 
BRANCH  22  24
ATOM     24  O1  DHH d   1      81.376  44.679  -6.992  0.00  0.00    -0.371 OA
ATOM     25  H14 DHH d   1      81.502  45.435  -6.431  0.00  0.00     0.212 HD
ENDBRANCH  22  24
BRANCH  22  26
ATOM     26  O2  DHH d   1      81.548  46.025  -8.664  0.00  0.00    -0.371 OA
ATOM     27  H15 DHH d   1      80.620  45.891  -8.819  0.00  0.00     0.212 HD
ENDBRANCH  22  26
ENDBRANCH  19  22
ENDBRANCH  16  19
ENDBRANCH   1  16
TORSDOF 9
