REMARK  17 active torsions:
REMARK  status: ('A' for Active; 'I' for Inactive)
REMARK    1  A    between atoms: C48_1  and  C46_2 
REMARK       I    between atoms: C46_2  and  N1_4 
REMARK    2  A    between atoms: N1_4  and  C49_5 
REMARK    3  A    between atoms: N1_4  and  C2_6 
REMARK    4  A    between atoms: C2_6  and  C3_7 
REMARK    5  A    between atoms: C2_6  and  C5_9 
REMARK    6  A    between atoms: C3_7  and  O4_8 
REMARK       I    between atoms: C5_9  and  N7_11 
REMARK    7  A    between atoms: N7_11  and  C8_12 
REMARK    8  A    between atoms: C8_12  and  C9_13 
REMARK    9  A    between atoms: C8_12  and  C10_14 
REMARK       I    between atoms: C10_14  and  N12_16 
REMARK   10  A    between atoms: N12_16  and  C13_17 
REMARK   11  A    between atoms: C13_17  and  C14_18 
REMARK       I    between atoms: C14_18  and  N16_20 
REMARK   12  A    between atoms: N16_20  and  C17_21 
REMARK   13  A    between atoms: N16_20  and  C18_22 
REMARK   14  A    between atoms: C29_26  and  C30_27 
REMARK   15  A    between atoms: C34_31  and  C43_32 
REMARK   16  A    between atoms: C41_40  and  O42_41 
REMARK   17  A    between atoms: C24_48  and  O25_49 
ROOT
ATOM      1  C18 NON d   1      -2.849  47.062   8.725  0.00  0.00     0.117 C 
ATOM      2  C26 NON d   1      -1.330  47.014   8.911  0.00  0.00     0.245 C 
ATOM      3  O27 NON d   1      -0.557  47.404   8.038  0.00  0.00    -0.271 OA
ATOM      4  N28 NON d   1      -0.963  46.471  10.069  0.00  0.00    -0.346 N 
ATOM      5  C29 NON d   1       0.427  46.254  10.496  0.00  0.00     0.086 C 
ATOM      6  C31 NON d   1       0.428  44.954  11.303  0.00  0.00     0.240 C 
ATOM      7  O32 NON d   1      -0.120  44.902  12.403  0.00  0.00    -0.271 OA
ATOM      8  N33 NON d   1       1.018  43.916  10.718  0.00  0.00    -0.344 N 
ATOM      9  C34 NON d   1       1.096  42.581  11.333  0.00  0.00     0.100 C 
ATOM     10  C35 NON d   1       1.300  41.509  10.257  0.00  0.00    -0.013 C 
ATOM     11  C36 NON d   1       0.133  41.399   9.271  0.00  0.00    -0.055 A 
ATOM     12  C38 NON d   1      -0.913  42.315   9.301  0.00  0.00    -0.063 A 
ATOM     13  C37 NON d   1       0.120  40.384   8.316  0.00  0.00    -0.074 A 
ATOM     14  C39 NON d   1      -0.931  40.299   7.408  0.00  0.00    -0.050 A 
ATOM     15  C41 NON d   1      -1.973  41.222   7.443  0.00  0.00     0.076 A 
ATOM     16  C40 NON d   1      -1.967  42.242   8.395  0.00  0.00     0.011 A 
ATOM     17  C22 NON d   1      -2.922  43.253   8.413  0.00  0.00     0.011 A 
ATOM     18  C20 NON d   1      -2.483  44.569   8.523  0.00  0.00    -0.061 A 
ATOM     19  C19 NON d   1      -3.380  45.629   8.617  0.00  0.00    -0.025 A 
ATOM     20  C21 NON d   1      -4.747  45.371   8.595  0.00  0.00    -0.072 A 
ATOM     21  C23 NON d   1      -5.196  44.058   8.473  0.00  0.00    -0.050 A 
ATOM     22  C24 NON d   1      -4.294  43.002   8.380  0.00  0.00     0.076 A 
ATOM     23  H22 NON d   1      -3.296  47.549   9.604  0.00  0.00     0.095 H 
ATOM     24  H23 NON d   1      -1.688  46.189  10.697  0.00  0.00     0.163 HD
ATOM     25  H24 NON d   1       1.085  46.160   9.620  0.00  0.00     0.086 H 
ATOM     26  H28 NON d   1       1.429  44.049   9.816  0.00  0.00     0.163 HD
ATOM     27  H29 NON d   1       0.147  42.383  11.853  0.00  0.00     0.090 H 
ATOM     28  H30 NON d   1       1.427  40.536  10.755  0.00  0.00     0.043 H 
ATOM     29  H31 NON d   1       2.211  41.753   9.691  0.00  0.00     0.043 H 
ATOM     30  H32 NON d   1      -0.907  43.103  10.046  0.00  0.00     0.085 H 
ATOM     31  H33 NON d   1       0.928  39.662   8.281  0.00  0.00     0.084 H 
ATOM     32  H34 NON d   1      -0.939  39.508   6.667  0.00  0.00     0.087 H 
ATOM     33  H36 NON d   1      -1.419  44.773   8.536  0.00  0.00     0.085 H 
ATOM     34  H37 NON d   1      -5.458  46.186   8.672  0.00  0.00     0.084 H 
ATOM     35  H38 NON d   1      -6.261  43.856   8.450  0.00  0.00     0.087 H 
ENDROOT
BRANCH   1  36
ATOM     36  N16 NON d   1      -3.237  47.816   7.523  0.00  0.00    -0.338 N 
ATOM     37  C14 NON d   1      -3.827  49.003   7.653  0.00  0.00     0.238 C 
ATOM     38  O15 NON d   1      -4.005  49.549   8.740  0.00  0.00    -0.272 OA
BRANCH  37  39
ATOM     39  C13 NON d   1      -4.235  49.704   6.354  0.00  0.00     0.069 C 
ATOM     40  H17 NON d   1      -3.346  49.805   5.714  0.00  0.00     0.078 H 
ATOM     41  H18 NON d   1      -4.988  49.087   5.842  0.00  0.00     0.078 H 
BRANCH  39  42
ATOM     42  N12 NON d   1      -4.802  51.041   6.588  0.00  0.00    -0.351 N 
ATOM     43  C10 NON d   1      -4.088  52.022   7.129  0.00  0.00     0.240 C 
ATOM     44  O11 NON d   1      -2.923  51.890   7.503  0.00  0.00    -0.271 OA
ATOM     45  H16 NON d   1      -5.753  51.217   6.332  0.00  0.00     0.163 HD
BRANCH  43  46
ATOM     46  C8  NON d   1      -4.795  53.370   7.271  0.00  0.00     0.086 C 
ATOM     47  H12 NON d   1      -5.630  53.441   6.558  0.00  0.00     0.086 H 
BRANCH  46  48
ATOM     48  N7  NON d   1      -3.785  54.397   6.973  0.00  0.00    -0.346 N 
ATOM     49  C5  NON d   1      -3.533  54.826   5.738  0.00  0.00     0.243 C 
ATOM     50  O6  NON d   1      -4.146  54.454   4.738  0.00  0.00    -0.271 OA
ATOM     51  H11 NON d   1      -3.265  54.790   7.731  0.00  0.00     0.163 HD
BRANCH  49  52
ATOM     52  C2  NON d   1      -2.404  55.856   5.639  0.00  0.00     0.111 C 
ATOM     53  H7  NON d   1      -2.292  56.336   6.622  0.00  0.00     0.091 H 
BRANCH  52  54
ATOM     54  N1  NON d   1      -2.667  56.911   4.646  0.00  0.00    -0.341 N 
ATOM     55  C46 NON d   1      -2.183  58.132   4.867  0.00  0.00     0.216 C 
ATOM     56  O47 NON d   1      -1.518  58.417   5.864  0.00  0.00    -0.274 OA
BRANCH  55  57
ATOM     57  C48 NON d   1      -2.472  59.206   3.813  0.00  0.00    -0.003 C 
ATOM     58  H1  NON d   1      -3.074  58.771   3.002  0.00  0.00     0.040 H 
ATOM     59  H2  NON d   1      -1.523  59.583   3.404  0.00  0.00     0.040 H 
ATOM     60  H3  NON d   1      -3.026  60.035   4.277  0.00  0.00     0.040 H 
ENDBRANCH  55  57
BRANCH  54  61
ATOM     61  C49 NON d   1      -3.410  56.699   3.392  0.00  0.00    -0.015 C 
ATOM     62  H4  NON d   1      -3.464  57.645   2.833  0.00  0.00     0.056 H 
ATOM     63  H5  NON d   1      -4.428  56.351   3.623  0.00  0.00     0.056 H 
ATOM     64  H6  NON d   1      -2.893  55.943   2.783  0.00  0.00     0.056 H 
ENDBRANCH  54  61
ENDBRANCH  52  54
BRANCH  52  65
ATOM     65  C3  NON d   1      -1.099  55.135   5.291  0.00  0.00     0.044 C 
ATOM     66  H8  NON d   1      -0.924  54.326   6.016  0.00  0.00     0.077 H 
ATOM     67  H9  NON d   1      -0.265  55.851   5.332  0.00  0.00     0.077 H 
BRANCH  65  68
ATOM     68  O4  NON d   1      -1.185  54.582   3.975  0.00  0.00    -0.398 OA
ATOM     69  H10 NON d   1      -1.905  53.963   3.939  0.00  0.00     0.209 HD
ENDBRANCH  65  68
ENDBRANCH  52  65
ENDBRANCH  49  52
ENDBRANCH  46  48
BRANCH  46  70
ATOM     70  C9  NON d   1      -5.327  53.534   8.697  0.00  0.00    -0.049 C 
ATOM     71  H13 NON d   1      -6.080  52.758   8.899  0.00  0.00     0.030 H 
ATOM     72  H14 NON d   1      -5.787  54.527   8.805  0.00  0.00     0.030 H 
ATOM     73  H15 NON d   1      -4.497  53.435   9.412  0.00  0.00     0.030 H 
ENDBRANCH  46  70
ENDBRANCH  43  46
ENDBRANCH  39  42
ENDBRANCH  37  39
BRANCH  36  74
ATOM     74  C17 NON d   1      -2.992  47.332   6.155  0.00  0.00    -0.015 C 
ATOM     75  H19 NON d   1      -3.371  48.069   5.432  0.00  0.00     0.056 H 
ATOM     76  H20 NON d   1      -3.511  46.373   6.007  0.00  0.00     0.056 H 
ATOM     77  H21 NON d   1      -1.912  47.191   6.004  0.00  0.00     0.056 H 
ENDBRANCH  36  74
ENDBRANCH   1  36
BRANCH   5  78
ATOM     78  C30 NON d   1       0.902  47.417  11.371  0.00  0.00    -0.049 C 
ATOM     79  H25 NON d   1       1.942  47.241  11.682  0.00  0.00     0.030 H 
ATOM     80  H26 NON d   1       0.261  47.492  12.261  0.00  0.00     0.030 H 
ATOM     81  H27 NON d   1       0.845  48.354  10.798  0.00  0.00     0.030 H 
ENDBRANCH   5  78
BRANCH  22  82
ATOM     82  O25 NON d   1      -4.762  41.730   8.261  0.00  0.00    -0.360 OA
ATOM     83  H39 NON d   1      -4.029  41.128   8.209  0.00  0.00     0.217 HD
ENDBRANCH  22  82
BRANCH  15  84
ATOM     84  O42 NON d   1      -2.982  41.129   6.538  0.00  0.00    -0.360 OA
ATOM     85  H35 NON d   1      -3.610  41.825   6.692  0.00  0.00     0.217 HD
ENDBRANCH  15  84
BRANCH   9  86
ATOM     86  C43 NON d   1       2.235  42.503  12.352  0.00  0.00     0.197 C 
ATOM     87  O45 NON d   1       2.276  41.577  13.161  0.00  0.00    -0.646 OA
ATOM     88  O44 NON d   1       3.117  43.360  12.371  0.00  0.00    -0.646 OA
ENDBRANCH   9  86
TORSDOF 17
