REMARK  16 active torsions:
REMARK  status: ('A' for Active; 'I' for Inactive)
REMARK       I    between atoms: N1_26  and  C3_3 
REMARK    1  A    between atoms: C3_3  and  O1_29 
REMARK    2  A    between atoms: O1_29  and  C4_4 
REMARK    3  A    between atoms: C6_6  and  C5_5 
REMARK    4  A    between atoms: C5_5  and  C7_7 
REMARK    5  A    between atoms: C5_5  and  N1_26 
REMARK    6  A    between atoms: C14_14  and  C6_6 
REMARK    7  A    between atoms: C6_6  and  O3_31 
REMARK    8  A    between atoms: C7_7  and  C8_8 
REMARK    9  A    between atoms: N2_27  and  C14_14 
REMARK   10  A    between atoms: C15_15  and  C16_16 
REMARK   11  A    between atoms: N2_27  and  C15_15 
REMARK   12  A    between atoms: C16_16  and  C23_23 
REMARK   13  A    between atoms: C16_16  and  C24_24 
REMARK   14  A    between atoms: S1_35  and  C17_17 
REMARK   15  A    between atoms: C20_20  and  N3_28 
REMARK   16  A    between atoms: N2_27  and  S1_35 
ROOT
ATOM      1  C6  478 d   1       5.167  -0.686  15.605  0.00  0.00     0.071 C 
ATOM      2  H7  478 d   1       4.103  -0.927  15.463  0.00  0.00     0.088 H 
ENDROOT
BRANCH   1   3
ATOM      3  C5  478 d   1       5.695  -0.311  14.144  0.00  0.00     0.044 C 
ATOM      4  H6  478 d   1       5.838  -1.260  13.607  0.00  0.00     0.077 H 
BRANCH   3   5
ATOM      5  C7  478 d   1       7.062   0.520  13.994  0.00  0.00    -0.020 C 
ATOM      6  H8  478 d   1       7.883  -0.060  14.440  0.00  0.00     0.043 H 
ATOM      7  H9  478 d   1       6.958   1.477  14.526  0.00  0.00     0.043 H 
BRANCH   5   8
ATOM      8  C8  478 d   1       7.388   0.797  12.550  0.00  0.00    -0.056 A 
ATOM      9  C9  478 d   1       6.964   2.073  11.975  0.00  0.00    -0.077 A 
ATOM     10  C11 478 d   1       7.226   2.404  10.584  0.00  0.00    -0.082 A 
ATOM     11  H10 478 d   1       6.442   2.788  12.600  0.00  0.00     0.084 H 
ATOM     12  C13 478 d   1       7.927   1.463   9.735  0.00  0.00    -0.083 A 
ATOM     13  H12 478 d   1       6.897   3.355  10.182  0.00  0.00     0.083 H 
ATOM     14  C12 478 d   1       8.364   0.166  10.311  0.00  0.00    -0.082 A 
ATOM     15  H14 478 d   1       8.129   1.701   8.697  0.00  0.00     0.083 H 
ATOM     16  C10 478 d   1       8.097  -0.176  11.717  0.00  0.00    -0.077 A 
ATOM     17  H13 478 d   1       8.890  -0.543   9.683  0.00  0.00     0.083 H 
ATOM     18  H11 478 d   1       8.418  -1.127  12.127  0.00  0.00     0.084 H 
ENDBRANCH   5   8
ENDBRANCH   3   5
BRANCH   3  19
ATOM     19  N1  478 d   1       4.655   0.461  13.481  0.00  0.00    -0.329 N 
ATOM     20  C3  478 d   1       3.825   0.093  12.525  0.00  0.00     0.361 C 
ATOM     21  O2  478 d   1       3.639  -0.990  12.113  0.00  0.00    -0.238 OA
ATOM     22  H32 478 d   1       4.556   1.405  13.795  0.00  0.00     0.165 HD
BRANCH  20  23
ATOM     23  O1  478 d   1       3.184   1.265  12.109  0.00  0.00    -0.296 OA
BRANCH  23  24
ATOM     24  C4  478 d   1       2.169   1.359  11.098  0.00  0.00     0.072 C 
ATOM     25  C1  478 d   1       2.007   2.816  10.635  0.00  0.00     0.044 C 
ATOM     26  O6  478 d   1       0.820   3.365  11.258  0.00  0.00    -0.389 OA
ATOM     27  H1  478 d   1       1.901   2.848   9.541  0.00  0.00     0.078 H 
ATOM     28  H2  478 d   1       2.889   3.401  10.935  0.00  0.00     0.078 H 
ATOM     29  C25 478 d   1      -0.028   2.294  11.619  0.00  0.00     0.022 C 
ATOM     30  C2  478 d   1       0.820   1.025  11.742  0.00  0.00    -0.018 C 
ATOM     31  H30 478 d   1      -0.512   2.512  12.582  0.00  0.00     0.074 H 
ATOM     32  H31 478 d   1      -0.797   2.153  10.846  0.00  0.00     0.074 H 
ATOM     33  H3  478 d   1       0.957   0.757  12.800  0.00  0.00     0.040 H 
ATOM     34  H4  478 d   1       0.339   0.190  11.211  0.00  0.00     0.040 H 
ATOM     35  H5  478 d   1       2.399   0.691  10.255  0.00  0.00     0.087 H 
ENDBRANCH  23  24
ENDBRANCH  20  23
ENDBRANCH   3  19
ENDBRANCH   1   3
BRANCH   1  36
ATOM     36  C14 478 d   1       5.757  -1.856  16.550  0.00  0.00     0.031 C 
ATOM     37  H15 478 d   1       5.146  -1.818  17.464  0.00  0.00     0.069 H 
ATOM     38  H16 478 d   1       6.785  -1.542  16.782  0.00  0.00     0.069 H 
BRANCH  36  39
ATOM     39  N2  478 d   1       5.865  -3.337  16.211  0.00  0.00    -0.304 N 
BRANCH  39  40
ATOM     40  C15 478 d   1       4.566  -4.270  16.225  0.00  0.00     0.008 C 
ATOM     41  H17 478 d   1       4.789  -5.115  15.556  0.00  0.00     0.066 H 
ATOM     42  H18 478 d   1       4.464  -4.636  17.257  0.00  0.00     0.066 H 
BRANCH  40  43
ATOM     43  C16 478 d   1       3.196  -3.761  15.820  0.00  0.00    -0.045 C 
ATOM     44  H19 478 d   1       2.565  -4.661  15.787  0.00  0.00     0.041 H 
BRANCH  43  45
ATOM     45  C23 478 d   1       2.544  -2.856  16.857  0.00  0.00    -0.072 C 
ATOM     46  H24 478 d   1       1.559  -2.530  16.492  0.00  0.00     0.028 H 
ATOM     47  H25 478 d   1       3.181  -1.976  17.028  0.00  0.00     0.028 H 
ATOM     48  H26 478 d   1       2.421  -3.408  17.800  0.00  0.00     0.028 H 
ENDBRANCH  43  45
BRANCH  43  49
ATOM     49  C24 478 d   1       3.116  -3.164  14.391  0.00  0.00    -0.072 C 
ATOM     50  H27 478 d   1       3.598  -3.850  13.679  0.00  0.00     0.028 H 
ATOM     51  H28 478 d   1       3.632  -2.193  14.370  0.00  0.00     0.028 H 
ATOM     52  H29 478 d   1       2.062  -3.026  14.110  0.00  0.00     0.028 H 
ENDBRANCH  43  49
ENDBRANCH  40  43
ENDBRANCH  39  40
BRANCH  39  53
ATOM     53  S1  478 d   1       7.035  -3.736  14.911  0.00  0.00     0.260 S 
ATOM     54  O4  478 d   1       7.606  -2.581  14.235  0.00  0.00    -0.200 OA
ATOM     55  O5  478 d   1       6.640  -4.784  14.020  0.00  0.00    -0.200 OA
BRANCH  53  56
ATOM     56  C17 478 d   1       8.316  -4.428  15.809  0.00  0.00     0.079 A 
ATOM     57  C18 478 d   1       9.532  -3.698  16.142  0.00  0.00    -0.058 A 
ATOM     58  C19 478 d   1      10.550  -4.346  16.946  0.00  0.00    -0.056 A 
ATOM     59  H20 478 d   1       9.674  -2.682  15.793  0.00  0.00     0.086 H 
ATOM     60  C20 478 d   1      10.324  -5.701  17.396  0.00  0.00     0.025 A 
ATOM     61  H21 478 d   1      11.464  -3.824  17.205  0.00  0.00     0.086 H 
ATOM     62  C21 478 d   1       9.140  -6.404  17.065  0.00  0.00    -0.056 A 
ATOM     63  C22 478 d   1       8.138  -5.763  16.273  0.00  0.00    -0.058 A 
ATOM     64  H22 478 d   1       8.995  -7.421  17.410  0.00  0.00     0.086 H 
ATOM     65  H23 478 d   1       7.230  -6.300  16.022  0.00  0.00     0.086 H 
BRANCH  60  66
ATOM     66  N3  478 d   1      11.217  -6.303  18.124  0.00  0.00    -0.399 N 
ATOM     67  H33 478 d   1      12.087  -5.815  18.380  0.00  0.00     0.156 HD
ATOM     68  H34 478 d   1      11.054  -7.268  18.445  0.00  0.00     0.156 HD
ENDBRANCH  60  66
ENDBRANCH  53  56
ENDBRANCH  39  53
ENDBRANCH  36  39
ENDBRANCH   1  36
BRANCH   1  69
ATOM     69  O3  478 d   1       5.280   0.439  16.409  0.00  0.00    -0.392 OA
ATOM     70  H35 478 d   1       4.771   0.313  17.201  0.00  0.00     0.210 HD
ENDBRANCH   1  69
TORSDOF 16
