REMARK  11 active torsions:
REMARK  status: ('A' for Active; 'I' for Inactive)
REMARK    1  A    between atoms: CA0_10  and  CB0_1 
REMARK    2  A    between atoms: C0_7  and  CA0_10 
REMARK       I    between atoms: C0_7  and  N_11 
REMARK    3  A    between atoms: CA0_10  and  N0_9 
REMARK    4  A    between atoms: CA_13  and  C_16 
REMARK       I    between atoms: C_16  and  N'_18 
REMARK    5  A    between atoms: N'_18  and  CA'_19 
REMARK    6  A    between atoms: CA'_19  and  CB'_20 
REMARK    7  A    between atoms: CG'_21  and  OL_27 
REMARK    8  A    between atoms: OL_27  and  CF_28 
REMARK    9  A    between atoms: CF_28  and  CH_29 
REMARK       I    between atoms: CH_29  and  N2_31 
REMARK   10  A    between atoms: N2_31  and  CM_32 
REMARK   11  A    between atoms: CM_32  and  CN_33 
ROOT
ATOM      1  C0  177 d   1      17.119 -14.542  22.567  0.00  0.00     0.251 C 
ATOM      2  O0  177 d   1      16.061 -14.049  23.021  0.00  0.00    -0.271 OA
ATOM      3  N   177 d   1      17.796 -13.986  21.540  0.00  0.00    -0.337 N 
ATOM      4  CD  177 d   1      18.995 -14.558  20.896  0.00  0.00    -0.001 C 
ATOM      5  CA  177 d   1      17.394 -12.749  20.862  0.00  0.00     0.091 C 
ATOM      6  CB  177 d   1      18.204 -12.809  19.572  0.00  0.00    -0.036 C 
ATOM      7  CG  177 d   1      19.476 -13.404  20.029  0.00  0.00    -0.048 C 
ATOM      8  H16 177 d   1      18.739 -15.436  20.285  0.00  0.00     0.064 H 
ATOM      9  H17 177 d   1      19.753 -14.839  21.642  0.00  0.00     0.064 H 
ATOM     10  H18 177 d   1      17.657 -11.865  21.461  0.00  0.00     0.087 H 
ATOM     11  H19 177 d   1      18.362 -11.804  19.153  0.00  0.00     0.036 H 
ATOM     12  H20 177 d   1      17.713 -13.446  18.822  0.00  0.00     0.036 H 
ATOM     13  H21 177 d   1      20.076 -13.765  19.180  0.00  0.00     0.035 H 
ATOM     14  H22 177 d   1      20.066 -12.684  20.615  0.00  0.00     0.035 H 
ENDROOT
BRANCH   5  15
ATOM     15  C   177 d   1      15.898 -12.730  20.553  0.00  0.00     0.240 C 
ATOM     16  O   177 d   1      15.343 -13.748  20.118  0.00  0.00    -0.271 OA
ATOM     17  N'  177 d   1      15.245 -11.606  20.835  0.00  0.00    -0.355 N 
ATOM     18  H23 177 d   1      15.765 -10.850  21.232  0.00  0.00     0.162 HD
BRANCH  17  19
ATOM     19  CA' 177 d   1      13.817 -11.405  20.602  0.00  0.00     0.022 C 
ATOM     20  H24 177 d   1      13.452 -12.212  19.949  0.00  0.00     0.071 H 
ATOM     21  H25 177 d   1      13.677 -10.436  20.101  0.00  0.00     0.071 H 
BRANCH  19  22
ATOM     22  CB' 177 d   1      13.003 -11.410  21.872  0.00  0.00    -0.005 A 
ATOM     23  CG' 177 d   1      12.166 -12.488  22.152  0.00  0.00     0.077 A 
ATOM     24  CD' 177 d   1      11.289 -12.426  23.258  0.00  0.00    -0.049 A 
ATOM     25  CE' 177 d   1      11.265 -11.316  24.076  0.00  0.00    -0.059 A 
ATOM     26  H26 177 d   1      10.628 -13.260  23.466  0.00  0.00     0.087 H 
ATOM     27  C24 177 d   1      12.101 -10.215  23.820  0.00  0.00     0.034 A 
ATOM     28  H27 177 d   1      10.594 -11.292  24.927  0.00  0.00     0.086 H 
ATOM     29  C25 177 d   1      12.963 -10.277  22.708  0.00  0.00    -0.052 A 
ATOM     30 CL   177 d   1      12.061  -8.812  24.799  0.00  0.00    -0.084 Cl
ATOM     31  H28 177 d   1      13.610  -9.435  22.491  0.00  0.00     0.087 H 
BRANCH  23  32
ATOM     32  OL  177 d   1      12.402 -13.662  21.467  0.00  0.00    -0.342 OA
BRANCH  32  33
ATOM     33  CF  177 d   1      12.934 -14.707  22.293  0.00  0.00     0.099 C 
ATOM     34  H29 177 d   1      12.442 -14.673  23.276  0.00  0.00     0.089 H 
ATOM     35  H30 177 d   1      14.015 -14.550  22.419  0.00  0.00     0.089 H 
BRANCH  33  36
ATOM     36  CH  177 d   1      12.702 -16.066  21.672  0.00  0.00     0.241 C 
ATOM     37  OH  177 d   1      12.695 -17.082  22.368  0.00  0.00    -0.271 OA
ATOM     38  N2  177 d   1      12.530 -16.090  20.355  0.00  0.00    -0.360 N 
ATOM     39  H31 177 d   1      12.589 -15.223  19.859  0.00  0.00     0.162 HD
BRANCH  38  40
ATOM     40  CM  177 d   1      12.259 -17.304  19.583  0.00  0.00    -0.008 C 
ATOM     41  H32 177 d   1      13.005 -18.070  19.843  0.00  0.00     0.063 H 
ATOM     42  H33 177 d   1      12.331 -17.072  18.510  0.00  0.00     0.063 H 
BRANCH  40  43
ATOM     43  CN  177 d   1      10.860 -17.844  19.886  0.00  0.00    -0.061 C 
ATOM     44  H34 177 d   1      10.682 -18.754  19.294  0.00  0.00     0.029 H 
ATOM     45  H35 177 d   1      10.109 -17.084  19.624  0.00  0.00     0.029 H 
ATOM     46  H36 177 d   1      10.783 -18.082  20.957  0.00  0.00     0.029 H 
ENDBRANCH  40  43
ENDBRANCH  38  40
ENDBRANCH  33  36
ENDBRANCH  32  33
ENDBRANCH  23  32
ENDBRANCH  19  22
ENDBRANCH  17  19
ENDBRANCH   5  15
BRANCH   1  47
ATOM     47  CA0 177 d   1      17.679 -15.831  23.155  0.00  0.00     0.179 C 
ATOM     48  H15 177 d   1      18.424 -16.267  22.473  0.00  0.00     0.099 H 
BRANCH  47  49
ATOM     49  CB0 177 d   1      18.354 -15.511  24.511  0.00  0.00    -0.018 C 
ATOM     50  CG1 177 d   1      19.695 -14.806  24.294  0.00  0.00    -0.059 C 
ATOM     51  CD1 177 d   1      20.382 -14.475  25.597  0.00  0.00    -0.065 C 
ATOM     52  H2  177 d   1      19.519 -13.873  23.739  0.00  0.00     0.033 H 
ATOM     53  H3  177 d   1      20.350 -15.465  23.705  0.00  0.00     0.033 H 
ATOM     54  CE0 177 d   1      20.560 -15.725  26.448  0.00  0.00    -0.065 C 
ATOM     55  H6  177 d   1      19.773 -13.746  26.151  0.00  0.00     0.033 H 
ATOM     56  H7  177 d   1      21.370 -14.041  25.384  0.00  0.00     0.033 H 
ATOM     57  CD2 177 d   1      19.239 -16.465  26.659  0.00  0.00    -0.065 C 
ATOM     58  H10 177 d   1      20.964 -15.433  27.428  0.00  0.00     0.033 H 
ATOM     59  H11 177 d   1      21.269 -16.399  25.945  0.00  0.00     0.033 H 
ATOM     60  CG2 177 d   1      18.608 -16.781  25.324  0.00  0.00    -0.059 C 
ATOM     61  H8  177 d   1      19.429 -17.402  27.204  0.00  0.00     0.033 H 
ATOM     62  H9  177 d   1      18.556 -15.832  27.245  0.00  0.00     0.033 H 
ATOM     63  H4  177 d   1      19.282 -17.440  24.757  0.00  0.00     0.033 H 
ATOM     64  H5  177 d   1      17.650 -17.295  25.494  0.00  0.00     0.033 H 
ATOM     65  H1  177 d   1      17.688 -14.848  25.083  0.00  0.00     0.043 H 
ENDBRANCH  47  49
BRANCH  47  66
ATOM     66  N0  177 d   1      16.539 -16.774  23.316  0.00  0.00    -0.066 N 
ATOM     67  H12 177 d   1      16.126 -16.958  22.415  0.00  0.00     0.275 HD
ATOM     68  H13 177 d   1      15.848 -16.365  23.925  0.00  0.00     0.275 HD
ATOM     69  H14 177 d   1      16.871 -17.637  23.716  0.00  0.00     0.275 HD
ENDBRANCH  47  66
ENDBRANCH   1  47
TORSDOF 11
