REMARK  20 active torsions:
REMARK  status: ('A' for Active; 'I' for Inactive)
REMARK    1  A    between atoms: C1_1  and  O1_36 
REMARK    2  A    between atoms: C1_1  and  C4_4 
REMARK    3  A    between atoms: C1_1  and  C3_3 
REMARK    4  A    between atoms: C1_1  and  C2_2 
REMARK    5  A    between atoms: O1_36  and  C5_5 
REMARK       I    between atoms: C5_5  and  N1_32 
REMARK    6  A    between atoms: N1_32  and  C6_6 
REMARK    7  A    between atoms: C6_6  and  C14_14 
REMARK    8  A    between atoms: C6_6  and  C7_7 
REMARK    9  A    between atoms: C7_7  and  C8_8 
REMARK   10  A    between atoms: C14_14  and  O3_38 
REMARK   11  A    between atoms: C14_14  and  C15_15 
REMARK   12  A    between atoms: C15_15  and  C16_16 
REMARK   13  A    between atoms: C16_16  and  C24_24 
REMARK   14  A    between atoms: C16_16  and  C17_17 
REMARK   15  A    between atoms: C17_17  and  C18_18 
REMARK       I    between atoms: C24_24  and  N2_33 
REMARK   16  A    between atoms: N2_33  and  C25_25 
REMARK   17  A    between atoms: C25_25  and  C29_29 
REMARK   18  A    between atoms: C25_25  and  C26_26 
REMARK   19  A    between atoms: C26_26  and  C28_28 
REMARK   20  A    between atoms: C26_26  and  C27_27 
ROOT
ATOM      1  C15 IM1 d   1      13.326  23.654   4.336  0.00  0.00    -0.028 C 
ATOM      2  H19 IM1 d   1      12.942  22.673   4.653  0.00  0.00     0.038 H 
ATOM      3  H20 IM1 d   1      13.914  23.537   3.414  0.00  0.00     0.038 H 
ENDROOT
BRANCH   1   4
ATOM      4  C14 IM1 d   1      14.239  24.175   5.416  0.00  0.00     0.056 C 
ATOM      5  H18 IM1 d   1      13.666  24.795   6.121  0.00  0.00     0.086 H 
BRANCH   4   6
ATOM      6  C6  IM1 d   1      14.956  23.062   6.239  0.00  0.00     0.043 C 
ATOM      7  H10 IM1 d   1      14.155  22.413   6.623  0.00  0.00     0.077 H 
BRANCH   6   8
ATOM      8  N1  IM1 d   1      15.897  22.207   5.514  0.00  0.00    -0.329 N 
ATOM      9  C5  IM1 d   1      15.533  20.973   5.251  0.00  0.00     0.361 C 
ATOM     10  O2  IM1 d   1      14.402  20.610   5.632  0.00  0.00    -0.238 OA
ATOM     11  H39 IM1 d   1      16.791  22.552   5.227  0.00  0.00     0.165 HD
BRANCH   9  12
ATOM     12  O1  IM1 d   1      16.437  20.168   4.557  0.00  0.00    -0.294 OA
BRANCH  12  13
ATOM     13  C1  IM1 d   1      16.032  19.169   3.670  0.00  0.00     0.061 C 
BRANCH  13  14
ATOM     14  C4  IM1 d   1      15.101  19.668   2.583  0.00  0.00    -0.048 C 
ATOM     15  H7  IM1 d   1      14.824  18.831   1.925  0.00  0.00     0.031 H 
ATOM     16  H8  IM1 d   1      15.609  20.446   1.994  0.00  0.00     0.031 H 
ATOM     17  H9  IM1 d   1      14.194  20.089   3.042  0.00  0.00     0.031 H 
ENDBRANCH  13  14
BRANCH  13  18
ATOM     18  C3  IM1 d   1      15.429  17.975   4.385  0.00  0.00    -0.048 C 
ATOM     19  H4  IM1 d   1      15.127  17.219   3.645  0.00  0.00     0.031 H 
ATOM     20  H5  IM1 d   1      14.548  18.298   4.960  0.00  0.00     0.031 H 
ATOM     21  H6  IM1 d   1      16.174  17.542   5.069  0.00  0.00     0.031 H 
ENDBRANCH  13  18
BRANCH  13  22
ATOM     22  C2  IM1 d   1      17.264  18.597   3.008  0.00  0.00    -0.048 C 
ATOM     23  H1  IM1 d   1      16.968  17.806   2.303  0.00  0.00     0.031 H 
ATOM     24  H2  IM1 d   1      17.930  18.174   3.775  0.00  0.00     0.031 H 
ATOM     25  H3  IM1 d   1      17.791  19.394   2.464  0.00  0.00     0.031 H 
ENDBRANCH  13  22
ENDBRANCH  12  13
ENDBRANCH   9  12
ENDBRANCH   6   8
BRANCH   6  26
ATOM     26  C7  IM1 d   1      15.741  23.602   7.438  0.00  0.00    -0.020 C 
ATOM     27  H11 IM1 d   1      15.084  24.263   8.023  0.00  0.00     0.043 H 
ATOM     28  H12 IM1 d   1      16.603  24.177   7.067  0.00  0.00     0.043 H 
BRANCH  26  29
ATOM     29  C8  IM1 d   1      16.249  22.487   8.346  0.00  0.00    -0.056 A 
ATOM     30  C13 IM1 d   1      15.343  21.787   9.151  0.00  0.00    -0.077 A 
ATOM     31  C12 IM1 d   1      15.797  20.745   9.978  0.00  0.00    -0.082 A 
ATOM     32  H17 IM1 d   1      14.291  22.048   9.137  0.00  0.00     0.084 H 
ATOM     33  C11 IM1 d   1      17.149  20.411   9.993  0.00  0.00    -0.083 A 
ATOM     34  H16 IM1 d   1      15.097  20.203  10.603  0.00  0.00     0.083 H 
ATOM     35  C10 IM1 d   1      18.055  21.119   9.181  0.00  0.00    -0.082 A 
ATOM     36  H15 IM1 d   1      17.503  19.607  10.629  0.00  0.00     0.083 H 
ATOM     37  C9  IM1 d   1      17.610  22.156   8.359  0.00  0.00    -0.077 A 
ATOM     38  H14 IM1 d   1      19.107  20.857   9.194  0.00  0.00     0.083 H 
ATOM     39  H13 IM1 d   1      18.311  22.700   7.737  0.00  0.00     0.084 H 
ENDBRANCH  26  29
ENDBRANCH   6  26
ENDBRANCH   4   6
BRANCH   4  40
ATOM     40  O3  IM1 d   1      15.125  24.973   4.686  0.00  0.00    -0.393 OA
ATOM     41  H42 IM1 d   1      15.730  25.399   5.282  0.00  0.00     0.210 HD
ENDBRANCH   4  40
ENDBRANCH   1   4
BRANCH   1  42
ATOM     42  C16 IM1 d   1      12.153  24.545   4.037  0.00  0.00     0.030 C 
ATOM     43  H21 IM1 d   1      12.509  25.544   3.745  0.00  0.00     0.055 H 
BRANCH  42  44
ATOM     44  C24 IM1 d   1      11.268  24.678   5.289  0.00  0.00     0.222 C 
ATOM     45  O4  IM1 d   1      11.143  23.787   6.139  0.00  0.00    -0.273 OA
ATOM     46  N2  IM1 d   1      10.616  25.812   5.433  0.00  0.00    -0.349 N 
ATOM     47  H40 IM1 d   1      10.734  26.529   4.746  0.00  0.00     0.163 HD
BRANCH  46  48
ATOM     48  C25 IM1 d   1       9.729  26.056   6.561  0.00  0.00     0.072 C 
ATOM     49  H29 IM1 d   1       9.279  25.114   6.908  0.00  0.00     0.085 H 
BRANCH  48  50
ATOM     50  C29 IM1 d   1       8.681  26.995   5.948  0.00  0.00     0.126 A 
ATOM     51  N4  IM1 d   1       7.466  26.512   6.111  0.00  0.00    -0.351 N 
ATOM     52  C31 IM1 d   1       6.672  27.311   5.328  0.00  0.00    -0.005 A 
ATOM     53  H41 IM1 d   1       7.177  25.714   6.695  0.00  0.00     0.166 HD
ATOM     54  C30 IM1 d   1       7.505  28.260   4.723  0.00  0.00     0.019 A 
ATOM     55  H38 IM1 d   1       5.594  27.223   5.201  0.00  0.00     0.113 H 
ATOM     56  N3  IM1 d   1       8.808  28.053   5.127  0.00  0.00    -0.244 NA
ATOM     57  H37 IM1 d   1       7.175  29.041   4.039  0.00  0.00     0.117 H 
ENDBRANCH  48  50
BRANCH  48  58
ATOM     58  C26 IM1 d   1      10.391  26.768   7.750  0.00  0.00    -0.035 C 
ATOM     59  H30 IM1 d   1      10.582  27.821   7.496  0.00  0.00     0.042 H 
BRANCH  58  60
ATOM     60  C28 IM1 d   1      11.642  26.121   8.263  0.00  0.00    -0.071 C 
ATOM     61  H34 IM1 d   1      12.424  26.172   7.491  0.00  0.00     0.028 H 
ATOM     62  H35 IM1 d   1      11.437  25.068   8.508  0.00  0.00     0.028 H 
ATOM     63  H36 IM1 d   1      11.983  26.648   9.166  0.00  0.00     0.028 H 
ENDBRANCH  58  60
BRANCH  58  64
ATOM     64  C27 IM1 d   1       9.447  26.625   8.876  0.00  0.00    -0.071 C 
ATOM     65  H31 IM1 d   1       9.863  27.117   9.768  0.00  0.00     0.028 H 
ATOM     66  H32 IM1 d   1       9.287  25.557   9.087  0.00  0.00     0.028 H 
ATOM     67  H33 IM1 d   1       8.488  27.094   8.612  0.00  0.00     0.028 H 
ENDBRANCH  58  64
ENDBRANCH  48  58
ENDBRANCH  46  48
ENDBRANCH  42  44
BRANCH  42  68
ATOM     68  C17 IM1 d   1      11.385  23.913   2.860  0.00  0.00    -0.029 C 
ATOM     69  H22 IM1 d   1      11.299  22.834   3.053  0.00  0.00     0.041 H 
ATOM     70  H23 IM1 d   1      11.974  24.076   1.946  0.00  0.00     0.041 H 
BRANCH  68  71
ATOM     71  C18 IM1 d   1       9.983  24.458   2.617  0.00  0.00    -0.057 A 
ATOM     72  C23 IM1 d   1       8.875  23.666   2.909  0.00  0.00    -0.077 A 
ATOM     73  C22 IM1 d   1       7.590  24.165   2.684  0.00  0.00    -0.082 A 
ATOM     74  H28 IM1 d   1       9.009  22.667   3.309  0.00  0.00     0.084 H 
ATOM     75  C21 IM1 d   1       7.396  25.452   2.170  0.00  0.00    -0.083 A 
ATOM     76  H27 IM1 d   1       6.730  23.546   2.911  0.00  0.00     0.083 H 
ATOM     77  C20 IM1 d   1       8.501  26.244   1.880  0.00  0.00    -0.082 A 
ATOM     78  H26 IM1 d   1       6.394  25.828   2.000  0.00  0.00     0.083 H 
ATOM     79  C19 IM1 d   1       9.789  25.747   2.102  0.00  0.00    -0.077 A 
ATOM     80  H25 IM1 d   1       8.365  27.244   1.483  0.00  0.00     0.083 H 
ATOM     81  H24 IM1 d   1      10.649  26.367   1.873  0.00  0.00     0.084 H 
ENDBRANCH  68  71
ENDBRANCH  42  68
ENDBRANCH   1  42
TORSDOF 20
