REMARK  4 active torsions:
REMARK  status: ('A' for Active; 'I' for Inactive)
REMARK    1  A    between atoms: C15_2  and  C9_5 
REMARK    2  A    between atoms: C11_7  and  N2_11 
REMARK    3  A    between atoms: N2_11  and  C1_12 
REMARK    4  A    between atoms: C2_14  and  C6_15 
ROOT
ATOM      1  C9  NFL d   1      11.515  11.989   5.852  0.00  0.00     0.050 A 
ATOM      2  C10 NFL d   1      10.796  12.507   4.743  0.00  0.00    -0.043 A 
ATOM      3  C11 NFL d   1      11.449  13.295   3.763  0.00  0.00     0.034 A 
ATOM      4  C12 NFL d   1      12.815  13.512   3.932  0.00  0.00    -0.057 A 
ATOM      5  C13 NFL d   1      13.520  12.986   5.011  0.00  0.00    -0.080 A 
ATOM      6  C14 NFL d   1      12.876  12.224   5.967  0.00  0.00    -0.068 A 
ATOM      7  H1  NFL d   1       9.737  12.298   4.645  0.00  0.00     0.088 H 
ATOM      8  H2  NFL d   1      13.346  14.110   3.200  0.00  0.00     0.086 H 
ATOM      9  H3  NFL d   1      14.583  13.176   5.102  0.00  0.00     0.083 H 
ATOM     10  H4  NFL d   1      13.432  11.813   6.802  0.00  0.00     0.084 H 
ENDROOT
BRANCH   3  11
ATOM     11  N2  NFL d   1      10.908  13.896   2.633  0.00  0.00    -0.340 N 
ATOM     12  H5  NFL d   1      11.594  14.422   2.074  0.00  0.00     0.167 HD
BRANCH  11  13
ATOM     13  C1  NFL d   1       9.624  13.924   2.113  0.00  0.00     0.144 A 
ATOM     14  N1  NFL d   1       8.618  13.288   2.756  0.00  0.00    -0.242 NA
ATOM     15  C5  NFL d   1       7.353  13.268   2.312  0.00  0.00     0.004 A 
ATOM     16  C4  NFL d   1       6.980  13.911   1.145  0.00  0.00    -0.065 A 
ATOM     17  H8  NFL d   1       6.602  12.734   2.883  0.00  0.00     0.114 H 
ATOM     18  C3  NFL d   1       7.928  14.603   0.402  0.00  0.00    -0.061 A 
ATOM     19  H7  NFL d   1       5.949  13.875   0.811  0.00  0.00     0.085 H 
ATOM     20  C2  NFL d   1       9.260  14.654   0.830  0.00  0.00     0.086 A 
ATOM     21  H6  NFL d   1       7.635  15.105  -0.513  0.00  0.00     0.085 H 
BRANCH  20  22
ATOM     22  C6  NFL d   1      10.227  15.437  -0.059  0.00  0.00     0.213 C 
ATOM     23  O8  NFL d   1      11.418  15.537   0.214  0.00  0.00    -0.644 OA
ATOM     24  O7  NFL d   1       9.834  15.990  -1.089  0.00  0.00    -0.644 OA
ENDBRANCH  20  22
ENDBRANCH  11  13
ENDBRANCH   3  11
BRANCH   1  25
ATOM     25  C15 NFL d   1      10.936  11.092   6.926  0.00  0.00     0.417 C 
ATOM     26  F3  NFL d   1       9.637  10.869   6.725  0.00  0.00    -0.166 F 
ATOM     27  F1  NFL d   1      11.569   9.937   6.729  0.00  0.00    -0.166 F 
ATOM     28  F2  NFL d   1      11.237  11.425   8.180  0.00  0.00    -0.166 F 
ENDBRANCH   1  25
TORSDOF 4
