REMARK  9 active torsions:
REMARK  status: ('A' for Active; 'I' for Inactive)
REMARK    1  A    between atoms: C5_5  and  N8_8 
REMARK    2  A    between atoms: C6_6  and  O7_7 
REMARK    3  A    between atoms: N8_8  and  C9_9 
REMARK    4  A    between atoms: C9_9  and  C10_10 
REMARK    5  A    between atoms: C9_9  and  O17_17 
REMARK    6  A    between atoms: C10_10  and  C11_11 
REMARK    7  A    between atoms: C10_10  and  O18_18 
REMARK    8  A    between atoms: C11_11  and  O12_12 
REMARK    9  A    between atoms: O12_12  and  P13_13 
ROOT
ATOM      1  C9  HPF d   1      48.196  28.058  14.647  0.00  0.00     0.128 C 
ATOM      2  H7  HPF d   1      47.851  29.076  14.882  0.00  0.00     0.121 H 
ENDROOT
BRANCH   1   3
ATOM      3  N8  HPF d   1      49.305  27.745  15.581  0.00  0.00    -0.359 N 
ATOM      4  H6  HPF d   1      49.522  28.357  16.381  0.00  0.00     0.162 HD
BRANCH   3   5
ATOM      5  C5  HPF d   1      50.082  26.524  15.317  0.00  0.00     0.063 A 
ATOM      6  C4  HPF d   1      49.430  25.279  15.340  0.00  0.00    -0.055 A 
ATOM      7  C3  HPF d   1      50.220  24.130  15.082  0.00  0.00    -0.081 A 
ATOM      8  H4  HPF d   1      48.369  25.201  15.546  0.00  0.00     0.087 H 
ATOM      9  C2  HPF d   1      51.632  24.149  14.788  0.00  0.00    -0.080 A 
ATOM     10  H3  HPF d   1      49.726  23.166  15.108  0.00  0.00     0.083 H 
ATOM     11  C1  HPF d   1      52.225  25.477  14.792  0.00  0.00    -0.049 A 
ATOM     12  H2  HPF d   1      52.202  23.250  14.582  0.00  0.00     0.083 H 
ATOM     13  C6  HPF d   1      51.438  26.630  15.060  0.00  0.00     0.092 A 
ATOM     14  H1  HPF d   1      53.284  25.589  14.587  0.00  0.00     0.087 H 
BRANCH  13  15
ATOM     15  O7  HPF d   1      52.034  27.857  15.060  0.00  0.00    -0.358 OA
ATOM     16  H5  HPF d   1      52.959  27.758  14.868  0.00  0.00     0.217 HD
ENDBRANCH  13  15
ENDBRANCH   3   5
ENDBRANCH   1   3
BRANCH   1  17
ATOM     17  C10 HPF d   1      48.599  28.051  13.164  0.00  0.00     0.098 C 
ATOM     18  H8  HPF d   1      49.067  27.095  12.887  0.00  0.00     0.093 H 
BRANCH  17  19
ATOM     19  C11 HPF d   1      47.448  28.347  12.237  0.00  0.00     0.060 C 
ATOM     20  H9  HPF d   1      47.155  29.404  12.322  0.00  0.00     0.079 H 
ATOM     21  H10 HPF d   1      46.588  27.707  12.485  0.00  0.00     0.079 H 
BRANCH  19  22
ATOM     22  O12 HPF d   1      47.916  28.060  10.877  0.00  0.00    -0.280 OA
BRANCH  22  23
ATOM     23  P13 HPF d   1      48.244  29.342   9.952  0.00  0.00     0.422 P 
ATOM     24  O14 HPF d   1      46.886  30.214   9.877  0.00  0.00    -0.617 OA
ATOM     25  O15 HPF d   1      49.472  30.197  10.613  0.00  0.00    -0.617 OA
ATOM     26  O16 HPF d   1      48.594  28.701   8.656  0.00  0.00    -0.617 OA
ENDBRANCH  22  23
ENDBRANCH  19  22
ENDBRANCH  17  19
BRANCH  17  27
ATOM     27  O18 HPF d   1      49.538  29.163  13.086  0.00  0.00    -0.389 OA
ATOM     28  H12 HPF d   1      49.850  29.251  12.193  0.00  0.00     0.210 HD
ENDBRANCH  17  27
ENDBRANCH   1  17
BRANCH   1  29
ATOM     29  O17 HPF d   1      47.110  27.164  14.871  0.00  0.00    -0.374 OA
ATOM     30  H11 HPF d   1      46.804  27.257  15.765  0.00  0.00     0.212 HD
ENDBRANCH   1  29
TORSDOF 9
