REMARK  11 active torsions:
REMARK  status: ('A' for Active; 'I' for Inactive)
REMARK    1  A    between atoms: C2'_2  and  CM2_3 
REMARK    2  A    between atoms: C4'_5  and  N4'_6 
REMARK    3  A    between atoms: C5'_7  and  C7'_9 
REMARK    4  A    between atoms: C7'_9  and  N3_10 
REMARK    5  A    between atoms: C5_13  and  C6_16 
REMARK    6  A    between atoms: C4_14  and  CM4_15 
REMARK    7  A    between atoms: C6_16  and  C7_17 
REMARK    8  A    between atoms: C7_17  and  O7_18 
REMARK    9  A    between atoms: O7_18  and  PA_19 
REMARK   10  A    between atoms: PA_19  and  O3A_22 
REMARK   11  A    between atoms: O3A_22  and  PB_23 
ROOT
ATOM      1  N3  N1T d   1      19.073  74.519  26.085  0.00  0.00    -0.349 N 
ATOM      2  C2  N1T d   1      18.949  75.774  25.656  0.00  0.00     0.018 C 
ATOM      3  S1  N1T d   1      19.764  76.041  24.224  0.00  0.00    -0.087 SA
ATOM      4  C5  N1T d   1      20.226  74.402  24.163  0.00  0.00     0.008 C 
ATOM      5  C4  N1T d   1      19.889  73.760  25.334  0.00  0.00     0.021 C 
ATOM      6  H10 N1T d   1      18.380  76.540  26.181  0.00  0.00     0.123 H 
ENDROOT
BRANCH   1   7
ATOM      7  C7' N1T d   1      18.173  73.933  27.146  0.00  0.00     0.027 C 
ATOM      8  H8  N1T d   1      18.698  73.078  27.596  0.00  0.00     0.072 H 
ATOM      9  H9  N1T d   1      18.009  74.706  27.911  0.00  0.00     0.072 H 
BRANCH   7  10
ATOM     10  C5' N1T d   1      16.808  73.446  26.679  0.00  0.00     0.005 C 
ATOM     11  C4' N1T d   1      15.729  74.334  26.368  0.00  0.00     0.129 C 
ATOM     12  N3' N1T d   1      14.452  73.907  26.167  0.00  0.00    -0.236 NA
ATOM     13  C2' N1T d   1      14.181  72.603  26.086  0.00  0.00     0.033 C 
ATOM     14  C1' N1T d   1      15.151  71.652  26.562  0.00  0.00    -0.059 C 
ATOM     15  C6' N1T d   1      16.490  72.143  26.857  0.00  0.00    -0.070 C 
ATOM     16  H1  N1T d   1      14.894  70.608  26.696  0.00  0.00     0.086 H 
ATOM     17  H7  N1T d   1      17.243  71.455  27.224  0.00  0.00     0.084 H 
BRANCH  11  18
ATOM     18  N4' N1T d   1      15.854  75.614  26.424  0.00  0.00    -0.384 N 
ATOM     19  H5  N1T d   1      16.782  76.035  26.573  0.00  0.00     0.157 HD
ATOM     20  H6  N1T d   1      15.026  76.217  26.320  0.00  0.00     0.157 HD
ENDBRANCH  11  18
BRANCH  13  21
ATOM     21  CM2 N1T d   1      12.832  72.133  25.759  0.00  0.00    -0.035 C 
ATOM     22  H2  N1T d   1      12.222  72.981  25.413  0.00  0.00     0.035 H 
ATOM     23  H3  N1T d   1      12.371  71.691  26.654  0.00  0.00     0.035 H 
ATOM     24  H4  N1T d   1      12.890  71.375  24.964  0.00  0.00     0.035 H 
ENDBRANCH  13  21
ENDBRANCH   7  10
ENDBRANCH   1   7
BRANCH   5  25
ATOM     25  CM4 N1T d   1      19.910  72.268  25.541  0.00  0.00    -0.036 C 
ATOM     26  H11 N1T d   1      20.630  71.811  24.846  0.00  0.00     0.035 H 
ATOM     27  H12 N1T d   1      18.907  71.858  25.352  0.00  0.00     0.035 H 
ATOM     28  H13 N1T d   1      20.208  72.046  26.576  0.00  0.00     0.035 H 
ENDBRANCH   5  25
BRANCH   4  29
ATOM     29  C6  N1T d   1      20.594  73.770  22.844  0.00  0.00    -0.013 C 
ATOM     30  H14 N1T d   1      19.677  73.699  22.240  0.00  0.00     0.044 H 
ATOM     31  H15 N1T d   1      20.975  72.759  23.052  0.00  0.00     0.044 H 
BRANCH  29  32
ATOM     32  C7  N1T d   1      21.626  74.486  22.024  0.00  0.00     0.036 C 
ATOM     33  H16 N1T d   1      22.077  73.828  21.267  0.00  0.00     0.075 H 
ATOM     34  H17 N1T d   1      22.419  74.920  22.651  0.00  0.00     0.075 H 
BRANCH  32  35
ATOM     35  O7  N1T d   1      20.810  75.484  21.438  0.00  0.00    -0.289 OA
BRANCH  35  36
ATOM     36  PA  N1T d   1      20.948  76.243  20.066  0.00  0.00     0.418 P 
ATOM     37  O2A N1T d   1      21.744  75.568  18.989  0.00  0.00    -0.624 OA
ATOM     38  O1A N1T d   1      19.530  76.603  19.735  0.00  0.00    -0.624 OA
BRANCH  36  39
ATOM     39  O3A N1T d   1      21.721  77.604  20.309  0.00  0.00    -0.173 OA
BRANCH  39  40
ATOM     40  PB  N1T d   1      23.112  78.223  19.944  0.00  0.00     0.431 P 
ATOM     41  O3B N1T d   1      24.111  77.358  20.572  0.00  0.00    -0.616 OA
ATOM     42  O2B N1T d   1      23.120  78.037  18.462  0.00  0.00    -0.616 OA
ATOM     43  O1B N1T d   1      22.875  79.492  20.629  0.00  0.00    -0.616 OA
ENDBRANCH  39  40
ENDBRANCH  36  39
ENDBRANCH  35  36
ENDBRANCH  32  35
ENDBRANCH  29  32
ENDBRANCH   4  29
TORSDOF 11
