REMARK  17 active torsions:
REMARK  status: ('A' for Active; 'I' for Inactive)
REMARK    1  A    between atoms: O1_2  and  C1_1 
REMARK    2  A    between atoms: P_12  and  O1_2 
REMARK    3  A    between atoms: C2_3  and  O2_4 
REMARK    4  A    between atoms: C3_5  and  O3_6 
REMARK    5  A    between atoms: C4_7  and  O4_8 
REMARK    6  A    between atoms: C5_9  and  C6_11 
REMARK    7  A    between atoms: P_12  and  N_15 
REMARK    8  A    between atoms: N_15  and  CA_16 
REMARK    9  A    between atoms: CA_16  and  CB_19 
REMARK   10  A    between atoms: CA_16  and  C_17 
REMARK       I    between atoms: C_17  and  N_23 
REMARK   11  A    between atoms: CB_19  and  CG_20 
REMARK   12  A    between atoms: CG_20  and  CD1_21 
REMARK   13  A    between atoms: CG_20  and  CD2_22 
REMARK   14  A    between atoms: N_23  and  CA_24 
REMARK   15  A    between atoms: CA_24  and  CB_27 
REMARK   16  A    between atoms: CA_24  and  C_25 
REMARK   17  A    between atoms: CB_27  and  CG_28 
ROOT
ATOM      1  CA  RDF d   1      52.688  17.980  -4.388  0.00  0.00     0.093 C 
ATOM      2  H13 RDF d   1      53.397  18.797  -4.589  0.00  0.00     0.087 H 
ENDROOT
BRANCH   1   3
ATOM      3  N   RDF d   1      51.667  18.103  -5.418  0.00  0.00    -0.312 N 
ATOM      4  H12 RDF d   1      50.836  17.564  -5.283  0.00  0.00     0.166 HD
BRANCH   3   5
ATOM      5  P   RDF d   1      51.715  18.902  -6.596  0.00  0.00     0.362 P 
ATOM      6  O1P RDF d   1      53.231  19.053  -6.870  0.00  0.00    -0.630 OA
ATOM      7  O2P RDF d   1      51.194  20.234  -6.325  0.00  0.00    -0.630 OA
BRANCH   5   8
ATOM      8  O1  RDF d   1      50.920  18.137  -7.643  0.00  0.00    -0.261 OA
BRANCH   8   9
ATOM      9  C1  RDF d   1      51.183  16.914  -8.254  0.00  0.00     0.170 C 
ATOM     10  C2  RDF d   1      50.171  16.113  -7.502  0.00  0.00     0.110 C 
ATOM     11  C3  RDF d   1      48.865  16.750  -7.787  0.00  0.00     0.092 C 
ATOM     12  H2  RDF d   1      50.413  16.093  -6.429  0.00  0.00     0.094 H 
ATOM     13  C4  RDF d   1      48.610  16.502  -9.263  0.00  0.00     0.087 C 
ATOM     14  H4  RDF d   1      48.839  17.826  -7.560  0.00  0.00     0.091 H 
ATOM     15  C5  RDF d   1      49.572  17.376 -10.084  0.00  0.00     0.065 C 
ATOM     16  H6  RDF d   1      48.839  15.448  -9.480  0.00  0.00     0.091 H 
ATOM     17  O5  RDF d   1      50.917  16.967  -9.678  0.00  0.00    -0.350 OA
ATOM     18  H8  RDF d   1      49.426  18.415  -9.753  0.00  0.00     0.086 H 
ATOM     19  H1  RDF d   1      52.211  16.562  -8.081  0.00  0.00     0.134 H 
BRANCH  10  20
ATOM     20  O2  RDF d   1      49.976  14.742  -8.034  0.00  0.00    -0.388 OA
ATOM     21  H3  RDF d   1      49.323  14.291  -7.512  0.00  0.00     0.210 HD
ENDBRANCH  10  20
BRANCH  11  22
ATOM     22  O3  RDF d   1      48.022  16.009  -6.924  0.00  0.00    -0.390 OA
ATOM     23  H5  RDF d   1      48.059  15.089  -7.160  0.00  0.00     0.210 HD
ENDBRANCH  11  22
BRANCH  13  24
ATOM     24  O4  RDF d   1      47.268  16.717  -9.593  0.00  0.00    -0.390 OA
ATOM     25  H7  RDF d   1      46.721  16.127  -9.089  0.00  0.00     0.210 HD
ENDBRANCH  13  24
BRANCH  15  26
ATOM     26  C6  RDF d   1      49.360  17.397 -11.604  0.00  0.00    -0.050 C 
ATOM     27  H9  RDF d   1      50.108  18.055 -12.069  0.00  0.00     0.031 H 
ATOM     28  H10 RDF d   1      48.351  17.773 -11.828  0.00  0.00     0.031 H 
ATOM     29  H11 RDF d   1      49.469  16.378 -12.004  0.00  0.00     0.031 H 
ENDBRANCH  15  26
ENDBRANCH   8   9
ENDBRANCH   5   8
ENDBRANCH   3   5
ENDBRANCH   1   3
BRANCH   1  30
ATOM     30  CB  RDF d   1      52.144  18.204  -2.986  0.00  0.00    -0.035 C 
ATOM     31  H14 RDF d   1      51.356  17.460  -2.796  0.00  0.00     0.037 H 
ATOM     32  H15 RDF d   1      51.713  19.215  -2.938  0.00  0.00     0.037 H 
BRANCH  30  33
ATOM     33  CG  RDF d   1      53.236  18.074  -1.852  0.00  0.00    -0.059 C 
ATOM     34  H16 RDF d   1      53.691  17.083  -1.997  0.00  0.00     0.038 H 
BRANCH  33  35
ATOM     35  CD1 RDF d   1      54.393  19.099  -1.824  0.00  0.00    -0.073 C 
ATOM     36  H17 RDF d   1      55.063  18.873  -0.981  0.00  0.00     0.028 H 
ATOM     37  H18 RDF d   1      53.982  20.112  -1.705  0.00  0.00     0.028 H 
ATOM     38  H19 RDF d   1      54.957  19.041  -2.766  0.00  0.00     0.028 H 
ENDBRANCH  33  35
BRANCH  33  39
ATOM     39  CD2 RDF d   1      52.637  18.119  -0.440  0.00  0.00    -0.073 C 
ATOM     40  H20 RDF d   1      51.798  17.410  -0.375  0.00  0.00     0.028 H 
ATOM     41  H21 RDF d   1      52.275  19.136  -0.227  0.00  0.00     0.028 H 
ATOM     42  H22 RDF d   1      53.408  17.843   0.294  0.00  0.00     0.028 H 
ENDBRANCH  33  39
ENDBRANCH  30  33
ENDBRANCH   1  30
BRANCH   1  43
ATOM     43  C   RDF d   1      53.504  16.720  -4.374  0.00  0.00     0.241 C 
ATOM     44  O   RDF d   1      54.637  16.851  -3.933  0.00  0.00    -0.271 OA
ATOM     45  N   RDF d   1      52.910  15.559  -4.831  0.00  0.00    -0.344 N 
ATOM     46  H23 RDF d   1      51.948  15.627  -5.096  0.00  0.00     0.163 HD
BRANCH  45  47
ATOM     47  CA  RDF d   1      53.536  14.231  -4.971  0.00  0.00     0.100 C 
ATOM     48  H24 RDF d   1      54.440  14.373  -5.582  0.00  0.00     0.090 H 
BRANCH  47  49
ATOM     49  CB  RDF d   1      54.032  13.779  -3.578  0.00  0.00    -0.011 C 
ATOM     50  H25 RDF d   1      54.570  14.616  -3.109  0.00  0.00     0.044 H 
ATOM     51  H26 RDF d   1      54.718  12.929  -3.709  0.00  0.00     0.044 H 
BRANCH  49  52
ATOM     52  CG  RDF d   1      52.938  13.365  -2.684  0.00  0.00    -0.028 A 
ATOM     53  CD1 RDF d   1      52.156  14.197  -1.947  0.00  0.00    -0.015 A 
ATOM     54  NE1 RDF d   1      51.220  13.492  -1.253  0.00  0.00    -0.365 N 
ATOM     55  H27 RDF d   1      52.263  15.280  -1.916  0.00  0.00     0.112 H 
ATOM     56  CE2 RDF d   1      51.394  12.166  -1.521  0.00  0.00     0.042 A 
ATOM     57  H28 RDF d   1      50.503  13.892  -0.631  0.00  0.00     0.165 HD
ATOM     58  CD2 RDF d   1      52.477  12.038  -2.441  0.00  0.00    -0.002 A 
ATOM     59  CZ2 RDF d   1      50.676  11.082  -1.052  0.00  0.00    -0.056 A 
ATOM     60  CE3 RDF d   1      52.873  10.772  -2.906  0.00  0.00    -0.070 A 
ATOM     61  CZ3 RDF d   1      52.145   9.694  -2.444  0.00  0.00    -0.082 A 
ATOM     62  H29 RDF d   1      53.705  10.649  -3.590  0.00  0.00     0.084 H 
ATOM     63  CH2 RDF d   1      51.084   9.848  -1.519  0.00  0.00    -0.081 A 
ATOM     64  H31 RDF d   1      52.393   8.700  -2.800  0.00  0.00     0.083 H 
ATOM     65  H32 RDF d   1      50.571   8.962  -1.163  0.00  0.00     0.083 H 
ATOM     66  H30 RDF d   1      49.847  11.193  -0.363  0.00  0.00     0.086 H 
ENDBRANCH  49  52
ENDBRANCH  47  49
BRANCH  47  67
ATOM     67  C   RDF d   1      52.673  13.218  -5.766  0.00  0.00     0.197 C 
ATOM     68  O   RDF d   1      51.490  13.641  -5.932  0.00  0.00    -0.646 OA
ATOM     69  OXT RDF d   1      53.184  12.087  -6.164  0.00  0.00    -0.646 OA
ENDBRANCH  47  67
ENDBRANCH  45  47
ENDBRANCH   1  43
TORSDOF 17
