REMARK  15 active torsions:
REMARK  status: ('A' for Active; 'I' for Inactive)
REMARK    1  A    between atoms: CA_1  and  CB1_2 
REMARK    2  A    between atoms: CA_1  and  CB2_10 
REMARK    3  A    between atoms: CA_1  and  N_13 
REMARK    4  A    between atoms: CB1_2  and  CG_3 
REMARK    5  A    between atoms: CG_3  and  CD_4 
REMARK    6  A    between atoms: N_13  and  CA_14 
REMARK    7  A    between atoms: CA_14  and  CB_17 
REMARK    8  A    between atoms: CA_14  and  C_15 
REMARK       I    between atoms: C_15  and  N_21 
REMARK    9  A    between atoms: CB_17  and  CG_18 
REMARK   10  A    between atoms: CG_18  and  CD1_19 
REMARK   11  A    between atoms: CG_18  and  CD2_20 
REMARK   12  A    between atoms: N_21  and  CA_22 
REMARK   13  A    between atoms: CA_22  and  CB_25 
REMARK   14  A    between atoms: CA_22  and  C_23 
REMARK   15  A    between atoms: CB_25  and  CG_26 
ROOT
ATOM      1  CA  0ZN d   1      52.837  18.103  -3.513  0.00  0.00     0.179 C 
ATOM      2  H13 0ZN d   1      53.434  18.991  -3.770  0.00  0.00     0.099 H 
ENDROOT
BRANCH   1   3
ATOM      3  N   0ZN d   1      51.538  18.235  -4.218  0.00  0.00    -0.048 N 
ATOM      4  H11 0ZN d   1      51.157  19.145  -4.013  0.00  0.00     0.279 HD
ATOM      5  H12 0ZN d   1      50.915  17.524  -3.869  0.00  0.00     0.279 HD
BRANCH   3   6
ATOM      6  CA  0ZN d   1      51.634  18.088  -5.722  0.00  0.00     0.185 C 
ATOM      7  H1  0ZN d   1      52.080  17.094  -5.873  0.00  0.00     0.101 H 
BRANCH   6   8
ATOM      8  CB1 0ZN d   1      50.313  18.112  -6.512  0.00  0.00    -0.025 C 
ATOM      9  H2  0ZN d   1      50.472  18.584  -7.493  0.00  0.00     0.037 H 
ATOM     10  H3  0ZN d   1      49.553  18.677  -5.952  0.00  0.00     0.037 H 
BRANCH   8  11
ATOM     11  CG  0ZN d   1      49.852  16.661  -6.700  0.00  0.00    -0.039 C 
ATOM     12  H4  0ZN d   1      49.749  16.218  -5.698  0.00  0.00     0.040 H 
ATOM     13  H5  0ZN d   1      50.644  16.136  -7.253  0.00  0.00     0.040 H 
BRANCH  11  14
ATOM     14  CD  0ZN d   1      48.526  16.411  -7.450  0.00  0.00    -0.058 A 
ATOM     15  CE1 0ZN d   1      48.500  16.355  -8.838  0.00  0.00    -0.077 A 
ATOM     16  CZ1 0ZN d   1      47.313  16.046  -9.530  0.00  0.00    -0.082 A 
ATOM     17  H6  0ZN d   1      49.408  16.552  -9.397  0.00  0.00     0.084 H 
ATOM     18  CH  0ZN d   1      46.142  15.792  -8.810  0.00  0.00    -0.083 A 
ATOM     19  H8  0ZN d   1      47.307  16.005 -10.613  0.00  0.00     0.083 H 
ATOM     20  CZ2 0ZN d   1      46.195  15.821  -7.402  0.00  0.00    -0.082 A 
ATOM     21  H10 0ZN d   1      45.212  15.577  -9.324  0.00  0.00     0.083 H 
ATOM     22  CE2 0ZN d   1      47.394  16.119  -6.730  0.00  0.00    -0.077 A 
ATOM     23  H9  0ZN d   1      45.299  15.611  -6.829  0.00  0.00     0.083 H 
ATOM     24  H7  0ZN d   1      47.424  16.118  -5.646  0.00  0.00     0.084 H 
ENDBRANCH  11  14
ENDBRANCH   8  11
ENDBRANCH   6   8
BRANCH   6  25
ATOM     25  CB2 0ZN d   1      52.509  19.080  -6.452  0.00  0.00     0.204 C 
ATOM     26  OG1 0ZN d   1      53.327  18.700  -7.316  0.00  0.00    -0.646 OA
ATOM     27  OG2 0ZN d   1      52.330  20.288  -6.275  0.00  0.00    -0.646 OA
ENDBRANCH   6  25
ENDBRANCH   3   6
ENDBRANCH   1   3
BRANCH   1  28
ATOM     28  CB  0ZN d   1      52.598  18.091  -2.002  0.00  0.00    -0.027 C 
ATOM     29  H14 0ZN d   1      52.123  17.144  -1.707  0.00  0.00     0.037 H 
ATOM     30  H15 0ZN d   1      51.946  18.931  -1.721  0.00  0.00     0.037 H 
BRANCH  28  31
ATOM     31  CG  0ZN d   1      53.941  18.229  -1.310  0.00  0.00    -0.059 C 
ATOM     32  H16 0ZN d   1      54.587  17.386  -1.597  0.00  0.00     0.038 H 
BRANCH  31  33
ATOM     33  CD1 0ZN d   1      54.628  19.527  -1.728  0.00  0.00    -0.073 C 
ATOM     34  H17 0ZN d   1      55.599  19.609  -1.217  0.00  0.00     0.028 H 
ATOM     35  H18 0ZN d   1      53.995  20.383  -1.452  0.00  0.00     0.028 H 
ATOM     36  H19 0ZN d   1      54.786  19.524  -2.817  0.00  0.00     0.028 H 
ENDBRANCH  31  33
BRANCH  31  37
ATOM     37  CD2 0ZN d   1      53.686  18.171   0.190  0.00  0.00    -0.073 C 
ATOM     38  H20 0ZN d   1      53.191  17.221   0.441  0.00  0.00     0.028 H 
ATOM     39  H21 0ZN d   1      53.039  19.010   0.485  0.00  0.00     0.028 H 
ATOM     40  H22 0ZN d   1      54.643  18.239   0.728  0.00  0.00     0.028 H 
ENDBRANCH  31  37
ENDBRANCH  28  31
ENDBRANCH   1  28
BRANCH   1  41
ATOM     41  C   0ZN d   1      53.681  16.868  -3.859  0.00  0.00     0.249 C 
ATOM     42  O   0ZN d   1      54.939  16.938  -3.959  0.00  0.00    -0.271 OA
ATOM     43  N   0ZN d   1      52.952  15.765  -3.983  0.00  0.00    -0.344 N 
ATOM     44  H23 0ZN d   1      51.962  15.832  -3.856  0.00  0.00     0.163 HD
BRANCH  43  45
ATOM     45  CA  0ZN d   1      53.530  14.448  -4.298  0.00  0.00     0.100 C 
ATOM     46  H24 0ZN d   1      54.400  14.663  -4.936  0.00  0.00     0.090 H 
BRANCH  45  47
ATOM     47  CB  0ZN d   1      54.101  13.735  -3.037  0.00  0.00    -0.011 C 
ATOM     48  H25 0ZN d   1      54.726  14.439  -2.467  0.00  0.00     0.044 H 
ATOM     49  H26 0ZN d   1      54.709  12.872  -3.346  0.00  0.00     0.044 H 
BRANCH  47  50
ATOM     50  CG  0ZN d   1      52.943  13.258  -2.164  0.00  0.00    -0.028 C 
ATOM     51  CD1 0ZN d   1      51.832  13.908  -1.823  0.00  0.00    -0.015 C 
ATOM     52  NE1 0ZN d   1      50.892  12.989  -1.314  0.00  0.00    -0.365 N 
ATOM     53  H27 0ZN d   1      51.674  14.981  -1.922  0.00  0.00     0.112 H 
ATOM     54  CE2 0ZN d   1      51.442  11.840  -1.286  0.00  0.00     0.042 A 
ATOM     55  H28 0ZN d   1      49.930  13.208  -1.017  0.00  0.00     0.165 HD
ATOM     56  CD2 0ZN d   1      52.798  11.977  -1.642  0.00  0.00    -0.002 A 
ATOM     57  CZ2 0ZN d   1      50.904  10.638  -0.855  0.00  0.00    -0.056 A 
ATOM     58  CE3 0ZN d   1      53.723  10.946  -1.480  0.00  0.00    -0.070 A 
ATOM     59  CZ3 0ZN d   1      53.213   9.741  -0.964  0.00  0.00    -0.082 A 
ATOM     60  H29 0ZN d   1      54.770  11.066  -1.736  0.00  0.00     0.084 H 
ATOM     61  CH2 0ZN d   1      51.831   9.584  -0.690  0.00  0.00    -0.081 A 
ATOM     62  H31 0ZN d   1      53.890   8.916  -0.772  0.00  0.00     0.083 H 
ATOM     63  H32 0ZN d   1      51.473   8.622  -0.342  0.00  0.00     0.083 H 
ATOM     64  H30 0ZN d   1      49.845  10.515  -0.658  0.00  0.00     0.086 H 
ENDBRANCH  47  50
ENDBRANCH  45  47
BRANCH  45  65
ATOM     65  C   0ZN d   1      52.643  13.531  -5.133  0.00  0.00     0.197 C 
ATOM     66  O   0ZN d   1      51.572  14.027  -5.605  0.00  0.00    -0.646 OA
ATOM     67  OXT 0ZN d   1      53.142  12.469  -5.652  0.00  0.00    -0.646 OA
ENDBRANCH  45  65
ENDBRANCH  43  45
ENDBRANCH   1  41
TORSDOF 15
