REMARK  2 active torsions:
REMARK  status: ('A' for Active; 'I' for Inactive)
REMARK    1  A    between atoms: C1_1  and  CM_7 
REMARK    2  A    between atoms: CM_7  and  N_8 
ROOT
ATOM      1  C1  AMC d   1      29.471  15.064  16.959  0.00  0.00    -0.031 C 
ATOM      2  C2  AMC d   1      29.647  13.571  16.946  0.00  0.00    -0.060 C 
ATOM      3  C3  AMC d   1      29.887  13.047  18.356  0.00  0.00    -0.065 C 
ATOM      4  C4  AMC d   1      28.684  13.389  19.259  0.00  0.00    -0.065 C 
ATOM      5  C5  AMC d   1      28.361  14.894  19.241  0.00  0.00    -0.065 C 
ATOM      6  C6  AMC d   1      28.256  15.364  17.786  0.00  0.00    -0.060 C 
ATOM      7  H1  AMC d   1      30.355  15.539  17.409  0.00  0.00     0.042 H 
ATOM      8  H2  AMC d   1      30.509  13.314  16.313  0.00  0.00     0.033 H 
ATOM      9  H3  AMC d   1      28.739  13.104  16.536  0.00  0.00     0.033 H 
ATOM     10  H4  AMC d   1      30.795  13.512  18.768  0.00  0.00     0.033 H 
ATOM     11  H5  AMC d   1      30.017  11.955  18.321  0.00  0.00     0.033 H 
ATOM     12  H6  AMC d   1      28.917  13.088  20.291  0.00  0.00     0.033 H 
ATOM     13  H7  AMC d   1      27.804  12.832  18.905  0.00  0.00     0.033 H 
ATOM     14  H8  AMC d   1      29.162  15.449  19.751  0.00  0.00     0.033 H 
ATOM     15  H9  AMC d   1      27.406  15.072  19.756  0.00  0.00     0.033 H 
ATOM     16  H10 AMC d   1      27.391  14.866  17.323  0.00  0.00     0.033 H 
ATOM     17  H11 AMC d   1      28.097  16.452  17.785  0.00  0.00     0.033 H 
ENDROOT
BRANCH   1  18
ATOM     18  CM  AMC d   1      29.286  15.589  15.551  0.00  0.00     0.083 C 
ATOM     19  H12 AMC d   1      28.826  16.587  15.604  0.00  0.00     0.075 H 
ATOM     20  H13 AMC d   1      28.619  14.906  15.005  0.00  0.00     0.075 H 
BRANCH  18  21
ATOM     21  N   AMC d   1      30.535  15.693  14.829  0.00  0.00    -0.079 N 
ATOM     22  H14 AMC d   1      30.358  16.046  13.901  0.00  0.00     0.274 HD
ATOM     23  H15 AMC d   1      30.964  14.783  14.767  0.00  0.00     0.274 HD
ATOM     24  H16 AMC d   1      31.153  16.323  15.316  0.00  0.00     0.274 HD
ENDBRANCH  18  21
ENDBRANCH   1  18
TORSDOF 2
