REMARK  2 active torsions:
REMARK  status: ('A' for Active; 'I' for Inactive)
REMARK    1  A    between atoms: C1_1  and  C_7 
REMARK    2  A    between atoms: C_7  and  N_8 
ROOT
ATOM      1  C1  FBA d   1      29.154  14.945  16.605  0.00  0.00    -0.033 A 
ATOM      2  C2  FBA d   1      29.503  13.611  16.667  0.00  0.00    -0.072 A 
ATOM      3  C3  FBA d   1      29.474  12.938  17.874  0.00  0.00    -0.045 A 
ATOM      4  C4  FBA d   1      29.077  13.620  19.018  0.00  0.00     0.116 A 
ATOM      5  C5  FBA d   1      28.723  14.955  18.961  0.00  0.00    -0.045 A 
ATOM      6  C6  FBA d   1      28.771  15.606  17.744  0.00  0.00    -0.072 A 
ATOM      7  F   FBA d   1      29.006  12.952  20.234  0.00  0.00    -0.206 F 
ATOM      8  H1  FBA d   1      29.801  13.089  15.765  0.00  0.00     0.084 H 
ATOM      9  H2  FBA d   1      29.757  11.893  17.927  0.00  0.00     0.088 H 
ATOM     10  H3  FBA d   1      28.413  15.482  19.856  0.00  0.00     0.088 H 
ATOM     11  H4  FBA d   1      28.502  16.655  17.688  0.00  0.00     0.084 H 
ENDROOT
BRANCH   1  12
ATOM     12  C   FBA d   1      29.169  15.705  15.298  0.00  0.00     0.103 C 
ATOM     13  H5  FBA d   1      29.020  16.776  15.502  0.00  0.00     0.082 H 
ATOM     14  H6  FBA d   1      28.354  15.337  14.658  0.00  0.00     0.082 H 
BRANCH  12  15
ATOM     15  N   FBA d   1      30.408  15.527  14.623  0.00  0.00    -0.075 N 
ATOM     16  H7  FBA d   1      30.395  16.041  13.756  0.00  0.00     0.274 HD
ATOM     17  H8  FBA d   1      30.548  14.548  14.430  0.00  0.00     0.274 HD
ATOM     18  H9  FBA d   1      31.159  15.866  15.204  0.00  0.00     0.274 HD
ENDBRANCH  12  15
ENDBRANCH   1  12
TORSDOF 2
