REMARK  5 active torsions:
REMARK  status: ('A' for Active; 'I' for Inactive)
REMARK    1  A    between atoms: C2_2  and  C1_1 
REMARK    2  A    between atoms: C1_1  and  N_11 
REMARK    3  A    between atoms: C2_2  and  C3_3 
REMARK    4  A    between atoms: C3_3  and  C4_4 
REMARK    5  A    between atoms: C4_4  and  C1'_5 
ROOT
ATOM      1  C4  PBN d   1      29.558  14.608  17.630  0.00  0.00    -0.041 C 
ATOM      2  H7  PBN d   1      28.799  14.388  18.395  0.00  0.00     0.040 H 
ATOM      3  H8  PBN d   1      30.365  15.208  18.075  0.00  0.00     0.040 H 
ENDROOT
BRANCH   1   4
ATOM      4  C3  PBN d   1      28.891  15.465  16.561  0.00  0.00    -0.060 C 
ATOM      5  H5  PBN d   1      28.042  14.904  16.143  0.00  0.00     0.033 H 
ATOM      6  H6  PBN d   1      28.523  16.388  17.033  0.00  0.00     0.033 H 
BRANCH   4   7
ATOM      7  C2  PBN d   1      29.814  15.839  15.438  0.00  0.00    -0.043 C 
ATOM      8  H3  PBN d   1      30.046  16.913  15.482  0.00  0.00     0.035 H 
ATOM      9  H4  PBN d   1      30.747  15.260  15.507  0.00  0.00     0.035 H 
BRANCH   7  10
ATOM     10  C1  PBN d   1      29.092  15.513  14.137  0.00  0.00     0.080 C 
ATOM     11  H1  PBN d   1      28.637  16.447  13.775  0.00  0.00     0.075 H 
ATOM     12  H2  PBN d   1      28.300  14.789  14.378  0.00  0.00     0.075 H 
BRANCH  10  13
ATOM     13  N   PBN d   1      29.868  14.952  13.027  0.00  0.00    -0.079 N 
ATOM     14  H14 PBN d   1      29.259  14.790  12.240  0.00  0.00     0.274 HD
ATOM     15  H15 PBN d   1      30.285  14.081  13.315  0.00  0.00     0.274 HD
ATOM     16  H16 PBN d   1      30.593  15.600  12.763  0.00  0.00     0.274 HD
ENDBRANCH  10  13
ENDBRANCH   7  10
ENDBRANCH   4   7
ENDBRANCH   1   4
BRANCH   1  17
ATOM     17  C1' PBN d   1      30.170  13.268  17.193  0.00  0.00    -0.058 A 
ATOM     18  C2' PBN d   1      29.522  12.463  16.272  0.00  0.00    -0.077 A 
ATOM     19  C3' PBN d   1      29.879  11.132  16.184  0.00  0.00    -0.082 A 
ATOM     20  H9  PBN d   1      28.748  12.870  15.631  0.00  0.00     0.084 H 
ATOM     21  C4' PBN d   1      30.863  10.561  16.983  0.00  0.00    -0.083 A 
ATOM     22  H10 PBN d   1      29.370  10.505  15.461  0.00  0.00     0.083 H 
ATOM     23  C5' PBN d   1      31.510  11.348  17.903  0.00  0.00    -0.082 A 
ATOM     24  H11 PBN d   1      31.115   9.512  16.881  0.00  0.00     0.083 H 
ATOM     25  C6' PBN d   1      31.155  12.688  17.996  0.00  0.00    -0.077 A 
ATOM     26  H12 PBN d   1      32.281  10.933  18.543  0.00  0.00     0.083 H 
ATOM     27  H13 PBN d   1      31.664  13.310  18.723  0.00  0.00     0.084 H 
ENDBRANCH   1  17
TORSDOF 5
