REMARK  9 active torsions:
REMARK  status: ('A' for Active; 'I' for Inactive)
REMARK    1  A    between atoms: N1_1  and  C1_2 
REMARK    2  A    between atoms: C4_5  and  C7_8 
REMARK    3  A    between atoms: C7_8  and  N7_9 
REMARK       I    between atoms: N7_9  and  C8_10 
REMARK    4  A    between atoms: C8_10  and  C9_12 
REMARK       I    between atoms: N9_16  and  C13_17 
REMARK    5  A    between atoms: C13_17  and  C15_21 
REMARK    6  A    between atoms: N13_20  and  C14_19 
REMARK    7  A    between atoms: C15_21  and  N13_20 
REMARK    8  A    between atoms: C15_21  and  C16_22 
REMARK    9  A    between atoms: C16_22  and  C17_23 
ROOT
ATOM      1  C9  MIN d   1      18.515 -13.097  21.569  0.00  0.00     0.091 C 
ATOM      2  C10 MIN d   1      19.580 -13.085  20.505  0.00  0.00    -0.036 C 
ATOM      3  C11 MIN d   1      20.555 -14.133  20.945  0.00  0.00    -0.048 C 
ATOM      4  C12 MIN d   1      19.701 -15.176  21.626  0.00  0.00    -0.001 C 
ATOM      5  N9  MIN d   1      18.662 -14.374  22.272  0.00  0.00    -0.337 N 
ATOM      6  C13 MIN d   1      17.822 -14.810  23.215  0.00  0.00     0.251 C 
ATOM      7  O13 MIN d   1      16.948 -14.071  23.692  0.00  0.00    -0.271 OA
ATOM      8  H17 MIN d   1      18.659 -12.255  22.262  0.00  0.00     0.087 H 
ATOM      9  H18 MIN d   1      20.066 -12.099  20.451  0.00  0.00     0.036 H 
ATOM     10  H19 MIN d   1      19.153 -13.338  19.523  0.00  0.00     0.036 H 
ATOM     11  H20 MIN d   1      21.289 -13.712  21.647  0.00  0.00     0.035 H 
ATOM     12  H21 MIN d   1      21.080 -14.564  20.080  0.00  0.00     0.035 H 
ATOM     13  H22 MIN d   1      20.283 -15.742  22.368  0.00  0.00     0.064 H 
ATOM     14  H23 MIN d   1      19.266 -15.872  20.893  0.00  0.00     0.064 H 
ENDROOT
BRANCH   1  15
ATOM     15  C8  MIN d   1      17.117 -13.017  20.944  0.00  0.00     0.240 C 
ATOM     16  N7  MIN d   1      16.325 -11.953  21.171  0.00  0.00    -0.359 N 
ATOM     17  H16 MIN d   1      16.658 -11.229  21.776  0.00  0.00     0.162 HD
ATOM     18  O8  MIN d   1      16.729 -13.967  20.261  0.00  0.00    -0.271 OA
BRANCH  16  19
ATOM     19  C7  MIN d   1      14.998 -11.809  20.571  0.00  0.00    -0.001 C 
ATOM     20  H14 MIN d   1      14.953 -10.850  20.034  0.00  0.00     0.064 H 
ATOM     21  H15 MIN d   1      14.838 -12.634  19.861  0.00  0.00     0.064 H 
BRANCH  19  22
ATOM     22  C4  MIN d   1      13.920 -11.838  21.590  0.00  0.00    -0.039 C 
ATOM     23  C3  MIN d   1      13.745 -13.251  22.146  0.00  0.00    -0.058 C 
ATOM     24  C2  MIN d   1      12.596 -13.286  23.124  0.00  0.00    -0.038 C 
ATOM     25  H7  MIN d   1      13.539 -13.945  21.318  0.00  0.00     0.033 H 
ATOM     26  H8  MIN d   1      14.669 -13.557  22.659  0.00  0.00     0.033 H 
ATOM     27  C1  MIN d   1      11.322 -12.791  22.504  0.00  0.00     0.100 C 
ATOM     28  H5  MIN d   1      12.448 -14.322  23.463  0.00  0.00     0.036 H 
ATOM     29  H6  MIN d   1      12.843 -12.650  23.987  0.00  0.00     0.036 H 
ATOM     30  C6  MIN d   1      11.548 -11.355  21.974  0.00  0.00    -0.038 C 
ATOM     31  H4  MIN d   1      11.022 -13.447  21.674  0.00  0.00     0.083 H 
ATOM     32  C5  MIN d   1      12.659 -11.300  20.942  0.00  0.00    -0.058 C 
ATOM     33  H12 MIN d   1      11.815 -10.702  22.818  0.00  0.00     0.036 H 
ATOM     34  H13 MIN d   1      10.616 -10.996  21.513  0.00  0.00     0.036 H 
ATOM     35  H10 MIN d   1      12.392 -11.918  20.072  0.00  0.00     0.033 H 
ATOM     36  H11 MIN d   1      12.818 -10.261  20.619  0.00  0.00     0.033 H 
ATOM     37  H9  MIN d   1      14.196 -11.176  22.424  0.00  0.00     0.042 H 
BRANCH  27  38
ATOM     38  N1  MIN d   1      10.316 -12.804  23.525  0.00  0.00    -0.075 N 
ATOM     39  H1  MIN d   1       9.444 -12.476  23.141  0.00  0.00     0.274 HD
ATOM     40  H2  MIN d   1      10.598 -12.201  24.282  0.00  0.00     0.274 HD
ATOM     41  H3  MIN d   1      10.199 -13.744  23.870  0.00  0.00     0.274 HD
ENDBRANCH  27  38
ENDBRANCH  19  22
ENDBRANCH  16  19
ENDBRANCH   1  15
BRANCH   6  42
ATOM     42  C15 MIN d   1      17.932 -16.226  23.776  0.00  0.00     0.181 C 
ATOM     43  H29 MIN d   1      18.593 -16.813  23.122  0.00  0.00     0.100 H 
BRANCH  42  44
ATOM     44  C16 MIN d   1      18.532 -16.197  25.217  0.00  0.00    -0.006 C 
ATOM     45  H30 MIN d   1      18.623 -17.238  25.560  0.00  0.00     0.043 H 
ATOM     46  H31 MIN d   1      17.822 -15.659  25.862  0.00  0.00     0.043 H 
BRANCH  44  47
ATOM     47  C17 MIN d   1      19.888 -15.541  25.381  0.00  0.00    -0.056 A 
ATOM     48  C22 MIN d   1      19.968 -14.331  26.035  0.00  0.00    -0.077 A 
ATOM     49  C21 MIN d   1      21.184 -13.716  26.134  0.00  0.00    -0.082 A 
ATOM     50  H36 MIN d   1      19.082 -13.875  26.463  0.00  0.00     0.084 H 
ATOM     51  C20 MIN d   1      22.309 -14.314  25.604  0.00  0.00    -0.083 A 
ATOM     52  H35 MIN d   1      21.265 -12.756  26.630  0.00  0.00     0.083 H 
ATOM     53  C19 MIN d   1      22.221 -15.529  24.960  0.00  0.00    -0.082 A 
ATOM     54  H34 MIN d   1      23.271 -13.823  25.695  0.00  0.00     0.083 H 
ATOM     55  C18 MIN d   1      21.002 -16.155  24.859  0.00  0.00    -0.077 A 
ATOM     56  H33 MIN d   1      23.107 -15.988  24.536  0.00  0.00     0.083 H 
ATOM     57  H32 MIN d   1      20.920 -17.121  24.374  0.00  0.00     0.084 H 
ENDBRANCH  44  47
ENDBRANCH  42  44
BRANCH  42  58
ATOM     58  N13 MIN d   1      16.618 -16.873  23.832  0.00  0.00    -0.066 N 
ATOM     59  H27 MIN d   1      16.058 -16.340  24.480  0.00  0.00     0.277 HD
ATOM     60  H28 MIN d   1      16.765 -17.800  24.199  0.00  0.00     0.277 HD
BRANCH  58  61
ATOM     61  C14 MIN d   1      15.819 -17.023  22.601  0.00  0.00     0.066 C 
ATOM     62  H24 MIN d   1      14.871 -17.528  22.838  0.00  0.00     0.067 H 
ATOM     63  H25 MIN d   1      16.381 -17.623  21.870  0.00  0.00     0.067 H 
ATOM     64  H26 MIN d   1      15.609 -16.030  22.177  0.00  0.00     0.067 H 
ENDBRANCH  58  61
ENDBRANCH  42  58
ENDBRANCH   6  42
TORSDOF 9
