REMARK  4 active torsions:
REMARK  status: ('A' for Active; 'I' for Inactive)
REMARK    1  A    between atoms: C1_1  and  C2_2 
REMARK       I    between atoms: C1_1  and  N2_3 
REMARK    2  A    between atoms: C2_2  and  O1P_6 
REMARK    3  A    between atoms: N2_3  and  O2_4 
REMARK    4  A    between atoms: O1P_6  and  P_10 
ROOT
ATOM      1  C2  PGH d   1      24.693  31.173  18.666  0.00  0.00     0.107 C 
ATOM      2  H1  PGH d   1      24.764  31.819  17.778  0.00  0.00     0.090 H 
ATOM      3  H2  PGH d   1      25.613  30.577  18.760  0.00  0.00     0.090 H 
ENDROOT
BRANCH   1   4
ATOM      4  C1  PGH d   1      23.511  30.218  18.480  0.00  0.00     0.265 C 
ATOM      5  N2  PGH d   1      23.111  30.147  17.226  0.00  0.00    -0.236 N 
ATOM      6  H3  PGH d   1      23.568  30.693  16.524  0.00  0.00     0.197 HD
ATOM      7  O1  PGH d   1      23.065  29.538  19.396  0.00  0.00    -0.269 OA
BRANCH   5   8
ATOM      8  O2  PGH d   1      22.064  29.322  16.883  0.00  0.00    -0.287 OA
ATOM      9  H4  PGH d   1      22.283  28.425  17.106  0.00  0.00     0.244 HD
ENDBRANCH   5   8
ENDBRANCH   1   4
BRANCH   1  10
ATOM     10  O1P PGH d   1      24.571  32.002  19.820  0.00  0.00    -0.273 OA
BRANCH  10  11
ATOM     11  P   PGH d   1      25.828  32.941  20.153  0.00  0.00     0.422 P 
ATOM     12  O4P PGH d   1      26.907  32.141  20.813  0.00  0.00    -0.617 OA
ATOM     13  O3P PGH d   1      26.222  33.585  18.823  0.00  0.00    -0.617 OA
ATOM     14  O2P PGH d   1      25.288  34.030  21.085  0.00  0.00    -0.617 OA
ENDBRANCH  10  11
ENDBRANCH   1  10
TORSDOF 4
