REMARK  8 active torsions:
REMARK  status: ('A' for Active; 'I' for Inactive)
REMARK    1  A    between atoms: PB_1  and  O3A_5 
REMARK    2  A    between atoms: O3A_5  and  PA_6 
REMARK    3  A    between atoms: PA_6  and  O5_9 
REMARK    4  A    between atoms: O5_9  and  C5_10 
REMARK    5  A    between atoms: C5_10  and  C4_11 
REMARK    6  A    between atoms: C3_13  and  O3_14 
REMARK    7  A    between atoms: C2_15  and  O2_16 
REMARK    8  A    between atoms: C1_17  and  N9_18 
ROOT
ATOM      1  C4  GDP d   1      12.784  25.058  41.968  0.00  0.00     0.089 C 
ATOM      2  O4  GDP d   1      13.504  23.818  42.330  0.00  0.00    -0.353 OA
ATOM      3  C3  GDP d   1      13.991  26.046  41.771  0.00  0.00     0.091 C 
ATOM      4  C2  GDP d   1      15.178  25.168  41.344  0.00  0.00     0.105 C 
ATOM      5  C1  GDP d   1      14.883  23.849  42.002  0.00  0.00     0.139 C 
ATOM      6  H3  GDP d   1      12.203  25.392  42.840  0.00  0.00     0.090 H 
ATOM      7  H4  GDP d   1      13.784  26.819  41.016  0.00  0.00     0.091 H 
ATOM      8  H6  GDP d   1      15.153  25.042  40.252  0.00  0.00     0.093 H 
ATOM      9  H8  GDP d   1      15.485  23.780  42.920  0.00  0.00     0.122 H 
ENDROOT
BRANCH   5  10
ATOM     10  N9  GDP d   1      15.174  22.637  41.152  0.00  0.00    -0.293 N 
ATOM     11  C8  GDP d   1      14.832  22.281  39.868  0.00  0.00     0.071 A 
ATOM     12  N7  GDP d   1      15.299  21.118  39.511  0.00  0.00    -0.234 NA
ATOM     13  H9  GDP d   1      14.230  22.910  39.214  0.00  0.00     0.144 H 
ATOM     14  C5  GDP d   1      15.999  20.652  40.610  0.00  0.00     0.173 A 
ATOM     15  C6  GDP d   1      16.747  19.430  40.859  0.00  0.00     0.292 A 
ATOM     16  C4  GDP d   1      15.941  21.584  41.658  0.00  0.00     0.186 A 
ATOM     17  O6  GDP d   1      16.920  18.484  40.075  0.00  0.00    -0.265 OA
ATOM     18  N1  GDP d   1      17.325  19.371  42.179  0.00  0.00    -0.152 N 
ATOM     19  C2  GDP d   1      17.201  20.369  43.152  0.00  0.00     0.703 A 
ATOM     20  H10 GDP d   1      17.854  18.556  42.417  0.00  0.00     0.187 HD
ATOM     21  N2  GDP d   1      17.805  20.140  44.317  0.00  0.00    -0.233 N 
ATOM     22  N3  GDP d   1      16.494  21.532  42.931  0.00  0.00    -0.044 NA
ATOM     23  H11 GDP d   1      17.749  20.838  45.072  0.00  0.00     0.174 HD
ATOM     24  H12 GDP d   1      18.328  19.265  44.463  0.00  0.00     0.174 HD
ENDBRANCH   5  10
BRANCH   4  25
ATOM     25  O2  GDP d   1      16.462  25.689  41.673  0.00  0.00    -0.388 OA
ATOM     26  H7  GDP d   1      16.579  26.531  41.248  0.00  0.00     0.210 HD
ENDBRANCH   4  25
BRANCH   1  27
ATOM     27  C5  GDP d   1      11.759  24.946  40.810  0.00  0.00     0.058 C 
ATOM     28  H1  GDP d   1      11.104  24.077  40.974  0.00  0.00     0.079 H 
ATOM     29  H2  GDP d   1      11.150  25.860  40.761  0.00  0.00     0.079 H 
BRANCH  27  30
ATOM     30  O5  GDP d   1      12.483  24.783  39.599  0.00  0.00    -0.287 OA
BRANCH  30  31
ATOM     31  PA  GDP d   1      12.203  25.523  38.222  0.00  0.00     0.418 P 
ATOM     32  O1A GDP d   1      13.238  25.021  37.279  0.00  0.00    -0.624 OA
ATOM     33  O2A GDP d   1      12.056  26.993  38.179  0.00  0.00    -0.624 OA
BRANCH  31  34
ATOM     34  O3A GDP d   1      11.039  24.587  37.581  0.00  0.00    -0.173 OA
BRANCH  34  35
ATOM     35  PB  GDP d   1       9.681  25.245  36.822  0.00  0.00     0.431 P 
ATOM     36  O1B GDP d   1       8.971  26.103  37.758  0.00  0.00    -0.616 OA
ATOM     37  O2B GDP d   1       8.976  23.991  36.410  0.00  0.00    -0.616 OA
ATOM     38  O3B GDP d   1      10.017  25.868  35.448  0.00  0.00    -0.616 OA
ENDBRANCH  34  35
ENDBRANCH  31  34
ENDBRANCH  30  31
ENDBRANCH  27  30
ENDBRANCH   1  27
BRANCH   3  39
ATOM     39  O3  GDP d   1      14.188  26.639  43.092  0.00  0.00    -0.390 OA
ATOM     40  H5  GDP d   1      14.909  27.256  43.056  0.00  0.00     0.210 HD
ENDBRANCH   3  39
TORSDOF 8
