REMARK  4 active torsions:
REMARK  status: ('A' for Active; 'I' for Inactive)
REMARK       I    between atoms: C1_1  and  N3_3 
REMARK    1  A    between atoms: C1_1  and  C2_2 
REMARK    2  A    between atoms: C2_2  and  O6_6 
REMARK    3  A    between atoms: N3_3  and  O4_4 
REMARK    4  A    between atoms: O6_6  and  P10_10 
ROOT
ATOM      1  C2  PGH d   1       6.622 -23.292 -17.419  0.00  0.00     0.107 C 
ATOM      2  H1  PGH d   1       6.389 -22.247 -17.671  0.00  0.00     0.090 H 
ATOM      3  H2  PGH d   1       6.622 -23.899 -18.336  0.00  0.00     0.090 H 
ENDROOT
BRANCH   1   4
ATOM      4  C1  PGH d   1       5.529 -23.801 -16.538  0.00  0.00     0.265 C 
ATOM      5  O5  PGH d   1       5.727 -24.664 -15.601  0.00  0.00    -0.269 OA
ATOM      6  N3  PGH d   1       4.323 -23.240 -16.916  0.00  0.00    -0.236 N 
ATOM      7  H3  PGH d   1       4.195 -22.858 -17.831  0.00  0.00     0.197 HD
BRANCH   6   8
ATOM      8  O4  PGH d   1       3.380 -23.226 -16.060  0.00  0.00    -0.287 OA
ATOM      9  H4  PGH d   1       3.171 -24.117 -15.806  0.00  0.00     0.244 HD
ENDBRANCH   6   8
ENDBRANCH   1   4
BRANCH   1  10
ATOM     10  O6  PGH d   1       7.942 -23.323 -16.878  0.00  0.00    -0.273 OA
BRANCH  10  11
ATOM     11  P10 PGH d   1       9.289 -23.291 -17.719  0.00  0.00     0.422 P 
ATOM     12  O7  PGH d   1      10.493 -22.884 -16.837  0.00  0.00    -0.617 OA
ATOM     13  O8  PGH d   1       9.504 -24.705 -18.296  0.00  0.00    -0.617 OA
ATOM     14  O9  PGH d   1       9.145 -22.278 -18.898  0.00  0.00    -0.617 OA
ENDBRANCH  10  11
ENDBRANCH   1  10
TORSDOF 4
