REMARK  5 active torsions:
REMARK  status: ('A' for Active; 'I' for Inactive)
REMARK    1  A    between atoms: N1_1  and  C1_9 
REMARK    2  A    between atoms: C3_11  and  O3_13 
REMARK    3  A    between atoms: C4_12  and  C5_15 
REMARK    4  A    between atoms: C5_15  and  O5_16 
REMARK    5  A    between atoms: O5_16  and  P_17 
ROOT
ATOM      1  C1  UMP d   1      15.431  48.712 -55.026  0.00  0.00     0.116 C 
ATOM      2  C2  UMP d   1      14.988  48.411 -56.452  0.00  0.00     0.002 C 
ATOM      3  C3  UMP d   1      16.285  48.614 -57.223  0.00  0.00     0.066 C 
ATOM      4  C4  UMP d   1      16.883  49.930 -56.711  0.00  0.00     0.087 C 
ATOM      5  O4  UMP d   1      16.333  49.885 -55.308  0.00  0.00    -0.356 OA
ATOM      6  H4  UMP d   1      16.060  47.875 -54.687  0.00  0.00     0.118 H 
ATOM      7  H5  UMP d   1      14.208  49.111 -56.787  0.00  0.00     0.043 H 
ATOM      8  H6  UMP d   1      14.620  47.379 -56.549  0.00  0.00     0.043 H 
ATOM      9  H7  UMP d   1      16.134  48.618 -58.313  0.00  0.00     0.087 H 
ATOM     10  H8  UMP d   1      17.982  49.944 -56.744  0.00  0.00     0.090 H 
ENDROOT
BRANCH   1  11
ATOM     11  N1  UMP d   1      14.432  48.846 -53.984  0.00  0.00    -0.282 N 
ATOM     12  C2  UMP d   1      13.681  47.799 -53.449  0.00  0.00     0.331 A 
ATOM     13  N3  UMP d   1      12.958  48.087 -52.308  0.00  0.00    -0.275 N 
ATOM     14  O2  UMP d   1      13.551  46.674 -53.908  0.00  0.00    -0.246 OA
ATOM     15  C4  UMP d   1      12.918  49.337 -51.686  0.00  0.00     0.250 A 
ATOM     16  H1  UMP d   1      12.425  47.347 -51.898  0.00  0.00     0.173 HD
ATOM     17  C5  UMP d   1      13.717  50.359 -52.323  0.00  0.00    -0.002 A 
ATOM     18  O4  UMP d   1      12.229  49.541 -50.686  0.00  0.00    -0.268 OA
ATOM     19  C6  UMP d   1      14.445  50.046 -53.464  0.00  0.00    -0.008 A 
ATOM     20  H2  UMP d   1      13.748  51.367 -51.912  0.00  0.00     0.094 H 
ATOM     21  H3  UMP d   1      15.044  50.822 -53.939  0.00  0.00     0.112 H 
ENDBRANCH   1  11
BRANCH   3  22
ATOM     22  O3  UMP d   1      17.156  47.563 -56.796  0.00  0.00    -0.393 OA
ATOM     23  H9  UMP d   1      16.815  46.729 -57.097  0.00  0.00     0.210 HD
ENDBRANCH   3  22
BRANCH   4  24
ATOM     24  C5  UMP d   1      16.304  51.129 -57.472  0.00  0.00     0.059 C 
ATOM     25  H10 UMP d   1      16.517  52.047 -56.905  0.00  0.00     0.079 H 
ATOM     26  H11 UMP d   1      15.216  51.000 -57.565  0.00  0.00     0.079 H 
BRANCH  24  27
ATOM     27  O5  UMP d   1      16.897  51.258 -58.846  0.00  0.00    -0.280 OA
BRANCH  27  28
ATOM     28  P   UMP d   1      15.931  51.726 -59.975  0.00  0.00     0.422 P 
ATOM     29  O1P UMP d   1      15.260  53.001 -59.692  0.00  0.00    -0.617 OA
ATOM     30  O2P UMP d   1      16.448  51.818 -61.387  0.00  0.00    -0.617 OA
ATOM     31  O3P UMP d   1      14.957  50.630 -59.896  0.00  0.00    -0.617 OA
ENDBRANCH  27  28
ENDBRANCH  24  27
ENDBRANCH   4  24
TORSDOF 5
