REMARK  3 active torsions:
REMARK  status: ('A' for Active; 'I' for Inactive)
REMARK    1  A    between atoms: S1_1  and  O3_4 
REMARK    2  A    between atoms: S1_1  and  N1_5 
REMARK    3  A    between atoms: O3_4  and  C1_6 
ROOT
ATOM      1  C1  667 d   1      21.745  28.619  19.071  0.00  0.00     0.093 A 
ATOM      2  C2  667 d   1      23.069  28.716  19.489  0.00  0.00    -0.048 A 
ATOM      3  C3  667 d   1      23.570  29.961  19.999  0.00  0.00    -0.067 A 
ATOM      4  C4  667 d   1      22.695  31.124  20.079  0.00  0.00     0.005 A 
ATOM      5  C5  667 d   1      21.299  30.999  19.642  0.00  0.00     0.093 A 
ATOM      6  C6  667 d   1      20.824  29.747  19.131  0.00  0.00    -0.016 A 
ATOM      7  C7  667 d   1      23.211  32.506  20.632  0.00  0.00    -0.033 A 
ATOM      8  C8  667 d   1      22.335  33.589  20.700  0.00  0.00     0.025 A 
ATOM      9  C9  667 d   1      20.862  33.409  20.229  0.00  0.00     0.295 A 
ATOM     10  C10 667 d   1      24.700  32.645  21.092  0.00  0.00    -0.039 C 
ATOM     11  C11 667 d   1      22.758  35.020  21.247  0.00  0.00    -0.035 C 
ATOM     12  O5  667 d   1      20.095  34.355  20.290  0.00  0.00    -0.259 OA
ATOM     13  O4  667 d   1      20.249  31.987  19.628  0.00  0.00    -0.274 OA
ATOM     14  C12 667 d   1      23.785  35.070  22.441  0.00  0.00    -0.061 C 
ATOM     15  C13 667 d   1      23.912  33.764  23.278  0.00  0.00    -0.064 C 
ATOM     16  C14 667 d   1      24.848  32.715  22.622  0.00  0.00    -0.061 C 
ATOM     17  H3  667 d   1      23.721  27.852  19.430  0.00  0.00     0.087 H 
ATOM     18  H4  667 d   1      24.601  30.036  20.325  0.00  0.00     0.085 H 
ATOM     19  H5  667 d   1      19.799  29.641  18.795  0.00  0.00     0.092 H 
ATOM     20  H6  667 d   1      25.118  33.564  20.656  0.00  0.00     0.040 H 
ATOM     21  H7  667 d   1      25.264  31.775  20.724  0.00  0.00     0.040 H 
ATOM     22  H8  667 d   1      21.841  35.529  21.580  0.00  0.00     0.040 H 
ATOM     23  H9  667 d   1      23.202  35.575  20.408  0.00  0.00     0.040 H 
ATOM     24  H10 667 d   1      23.474  35.878  23.120  0.00  0.00     0.033 H 
ATOM     25  H11 667 d   1      24.776  35.302  22.024  0.00  0.00     0.033 H 
ATOM     26  H12 667 d   1      22.912  33.320  23.390  0.00  0.00     0.033 H 
ATOM     27  H13 667 d   1      24.313  34.020  24.270  0.00  0.00     0.033 H 
ATOM     28  H14 667 d   1      25.889  32.977  22.861  0.00  0.00     0.033 H 
ATOM     29  H15 667 d   1      24.613  31.726  23.042  0.00  0.00     0.033 H 
ENDROOT
BRANCH   1  30
ATOM     30  O3  667 d   1      21.282  27.427  18.582  0.00  0.00    -0.217 OA
BRANCH  30  31
ATOM     31  S1  667 d   1      20.569  26.452  19.231  0.00  0.00     0.360 S 
ATOM     32  O1  667 d   1      21.315  26.336  20.685  0.00  0.00    -0.176 OA
ATOM     33  O2  667 d   1      19.057  27.045  19.346  0.00  0.00    -0.176 OA
BRANCH  31  34
ATOM     34  N1  667 d   1      20.739  25.069  18.314  0.00  0.00    -0.305 N 
ATOM     35  H1  667 d   1      20.296  24.220  18.602  0.00  0.00     0.171 HD
ATOM     36  H2  667 d   1      21.284  25.089  17.476  0.00  0.00     0.171 HD
ENDBRANCH  31  34
ENDBRANCH  30  31
ENDBRANCH   1  30
TORSDOF 3
