REMARK  4 active torsions:
REMARK  status: ('A' for Active; 'I' for Inactive)
REMARK    1  A    between atoms: C1_1  and  C7_11 
REMARK    2  A    between atoms: C7_11  and  N1_6 
REMARK    3  A    between atoms: C4_8  and  P1_12 
REMARK    4  A    between atoms: P1_12  and  C8_13 
ROOT
ATOM      1  C1  4CM d   1      -1.592  14.661  50.887  0.00  0.00     0.007 A 
ATOM      2  C2  4CM d   1      -1.839  13.241  50.913  0.00  0.00    -0.068 A 
ATOM      3  C3  4CM d   1      -1.364  12.424  49.853  0.00  0.00    -0.066 A 
ATOM      4  C4  4CM d   1      -0.640  13.016  48.752  0.00  0.00     0.030 A 
ATOM      5  C5  4CM d   1      -0.402  14.462  48.724  0.00  0.00    -0.066 A 
ATOM      6  C6  4CM d   1      -0.877  15.262  49.798  0.00  0.00    -0.068 A 
ATOM      7  H1  4CM d   1      -2.385  12.799  51.738  0.00  0.00     0.085 H 
ATOM      8  H2  4CM d   1      -1.545  11.355  49.870  0.00  0.00     0.085 H 
ATOM      9  H7  4CM d   1       0.129  14.915  47.895  0.00  0.00     0.085 H 
ATOM     10  H8  4CM d   1      -0.698  16.331  49.794  0.00  0.00     0.085 H 
ENDROOT
BRANCH   1  11
ATOM     11  C7  4CM d   1      -2.079  15.495  52.013  0.00  0.00     0.102 C 
ATOM     12  N2  4CM d   1      -2.749  14.959  53.002  0.00  0.00    -0.385 N 
ATOM     13  H5  4CM d   1      -2.948  13.948  53.001  0.00  0.00     0.157 HD
ATOM     14  H6  4CM d   1      -3.077  15.548  53.781  0.00  0.00     0.157 HD
BRANCH  11  15
ATOM     15  N1  4CM d   1      -1.834  16.755  52.019  0.00  0.00    -0.385 N 
ATOM     16  H3  4CM d   1      -2.169  17.341  52.797  0.00  0.00     0.157 HD
ATOM     17  H4  4CM d   1      -1.303  17.180  51.246  0.00  0.00     0.157 HD
ENDBRANCH  11  15
ENDBRANCH   1  11
BRANCH   4  18
ATOM     18  P1  4CM d   1      -0.036  11.918  47.419  0.00  0.00     0.136 P 
ATOM     19  O1  4CM d   1      -1.128  10.890  47.107  0.00  0.00    -0.664 OA
ATOM     20  O2  4CM d   1       0.237  12.733  46.132  0.00  0.00    -0.664 OA
BRANCH  18  21
ATOM     21  C8  4CM d   1       1.515  11.120  48.046  0.00  0.00    -0.001 C 
ATOM     22  H9  4CM d   1       1.290  10.549  48.959  0.00  0.00     0.042 H 
ATOM     23  H10 4CM d   1       2.261  11.896  48.273  0.00  0.00     0.042 H 
ATOM     24  H11 4CM d   1       1.914  10.441  47.278  0.00  0.00     0.042 H 
ENDBRANCH  18  21
ENDBRANCH   4  18
TORSDOF 4
