REMARK  8 active torsions:
REMARK  status: ('A' for Active; 'I' for Inactive)
REMARK    1  A    between atoms: C1_1  and  O1_2 
REMARK    2  A    between atoms: C1_1  and  C2_3 
REMARK    3  A    between atoms: C2_3  and  O2_4 
REMARK    4  A    between atoms: C2_3  and  C3_5 
REMARK    5  A    between atoms: C3_5  and  O3_6 
REMARK    6  A    between atoms: C3_5  and  C4_7 
REMARK    7  A    between atoms: C4_7  and  O4_8 
REMARK    8  A    between atoms: O4_8  and  P_9 
ROOT
ATOM      1  C3  E4P d   1       6.730   4.393   0.687  0.00  0.00     0.083 C 
ATOM      2  H6  E4P d   1       7.472   4.466   1.496  0.00  0.00     0.090 H 
ENDROOT
BRANCH   1   3
ATOM      3  C2  E4P d   1       7.364   3.711  -0.517  0.00  0.00     0.082 C 
ATOM      4  H4  E4P d   1       6.594   3.515  -1.277  0.00  0.00     0.090 H 
BRANCH   3   5
ATOM      5  C1  E4P d   1       8.018   2.443  -0.077  0.00  0.00     0.043 C 
ATOM      6  H1  E4P d   1       7.287   1.873   0.515  0.00  0.00     0.078 H 
ATOM      7  H2  E4P d   1       8.286   1.871  -0.978  0.00  0.00     0.078 H 
BRANCH   5   8
ATOM      8  O1  E4P d   1       9.193   2.596   0.710  0.00  0.00    -0.398 OA
ATOM      9  H3  E4P d   1       9.533   1.739   0.939  0.00  0.00     0.209 HD
ENDBRANCH   5   8
ENDBRANCH   3   5
BRANCH   3  10
ATOM     10  O2  E4P d   1       8.414   4.479  -1.064  0.00  0.00    -0.391 OA
ATOM     11  H5  E4P d   1       8.071   5.311  -1.369  0.00  0.00     0.210 HD
ENDBRANCH   3  10
ENDBRANCH   1   3
BRANCH   1  12
ATOM     12  O3  E4P d   1       5.620   3.623   1.118  0.00  0.00    -0.391 OA
ATOM     13  H7  E4P d   1       5.218   4.042   1.870  0.00  0.00     0.210 HD
ENDBRANCH   1  12
BRANCH   1  14
ATOM     14  C4  E4P d   1       6.226   5.794   0.330  0.00  0.00     0.059 C 
ATOM     15  H8  E4P d   1       7.078   6.420   0.026  0.00  0.00     0.079 H 
ATOM     16  H9  E4P d   1       5.739   6.240   1.210  0.00  0.00     0.079 H 
BRANCH  14  17
ATOM     17  O4  E4P d   1       5.288   5.722  -0.742  0.00  0.00    -0.280 OA
BRANCH  17  18
ATOM     18  P   E4P d   1       4.849   7.011  -1.415  0.00  0.00     0.422 P 
ATOM     19  O1P E4P d   1       4.319   7.947  -0.366  0.00  0.00    -0.617 OA
ATOM     20  O2P E4P d   1       6.017   7.646  -2.106  0.00  0.00    -0.617 OA
ATOM     21  O3P E4P d   1       3.750   6.670  -2.385  0.00  0.00    -0.617 OA
ENDBRANCH  17  18
ENDBRANCH  14  17
ENDBRANCH   1  14
TORSDOF 8
