REMARK  3 active torsions:
REMARK  status: ('A' for Active; 'I' for Inactive)
REMARK    1  A    between atoms: C7_2  and  C2_4 
REMARK    2  A    between atoms: C4_8  and  O11_9 
REMARK    3  A    between atoms: C3_10  and  N10_11 
ROOT
ATOM      1  C2  3HA d   1       7.309  31.016  21.591  0.00  0.00     0.069 A 
ATOM      2  C1  3HA d   1       6.755  32.121  20.921  0.00  0.00    -0.064 A 
ATOM      3  C6  3HA d   1       6.414  31.989  19.559  0.00  0.00    -0.079 A 
ATOM      4  C5  3HA d   1       6.628  30.812  18.883  0.00  0.00    -0.049 A 
ATOM      5  C4  3HA d   1       7.194  29.728  19.552  0.00  0.00     0.092 A 
ATOM      6  C3  3HA d   1       7.553  29.818  20.943  0.00  0.00     0.076 A 
ATOM      7  H1  3HA d   1       6.593  33.058  21.442  0.00  0.00     0.085 H 
ATOM      8  H2  3HA d   1       5.975  32.831  19.036  0.00  0.00     0.083 H 
ATOM      9  H3  3HA d   1       6.359  30.727  17.837  0.00  0.00     0.087 H 
ENDROOT
BRANCH   1  10
ATOM     10  C7  3HA d   1       7.591  31.168  23.052  0.00  0.00     0.211 C 
ATOM     11  O8  3HA d   1       8.160  30.258  23.694  0.00  0.00    -0.644 OA
ATOM     12  O9  3HA d   1       7.189  32.236  23.611  0.00  0.00    -0.644 OA
ENDBRANCH   1  10
BRANCH   6  13
ATOM     13  N10 3HA d   1       8.188  28.684  21.498  0.00  0.00    -0.396 N 
ATOM     14  H5  3HA d   1       8.470  28.685  22.489  0.00  0.00     0.156 HD
ATOM     15  H6  3HA d   1       8.369  27.857  20.912  0.00  0.00     0.156 HD
ENDBRANCH   6  13
BRANCH   5  16
ATOM     16  O11 3HA d   1       7.398  28.541  18.940  0.00  0.00    -0.358 OA
ATOM     17  H4  3HA d   1       7.980  28.664  18.200  0.00  0.00     0.217 HD
ENDBRANCH   5  16
TORSDOF 3
