REMARK  9 active torsions:
REMARK  status: ('A' for Active; 'I' for Inactive)
REMARK    1  A    between atoms: C2_2  and  N2_3 
REMARK    2  A    between atoms: C4_5  and  N4_6 
REMARK    3  A    between atoms: C5_8  and  C5M_9 
REMARK    4  A    between atoms: C6_10  and  C9_14 
REMARK    5  A    between atoms: C9_14  and  C1'_15 
REMARK    6  A    between atoms: C2'_16  and  O2'_17 
REMARK    7  A    between atoms: O2'_17  and  C21_18 
REMARK    8  A    between atoms: C5'_21  and  O5'_22 
REMARK    9  A    between atoms: O5'_22  and  C51_23 
ROOT
ATOM      1  C9  MXA d   1      30.823  14.676   0.605  0.00  0.00    -0.012 C 
ATOM      2  H9  MXA d   1      30.202  14.324   1.442  0.00  0.00     0.047 H 
ATOM      3  H10 MXA d   1      30.782  15.774   0.554  0.00  0.00     0.047 H 
ENDROOT
BRANCH   1   4
ATOM      4  C6  MXA d   1      30.171  14.172  -0.645  0.00  0.00    -0.029 A 
ATOM      5  C5  MXA d   1      28.903  13.607  -0.674  0.00  0.00    -0.036 A 
ATOM      6  C4A MXA d   1      28.375  13.227  -1.915  0.00  0.00     0.065 A 
ATOM      7  C4  MXA d   1      27.102  12.613  -2.212  0.00  0.00     0.155 A 
ATOM      8  C8A MXA d   1      29.188  13.455  -3.076  0.00  0.00     0.182 A 
ATOM      9  N3  MXA d   1      26.752  12.365  -3.424  0.00  0.00    -0.045 NA
ATOM     10  C2  MXA d   1      27.596  12.644  -4.455  0.00  0.00     0.724 A 
ATOM     11  N1  MXA d   1      28.796  13.139  -4.319  0.00  0.00    -0.042 NA
ATOM     12  N8  MXA d   1      30.407  14.021  -3.042  0.00  0.00    -0.239 NA
ATOM     13  C7  MXA d   1      30.848  14.357  -1.861  0.00  0.00     0.011 A 
ATOM     14  H8  MXA d   1      31.826  14.821  -1.814  0.00  0.00     0.115 H 
BRANCH   5  15
ATOM     15  C5M MXA d   1      28.179  13.440   0.652  0.00  0.00    -0.050 C 
ATOM     16  H5  MXA d   1      27.194  12.983   0.477  0.00  0.00     0.033 H 
ATOM     17  H6  MXA d   1      28.048  14.425   1.125  0.00  0.00     0.033 H 
ATOM     18  H7  MXA d   1      28.771  12.791   1.314  0.00  0.00     0.033 H 
ENDBRANCH   5  15
BRANCH   7  19
ATOM     19  N4  MXA d   1      26.137  12.302  -1.332  0.00  0.00    -0.383 N 
ATOM     20  H3  MXA d   1      26.291  12.453  -0.325  0.00  0.00     0.157 HD
ATOM     21  H4  MXA d   1      25.243  11.913  -1.664  0.00  0.00     0.157 HD
ENDBRANCH   7  19
BRANCH  10  22
ATOM     22  N2  MXA d   1      27.196  12.327  -5.700  0.00  0.00    -0.231 N 
ATOM     23  H1  MXA d   1      27.809  12.524  -6.504  0.00  0.00     0.174 HD
ATOM     24  H2  MXA d   1      26.276  11.887  -5.849  0.00  0.00     0.174 HD
ENDBRANCH  10  22
ENDBRANCH   1   4
BRANCH   1  25
ATOM     25  C1' MXA d   1      32.247  14.320   0.954  0.00  0.00    -0.018 A 
ATOM     26  C2' MXA d   1      33.277  15.250   0.897  0.00  0.00     0.074 A 
ATOM     27  C3' MXA d   1      34.547  14.874   1.267  0.00  0.00    -0.048 A 
ATOM     28  C4' MXA d   1      34.808  13.570   1.706  0.00  0.00    -0.048 A 
ATOM     29  H14 MXA d   1      35.355  15.595   1.218  0.00  0.00     0.087 H 
ATOM     30  C5' MXA d   1      33.819  12.674   1.740  0.00  0.00     0.068 A 
ATOM     31  H15 MXA d   1      35.808  13.290   2.017  0.00  0.00     0.087 H 
ATOM     32  C6' MXA d   1      32.533  13.060   1.396  0.00  0.00    -0.042 A 
ATOM     33  H19 MXA d   1      31.728  12.338   1.480  0.00  0.00     0.088 H 
BRANCH  26  34
ATOM     34  O2' MXA d   1      32.883  16.513   0.499  0.00  0.00    -0.355 OA
BRANCH  34  35
ATOM     35  C21 MXA d   1      33.905  17.478   0.251  0.00  0.00     0.010 C 
ATOM     36  H11 MXA d   1      33.445  18.429  -0.056  0.00  0.00     0.066 H 
ATOM     37  H12 MXA d   1      34.565  17.115  -0.550  0.00  0.00     0.066 H 
ATOM     38  H13 MXA d   1      34.492  17.634   1.168  0.00  0.00     0.066 H 
ENDBRANCH  34  35
ENDBRANCH  26  34
BRANCH  30  39
ATOM     39  O5' MXA d   1      33.800  11.326   2.099  0.00  0.00    -0.356 OA
BRANCH  39  40
ATOM     40  C51 MXA d   1      32.462  10.825   2.070  0.00  0.00     0.010 C 
ATOM     41  H16 MXA d   1      32.462   9.762   2.355  0.00  0.00     0.066 H 
ATOM     42  H17 MXA d   1      32.052  10.932   1.055  0.00  0.00     0.066 H 
ATOM     43  H18 MXA d   1      31.842  11.394   2.778  0.00  0.00     0.066 H 
ENDBRANCH  39  40
ENDBRANCH  30  39
ENDBRANCH   1  25
TORSDOF 9
