REMARK  7 active torsions:
REMARK  status: ('A' for Active; 'I' for Inactive)
REMARK    1  A    between atoms: P_1  and  O5_5 
REMARK    2  A    between atoms: O5_5  and  C5_6 
REMARK    3  A    between atoms: C5_6  and  C4_7 
REMARK    4  A    between atoms: C3_9  and  O3_10 
REMARK    5  A    between atoms: C2_11  and  O2_12 
REMARK    6  A    between atoms: C1_13  and  N9_14 
REMARK    7  A    between atoms: C6_18  and  N6_19 
ROOT
ATOM      1  C4  AMP d   1      18.251  15.123   7.803  0.00  0.00     0.089 C 
ATOM      2  O4  AMP d   1      17.143  14.255   7.352  0.00  0.00    -0.353 OA
ATOM      3  C3  AMP d   1      19.681  14.241   7.547  0.00  0.00     0.091 C 
ATOM      4  C2  AMP d   1      19.094  12.758   7.471  0.00  0.00     0.105 C 
ATOM      5  C1  AMP d   1      17.558  12.921   7.042  0.00  0.00     0.139 C 
ATOM      6  H3  AMP d   1      18.140  15.256   8.889  0.00  0.00     0.090 H 
ATOM      7  H4  AMP d   1      20.168  14.512   6.598  0.00  0.00     0.091 H 
ATOM      8  H6  AMP d   1      19.655  12.154   6.743  0.00  0.00     0.093 H 
ATOM      9  H8  AMP d   1      16.964  12.236   7.665  0.00  0.00     0.122 H 
ENDROOT
BRANCH   5  10
ATOM     10  N9  AMP d   1      17.304  12.540   5.629  0.00  0.00    -0.294 N 
ATOM     11  C8  AMP d   1      17.688  13.167   4.432  0.00  0.00     0.071 A 
ATOM     12  N7  AMP d   1      17.303  12.562   3.279  0.00  0.00    -0.236 NA
ATOM     13  H9  AMP d   1      18.265  14.091   4.429  0.00  0.00     0.144 H 
ATOM     14  C5  AMP d   1      16.621  11.461   3.816  0.00  0.00     0.149 A 
ATOM     15  C6  AMP d   1      15.944  10.376   3.184  0.00  0.00     0.155 A 
ATOM     16  C4  AMP d   1      16.608  11.437   5.235  0.00  0.00     0.167 A 
ATOM     17  N1  AMP d   1      15.361   9.436   4.043  0.00  0.00    -0.222 NA
ATOM     18  C2  AMP d   1      15.416   9.525   5.390  0.00  0.00     0.091 A 
ATOM     19  N3  AMP d   1      16.035  10.512   6.070  0.00  0.00    -0.222 NA
ATOM     20  H12 AMP d   1      14.928   8.747   5.966  0.00  0.00     0.146 H 
BRANCH  15  21
ATOM     21  N6  AMP d   1      15.911  10.318   1.805  0.00  0.00    -0.382 N 
ATOM     22  H10 AMP d   1      15.426   9.541   1.334  0.00  0.00     0.157 HD
ATOM     23  H11 AMP d   1      16.371  11.052   1.248  0.00  0.00     0.157 HD
ENDBRANCH  15  21
ENDBRANCH   5  10
BRANCH   4  24
ATOM     24  O2  AMP d   1      19.106  12.138   8.740  0.00  0.00    -0.388 OA
ATOM     25  H7  AMP d   1      19.999  12.095   9.062  0.00  0.00     0.210 HD
ENDBRANCH   4  24
BRANCH   1  26
ATOM     26  C5  AMP d   1      18.248  16.544   7.210  0.00  0.00     0.059 C 
ATOM     27  H1  AMP d   1      18.429  16.522   6.125  0.00  0.00     0.079 H 
ATOM     28  H2  AMP d   1      17.296  17.057   7.413  0.00  0.00     0.079 H 
BRANCH  26  29
ATOM     29  O5  AMP d   1      19.357  17.188   7.918  0.00  0.00    -0.280 OA
BRANCH  29  30
ATOM     30  P   AMP d   1      19.302  18.800   8.267  0.00  0.00     0.422 P 
ATOM     31  O1P AMP d   1      20.546  19.039   8.992  0.00  0.00    -0.617 OA
ATOM     32  O2P AMP d   1      19.250  19.530   6.975  0.00  0.00    -0.617 OA
ATOM     33  O3P AMP d   1      18.084  19.087   9.118  0.00  0.00    -0.617 OA
ENDBRANCH  29  30
ENDBRANCH  26  29
ENDBRANCH   1  26
BRANCH   3  34
ATOM     34  O3  AMP d   1      20.630  14.509   8.671  0.00  0.00    -0.390 OA
ATOM     35  H5  AMP d   1      20.828  15.438   8.702  0.00  0.00     0.210 HD
ENDBRANCH   3  34
TORSDOF 7
