REMARK  9 active torsions:
REMARK  status: ('A' for Active; 'I' for Inactive)
REMARK    1  A    between atoms: O3A_8  and  PB_1 
REMARK    2  A    between atoms: PA_5  and  O3A_8 
REMARK    3  A    between atoms: PA_5  and  O5_9 
REMARK    4  A    between atoms: O5_9  and  C5_10 
REMARK    5  A    between atoms: C5_10  and  C4_11 
REMARK    6  A    between atoms: C3_13  and  O3_14 
REMARK    7  A    between atoms: C2_15  and  O2_16 
REMARK    8  A    between atoms: C1_17  and  N9_18 
REMARK    9  A    between atoms: C6_22  and  N6_23 
ROOT
ATOM      1  C4  ADP d   1     -11.443  97.552  19.902  0.00  0.00     0.089 C 
ATOM      2  O4  ADP d   1     -12.553  96.818  20.479  0.00  0.00    -0.353 OA
ATOM      3  C3  ADP d   1     -10.284  96.572  19.982  0.00  0.00     0.091 C 
ATOM      4  C2  ADP d   1     -10.527  95.907  21.333  0.00  0.00     0.105 C 
ATOM      5  C1  ADP d   1     -12.056  95.824  21.361  0.00  0.00     0.139 C 
ATOM      6  H3  ADP d   1     -11.209  98.442  20.504  0.00  0.00     0.090 H 
ATOM      7  H4  ADP d   1     -10.324  95.837  19.165  0.00  0.00     0.091 H 
ATOM      8  H6  ADP d   1     -10.064  94.910  21.370  0.00  0.00     0.093 H 
ATOM      9  H8  ADP d   1     -12.412  96.017  22.384  0.00  0.00     0.122 H 
ENDROOT
BRANCH   5  10
ATOM     10  N9  ADP d   1     -12.549  94.518  20.923  0.00  0.00    -0.294 N 
ATOM     11  C8  ADP d   1     -12.672  94.034  19.644  0.00  0.00     0.071 A 
ATOM     12  N7  ADP d   1     -13.119  92.803  19.587  0.00  0.00    -0.236 NA
ATOM     13  H9  ADP d   1     -12.422  94.618  18.760  0.00  0.00     0.144 H 
ATOM     14  C5  ADP d   1     -13.308  92.455  20.918  0.00  0.00     0.149 A 
ATOM     15  C6  ADP d   1     -13.767  91.277  21.533  0.00  0.00     0.155 A 
ATOM     16  C4  ADP d   1     -12.970  93.505  21.750  0.00  0.00     0.167 A 
ATOM     17  N1  ADP d   1     -13.840  91.260  22.884  0.00  0.00    -0.222 NA
ATOM     18  C2  ADP d   1     -13.478  92.359  23.558  0.00  0.00     0.091 A 
ATOM     19  N3  ADP d   1     -13.033  93.525  23.093  0.00  0.00    -0.222 NA
ATOM     20  H12 ADP d   1     -13.559  92.290  24.637  0.00  0.00     0.146 H 
BRANCH  15  21
ATOM     21  N6  ADP d   1     -14.134  90.182  20.857  0.00  0.00    -0.382 N 
ATOM     22  H10 ADP d   1     -14.462  89.349  21.366  0.00  0.00     0.157 HD
ATOM     23  H11 ADP d   1     -14.088  90.172  19.828  0.00  0.00     0.157 HD
ENDBRANCH  15  21
ENDBRANCH   5  10
BRANCH   4  24
ATOM     24  O2  ADP d   1     -10.070  96.677  22.427  0.00  0.00    -0.388 OA
ATOM     25  H7  ADP d   1      -9.135  96.821  22.343  0.00  0.00     0.210 HD
ENDBRANCH   4  24
BRANCH   1  26
ATOM     26  C5  ADP d   1     -11.823  98.004  18.515  0.00  0.00     0.058 C 
ATOM     27  H1  ADP d   1     -12.721  98.636  18.572  0.00  0.00     0.079 H 
ATOM     28  H2  ADP d   1     -10.994  98.583  18.081  0.00  0.00     0.079 H 
BRANCH  26  29
ATOM     29  O5  ADP d   1     -12.092  96.880  17.691  0.00  0.00    -0.287 OA
BRANCH  29  30
ATOM     30  PA  ADP d   1     -11.571  96.826  16.187  0.00  0.00     0.418 P 
ATOM     31  O1A ADP d   1     -11.361  98.229  15.741  0.00  0.00    -0.624 OA
ATOM     32  O2A ADP d   1     -12.489  95.943  15.421  0.00  0.00    -0.624 OA
BRANCH  30  33
ATOM     33  O3A ADP d   1     -10.151  96.095  16.201  0.00  0.00    -0.173 OA
BRANCH  33  34
ATOM     34  PB  ADP d   1      -8.770  96.875  16.066  0.00  0.00     0.431 P 
ATOM     35  O1B ADP d   1      -8.835  97.675  14.816  0.00  0.00    -0.616 OA
ATOM     36  O2B ADP d   1      -7.687  95.875  16.228  0.00  0.00    -0.616 OA
ATOM     37  O3B ADP d   1      -8.676  97.894  17.288  0.00  0.00    -0.616 OA
ENDBRANCH  33  34
ENDBRANCH  30  33
ENDBRANCH  29  30
ENDBRANCH  26  29
ENDBRANCH   1  26
BRANCH   3  38
ATOM     38  O3  ADP d   1      -9.036  97.255  19.942  0.00  0.00    -0.390 OA
ATOM     39  H5  ADP d   1      -8.969  97.742  19.129  0.00  0.00     0.210 HD
ENDBRANCH   3  38
TORSDOF 9
