REMARK  14 active torsions:
REMARK  status: ('A' for Active; 'I' for Inactive)
REMARK    1  A    between atoms: O3_25  and  C1_1 
REMARK    2  A    between atoms: C2_2  and  O2_7 
REMARK    3  A    between atoms: C3_3  and  O3_8 
REMARK    4  A    between atoms: C4_4  and  O4_9 
REMARK    5  A    between atoms: C5_5  and  C6_6 
REMARK    6  A    between atoms: C6_6  and  O6_11 
REMARK    7  A    between atoms: C6_13  and  O6_12 
REMARK    8  A    between atoms: C5_14  and  C6_13 
REMARK    9  A    between atoms: C1_16  and  O1_17 
REMARK   10  A    between atoms: O1_17  and  CM_18 
REMARK   11  A    between atoms: C2_19  and  N2_20 
REMARK       I    between atoms: N2_20  and  C7_21 
REMARK   12  A    between atoms: C7_21  and  C8_23 
REMARK   13  A    between atoms: O3_25  and  C3_24 
REMARK   14  A    between atoms: C4_26  and  O4_27 
ROOT
ATOM      1  H15 GAL d   1      34.804  32.766  28.370  0.00  0.00     0.090 H 
ATOM      2  H16 GAL d   1      35.603  29.432  26.627  0.00  0.00     0.132 H 
ATOM      3  H20 GAL d   1      36.016  31.162  24.917  0.00  0.00     0.084 H 
ATOM      4  H25 GAL d   1      37.012  32.865  27.247  0.00  0.00     0.091 H 
ATOM      5  H26 GAL d   1      35.128  34.433  26.464  0.00  0.00     0.091 H 
ATOM      6  C5  MGC d   1      34.297  32.587  27.410  0.00  0.00     0.089 C 
ATOM      7  O5  MGC d   1      34.358  31.097  27.099  0.00  0.00    -0.349 OA
ATOM      8  C1  MGC d   1      35.710  30.476  26.957  0.00  0.00     0.152 C 
ATOM      9  C2  MGC d   1      36.502  31.250  25.900  0.00  0.00     0.087 C 
ATOM     10  C3  MGC d   1      36.549  32.735  26.258  0.00  0.00     0.093 C 
ATOM     11  C4  MGC d   1      35.104  33.352  26.263  0.00  0.00     0.089 C 
ENDROOT
BRANCH  10  12
ATOM     12  O3  MGC d   1      37.299  33.392  25.282  0.00  0.00    -0.348 OA
BRANCH  12  13
ATOM     13  C1  GAL d   1      38.259  34.451  25.431  0.00  0.00     0.159 C 
ATOM     14  C2  GAL d   1      39.309  34.610  24.349  0.00  0.00     0.110 C 
ATOM     15  C3  GAL d   1      40.052  35.931  24.535  0.00  0.00     0.092 C 
ATOM     16  H2  GAL d   1      38.827  34.616  23.360  0.00  0.00     0.094 H 
ATOM     17  C4  GAL d   1      39.035  37.172  24.426  0.00  0.00     0.090 C 
ATOM     18  H3  GAL d   1      40.538  35.941  25.522  0.00  0.00     0.091 H 
ATOM     19  C5  GAL d   1      37.951  37.005  25.549  0.00  0.00     0.089 C 
ATOM     20  H4  GAL d   1      39.584  38.117  24.550  0.00  0.00     0.091 H 
ATOM     21  O5  GAL d   1      37.322  35.621  25.404  0.00  0.00    -0.348 OA
ATOM     22  H5  GAL d   1      38.555  37.008  26.468  0.00  0.00     0.090 H 
ATOM     23  H1  GAL d   1      38.775  34.361  26.398  0.00  0.00     0.133 H 
BRANCH  14  24
ATOM     24  O2  GAL d   1      40.167  33.477  24.445  0.00  0.00    -0.388 OA
ATOM     25  H8  GAL d   1      40.576  33.463  25.302  0.00  0.00     0.210 HD
ENDBRANCH  14  24
BRANCH  15  26
ATOM     26  O3  GAL d   1      41.035  36.055  23.512  0.00  0.00    -0.390 OA
ATOM     27  H9  GAL d   1      41.642  35.326  23.567  0.00  0.00     0.210 HD
ENDBRANCH  15  26
BRANCH  17  28
ATOM     28  O4  GAL d   1      38.335  37.169  23.173  0.00  0.00    -0.390 OA
ATOM     29  H10 GAL d   1      37.869  36.347  23.074  0.00  0.00     0.210 HD
ENDBRANCH  17  28
BRANCH  19  30
ATOM     30  C6  GAL d   1      36.770  37.892  25.900  0.00  0.00     0.043 C 
ATOM     31  H6  GAL d   1      36.212  37.933  24.953  0.00  0.00     0.078 H 
ATOM     32  H7  GAL d   1      37.249  38.865  26.086  0.00  0.00     0.078 H 
BRANCH  30  33
ATOM     33  O6  GAL d   1      35.733  37.869  26.868  0.00  0.00    -0.398 OA
ATOM     34  H11 GAL d   1      35.218  37.078  26.760  0.00  0.00     0.209 HD
ENDBRANCH  30  33
ENDBRANCH  19  30
ENDBRANCH  12  13
ENDBRANCH  10  12
BRANCH   9  35
ATOM     35  N2  MGC d   1      37.734  30.559  25.866  0.00  0.00    -0.349 N 
ATOM     36  C7  MGC d   1      38.403  30.217  24.730  0.00  0.00     0.214 C 
ATOM     37  O7  MGC d   1      37.860  30.138  23.613  0.00  0.00    -0.274 OA
ATOM     38  H21 GAL d   1      38.145  30.302  26.741  0.00  0.00     0.163 HD
BRANCH  36  39
ATOM     39  C8  MGC d   1      39.888  29.927  24.853  0.00  0.00    -0.003 C 
ATOM     40  H22 GAL d   1      40.294  29.666  23.864  0.00  0.00     0.040 H 
ATOM     41  H23 GAL d   1      40.041  29.086  25.546  0.00  0.00     0.040 H 
ATOM     42  H24 GAL d   1      40.405  30.818  25.238  0.00  0.00     0.040 H 
ENDBRANCH  36  39
ENDBRANCH   9  35
BRANCH  11  43
ATOM     43  O4  MGC d   1      34.537  33.094  24.953  0.00  0.00    -0.390 OA
ATOM     44  H27 GAL d   1      33.658  33.453  24.913  0.00  0.00     0.210 HD
ENDBRANCH  11  43
BRANCH   8  45
ATOM     45  O1  MGC d   1      36.357  30.495  28.239  0.00  0.00    -0.364 OA
BRANCH  45  46
ATOM     46  CM  MGC d   1      35.725  29.765  29.470  0.00  0.00     0.007 C 
ATOM     47  H17 GAL d   1      36.373  29.900  30.349  0.00  0.00     0.066 H 
ATOM     48  H18 GAL d   1      35.626  28.692  29.249  0.00  0.00     0.066 H 
ATOM     49  H19 GAL d   1      34.732  30.190  29.678  0.00  0.00     0.066 H 
ENDBRANCH  45  46
ENDBRANCH   8  45
BRANCH   6  50
ATOM     50  C6  MGC d   1      32.850  33.082  27.550  0.00  0.00     0.043 C 
ATOM     51  H13 GAL d   1      32.448  32.719  28.507  0.00  0.00     0.078 H 
ATOM     52  H14 GAL d   1      32.855  34.182  27.548  0.00  0.00     0.078 H 
BRANCH  50  53
ATOM     53  O6  MGC d   1      32.004  32.635  26.509  0.00  0.00    -0.398 OA
ATOM     54  H12 GAL d   1      32.336  32.949  25.676  0.00  0.00     0.209 HD
ENDBRANCH  50  53
ENDBRANCH   6  50
TORSDOF 14
