REMARK  12 active torsions:
REMARK  status: ('A' for Active; 'I' for Inactive)
REMARK    1  A    between atoms: C2_2  and  C1_1 
REMARK    2  A    between atoms: O3_3  and  C2_2 
REMARK    3  A    between atoms: C4_4  and  O3_3 
REMARK    4  A    between atoms: S10_10  and  C7_7 
REMARK    5  A    between atoms: C9_9  and  C21_21 
REMARK    6  A    between atoms: N14_14  and  S10_10 
REMARK    7  A    between atoms: C20_20  and  C13_13 
REMARK    8  A    between atoms: N17_17  and  C20_20 
REMARK    9  A    between atoms: C28_28  and  C31_31 
REMARK   10  A    between atoms: C30_30  and  C32_32 
REMARK   11  A    between atoms: C32_32  and  C33_33 
REMARK   12  A    between atoms: C33_33  and  C34_34 
ROOT
ATOM      1  C4  VDN d   1       4.008  67.563  84.512  0.00  0.00     0.082 A 
ATOM      2  C5  VDN d   1       4.736  68.613  83.976  0.00  0.00    -0.048 A 
ATOM      3  C6  VDN d   1       4.148  69.523  82.977  0.00  0.00    -0.058 A 
ATOM      4  C7  VDN d   1       2.847  69.329  82.555  0.00  0.00     0.075 A 
ATOM      5  C8  VDN d   1       2.044  68.207  83.113  0.00  0.00    -0.044 A 
ATOM      6  C9  VDN d   1       2.548  67.357  84.027  0.00  0.00     0.046 A 
ATOM      7  H6  VDN d   1       5.759  68.768  84.298  0.00  0.00     0.087 H 
ATOM      8  H7  VDN d   1       4.734  70.341  82.575  0.00  0.00     0.086 H 
ATOM      9  H8  VDN d   1       1.024  68.070  82.773  0.00  0.00     0.087 H 
ENDROOT
BRANCH   6  10
ATOM     10  C21 VDN d   1       1.702  66.271  84.553  0.00  0.00     0.164 A 
ATOM     11  N22 VDN d   1       1.597  66.025  85.891  0.00  0.00    -0.304 N 
ATOM     12  C23 VDN d   1       0.815  65.023  86.515  0.00  0.00     0.278 A 
ATOM     13  H23 VDN d   1       2.130  66.616  86.496  0.00  0.00     0.171 HD
ATOM     14  C24 VDN d   1       0.057  64.195  85.542  0.00  0.00     0.150 A 
ATOM     15  O27 VDN d   1       0.789  64.885  87.721  0.00  0.00    -0.265 OA
ATOM     16  N25 VDN d   1       0.217  64.508  84.151  0.00  0.00    -0.212 N 
ATOM     17  C28 VDN d   1      -0.835  63.129  85.464  0.00  0.00     0.041 A 
ATOM     18  N26 VDN d   1       0.997  65.498  83.691  0.00  0.00    -0.146 NA
ATOM     19  C30 VDN d   1      -0.545  63.662  83.402  0.00  0.00     0.106 A 
ATOM     20  N29 VDN d   1      -1.203  62.803  84.110  0.00  0.00    -0.346 N 
ATOM     21  H24 VDN d   1      -1.839  62.062  83.783  0.00  0.00     0.167 HD
BRANCH  19  22
ATOM     22  C32 VDN d   1      -0.544  63.806  81.886  0.00  0.00    -0.010 C 
ATOM     23  H28 VDN d   1      -0.451  64.876  81.650  0.00  0.00     0.044 H 
ATOM     24  H29 VDN d   1      -1.508  63.431  81.512  0.00  0.00     0.044 H 
BRANCH  22  25
ATOM     25  C33 VDN d   1       0.581  63.056  81.129  0.00  0.00    -0.062 C 
ATOM     26  H30 VDN d   1       1.508  63.104  81.719  0.00  0.00     0.033 H 
ATOM     27  H31 VDN d   1       0.742  63.536  80.153  0.00  0.00     0.033 H 
BRANCH  25  28
ATOM     28  C34 VDN d   1       0.200  61.591  80.911  0.00  0.00    -0.076 C 
ATOM     29  H32 VDN d   1       1.010  61.078  80.373  0.00  0.00     0.027 H 
ATOM     30  H33 VDN d   1      -0.725  61.537  80.318  0.00  0.00     0.027 H 
ATOM     31  H34 VDN d   1       0.041  61.105  81.885  0.00  0.00     0.027 H 
ENDBRANCH  25  28
ENDBRANCH  22  25
ENDBRANCH  19  22
BRANCH  17  32
ATOM     32  C31 VDN d   1      -1.383  62.372  86.669  0.00  0.00    -0.035 C 
ATOM     33  H25 VDN d   1      -0.962  62.798  87.592  0.00  0.00     0.035 H 
ATOM     34  H26 VDN d   1      -1.103  61.311  86.594  0.00  0.00     0.035 H 
ATOM     35  H27 VDN d   1      -2.479  62.461  86.691  0.00  0.00     0.035 H 
ENDBRANCH  17  32
ENDBRANCH   6  10
BRANCH   1  36
ATOM     36  O3  VDN d   1       4.448  66.652  85.451  0.00  0.00    -0.351 OA
BRANCH  36  37
ATOM     37  C2  VDN d   1       5.743  66.607  86.066  0.00  0.00     0.023 C 
ATOM     38  H4  VDN d   1       6.529  66.447  85.314  0.00  0.00     0.074 H 
ATOM     39  H5  VDN d   1       5.947  67.536  86.619  0.00  0.00     0.074 H 
BRANCH  37  40
ATOM     40  C1  VDN d   1       5.649  65.412  87.021  0.00  0.00    -0.056 C 
ATOM     41  H1  VDN d   1       6.606  65.289  87.550  0.00  0.00     0.030 H 
ATOM     42  H2  VDN d   1       5.428  64.500  86.447  0.00  0.00     0.030 H 
ATOM     43  H3  VDN d   1       4.846  65.589  87.752  0.00  0.00     0.030 H 
ENDBRANCH  37  40
ENDBRANCH  36  37
ENDBRANCH   1  36
BRANCH   4  44
ATOM     44  S10 VDN d   1       2.096  70.361  81.367  0.00  0.00     0.243 S 
ATOM     45  O11 VDN d   1       2.700  70.039  80.092  0.00  0.00    -0.206 OA
ATOM     46  O12 VDN d   1       0.674  70.087  81.440  0.00  0.00    -0.206 OA
BRANCH  44  47
ATOM     47  N14 VDN d   1       2.396  71.942  81.781  0.00  0.00    -0.203 NA
ATOM     48  C15 VDN d   1       1.175  72.726  82.109  0.00  0.00     0.016 C 
ATOM     49  C16 VDN d   1       1.482  74.208  82.424  0.00  0.00     0.095 C 
ATOM     50  H12 VDN d   1       0.692  72.273  82.987  0.00  0.00     0.059 H 
ATOM     51  H13 VDN d   1       0.489  72.684  81.250  0.00  0.00     0.059 H 
ATOM     52  N17 VDN d   1       2.190  74.844  81.289  0.00  0.00    -0.069 N 
ATOM     53  H14 VDN d   1       2.115  74.264  83.322  0.00  0.00     0.077 H 
ATOM     54  H15 VDN d   1       0.538  74.742  82.607  0.00  0.00     0.077 H 
ATOM     55  C18 VDN d   1       3.439  74.092  81.010  0.00  0.00     0.095 C 
ATOM     56  H16 VDN d   1       1.601  74.790  80.473  0.00  0.00     0.280 HD
ATOM     57  C19 VDN d   1       3.172  72.602  80.707  0.00  0.00     0.016 C 
ATOM     58  H17 VDN d   1       4.097  74.162  81.888  0.00  0.00     0.077 H 
ATOM     59  H18 VDN d   1       3.938  74.546  80.141  0.00  0.00     0.077 H 
ATOM     60  H19 VDN d   1       2.608  72.528  79.766  0.00  0.00     0.059 H 
ATOM     61  H20 VDN d   1       4.137  72.085  80.598  0.00  0.00     0.059 H 
BRANCH  52  62
ATOM     62  C20 VDN d   1       2.446  76.265  81.569  0.00  0.00     0.080 C 
ATOM     63  H21 VDN d   1       1.655  76.625  82.244  0.00  0.00     0.075 H 
ATOM     64  H22 VDN d   1       3.421  76.340  82.073  0.00  0.00     0.075 H 
BRANCH  62  65
ATOM     65  C13 VDN d   1       2.476  77.196  80.332  0.00  0.00    -0.053 C 
ATOM     66  H9  VDN d   1       2.674  78.229  80.655  0.00  0.00     0.029 H 
ATOM     67  H10 VDN d   1       1.505  77.153  79.817  0.00  0.00     0.029 H 
ATOM     68  H11 VDN d   1       3.271  76.868  79.645  0.00  0.00     0.029 H 
ENDBRANCH  62  65
ENDBRANCH  52  62
ENDBRANCH  44  47
ENDBRANCH   4  44
TORSDOF 12
