REMARK  2 active torsions:
REMARK  status: ('A' for Active; 'I' for Inactive)
REMARK    1  A    between atoms: C3_3  and  C4_4 
REMARK    2  A    between atoms: C4_4  and  N5_5 
ROOT
ATOM      1  C4  CMU d   1      -3.629   3.166  28.078  0.00  0.00     0.036 C 
ATOM      2  H1  CMU d   1      -2.796   3.501  27.443  0.00  0.00     0.073 H 
ATOM      3  H2  CMU d   1      -4.369   3.975  28.168  0.00  0.00     0.073 H 
ENDROOT
BRANCH   1   4
ATOM      4  C3  CMU d   1      -3.112   2.764  29.462  0.00  0.00     0.059 A 
ATOM      5  C2  CMU d   1      -3.589   3.293  30.616  0.00  0.00     0.126 A 
ATOM      6 CL1  CMU d   1      -4.802   4.529  30.601  0.00  0.00    -0.076 Cl
ATOM      7  C15 CMU d   1      -3.073   2.830  31.860  0.00  0.00     0.273 A 
ATOM      8  N14 CMU d   1      -2.145   1.864  31.907  0.00  0.00    -0.274 N 
ATOM      9  O16 CMU d   1      -3.474   3.313  32.893  0.00  0.00    -0.266 OA
ATOM     10  C12 CMU d   1      -1.673   1.349  30.755  0.00  0.00     0.327 A 
ATOM     11  H11 CMU d   1      -1.807   1.530  32.787  0.00  0.00     0.173 HD
ATOM     12  N11 CMU d   1      -2.149   1.793  29.571  0.00  0.00    -0.309 N 
ATOM     13  O13 CMU d   1      -0.820   0.470  30.761  0.00  0.00    -0.247 OA
ATOM     14  H10 CMU d   1      -1.781   1.393  28.732  0.00  0.00     0.170 HD
ENDBRANCH   1   4
BRANCH   1  15
ATOM     15  N5  CMU d   1      -4.265   1.945  27.496  0.00  0.00    -0.362 N 
ATOM     16  C6  CMU d   1      -5.294   1.131  28.179  0.00  0.00    -0.000 C 
ATOM     17  C7  CMU d   1      -5.824   0.142  27.113  0.00  0.00    -0.031 C 
ATOM     18  H3  CMU d   1      -6.109   1.772  28.545  0.00  0.00     0.064 H 
ATOM     19  H4  CMU d   1      -4.851   0.583  29.023  0.00  0.00     0.064 H 
ATOM     20  C8  CMU d   1      -4.792   0.145  25.944  0.00  0.00    -0.060 C 
ATOM     21  H5  CMU d   1      -6.809   0.469  26.749  0.00  0.00     0.041 H 
ATOM     22  H6  CMU d   1      -5.908  -0.868  27.541  0.00  0.00     0.041 H 
ATOM     23  C9  CMU d   1      -3.976   1.396  26.267  0.00  0.00     0.093 C 
ATOM     24  H7  CMU d   1      -4.682  -0.557  25.118  0.00  0.00     0.082 H 
ATOM     25  N10 CMU d   1      -3.116   1.927  25.450  0.00  0.00    -0.386 N 
ATOM     26  H8  CMU d   1      -2.929   1.484  24.539  0.00  0.00     0.157 HD
ATOM     27  H9  CMU d   1      -2.621   2.791  25.713  0.00  0.00     0.157 HD
ENDBRANCH   1  15
TORSDOF 2
