REMARK  0 active torsions:
REMARK  status: ('A' for Active; 'I' for Inactive)
ROOT
ATOM      1  F5  URF d   1       9.899  97.743  45.308  0.00  0.00    -0.199 F 
ATOM      2  N1  URF d   1       8.772  94.398  45.914  0.00  0.00    -0.316 N 
ATOM      3  C2  URF d   1       9.450  94.025  47.064  0.00  0.00     0.327 A 
ATOM      4  N3  URF d   1      10.245  94.999  47.610  0.00  0.00    -0.273 N 
ATOM      5  C4  URF d   1      10.478  96.271  47.101  0.00  0.00     0.289 A 
ATOM      6  C5  URF d   1       9.725  96.584  45.907  0.00  0.00     0.199 A 
ATOM      7  C6  URF d   1       8.934  95.655  45.361  0.00  0.00     0.024 A 
ATOM      8  O2  URF d   1       9.331  92.939  47.603  0.00  0.00    -0.247 OA
ATOM      9  O4  URF d   1      11.235  97.053  47.693  0.00  0.00    -0.265 OA
ATOM     10  H1  URF d   1       8.154  93.746  45.476  0.00  0.00     0.170 HD
ATOM     11  H2  URF d   1      10.707  94.770  48.467  0.00  0.00     0.173 HD
ATOM     12  H3  URF d   1       8.396  95.897  44.445  0.00  0.00     0.116 H 
ENDROOT
TORSDOF 0
