REMARK  16 active torsions:
REMARK  status: ('A' for Active; 'I' for Inactive)
REMARK    1  A    between atoms: O4_25  and  C1_1 
REMARK    2  A    between atoms: C2_2  and  N2_9 
REMARK    3  A    between atoms: C3_3  and  O3_10 
REMARK    4  A    between atoms: C4_4  and  O4_11 
REMARK    5  A    between atoms: C5_5  and  C6_6 
REMARK    6  A    between atoms: C6_6  and  O6_13 
REMARK    7  A    between atoms: C7_7  and  C8_8 
REMARK       I    between atoms: N2_9  and  C7_7 
REMARK    8  A    between atoms: C2_16  and  N1_23 
REMARK    9  A    between atoms: C3_17  and  O3_24 
REMARK   10  A    between atoms: C4_18  and  O4_25 
REMARK   11  A    between atoms: C5_19  and  C6_20 
REMARK   12  A    between atoms: C6_20  and  O6_27 
REMARK   13  A    between atoms: C7_21  and  C8_22 
REMARK       I    between atoms: N1_23  and  C7_21 
REMARK       I    between atoms: C_30  and  N_29 
REMARK   14  A    between atoms: N_29  and  C1_33 
REMARK   15  A    between atoms: O_31  and  C_30 
REMARK   16  A    between atoms: O_31  and  N2_39 
ROOT
ATOM      1  H15 NAG d   1      16.628  44.531 100.554  0.00  0.00     0.090 H 
ATOM      2  H16 NAG d   1      16.772  43.843 103.410  0.00  0.00     0.090 H 
ATOM      3  H17 NAG d   1      17.523  41.594 101.435  0.00  0.00     0.091 H 
ATOM      4  H18 NAG d   1      19.130  43.114 103.573  0.00  0.00     0.091 H 
ATOM      5  C1  GDL d   1      18.700  44.053 100.836  0.00  0.00     0.194 C 
ATOM      6  C2  GDL d   1      17.330  44.471 101.399  0.00  0.00     0.105 C 
ATOM      7  C3  GDL d   1      16.777  43.416 102.396  0.00  0.00     0.090 C 
ATOM      8  C4  GDL d   1      17.632  42.116 102.397  0.00  0.00     0.096 C 
ATOM      9  C5  GDL d   1      19.082  42.521 102.648  0.00  0.00     0.094 C 
ATOM     10  O5  GDL d   1      19.605  43.306 101.552  0.00  0.00    -0.324 OA
ATOM     11  N2  PHJ d   1      18.973  44.234  99.575  0.00  0.00    -0.100 NA
ENDROOT
BRANCH   8  12
ATOM     12  O4  GDL d   1      17.287  41.248 103.473  0.00  0.00    -0.348 OA
BRANCH  12  13
ATOM     13  C1  NAG d   1      16.279  40.294 103.123  0.00  0.00     0.154 C 
ATOM     14  C2  NAG d   1      16.414  39.125 104.120  0.00  0.00     0.087 C 
ATOM     15  C3  NAG d   1      15.253  38.114 103.946  0.00  0.00     0.086 C 
ATOM     16  H2  NAG d   1      16.368  39.529 105.142  0.00  0.00     0.084 H 
ATOM     17  C4  NAG d   1      13.900  38.847 103.996  0.00  0.00     0.089 C 
ATOM     18  H3  NAG d   1      15.359  37.594 102.983  0.00  0.00     0.090 H 
ATOM     19  C5  NAG d   1      13.897  40.010 102.995  0.00  0.00     0.089 C 
ATOM     20  H4  NAG d   1      13.736  39.240 105.010  0.00  0.00     0.091 H 
ATOM     21  O5  NAG d   1      14.988  40.924 103.306  0.00  0.00    -0.349 OA
ATOM     22  H5  NAG d   1      14.021  39.612 101.977  0.00  0.00     0.090 H 
ATOM     23  H1  NAG d   1      16.401  39.946 102.087  0.00  0.00     0.132 H 
BRANCH  14  24
ATOM     24  N2  NAG d   1      17.723  38.470 103.933  0.00  0.00    -0.349 N 
ATOM     25  C7  NAG d   1      18.641  38.433 104.900  0.00  0.00     0.214 C 
ATOM     26  O7  NAG d   1      18.488  38.921 106.021  0.00  0.00    -0.274 OA
ATOM     27  H11 NAG d   1      17.928  38.040 103.054  0.00  0.00     0.163 HD
BRANCH  25  28
ATOM     28  C8  NAG d   1      19.942  37.713 104.528  0.00  0.00    -0.003 C 
ATOM     29  H8  NAG d   1      20.631  37.735 105.385  0.00  0.00     0.040 H 
ATOM     30  H9  NAG d   1      20.408  38.218 103.669  0.00  0.00     0.040 H 
ATOM     31  H10 NAG d   1      19.720  36.669 104.263  0.00  0.00     0.040 H 
ENDBRANCH  25  28
ENDBRANCH  14  24
BRANCH  15  32
ATOM     32  O3  NAG d   1      15.289  37.166 105.020  0.00  0.00    -0.391 OA
ATOM     33  H12 NAG d   1      15.195  37.623 105.847  0.00  0.00     0.210 HD
ENDBRANCH  15  32
BRANCH  17  34
ATOM     34  O4  NAG d   1      12.850  37.925 103.666  0.00  0.00    -0.390 OA
ATOM     35  H13 NAG d   1      12.854  37.206 104.287  0.00  0.00     0.210 HD
ENDBRANCH  17  34
BRANCH  19  36
ATOM     36  C6  NAG d   1      12.601  40.798 103.080  0.00  0.00     0.043 C 
ATOM     37  H6  NAG d   1      12.500  41.239 104.083  0.00  0.00     0.078 H 
ATOM     38  H7  NAG d   1      11.748  40.132 102.884  0.00  0.00     0.078 H 
BRANCH  36  39
ATOM     39  O6  NAG d   1      12.637  41.831 102.103  0.00  0.00    -0.398 OA
ATOM     40  H14 NAG d   1      11.832  42.333 102.145  0.00  0.00     0.209 HD
ENDBRANCH  36  39
ENDBRANCH  19  36
ENDBRANCH  12  13
ENDBRANCH   8  12
BRANCH   7  41
ATOM     41  O3  GDL d   1      15.432  43.094 101.996  0.00  0.00    -0.390 OA
ATOM     42  H25 NAG d   1      15.062  42.468 102.607  0.00  0.00     0.210 HD
ENDBRANCH   7  41
BRANCH   9  43
ATOM     43  C6  GDL d   1      19.965  41.266 102.795  0.00  0.00     0.044 C 
ATOM     44  H19 NAG d   1      19.567  40.631 103.600  0.00  0.00     0.078 H 
ATOM     45  H20 NAG d   1      20.994  41.569 103.041  0.00  0.00     0.078 H 
BRANCH  43  46
ATOM     46  O6  GDL d   1      19.965  40.526 101.554  0.00  0.00    -0.398 OA
ATOM     47  H26 NAG d   1      20.309  41.075 100.859  0.00  0.00     0.209 HD
ENDBRANCH  43  46
ENDBRANCH   9  43
BRANCH   6  48
ATOM     48  N1  GDL d   1      17.393  45.825 102.033  0.00  0.00    -0.347 N 
ATOM     49  C7  GDL d   1      18.421  46.268 102.785  0.00  0.00     0.214 C 
ATOM     50  O7  GDL d   1      19.407  45.562 103.008  0.00  0.00    -0.274 OA
ATOM     51  H24 NAG d   1      16.620  46.443 101.889  0.00  0.00     0.163 HD
BRANCH  49  52
ATOM     52  C8  GDL d   1      18.369  47.698 103.337  0.00  0.00    -0.003 C 
ATOM     53  H21 NAG d   1      19.278  47.898 103.924  0.00  0.00     0.040 H 
ATOM     54  H22 NAG d   1      17.485  47.810 103.981  0.00  0.00     0.040 H 
ATOM     55  H23 NAG d   1      18.308  48.411 102.502  0.00  0.00     0.040 H 
ENDBRANCH  49  52
ENDBRANCH   6  48
BRANCH  11  56
ATOM     56  O   PHJ d   1      20.124  43.641  99.175  0.00  0.00    -0.153 OA
BRANCH  56  57
ATOM     57  C   PHJ d   1      20.131  43.475  97.845  0.00  0.00     0.389 C 
ATOM     58  N   PHJ d   1      21.127  42.731  97.326  0.00  0.00    -0.301 N 
ATOM     59  H27 NAG d   1      21.839  42.418  97.955  0.00  0.00     0.171 HD
ATOM     60  OXT PHJ d   1      19.319  44.115  97.131  0.00  0.00    -0.236 OA
BRANCH  58  61
ATOM     61  C1  PHJ d   1      21.247  42.373  96.034  0.00  0.00     0.036 A 
ATOM     62  C2  PHJ d   1      22.299  41.505  95.681  0.00  0.00    -0.057 A 
ATOM     63  C3  PHJ d   1      22.382  40.974  94.380  0.00  0.00    -0.081 A 
ATOM     64  H28 NAG d   1      23.051  41.244  96.417  0.00  0.00     0.086 H 
ATOM     65  C4  PHJ d   1      21.411  41.314  93.424  0.00  0.00    -0.083 A 
ATOM     66  H29 NAG d   1      23.193  40.305  94.117  0.00  0.00     0.083 H 
ATOM     67  C5  PHJ d   1      20.362  42.191  93.766  0.00  0.00    -0.081 A 
ATOM     68  H30 NAG d   1      21.468  40.902  92.423  0.00  0.00     0.083 H 
ATOM     69  C6  PHJ d   1      20.279  42.731  95.063  0.00  0.00    -0.057 A 
ATOM     70  H31 NAG d   1      19.614  42.451  93.025  0.00  0.00     0.083 H 
ATOM     71  H32 NAG d   1      19.479  43.417  95.318  0.00  0.00     0.086 H 
ENDBRANCH  58  61
ENDBRANCH  56  57
ENDBRANCH  11  56
TORSDOF 16
