REMARK  6 active torsions:
REMARK  status: ('A' for Active; 'I' for Inactive)
REMARK    1  A    between atoms: N_1  and  CA_2 
REMARK    2  A    between atoms: CA_2  and  C_3 
REMARK    3  A    between atoms: CA_2  and  CB_5 
REMARK    4  A    between atoms: CB_5  and  CG_6 
REMARK    5  A    between atoms: CG_6  and  CD1_7 
REMARK    6  A    between atoms: CG_6  and  CD2_8 
ROOT
ATOM      1  CB  NON d   1      35.004  -1.967  39.068  0.00  0.00    -0.026 C 
ATOM      2  H5  NON d   1      35.632  -1.990  38.165  0.00  0.00     0.037 H 
ATOM      3  H6  NON d   1      34.946  -2.977  39.501  0.00  0.00     0.037 H 
ENDROOT
BRANCH   1   4
ATOM      4  CA  NON d   1      33.593  -1.567  38.639  0.00  0.00     0.182 C 
ATOM      5  H4  NON d   1      33.635  -0.576  38.164  0.00  0.00     0.101 H 
BRANCH   4   6
ATOM      6  N   NON d   1      32.700  -1.491  39.791  0.00  0.00    -0.065 N 
ATOM      7  H1  NON d   1      33.059  -0.819  40.451  0.00  0.00     0.275 HD
ATOM      8  H2  NON d   1      32.642  -2.396  40.231  0.00  0.00     0.275 HD
ATOM      9  H3  NON d   1      31.782  -1.206  39.487  0.00  0.00     0.275 HD
ENDBRANCH   4   6
BRANCH   4  10
ATOM     10  C   NON d   1      33.074  -2.576  37.626  0.00  0.00     0.204 C 
ATOM     11  O   NON d   1      32.040  -3.220  37.851  0.00  0.00    -0.646 OA
ATOM     12  OXT NON d   1      33.695  -2.737  36.576  0.00  0.00    -0.646 OA
ENDBRANCH   4  10
ENDBRANCH   1   4
BRANCH   1  13
ATOM     13  CG  NON d   1      35.695  -1.068  40.087  0.00  0.00    -0.059 C 
ATOM     14  H7  NON d   1      35.043  -0.977  40.968  0.00  0.00     0.038 H 
BRANCH  13  15
ATOM     15  CD1 NON d   1      37.008  -1.709  40.527  0.00  0.00    -0.073 C 
ATOM     16  H8  NON d   1      37.505  -1.059  41.262  0.00  0.00     0.028 H 
ATOM     17  H9  NON d   1      37.663  -1.841  39.653  0.00  0.00     0.028 H 
ATOM     18  H10 NON d   1      36.803  -2.689  40.983  0.00  0.00     0.028 H 
ENDBRANCH  13  15
BRANCH  13  19
ATOM     19  CD2 NON d   1      35.919   0.325  39.523  0.00  0.00    -0.073 C 
ATOM     20  H11 NON d   1      34.954   0.756  39.217  0.00  0.00     0.028 H 
ATOM     21  H12 NON d   1      36.587   0.265  38.651  0.00  0.00     0.028 H 
ATOM     22  H13 NON d   1      36.378   0.963  40.293  0.00  0.00     0.028 H 
ENDBRANCH  13  19
ENDBRANCH   1  13
TORSDOF 6
