REMARK  7 active torsions:
REMARK  status: ('A' for Active; 'I' for Inactive)
REMARK    1  A    between atoms: C1_1  and  N3_15 
REMARK    2  A    between atoms: C2_2  and  S2_16 
REMARK       I    between atoms: C3_3  and  N4_18 
REMARK    3  A    between atoms: C5_19  and  C7_4 
REMARK    4  A    between atoms: C7_4  and  C9_6 
REMARK    5  A    between atoms: N5_22  and  C14_11 
REMARK    6  A    between atoms: N4_18  and  C5_19 
REMARK    7  A    between atoms: C5_19  and  C6_20 
REMARK       I    between atoms: C6_20  and  N5_22 
ROOT
ATOM      1  C5  IN9 d   1      25.946  44.206  48.672  0.00  0.00     0.094 C 
ATOM      2  H9  IN9 d   1      25.580  45.033  49.299  0.00  0.00     0.088 H 
ENDROOT
BRANCH   1   3
ATOM      3  N4  IN9 d   1      27.377  44.280  48.484  0.00  0.00    -0.341 N 
ATOM      4  C3  IN9 d   1      28.069  45.491  48.777  0.00  0.00     0.254 C 
ATOM      5  N3  IN9 d   1      29.361  45.562  48.413  0.00  0.00    -0.297 N 
ATOM      6  O1  IN9 d   1      27.450  46.595  49.311  0.00  0.00    -0.151 OA
ATOM      7  H6  IN9 d   1      29.760  44.730  48.028  0.00  0.00     0.171 HD
ATOM      8  H8  IN9 d   1      27.880  43.483  48.149  0.00  0.00     0.164 HD
BRANCH   5   9
ATOM      9  C1  IN9 d   1      30.246  46.717  48.517  0.00  0.00     0.197 A 
ATOM     10  N1  IN9 d   1      31.416  46.613  47.958  0.00  0.00    -0.122 NA
ATOM     11  N2  IN9 d   1      32.176  47.751  48.238  0.00  0.00    -0.133 NA
ATOM     12  C2  IN9 d   1      31.545  48.672  48.984  0.00  0.00     0.157 A 
ATOM     13  S1  IN9 d   1      29.977  48.166  49.384  0.00  0.00    -0.022 SA
BRANCH  12  14
ATOM     14  S2  IN9 d   1      32.362  50.230  49.409  0.00  0.00    -0.114 SA
ATOM     15  H7  IN9 d   1      32.409  50.321  50.412  0.00  0.00     0.109 HD
ENDBRANCH  12  14
ENDBRANCH   5   9
ENDBRANCH   1   3
BRANCH   1  16
ATOM     16  C6  IN9 d   1      25.707  42.895  49.317  0.00  0.00     0.240 C 
ATOM     17  N5  IN9 d   1      24.562  42.746  50.168  0.00  0.00    -0.364 N 
ATOM     18  H10 IN9 d   1      23.951  43.504  50.395  0.00  0.00     0.161 HD
ATOM     19  O2  IN9 d   1      26.445  41.968  49.047  0.00  0.00    -0.271 OA
BRANCH  17  20
ATOM     20  C14 IN9 d   1      24.363  41.364  50.684  0.00  0.00    -0.018 C 
ATOM     21  H3  IN9 d   1      23.469  41.337  51.324  0.00  0.00     0.056 H 
ATOM     22  H4  IN9 d   1      25.243  41.061  51.270  0.00  0.00     0.056 H 
ATOM     23  H5  IN9 d   1      24.230  40.673  49.839  0.00  0.00     0.056 H 
ENDBRANCH  17  20
ENDBRANCH   1  16
BRANCH   1  24
ATOM     24  C7  IN9 d   1      25.258  44.228  47.287  0.00  0.00    -0.008 C 
ATOM     25  H1  IN9 d   1      24.187  44.014  47.420  0.00  0.00     0.044 H 
ATOM     26  H2  IN9 d   1      25.712  43.452  46.654  0.00  0.00     0.044 H 
BRANCH  24  27
ATOM     27  C9  IN9 d   1      25.405  45.558  46.603  0.00  0.00     0.028 A 
ATOM     28  C8  IN9 d   1      24.533  46.563  46.875  0.00  0.00     0.167 A 
ATOM     29  C13 IN9 d   1      24.697  47.787  46.257  0.00  0.00     0.197 A 
ATOM     30  F8  IN9 d   1      23.467  46.435  47.738  0.00  0.00    -0.202 F 
ATOM     31  C12 IN9 d   1      25.682  47.948  45.329  0.00  0.00     0.199 A 
ATOM     32  F13 IN9 d   1      23.803  48.823  46.492  0.00  0.00    -0.199 F 
ATOM     33  C11 IN9 d   1      26.522  46.918  45.024  0.00  0.00     0.197 A 
ATOM     34  F12 IN9 d   1      25.774  49.133  44.654  0.00  0.00    -0.199 F 
ATOM     35  C10 IN9 d   1      26.378  45.711  45.645  0.00  0.00     0.167 A 
ATOM     36  F11 IN9 d   1      27.479  47.134  44.066  0.00  0.00    -0.199 F 
ATOM     37  F10 IN9 d   1      27.258  44.713  45.351  0.00  0.00    -0.202 F 
ENDBRANCH  24  27
ENDBRANCH   1  24
TORSDOF 7
