REMARK  2 active torsions:
REMARK  status: ('A' for Active; 'I' for Inactive)
REMARK    1  A    between atoms: N_1  and  C_2 
REMARK    2  A    between atoms: C_2  and  C1_3 
ROOT
ATOM      1  C1  ABN d   1      23.752  16.138  58.090  0.00  0.00    -0.033 A 
ATOM      2  C2  ABN d   1      24.298  14.856  58.080  0.00  0.00    -0.075 A 
ATOM      3  C3  ABN d   1      23.670  13.808  58.762  0.00  0.00    -0.082 A 
ATOM      4  C4  ABN d   1      22.489  14.049  59.456  0.00  0.00    -0.083 A 
ATOM      5  C5  ABN d   1      21.942  15.323  59.469  0.00  0.00    -0.082 A 
ATOM      6  C6  ABN d   1      22.573  16.359  58.788  0.00  0.00    -0.075 A 
ATOM      7  H6  ABN d   1      25.218  14.669  57.539  0.00  0.00     0.084 H 
ATOM      8  H7  ABN d   1      24.102  12.814  58.749  0.00  0.00     0.083 H 
ATOM      9  H8  ABN d   1      21.997  13.242  59.986  0.00  0.00     0.083 H 
ATOM     10  H9  ABN d   1      21.022  15.512  60.010  0.00  0.00     0.083 H 
ATOM     11  H10 ABN d   1      22.138  17.352  58.803  0.00  0.00     0.084 H 
ENDROOT
BRANCH   1  12
ATOM     12  C   ABN d   1      24.438  17.262  57.372  0.00  0.00     0.103 C 
ATOM     13  H4  ABN d   1      24.325  17.098  56.290  0.00  0.00     0.082 H 
ATOM     14  H5  ABN d   1      23.942  18.203  57.654  0.00  0.00     0.082 H 
BRANCH  12  15
ATOM     15  N   ABN d   1      25.896  17.395  57.673  0.00  0.00    -0.075 N 
ATOM     16  H1  ABN d   1      26.277  18.169  57.153  0.00  0.00     0.274 HD
ATOM     17  H2  ABN d   1      26.372  16.547  57.410  0.00  0.00     0.274 HD
ATOM     18  H3  ABN d   1      26.022  17.559  58.660  0.00  0.00     0.274 HD
ENDBRANCH  12  15
ENDBRANCH   1  12
TORSDOF 2
