REMARK  4 active torsions:
REMARK  status: ('A' for Active; 'I' for Inactive)
REMARK    1  A    between atoms: C1_1  and  C2_2 
REMARK    2  A    between atoms: C1_1  and  N_10 
REMARK    3  A    between atoms: C2_2  and  C3_3 
REMARK    4  A    between atoms: C3_3  and  C1'_4 
ROOT
ATOM      1  C3  PRA d   1      22.699  14.684  59.355  0.00  0.00    -0.040 C 
ATOM      2  H5  PRA d   1      22.008  14.719  60.210  0.00  0.00     0.040 H 
ATOM      3  H6  PRA d   1      23.716  14.465  59.713  0.00  0.00     0.040 H 
ENDROOT
BRANCH   1   4
ATOM      4  C2  PRA d   1      22.720  16.066  58.722  0.00  0.00    -0.039 C 
ATOM      5  H3  PRA d   1      21.927  16.122  57.962  0.00  0.00     0.035 H 
ATOM      6  H4  PRA d   1      22.533  16.818  59.503  0.00  0.00     0.035 H 
BRANCH   4   7
ATOM      7  C1  PRA d   1      24.057  16.364  58.061  0.00  0.00     0.080 C 
ATOM      8  H1  PRA d   1      24.108  15.810  57.112  0.00  0.00     0.075 H 
ATOM      9  H2  PRA d   1      24.861  16.021  58.729  0.00  0.00     0.075 H 
BRANCH   7  10
ATOM     10  N   PRA d   1      24.267  17.820  57.773  0.00  0.00    -0.079 N 
ATOM     11  H12 PRA d   1      25.167  17.950  57.337  0.00  0.00     0.274 HD
ATOM     12  H13 PRA d   1      24.233  18.341  58.635  0.00  0.00     0.274 HD
ATOM     13  H14 PRA d   1      23.543  18.148  57.153  0.00  0.00     0.274 HD
ENDBRANCH   7  10
ENDBRANCH   4   7
ENDBRANCH   1   4
BRANCH   1  14
ATOM     14  C1' PRA d   1      22.271  13.543  58.467  0.00  0.00    -0.058 A 
ATOM     15  C2' PRA d   1      23.121  13.036  57.480  0.00  0.00    -0.077 A 
ATOM     16  C3' PRA d   1      22.734  11.928  56.679  0.00  0.00    -0.082 A 
ATOM     17  H7  PRA d   1      24.090  13.495  57.323  0.00  0.00     0.084 H 
ATOM     18  C4' PRA d   1      21.484  11.327  56.870  0.00  0.00    -0.083 A 
ATOM     19  H8  PRA d   1      23.407  11.548  55.919  0.00  0.00     0.083 H 
ATOM     20  C5' PRA d   1      20.623  11.829  57.854  0.00  0.00    -0.082 A 
ATOM     21  H9  PRA d   1      21.185  10.481  56.262  0.00  0.00     0.083 H 
ATOM     22  C6' PRA d   1      21.024  12.936  58.647  0.00  0.00    -0.077 A 
ATOM     23  H10 PRA d   1      19.652  11.373  58.010  0.00  0.00     0.083 H 
ATOM     24  H11 PRA d   1      20.351  13.318  59.406  0.00  0.00     0.084 H 
ENDBRANCH   1  14
TORSDOF 4
