REMARK  7 active torsions:
REMARK  status: ('A' for Active; 'I' for Inactive)
REMARK    1  A    between atoms: N1_1  and  C2_2 
REMARK    2  A    between atoms: N1_1  and  C8_7 
REMARK    3  A    between atoms: N1_1  and  C9_8 
REMARK    4  A    between atoms: N1_1  and  C10_9 
REMARK    5  A    between atoms: C2_2  and  C3_3 
REMARK    6  A    between atoms: C3_3  and  O4_4 
REMARK    7  A    between atoms: O4_4  and  C5_5 
REMARK       I    between atoms: C5_5  and  N6_10 
ROOT
ATOM      1  N1  CCE d   1     138.239 125.033  87.569  0.00  0.00    -0.077 N 
ENDROOT
BRANCH   1   2
ATOM      2  C2  CCE d   1     138.513 124.823  86.135  0.00  0.00     0.104 C 
ATOM      3  H1  CCE d   1     139.498 125.257  85.907  0.00  0.00     0.079 H 
ATOM      4  H2  CCE d   1     137.738 125.349  85.558  0.00  0.00     0.079 H 
BRANCH   2   5
ATOM      5  C3  CCE d   1     138.525 123.360  85.693  0.00  0.00     0.053 C 
ATOM      6  H3  CCE d   1     137.534 122.918  85.876  0.00  0.00     0.077 H 
ATOM      7  H4  CCE d   1     139.283 122.812  86.272  0.00  0.00     0.077 H 
BRANCH   5   8
ATOM      8  O4  CCE d   1     138.837 123.263  84.291  0.00  0.00    -0.303 OA
BRANCH   8   9
ATOM      9  C5  CCE d   1     137.965 122.531  83.358  0.00  0.00     0.358 C 
ATOM     10  O7  CCE d   1     138.326 122.461  82.205  0.00  0.00    -0.239 OA
ATOM     11  N6  CCE d   1     136.836 121.963  83.778  0.00  0.00    -0.346 N 
ATOM     12  H14 CCE d   1     136.254 121.469  83.132  0.00  0.00     0.161 HD
ATOM     13  H15 CCE d   1     136.570 122.030  84.740  0.00  0.00     0.161 HD
ENDBRANCH   8   9
ENDBRANCH   5   8
ENDBRANCH   2   5
ENDBRANCH   1   2
BRANCH   1  14
ATOM     14  C8  CCE d   1     137.035 124.298  88.022  0.00  0.00     0.067 C 
ATOM     15  H5  CCE d   1     136.873 124.485  89.094  0.00  0.00     0.068 H 
ATOM     16  H6  CCE d   1     137.179 123.220  87.856  0.00  0.00     0.068 H 
ATOM     17  H7  CCE d   1     136.159 124.643  87.453  0.00  0.00     0.068 H 
ENDBRANCH   1  14
BRANCH   1  18
ATOM     18  C9  CCE d   1     139.430 124.635  88.369  0.00  0.00     0.067 C 
ATOM     19  H8  CCE d   1     140.311 125.192  88.017  0.00  0.00     0.068 H 
ATOM     20  H9  CCE d   1     139.607 123.556  88.251  0.00  0.00     0.068 H 
ATOM     21  H10 CCE d   1     139.252 124.864  89.430  0.00  0.00     0.068 H 
ENDBRANCH   1  18
BRANCH   1  22
ATOM     22  C10 CCE d   1     137.967 126.477  87.755  0.00  0.00     0.067 C 
ATOM     23  H11 CCE d   1     137.086 126.764  87.161  0.00  0.00     0.068 H 
ATOM     24  H12 CCE d   1     138.839 127.060  87.423  0.00  0.00     0.068 H 
ATOM     25  H13 CCE d   1     137.774 126.680  88.819  0.00  0.00     0.068 H 
ENDBRANCH   1  22
TORSDOF 7
