REMARK  9 active torsions:
REMARK  status: ('A' for Active; 'I' for Inactive)
REMARK    1  A    between atoms: C4_4  and  NA1_7 
REMARK    2  A    between atoms: NA1_7  and  CA2_8 
REMARK    3  A    between atoms: CA2_8  and  CA3_9 
REMARK    4  A    between atoms: CA3_9  and  OA4_10 
REMARK    5  A    between atoms: OA4_10  and  C21_11 
REMARK    6  A    between atoms: C23_13  and  NB1_18 
REMARK    7  A    between atoms: C25_15  and  C27_17 
REMARK    8  A    between atoms: NB1_18  and  SB2_19 
REMARK    9  A    between atoms: SB2_19  and  C31_22 
ROOT
ATOM      1  C21 I48 d   1      51.686  59.241  43.766  0.00  0.00     0.071 C 
ATOM      2  C22 I48 d   1      51.638  58.500  44.971  0.00  0.00    -0.025 C 
ATOM      3  C23 I48 d   1      52.214  59.025  46.145  0.00  0.00     0.045 C 
ATOM      4  C24 I48 d   1      53.018  60.184  46.071  0.00  0.00    -0.051 C 
ATOM      5  C25 I48 d   1      53.142  60.871  44.859  0.00  0.00    -0.057 C 
ATOM      6  C26 I48 d   1      52.557  60.353  43.696  0.00  0.00    -0.045 C 
ATOM      7  H10 I48 d   1      51.158  57.528  44.991  0.00  0.00     0.091 H 
ATOM      8  H11 I48 d   1      53.538  60.541  46.953  0.00  0.00     0.087 H 
ATOM      9  H12 I48 d   1      52.773  60.808  42.736  0.00  0.00     0.088 H 
ENDROOT
BRANCH   1  10
ATOM     10  OA4 I48 d   1      50.767  59.003  42.720  0.00  0.00    -0.349 OA
BRANCH  10  11
ATOM     11  CA3 I48 d   1      51.309  58.971  41.391  0.00  0.00     0.041 C 
ATOM     12  H8  I48 d   1      51.459  60.002  41.038  0.00  0.00     0.077 H 
ATOM     13  H9  I48 d   1      52.275  58.446  41.409  0.00  0.00     0.077 H 
BRANCH  11  14
ATOM     14  CA2 I48 d   1      50.357  58.242  40.426  0.00  0.00     0.013 C 
ATOM     15  H6  I48 d   1      50.742  58.343  39.401  0.00  0.00     0.067 H 
ATOM     16  H7  I48 d   1      50.318  57.177  40.700  0.00  0.00     0.067 H 
BRANCH  14  17
ATOM     17  NA1 I48 d   1      49.012  58.793  40.482  0.00  0.00    -0.388 N 
ATOM     18  H5  I48 d   1      48.862  59.812  40.516  0.00  0.00     0.159 HD
BRANCH  17  19
ATOM     19  C4  I48 d   1      47.900  57.889  40.489  0.00  0.00     0.030 A 
ATOM     20  C3  I48 d   1      48.091  56.496  40.499  0.00  0.00    -0.041 A 
ATOM     21  C2  I48 d   1      47.004  55.612  40.520  0.00  0.00     0.004 A 
ATOM     22  H2  I48 d   1      49.099  56.098  40.490  0.00  0.00     0.089 H 
ATOM     23  N1  I48 d   1      45.689  56.138  40.451  0.00  0.00    -0.273 NA
ATOM     24  H1  I48 d   1      47.166  54.542  40.588  0.00  0.00     0.114 H 
ATOM     25  C6  I48 d   1      45.502  57.548  40.458  0.00  0.00     0.004 A 
ATOM     26  C5  I48 d   1      46.605  58.401  40.398  0.00  0.00    -0.041 A 
ATOM     27  H4  I48 d   1      44.501  57.961  40.510  0.00  0.00     0.114 H 
ATOM     28  H3  I48 d   1      46.455  59.468  40.280  0.00  0.00     0.089 H 
ENDBRANCH  17  19
ENDBRANCH  14  17
ENDBRANCH  11  14
ENDBRANCH  10  11
ENDBRANCH   1  10
BRANCH   5  29
ATOM     29  C27 I48 d   1      54.178  61.957  44.704  0.00  0.00    -0.051 C 
ATOM     30  H13 I48 d   1      54.543  62.260  45.697  0.00  0.00     0.033 H 
ATOM     31  H14 I48 d   1      53.728  62.824  44.199  0.00  0.00     0.033 H 
ATOM     32  H15 I48 d   1      55.019  61.579  44.104  0.00  0.00     0.033 H 
ENDBRANCH   5  29
BRANCH   3  33
ATOM     33  NB1 I48 d   1      52.266  58.231  47.318  0.00  0.00    -0.281 N 
ATOM     34  H16 I48 d   1      53.047  57.650  47.548  0.00  0.00     0.179 HD
BRANCH  33  35
ATOM     35  SB2 I48 d   1      50.934  58.349  48.264  0.00  0.00     0.263 S 
ATOM     36  OBB I48 d   1      49.705  58.015  47.585  0.00  0.00    -0.200 OA
ATOM     37  OBA I48 d   1      51.140  57.435  49.360  0.00  0.00    -0.200 OA
BRANCH  35  38
ATOM     38  C31 I48 d   1      50.725  59.953  48.910  0.00  0.00     0.079 C 
ATOM     39  C36 I48 d   1      51.798  60.599  49.538  0.00  0.00    -0.060 C 
ATOM     40  C35 I48 d   1      51.642  61.950  49.929  0.00  0.00    -0.082 C 
ATOM     41  H21 I48 d   1      52.729  60.075  49.721  0.00  0.00     0.085 H 
ATOM     42  C34 I48 d   1      50.390  62.589  49.768  0.00  0.00    -0.083 C 
ATOM     43  H20 I48 d   1      52.480  62.494  50.351  0.00  0.00     0.083 H 
ATOM     44  C33 I48 d   1      49.327  61.892  49.157  0.00  0.00    -0.082 C 
ATOM     45  H19 I48 d   1      50.249  63.607  50.112  0.00  0.00     0.083 H 
ATOM     46  C32 I48 d   1      49.441  60.504  48.953  0.00  0.00    -0.060 C 
ATOM     47  H18 I48 d   1      48.432  62.419  48.848  0.00  0.00     0.083 H 
ATOM     48  H17 I48 d   1      48.561  59.882  48.833  0.00  0.00     0.085 H 
ENDBRANCH  35  38
ENDBRANCH  33  35
ENDBRANCH   3  33
TORSDOF 9
