REMARK  2 active torsions:
REMARK  status: ('A' for Active; 'I' for Inactive)
REMARK    1  A    between atoms: C2_3  and  C6_8 
REMARK    2  A    between atoms: N2_7  and  C10_12 
ROOT
ATOM      1  N2  NCT d   1      84.773  70.488 -11.317  0.00  0.00    -0.067 N 
ATOM      2  C6  NCT d   1      84.348  69.212 -10.639  0.00  0.00     0.130 C 
ATOM      3  C7  NCT d   1      85.537  68.745  -9.801  0.00  0.00    -0.033 C 
ATOM      4  C8  NCT d   1      86.737  69.434 -10.424  0.00  0.00    -0.040 C 
ATOM      5  C9  NCT d   1      86.233  70.625 -11.235  0.00  0.00     0.084 C 
ATOM      6  H5  NCT d   1      84.311  71.268 -10.875  0.00  0.00     0.280 HD
ATOM      7  H6  NCT d   1      84.186  68.468 -11.433  0.00  0.00     0.092 H 
ATOM      8  H7  NCT d   1      85.645  67.652  -9.855  0.00  0.00     0.036 H 
ATOM      9  H8  NCT d   1      85.416  69.050  -8.751  0.00  0.00     0.036 H 
ATOM     10  H9  NCT d   1      87.269  68.732 -11.084  0.00  0.00     0.035 H 
ATOM     11  H10 NCT d   1      87.418  69.783  -9.634  0.00  0.00     0.035 H 
ATOM     12  H11 NCT d   1      86.498  71.567 -10.732  0.00  0.00     0.076 H 
ATOM     13  H12 NCT d   1      86.673  70.611 -12.243  0.00  0.00     0.076 H 
ENDROOT
BRANCH   2  14
ATOM     14  C2  NCT d   1      83.069  69.256  -9.857  0.00  0.00    -0.010 A 
ATOM     15  C1  NCT d   1      82.926  69.909  -8.615  0.00  0.00     0.010 A 
ATOM     16  N1  NCT d   1      81.726  69.981  -7.943  0.00  0.00    -0.273 NA
ATOM     17  H1  NCT d   1      83.798  70.374  -8.170  0.00  0.00     0.115 H 
ATOM     18  C5  NCT d   1      80.636  69.345  -8.441  0.00  0.00     0.002 A 
ATOM     19  C4  NCT d   1      80.705  68.617  -9.641  0.00  0.00    -0.065 A 
ATOM     20  H4  NCT d   1      79.696  69.399  -7.904  0.00  0.00     0.114 H 
ATOM     21  C3  NCT d   1      81.922  68.611 -10.371  0.00  0.00    -0.072 A 
ATOM     22  H3  NCT d   1      79.843  68.069 -10.003  0.00  0.00     0.085 H 
ATOM     23  H2  NCT d   1      81.972  68.108 -11.330  0.00  0.00     0.084 H 
ENDBRANCH   2  14
BRANCH   1  24
ATOM     24  C10 NCT d   1      84.502  70.486 -12.756  0.00  0.00     0.067 C 
ATOM     25  H13 NCT d   1      83.420  70.386 -12.925  0.00  0.00     0.068 H 
ATOM     26  H14 NCT d   1      85.026  69.641 -13.227  0.00  0.00     0.068 H 
ATOM     27  H15 NCT d   1      84.857  71.429 -13.197  0.00  0.00     0.068 H 
ENDBRANCH   1  24
TORSDOF 2
