REMARK  6 active torsions:
REMARK  status: ('A' for Active; 'I' for Inactive)
REMARK    1  A    between atoms: N1_2  and  O7_5 
REMARK    2  A    between atoms: C2_3  and  O2_6 
REMARK    3  A    between atoms: C3_7  and  O3_8 
REMARK    4  A    between atoms: C4_9  and  O4_10 
REMARK    5  A    between atoms: C5_11  and  C6_12 
REMARK    6  A    between atoms: C6_12  and  O6_13 
ROOT
ATOM      1  C1  GTL d   1     119.341  38.704  64.717  0.00  0.00     0.159 C 
ATOM      2  N1  GTL d   1     118.703  38.831  65.872  0.00  0.00    -0.120 NA
ATOM      3  C2  GTL d   1     118.819  37.597  63.776  0.00  0.00     0.121 C 
ATOM      4  N5  GTL d   1     120.392  39.590  64.434  0.00  0.00    -0.365 N 
ATOM      5  C3  GTL d   1     119.842  37.422  62.645  0.00  0.00     0.094 C 
ATOM      6  C4  GTL d   1     120.420  38.757  62.097  0.00  0.00     0.084 C 
ATOM      7  C5  GTL d   1     121.246  39.386  63.253  0.00  0.00     0.058 C 
ATOM      8  H1  GTL d   1     117.836  37.873  63.366  0.00  0.00     0.099 H 
ATOM      9  H2  GTL d   1     120.567  40.390  65.058  0.00  0.00     0.161 HD
ATOM     10  H5  GTL d   1     120.683  36.828  63.033  0.00  0.00     0.091 H 
ATOM     11  H7  GTL d   1     121.049  38.593  61.210  0.00  0.00     0.090 H 
ATOM     12  H9  GTL d   1     122.029  38.658  63.513  0.00  0.00     0.079 H 
ENDROOT
BRANCH   7  13
ATOM     13  C6  GTL d   1     121.962  40.736  62.939  0.00  0.00     0.038 C 
ATOM     14  H10 GTL d   1     122.308  40.728  61.895  0.00  0.00     0.077 H 
ATOM     15  H11 GTL d   1     122.825  40.852  63.611  0.00  0.00     0.077 H 
BRANCH  13  16
ATOM     16  O6  GTL d   1     121.077  41.823  63.127  0.00  0.00    -0.399 OA
ATOM     17  H12 GTL d   1     120.331  41.727  62.546  0.00  0.00     0.209 HD
ENDBRANCH  13  16
ENDBRANCH   7  13
BRANCH   6  18
ATOM     18  O4  GTL d   1     119.312  39.574  61.784  0.00  0.00    -0.391 OA
ATOM     19  H8  GTL d   1     119.620  40.406  61.443  0.00  0.00     0.210 HD
ENDBRANCH   6  18
BRANCH   5  20
ATOM     20  O3  GTL d   1     119.214  36.703  61.604  0.00  0.00    -0.390 OA
ATOM     21  H6  GTL d   1     119.828  36.581  60.890  0.00  0.00     0.210 HD
ENDBRANCH   5  20
BRANCH   2  22
ATOM     22  O7  GTL d   1     118.893  40.026  66.557  0.00  0.00    -0.265 OA
ATOM     23  H3  GTL d   1     118.599  40.750  66.016  0.00  0.00     0.247 HD
ENDBRANCH   2  22
BRANCH   3  24
ATOM     24  O2  GTL d   1     118.725  36.389  64.495  0.00  0.00    -0.385 OA
ATOM     25  H4  GTL d   1     119.583  36.151  64.825  0.00  0.00     0.210 HD
ENDBRANCH   3  24
TORSDOF 6
