REMARK  4 active torsions:
REMARK  status: ('A' for Active; 'I' for Inactive)
REMARK    1  A    between atoms: O4_1  and  C4_2 
REMARK    2  A    between atoms: C3_3  and  O3_4 
REMARK    3  A    between atoms: C5_8  and  C6_9 
REMARK    4  A    between atoms: C6_9  and  O6_10 
ROOT
ATOM      1  C4  IFL d   1      74.171  12.747  33.807  0.00  0.00     0.075 C 
ATOM      2  C3  IFL d   1      73.098  12.900  32.680  0.00  0.00     0.137 C 
ATOM      3  C2  IFL d   1      73.637  12.782  31.226  0.00  0.00     0.249 C 
ATOM      4  N   IFL d   1      74.861  12.240  31.084  0.00  0.00    -0.358 N 
ATOM      5  C7  IFL d   1      75.834  12.065  32.166  0.00  0.00     0.003 C 
ATOM      6  C5  IFL d   1      75.589  13.049  33.308  0.00  0.00     0.009 C 
ATOM      7  O2  IFL d   1      72.859  12.975  30.275  0.00  0.00    -0.271 OA
ATOM      8  H2  IFL d   1      74.156  11.711  34.176  0.00  0.00     0.088 H 
ATOM      9  H3  IFL d   1      72.612  13.879  32.803  0.00  0.00     0.102 H 
ATOM     10  H5  IFL d   1      75.127  11.933  30.170  0.00  0.00     0.162 HD
ATOM     11  H6  IFL d   1      76.846  12.227  31.766  0.00  0.00     0.064 H 
ATOM     12  H7  IFL d   1      75.754  11.039  32.555  0.00  0.00     0.064 H 
ATOM     13  H8  IFL d   1      75.593  14.075  32.912  0.00  0.00     0.049 H 
ENDROOT
BRANCH   6  14
ATOM     14  C6  IFL d   1      76.753  12.958  34.340  0.00  0.00     0.024 C 
ATOM     15  H9  IFL d   1      76.600  13.706  35.132  0.00  0.00     0.074 H 
ATOM     16  H10 IFL d   1      77.709  13.153  33.832  0.00  0.00     0.074 H 
BRANCH  14  17
ATOM     17  O6  IFL d   1      76.779  11.634  34.925  0.00  0.00    -0.400 OA
ATOM     18  H11 IFL d   1      75.953  11.466  35.364  0.00  0.00     0.209 HD
ENDBRANCH  14  17
ENDBRANCH   6  14
BRANCH   1  19
ATOM     19  O4  IFL d   1      73.783  13.611  34.848  0.00  0.00    -0.392 OA
ATOM     20  H1  IFL d   1      74.410  13.550  35.559  0.00  0.00     0.210 HD
ENDBRANCH   1  19
BRANCH   2  21
ATOM     21  O3  IFL d   1      72.120  11.838  32.792  0.00  0.00    -0.384 OA
ATOM     22  H4  IFL d   1      71.470  11.934  32.106  0.00  0.00     0.210 HD
ENDBRANCH   2  21
TORSDOF 4
