REMARK  19 active torsions:
REMARK  status: ('A' for Active; 'I' for Inactive)
REMARK    1  A    between atoms: C1_1  and  O1_10 
REMARK    2  A    between atoms: N2_9  and  C2_2 
REMARK    3  A    between atoms: C3_3  and  O3_11 
REMARK    4  A    between atoms: C4_4  and  O4_12 
REMARK    5  A    between atoms: C5_5  and  C6_6 
REMARK    6  A    between atoms: C6_6  and  O6_14 
REMARK    7  A    between atoms: C7_7  and  C8_8 
REMARK       I    between atoms: C7_7  and  N2_9 
REMARK    8  A    between atoms: O1_10  and  CM_16 
REMARK    9  A    between atoms: O3_11  and  C1_17 
REMARK   10  A    between atoms: O4_12  and  C1_27 
REMARK   11  A    between atoms: C2_18  and  O2_23 
REMARK   12  A    between atoms: C3_19  and  O3_24 
REMARK   13  A    between atoms: C4_20  and  O4_25 
REMARK   14  A    between atoms: C5_21  and  C6_22 
REMARK   15  A    between atoms: C2_28  and  O2_33 
REMARK   16  A    between atoms: C3_29  and  O3_34 
REMARK   17  A    between atoms: C4_30  and  O4_35 
REMARK   18  A    between atoms: C5_31  and  C6_32 
REMARK   19  A    between atoms: C6_32  and  O6_37 
ROOT
ATOM      1  C1  MAG d   1       3.745  18.873  20.363  0.00  0.00     0.152 C 
ATOM      2  C2  MAG d   1       2.309  19.394  20.462  0.00  0.00     0.087 C 
ATOM      3  C3  MAG d   1       1.451  19.124  19.232  0.00  0.00     0.093 C 
ATOM      4  C4  MAG d   1       2.238  19.344  17.946  0.00  0.00     0.096 C 
ATOM      5  C5  MAG d   1       3.548  18.569  18.043  0.00  0.00     0.089 C 
ATOM      6  O5  MAG d   1       4.327  19.099  19.093  0.00  0.00    -0.349 OA
ATOM      7  H1  MAG d   1       3.744  17.791  20.562  0.00  0.00     0.132 H 
ATOM      8  H2  MAG d   1       2.348  20.480  20.629  0.00  0.00     0.084 H 
ATOM      9  H3  MAG d   1       1.138  18.070  19.265  0.00  0.00     0.091 H 
ATOM     10  H4  MAG d   1       2.450  20.415  17.809  0.00  0.00     0.091 H 
ATOM     11  H5  MAG d   1       3.314  17.517  18.265  0.00  0.00     0.090 H 
ENDROOT
BRANCH   4  12
ATOM     12  O4  MAG d   1       1.458  18.871  16.869  0.00  0.00    -0.348 OA
BRANCH  12  13
ATOM     13  C1  GAL d   1       1.319  19.857  15.828  0.00  0.00     0.159 C 
ATOM     14  C2  GAL d   1       0.634  19.203  14.630  0.00  0.00     0.110 C 
ATOM     15  C3  GAL d   1       0.353  20.215  13.526  0.00  0.00     0.092 C 
ATOM     16  H28 MAG d   1      -0.318  18.764  14.965  0.00  0.00     0.094 H 
ATOM     17  C4  GAL d   1      -0.392  21.393  14.123  0.00  0.00     0.090 C 
ATOM     18  H29 MAG d   1       1.307  20.561  13.102  0.00  0.00     0.091 H 
ATOM     19  C5  GAL d   1       0.398  21.961  15.294  0.00  0.00     0.089 C 
ATOM     20  H30 MAG d   1      -0.508  22.177  13.360  0.00  0.00     0.091 H 
ATOM     21  O5  GAL d   1       0.564  20.960  16.271  0.00  0.00    -0.348 OA
ATOM     22  H31 MAG d   1       1.388  22.275  14.931  0.00  0.00     0.090 H 
ATOM     23  H27 MAG d   1       2.318  20.208  15.529  0.00  0.00     0.133 H 
BRANCH  14  24
ATOM     24  O2  GAL d   1       1.451  18.191  14.101  0.00  0.00    -0.388 OA
ATOM     25  H34 MAG d   1       2.265  18.572  13.792  0.00  0.00     0.210 HD
ENDBRANCH  14  24
BRANCH  15  26
ATOM     26  O3  GAL d   1      -0.427  19.639  12.498  0.00  0.00    -0.390 OA
ATOM     27  H35 MAG d   1      -1.254  19.342  12.858  0.00  0.00     0.210 HD
ENDBRANCH  15  26
BRANCH  17  28
ATOM     28  O4  GAL d   1      -1.667  20.954  14.531  0.00  0.00    -0.390 OA
ATOM     29  H36 MAG d   1      -2.136  20.606  13.782  0.00  0.00     0.210 HD
ENDBRANCH  17  28
BRANCH  19  30
ATOM     30  C6  GAL d   1      -0.299  23.169  15.906  0.00  0.00     0.043 C 
ATOM     31  H32 MAG d   1      -1.293  22.879  16.277  0.00  0.00     0.078 H 
ATOM     32  H33 MAG d   1      -0.406  23.961  15.150  0.00  0.00     0.078 H 
BRANCH  30  33
ATOM     33  O6  GAL d   1       0.494  23.632  16.975  0.00  0.00    -0.398 OA
ATOM     34  H37 MAG d   1       0.586  22.942  17.622  0.00  0.00     0.209 HD
ENDBRANCH  30  33
ENDBRANCH  19  30
ENDBRANCH  12  13
ENDBRANCH   4  12
BRANCH   3  35
ATOM     35  O3  MAG d   1       0.290  19.927  19.229  0.00  0.00    -0.348 OA
BRANCH  35  36
ATOM     36  C1  FUC d   1      -0.875  19.224  19.695  0.00  0.00     0.159 C 
ATOM     37  C2  FUC d   1      -1.876  20.243  20.216  0.00  0.00     0.110 C 
ATOM     38  C3  FUC d   1      -2.342  21.110  19.054  0.00  0.00     0.092 C 
ATOM     39  H17 MAG d   1      -2.746  19.721  20.641  0.00  0.00     0.094 H 
ATOM     40  C4  FUC d   1      -2.984  20.234  17.990  0.00  0.00     0.087 C 
ATOM     41  H18 MAG d   1      -1.466  21.614  18.621  0.00  0.00     0.091 H 
ATOM     42  C5  FUC d   1      -2.042  19.100  17.596  0.00  0.00     0.065 C 
ATOM     43  H19 MAG d   1      -3.181  20.852  17.102  0.00  0.00     0.091 H 
ATOM     44  O5  FUC d   1      -1.530  18.425  18.730  0.00  0.00    -0.351 OA
ATOM     45  H20 MAG d   1      -1.194  19.540  17.050  0.00  0.00     0.086 H 
ATOM     46  H16 MAG d   1      -0.562  18.567  20.520  0.00  0.00     0.133 H 
BRANCH  37  47
ATOM     47  O2  FUC d   1      -1.257  21.001  21.232  0.00  0.00    -0.388 OA
ATOM     48  H24 MAG d   1      -0.499  21.448  20.875  0.00  0.00     0.210 HD
ENDBRANCH  37  47
BRANCH  38  49
ATOM     49  O3  FUC d   1      -3.263  22.092  19.474  0.00  0.00    -0.390 OA
ATOM     50  H25 MAG d   1      -4.033  21.669  19.834  0.00  0.00     0.210 HD
ENDBRANCH  38  49
BRANCH  40  51
ATOM     51  O4  FUC d   1      -4.207  19.707  18.451  0.00  0.00    -0.390 OA
ATOM     52  H26 MAG d   1      -4.786  20.420  18.694  0.00  0.00     0.210 HD
ENDBRANCH  40  51
BRANCH  42  53
ATOM     53  C6  FUC d   1      -2.743  18.108  16.669  0.00  0.00    -0.050 C 
ATOM     54  H21 MAG d   1      -2.045  17.302  16.400  0.00  0.00     0.031 H 
ATOM     55  H22 MAG d   1      -3.072  18.628  15.757  0.00  0.00     0.031 H 
ATOM     56  H23 MAG d   1      -3.616  17.680  17.183  0.00  0.00     0.031 H 
ENDBRANCH  42  53
ENDBRANCH  35  36
ENDBRANCH   3  35
BRANCH   5  57
ATOM     57  C6  MAG d   1       4.349  18.623  16.748  0.00  0.00     0.043 C 
ATOM     58  H6  MAG d   1       3.712  18.306  15.909  0.00  0.00     0.078 H 
ATOM     59  H7  MAG d   1       5.216  17.951  16.825  0.00  0.00     0.078 H 
BRANCH  57  60
ATOM     60  O6  MAG d   1       4.794  19.942  16.528  0.00  0.00    -0.398 OA
ATOM     61  H12 MAG d   1       5.293  19.976  15.721  0.00  0.00     0.209 HD
ENDBRANCH  57  60
ENDBRANCH   5  57
BRANCH   2  62
ATOM     62  N2  MAG d   1       1.658  18.749  21.586  0.00  0.00    -0.349 N 
ATOM     63  C7  MAG d   1       1.747  19.236  22.816  0.00  0.00     0.214 C 
ATOM     64  O7  MAG d   1       2.143  20.375  23.047  0.00  0.00    -0.274 OA
ATOM     65  H11 MAG d   1       1.128  17.915  21.429  0.00  0.00     0.163 HD
BRANCH  63  66
ATOM     66  C8  MAG d   1       1.350  18.304  23.922  0.00  0.00    -0.003 C 
ATOM     67  H8  MAG d   1       1.464  18.814  24.890  0.00  0.00     0.040 H 
ATOM     68  H9  MAG d   1       1.994  17.413  23.899  0.00  0.00     0.040 H 
ATOM     69  H10 MAG d   1       0.301  18.002  23.788  0.00  0.00     0.040 H 
ENDBRANCH  63  66
ENDBRANCH   2  62
BRANCH   1  70
ATOM     70  O1  MAG d   1       4.519  19.536  21.343  0.00  0.00    -0.364 OA
BRANCH  70  71
ATOM     71  CM  MAG d   1       5.828  19.059  21.628  0.00  0.00     0.007 C 
ATOM     72  H13 MAG d   1       6.285  19.686  22.408  0.00  0.00     0.066 H 
ATOM     73  H14 MAG d   1       6.441  19.104  20.716  0.00  0.00     0.066 H 
ATOM     74  H15 MAG d   1       5.771  18.018  21.980  0.00  0.00     0.066 H 
ENDBRANCH  70  71
ENDBRANCH   1  70
TORSDOF 19
