REMARK  7 active torsions:
REMARK  status: ('A' for Active; 'I' for Inactive)
REMARK    1  A    between atoms: O4_16  and  C1B_1 
REMARK    2  A    between atoms: C2B_2  and  O2B_6 
REMARK    3  A    between atoms: C3B_3  and  O3B_7 
REMARK    4  A    between atoms: C4B_4  and  O4B_8 
REMARK    5  A    between atoms: C2_11  and  O2_12 
REMARK    6  A    between atoms: C3_13  and  O3_14 
REMARK    7  A    between atoms: C4_15  and  O4_16 
ROOT
ATOM      1  H10 XYP d   1      11.385  17.333  14.716  0.00  0.00     0.079 H 
ATOM      2  H11 XYP d   1      10.615  18.934  14.979  0.00  0.00     0.079 H 
ATOM      3  H12 XYP d   1       9.643  18.206  17.084  0.00  0.00     0.089 H 
ATOM      4  H14 XYP d   1      10.846  15.418  16.631  0.00  0.00     0.091 H 
ATOM      5  H16 XYP d   1       7.978  16.514  16.440  0.00  0.00     0.090 H 
ATOM      6  H17 XYP d   1       8.202  15.621  14.072  0.00  0.00     0.079 H 
ATOM      7  H18 XYP d   1       9.952  15.380  14.395  0.00  0.00     0.079 H 
ATOM      8  H19 XYP d   1       9.449  17.529  13.410  0.00  0.00     0.277 HD
ATOM      9  H20 XYP d   1       8.510  17.931  14.701  0.00  0.00     0.277 HD
ATOM     10  C1  XDN d   1      10.505  17.850  15.127  0.00  0.00     0.107 C 
ATOM     11  C2  XDN d   1      10.427  17.561  16.660  0.00  0.00     0.086 C 
ATOM     12  C3  XDN d   1      10.036  16.093  16.945  0.00  0.00     0.088 C 
ATOM     13  C4  XDN d   1       8.765  15.802  16.152  0.00  0.00     0.091 C 
ATOM     14  C5  XDN d   1       9.062  15.967  14.664  0.00  0.00     0.108 C 
ATOM     15  N5  XDN d   1       9.308  17.394  14.399  0.00  0.00    -0.070 N 
ENDROOT
BRANCH  13  16
ATOM     16  O4  XDN d   1       8.333  14.475  16.465  0.00  0.00    -0.349 OA
BRANCH  16  17
ATOM     17  C1B XYP d   1       6.951  14.308  16.239  0.00  0.00     0.158 C 
ATOM     18  C2B XYP d   1       6.649  12.854  16.534  0.00  0.00     0.110 C 
ATOM     19  C3B XYP d   1       5.164  12.592  16.425  0.00  0.00     0.091 C 
ATOM     20  H2  XYP d   1       6.968  12.632  17.563  0.00  0.00     0.094 H 
ATOM     21  C4B XYP d   1       4.365  13.626  17.205  0.00  0.00     0.083 C 
ATOM     22  H3  XYP d   1       4.873  12.644  15.366  0.00  0.00     0.091 H 
ATOM     23  C5B XYP d   1       4.851  15.041  16.871  0.00  0.00     0.049 C 
ATOM     24  H4  XYP d   1       4.523  13.448  18.279  0.00  0.00     0.090 H 
ATOM     25  O5B XYP d   1       6.235  15.123  17.102  0.00  0.00    -0.356 OA
ATOM     26  H5  XYP d   1       4.328  15.769  17.509  0.00  0.00     0.078 H 
ATOM     27  H6  XYP d   1       4.641  15.262  15.814  0.00  0.00     0.078 H 
ATOM     28  H1  XYP d   1       6.697  14.552  15.197  0.00  0.00     0.133 H 
BRANCH  18  29
ATOM     29  O2B XYP d   1       7.367  12.016  15.649  0.00  0.00    -0.388 OA
ATOM     30  H7  XYP d   1       7.197  11.107  15.867  0.00  0.00     0.210 HD
ENDBRANCH  18  29
BRANCH  19  31
ATOM     31  O3B XYP d   1       4.866  11.285  16.930  0.00  0.00    -0.390 OA
ATOM     32  H8  XYP d   1       3.937  11.112  16.830  0.00  0.00     0.210 HD
ENDBRANCH  19  31
BRANCH  21  33
ATOM     33  O4B XYP d   1       2.979  13.504  16.930  0.00  0.00    -0.391 OA
ATOM     34  H9  XYP d   1       2.497  14.131  17.456  0.00  0.00     0.210 HD
ENDBRANCH  21  33
ENDBRANCH  16  17
ENDBRANCH  13  16
BRANCH  12  35
ATOM     35  O3  XDN d   1       9.770  15.913  18.327  0.00  0.00    -0.390 OA
ATOM     36  H15 XYP d   1      10.547  16.130  18.829  0.00  0.00     0.210 HD
ENDBRANCH  12  35
BRANCH  11  37
ATOM     37  O2  XDN d   1      11.649  17.882  17.297  0.00  0.00    -0.391 OA
ATOM     38  H13 XYP d   1      12.347  17.358  16.922  0.00  0.00     0.210 HD
ENDBRANCH  11  37
TORSDOF 7
