REMARK  6 active torsions:
REMARK  status: ('A' for Active; 'I' for Inactive)
REMARK    1  A    between atoms: C3_3  and  O3_4 
REMARK    2  A    between atoms: C4_5  and  O4_6 
REMARK    3  A    between atoms: O4_6  and  C1B_9 
REMARK    4  A    between atoms: C2B_10  and  O2B_14 
REMARK    5  A    between atoms: C3B_11  and  O3B_15 
REMARK    6  A    between atoms: C4B_12  and  O4B_16 
ROOT
ATOM      1  O4  XIF d   1       8.227  14.277  15.965  0.00  0.00    -0.351 OA
ENDROOT
BRANCH   1   2
ATOM      2  C4  XIF d   1       8.716  15.576  15.560  0.00  0.00     0.069 C 
ATOM      3  C3  XIF d   1       9.942  15.897  16.365  0.00  0.00     0.083 C 
ATOM      4  C2  XIF d   1      10.445  17.294  16.017  0.00  0.00     0.107 C 
ATOM      5  H5  XIF d   1      10.727  15.161  16.140  0.00  0.00     0.089 H 
ATOM      6  N1  XIF d   1      10.708  17.419  14.575  0.00  0.00    -0.073 N 
ATOM      7  H3  XIF d   1       9.684  18.033  16.309  0.00  0.00     0.079 H 
ATOM      8  H4  XIF d   1      11.376  17.489  16.570  0.00  0.00     0.079 H 
ATOM      9  C6  XIF d   1       9.547  17.015  13.738  0.00  0.00     0.084 C 
ATOM     10  H1  XIF d   1      11.494  16.833  14.339  0.00  0.00     0.277 HD
ATOM     11  H2  XIF d   1      10.932  18.380  14.371  0.00  0.00     0.277 HD
ATOM     12  C5  XIF d   1       9.107  15.614  14.080  0.00  0.00    -0.016 C 
ATOM     13  H10 XIF d   1       9.835  17.054  12.677  0.00  0.00     0.075 H 
ATOM     14  H11 XIF d   1       8.713  17.709  13.917  0.00  0.00     0.075 H 
ATOM     15  H8  XIF d   1       8.242  15.335  13.460  0.00  0.00     0.039 H 
ATOM     16  H9  XIF d   1       9.932  14.911  13.896  0.00  0.00     0.039 H 
ATOM     17  H7  XIF d   1       7.936  16.328  15.748  0.00  0.00     0.087 H 
BRANCH   3  18
ATOM     18  O3  XIF d   1       9.628  15.844  17.749  0.00  0.00    -0.391 OA
ATOM     19  H6  XIF d   1      10.407  16.038  18.257  0.00  0.00     0.210 HD
ENDBRANCH   3  18
ENDBRANCH   1   2
BRANCH   1  20
ATOM     20  C1B XYP d   1       6.864  14.098  15.696  0.00  0.00     0.158 C 
ATOM     21  C2B XYP d   1       6.517  12.660  15.977  0.00  0.00     0.110 C 
ATOM     22  C3B XYP d   1       5.014  12.438  15.890  0.00  0.00     0.091 C 
ATOM     23  H13 XIF d   1       6.851  12.401  16.992  0.00  0.00     0.094 H 
ATOM     24  C4B XYP d   1       4.241  13.502  16.661  0.00  0.00     0.083 C 
ATOM     25  H14 XIF d   1       4.713  12.494  14.833  0.00  0.00     0.091 H 
ATOM     26  C5B XYP d   1       4.760  14.880  16.314  0.00  0.00     0.049 C 
ATOM     27  H15 XIF d   1       4.383  13.334  17.739  0.00  0.00     0.090 H 
ATOM     28  O5B XYP d   1       6.140  14.938  16.567  0.00  0.00    -0.356 OA
ATOM     29  H16 XIF d   1       4.243  15.632  16.928  0.00  0.00     0.078 H 
ATOM     30  H17 XIF d   1       4.574  15.085  15.249  0.00  0.00     0.078 H 
ATOM     31  H12 XIF d   1       6.639  14.347  14.649  0.00  0.00     0.133 H 
BRANCH  21  32
ATOM     32  O2B XYP d   1       7.204  11.845  15.040  0.00  0.00    -0.388 OA
ATOM     33  H18 XIF d   1       7.019  10.931  15.221  0.00  0.00     0.210 HD
ENDBRANCH  21  32
BRANCH  22  34
ATOM     34  O3B XYP d   1       4.711  11.142  16.381  0.00  0.00    -0.390 OA
ATOM     35  H19 XIF d   1       3.781  10.977  16.283  0.00  0.00     0.210 HD
ENDBRANCH  22  34
BRANCH  24  36
ATOM     36  O4B XYP d   1       2.857  13.393  16.360  0.00  0.00    -0.391 OA
ATOM     37  H20 XIF d   1       2.373  14.038  16.862  0.00  0.00     0.210 HD
ENDBRANCH  24  36
ENDBRANCH   1  20
TORSDOF 6
