REMARK  11 active torsions:
REMARK  status: ('A' for Active; 'I' for Inactive)
REMARK    1  A    between atoms: C2_2  and  C2A_3 
REMARK    2  A    between atoms: C4_5  and  N4_6 
REMARK    3  A    between atoms: C5_7  and  C35_9 
REMARK    4  A    between atoms: C35_9  and  N3_10 
REMARK    5  A    between atoms: C5_13  and  C5A_16 
REMARK    6  A    between atoms: C4_14  and  C4A_15 
REMARK    7  A    between atoms: C5A_16  and  C5B_17 
REMARK    8  A    between atoms: C5B_17  and  O5G_18 
REMARK    9  A    between atoms: O5G_18  and  P1_19 
REMARK   10  A    between atoms: P1_19  and  O11_20 
REMARK   11  A    between atoms: O11_20  and  P2_23 
ROOT
ATOM      1  N3  TDP d   1      75.673   1.978   7.013  0.00  0.00    -0.349 N 
ATOM      2  C2  TDP d   1      75.796   3.246   6.345  0.00  0.00     0.018 A 
ATOM      3  S1  TDP d   1      74.063   3.627   5.909  0.00  0.00    -0.087 SA
ATOM      4  C5  TDP d   1      73.375   2.124   6.532  0.00  0.00     0.008 A 
ATOM      5  C4  TDP d   1      74.451   1.376   7.043  0.00  0.00     0.021 A 
ATOM      6  H9  TDP d   1      76.694   3.830   6.149  0.00  0.00     0.123 H 
ENDROOT
BRANCH   1   7
ATOM      7  C35 TDP d   1      76.964   1.418   7.470  0.00  0.00     0.028 C 
ATOM      8  H7  TDP d   1      77.007   0.348   7.218  0.00  0.00     0.072 H 
ATOM      9  H8  TDP d   1      77.788   1.946   6.968  0.00  0.00     0.072 H 
BRANCH   7  10
ATOM     10  C5  TDP d   1      77.103   1.588   8.995  0.00  0.00     0.023 A 
ATOM     11  C4  TDP d   1      77.334   2.857   9.615  0.00  0.00     0.132 A 
ATOM     12  N3  TDP d   1      77.446   2.896  10.971  0.00  0.00    -0.216 NA
ATOM     13  C2  TDP d   1      77.355   1.786  11.758  0.00  0.00     0.124 A 
ATOM     14  N1  TDP d   1      77.094   0.600  11.189  0.00  0.00    -0.245 NA
ATOM     15  C6  TDP d   1      76.946   0.497   9.849  0.00  0.00     0.015 A 
ATOM     16  H6  TDP d   1      76.696  -0.468   9.423  0.00  0.00     0.116 H 
BRANCH  11  17
ATOM     17  N4  TDP d   1      77.539   4.035   8.939  0.00  0.00    -0.383 N 
ATOM     18  H4  TDP d   1      77.466   4.059   7.912  0.00  0.00     0.157 HD
ATOM     19  H5  TDP d   1      77.766   4.894   9.459  0.00  0.00     0.157 HD
ENDBRANCH  11  17
BRANCH  13  20
ATOM     20  C2A TDP d   1      77.460   1.974  13.260  0.00  0.00    -0.019 C 
ATOM     21  H1  TDP d   1      77.369   0.998  13.759  0.00  0.00     0.037 H 
ATOM     22  H2  TDP d   1      76.653   2.638  13.604  0.00  0.00     0.037 H 
ATOM     23  H3  TDP d   1      78.434   2.423  13.506  0.00  0.00     0.037 H 
ENDBRANCH  13  20
ENDBRANCH   7  10
ENDBRANCH   1   7
BRANCH   5  24
ATOM     24  C4A TDP d   1      74.263   0.023   7.633  0.00  0.00    -0.036 C 
ATOM     25  H10 TDP d   1      73.205  -0.268   7.552  0.00  0.00     0.035 H 
ATOM     26  H11 TDP d   1      74.559   0.041   8.692  0.00  0.00     0.035 H 
ATOM     27  H12 TDP d   1      74.886  -0.703   7.090  0.00  0.00     0.035 H 
ENDBRANCH   5  24
BRANCH   4  28
ATOM     28  C5A TDP d   1      71.908   1.866   6.420  0.00  0.00    -0.013 C 
ATOM     29  H13 TDP d   1      71.689   0.853   6.789  0.00  0.00     0.044 H 
ATOM     30  H14 TDP d   1      71.606   1.945   5.365  0.00  0.00     0.044 H 
BRANCH  28  31
ATOM     31  C5B TDP d   1      71.119   2.886   7.248  0.00  0.00     0.036 C 
ATOM     32  H15 TDP d   1      71.357   3.899   6.892  0.00  0.00     0.075 H 
ATOM     33  H16 TDP d   1      71.408   2.791   8.305  0.00  0.00     0.075 H 
BRANCH  31  34
ATOM     34  O5G TDP d   1      69.773   2.677   7.132  0.00  0.00    -0.289 OA
BRANCH  34  35
ATOM     35  P1  TDP d   1      68.702   3.699   7.649  0.00  0.00     0.418 P 
ATOM     36  O12 TDP d   1      69.102   4.164   8.976  0.00  0.00    -0.624 OA
ATOM     37  O13 TDP d   1      67.323   3.036   7.542  0.00  0.00    -0.624 OA
BRANCH  35  38
ATOM     38  O11 TDP d   1      68.779   5.025   6.725  0.00  0.00    -0.173 OA
BRANCH  38  39
ATOM     39  P2  TDP d   1      68.508   5.173   5.126  0.00  0.00     0.431 P 
ATOM     40  O21 TDP d   1      69.836   4.843   4.420  0.00  0.00    -0.616 OA
ATOM     41  O22 TDP d   1      67.463   4.103   4.739  0.00  0.00    -0.616 OA
ATOM     42  O23 TDP d   1      68.089   6.598   4.869  0.00  0.00    -0.616 OA
ENDBRANCH  38  39
ENDBRANCH  35  38
ENDBRANCH  34  35
ENDBRANCH  31  34
ENDBRANCH  28  31
ENDBRANCH   4  28
TORSDOF 11
