REMARK  10 active torsions:
REMARK  status: ('A' for Active; 'I' for Inactive)
REMARK    1  A    between atoms: C2_2  and  C2A_3 
REMARK    2  A    between atoms: C5_7  and  C35_9 
REMARK    3  A    between atoms: C35_9  and  N3_10 
REMARK    4  A    between atoms: C5_13  and  C5A_16 
REMARK    5  A    between atoms: C4_14  and  C4A_15 
REMARK    6  A    between atoms: C5A_16  and  C5B_17 
REMARK    7  A    between atoms: C5B_17  and  O5G_18 
REMARK    8  A    between atoms: O5G_18  and  P1_19 
REMARK    9  A    between atoms: P1_19  and  O11_20 
REMARK   10  A    between atoms: O11_20  and  P2_23 
ROOT
ATOM      1  N3  TDP d   1      75.603   2.007   6.964  0.00  0.00    -0.349 N 
ATOM      2  C2  TDP d   1      75.746   3.291   6.305  0.00  0.00     0.018 A 
ATOM      3  S1  TDP d   1      74.001   3.632   5.892  0.00  0.00    -0.087 SA
ATOM      4  C5  TDP d   1      73.320   2.150   6.506  0.00  0.00     0.008 A 
ATOM      5  C4  TDP d   1      74.385   1.403   7.004  0.00  0.00     0.021 A 
ATOM      6  H9  TDP d   1      76.639   3.883   6.112  0.00  0.00     0.123 H 
ENDROOT
BRANCH   1   7
ATOM      7  C35 TDP d   1      76.882   1.399   7.413  0.00  0.00     0.028 C 
ATOM      8  H7  TDP d   1      76.884   0.326   7.170  0.00  0.00     0.072 H 
ATOM      9  H8  TDP d   1      77.722   1.892   6.902  0.00  0.00     0.072 H 
BRANCH   7  10
ATOM     10  C5  TDP d   1      77.028   1.586   8.962  0.00  0.00     0.023 A 
ATOM     11  C4  TDP d   1      77.288   2.851   9.562  0.00  0.00     0.132 A 
ATOM     12  N3  TDP d   1      77.366   2.911  10.925  0.00  0.00    -0.216 NA
ATOM     13  N4  TDP d   1      77.428   4.019   8.893  0.00  0.00    -0.383 N 
ATOM     14  C2  TDP d   1      77.297   1.818  11.737  0.00  0.00     0.124 A 
ATOM     15  N1  TDP d   1      77.048   0.641  11.188  0.00  0.00    -0.245 NA
ATOM     16  C6  TDP d   1      76.883   0.504   9.849  0.00  0.00     0.015 A 
ATOM     17  H6  TDP d   1      76.631  -0.471   9.449  0.00  0.00     0.116 H 
ATOM     18  H4  TDP d   1      77.378   4.032   7.864  0.00  0.00     0.157 HD
ATOM     19  H5  TDP d   1      77.585   4.894   9.412  0.00  0.00     0.157 HD
BRANCH  14  20
ATOM     20  C2A TDP d   1      77.439   1.995  13.277  0.00  0.00    -0.019 C 
ATOM     21  H1  TDP d   1      77.358   1.014  13.768  0.00  0.00     0.037 H 
ATOM     22  H2  TDP d   1      76.641   2.656  13.645  0.00  0.00     0.037 H 
ATOM     23  H3  TDP d   1      78.418   2.440  13.506  0.00  0.00     0.037 H 
ENDBRANCH  14  20
ENDBRANCH   7  10
ENDBRANCH   1   7
BRANCH   5  24
ATOM     24  C4A TDP d   1      74.257  -0.026   7.616  0.00  0.00    -0.036 C 
ATOM     25  H10 TDP d   1      73.208  -0.354   7.565  0.00  0.00     0.035 H 
ATOM     26  H11 TDP d   1      74.584  -0.006   8.666  0.00  0.00     0.035 H 
ATOM     27  H12 TDP d   1      74.888  -0.726   7.049  0.00  0.00     0.035 H 
ENDBRANCH   5  24
BRANCH   4  28
ATOM     28  C5A TDP d   1      71.823   1.903   6.400  0.00  0.00    -0.013 C 
ATOM     29  H13 TDP d   1      71.596   0.894   6.775  0.00  0.00     0.044 H 
ATOM     30  H14 TDP d   1      71.518   1.980   5.346  0.00  0.00     0.044 H 
BRANCH  28  31
ATOM     31  C5B TDP d   1      71.044   2.936   7.228  0.00  0.00     0.036 C 
ATOM     32  H15 TDP d   1      71.298   3.944   6.869  0.00  0.00     0.075 H 
ATOM     33  H16 TDP d   1      71.335   2.838   8.284  0.00  0.00     0.075 H 
BRANCH  31  34
ATOM     34  O5G TDP d   1      69.633   2.748   7.118  0.00  0.00    -0.289 OA
BRANCH  34  35
ATOM     35  P1  TDP d   1      68.632   3.743   7.691  0.00  0.00     0.418 P 
ATOM     36  O12 TDP d   1      69.055   4.169   9.043  0.00  0.00    -0.624 OA
ATOM     37  O13 TDP d   1      67.285   3.110   7.531  0.00  0.00    -0.624 OA
BRANCH  35  38
ATOM     38  O11 TDP d   1      68.756   5.037   6.747  0.00  0.00    -0.173 OA
BRANCH  38  39
ATOM     39  P2  TDP d   1      68.496   5.153   5.122  0.00  0.00     0.431 P 
ATOM     40  O21 TDP d   1      69.834   4.826   4.444  0.00  0.00    -0.616 OA
ATOM     41  O22 TDP d   1      67.404   4.163   4.750  0.00  0.00    -0.616 OA
ATOM     42  O23 TDP d   1      68.085   6.558   4.850  0.00  0.00    -0.616 OA
ENDBRANCH  38  39
ENDBRANCH  35  38
ENDBRANCH  34  35
ENDBRANCH  31  34
ENDBRANCH  28  31
ENDBRANCH   4  28
TORSDOF 10
