REMARK  4 active torsions:
REMARK  status: ('A' for Active; 'I' for Inactive)
REMARK    1  A    between atoms: C3_3  and  O3_4 
REMARK    2  A    between atoms: C4_5  and  O4_6 
REMARK    3  A    between atoms: C_9  and  C1_13 
REMARK    4  A    between atoms: C1_13  and  O30_11 
ROOT
ATOM      1  C2  FA3 d   1      29.369  51.446  57.932  0.00  0.00     0.004 C 
ATOM      2  F1  FA3 d   1      27.745  50.324  61.439  0.00  0.00    -0.208 F 
ATOM      3  C3  FA3 d   1      28.544  50.192  57.880  0.00  0.00     0.070 C 
ATOM      4  C4  FA3 d   1      28.435  49.672  59.292  0.00  0.00     0.111 C 
ATOM      5  C5  FA3 d   1      28.123  50.702  60.209  0.00  0.00     0.124 C 
ATOM      6  C6  FA3 d   1      28.196  52.054  59.940  0.00  0.00    -0.024 C 
ATOM      7  C1  FA3 d   1      28.595  52.510  58.687  0.00  0.00     0.168 C 
ATOM      8  H1  FA3 d   1      29.576  51.795  56.910  0.00  0.00     0.042 H 
ATOM      9  H2  FA3 d   1      30.318  51.243  58.449  0.00  0.00     0.042 H 
ATOM     10  H3  FA3 d   1      27.545  50.396  57.468  0.00  0.00     0.087 H 
ATOM     11  H5  FA3 d   1      29.412  49.253  59.576  0.00  0.00     0.098 H 
ATOM     12  H7  FA3 d   1      27.938  52.772  60.717  0.00  0.00     0.086 H 
ENDROOT
BRANCH   7  13
ATOM     13  C   FA3 d   1      29.438  53.699  58.866  0.00  0.00     0.213 C 
ATOM     14  O1  FA3 d   1      30.735  53.717  58.584  0.00  0.00    -0.645 OA
ATOM     15  O2  FA3 d   1      28.881  54.793  59.260  0.00  0.00    -0.645 OA
ENDBRANCH   7  13
BRANCH   7  16
ATOM     16  O30 FA3 d   1      27.528  52.954  57.873  0.00  0.00    -0.375 OA
ATOM     17  H8  FA3 d   1      27.079  53.672  58.304  0.00  0.00     0.211 HD
ENDBRANCH   7  16
BRANCH   3  18
ATOM     18  O3  FA3 d   1      29.235  49.252  57.062  0.00  0.00    -0.392 OA
ATOM     19  H4  FA3 d   1      28.733  48.447  57.013  0.00  0.00     0.210 HD
ENDBRANCH   3  18
BRANCH   4  20
ATOM     20  O4  FA3 d   1      27.476  48.636  59.354  0.00  0.00    -0.386 OA
ATOM     21  H6  FA3 d   1      27.415  48.316  60.246  0.00  0.00     0.210 HD
ENDBRANCH   4  20
TORSDOF 4
