REMARK  11 active torsions:
REMARK  status: ('A' for Active; 'I' for Inactive)
REMARK    1  A    between atoms: C2_2  and  C2A_3 
REMARK    2  A    between atoms: C4_5  and  N4_6 
REMARK    3  A    between atoms: C5_7  and  C35_9 
REMARK    4  A    between atoms: C35_9  and  N3_10 
REMARK    5  A    between atoms: C5_13  and  C5A_16 
REMARK    6  A    between atoms: C4_14  and  C4A_15 
REMARK    7  A    between atoms: C5A_16  and  C5B_17 
REMARK    8  A    between atoms: C5B_17  and  O5G_18 
REMARK    9  A    between atoms: O5G_18  and  P1_19 
REMARK   10  A    between atoms: P1_19  and  O11_20 
REMARK   11  A    between atoms: O11_20  and  P2_23 
ROOT
ATOM      1  N3  TDP d   1      75.622   1.935   7.004  0.00  0.00    -0.349 N 
ATOM      2  C2  TDP d   1      75.732   3.261   6.357  0.00  0.00     0.018 A 
ATOM      3  S1  TDP d   1      73.991   3.592   5.911  0.00  0.00    -0.087 SA
ATOM      4  C5  TDP d   1      73.325   2.114   6.526  0.00  0.00     0.008 A 
ATOM      5  C4  TDP d   1      74.385   1.361   7.079  0.00  0.00     0.021 A 
ATOM      6  H9  TDP d   1      76.615   3.876   6.191  0.00  0.00     0.123 H 
ENDROOT
BRANCH   1   7
ATOM      7  C35 TDP d   1      76.896   1.374   7.466  0.00  0.00     0.028 C 
ATOM      8  H7  TDP d   1      76.931   0.299   7.236  0.00  0.00     0.072 H 
ATOM      9  H8  TDP d   1      77.729   1.884   6.960  0.00  0.00     0.072 H 
BRANCH   7  10
ATOM     10  C5  TDP d   1      77.012   1.583   9.003  0.00  0.00     0.023 A 
ATOM     11  C4  TDP d   1      77.289   2.823   9.624  0.00  0.00     0.132 A 
ATOM     12  N3  TDP d   1      77.361   2.897  10.971  0.00  0.00    -0.216 NA
ATOM     13  C2  TDP d   1      77.277   1.788  11.762  0.00  0.00     0.124 A 
ATOM     14  N1  TDP d   1      77.036   0.609  11.192  0.00  0.00    -0.245 NA
ATOM     15  C6  TDP d   1      76.901   0.493   9.857  0.00  0.00     0.015 A 
ATOM     16  H6  TDP d   1      76.699  -0.484   9.434  0.00  0.00     0.116 H 
BRANCH  11  17
ATOM     17  N4  TDP d   1      77.437   3.987   8.951  0.00  0.00    -0.383 N 
ATOM     18  H4  TDP d   1      77.392   3.996   7.922  0.00  0.00     0.157 HD
ATOM     19  H5  TDP d   1      77.595   4.864   9.467  0.00  0.00     0.157 HD
ENDBRANCH  11  17
BRANCH  13  20
ATOM     20  C2A TDP d   1      77.439   1.959  13.260  0.00  0.00    -0.019 C 
ATOM     21  H1  TDP d   1      77.346   0.980  13.753  0.00  0.00     0.037 H 
ATOM     22  H2  TDP d   1      76.659   2.636  13.638  0.00  0.00     0.037 H 
ATOM     23  H3  TDP d   1      78.430   2.385  13.475  0.00  0.00     0.037 H 
ENDBRANCH  13  20
ENDBRANCH   7  10
ENDBRANCH   1   7
BRANCH   5  24
ATOM     24  C4A TDP d   1      74.164  -0.029   7.678  0.00  0.00    -0.036 C 
ATOM     25  H10 TDP d   1      73.094  -0.282   7.632  0.00  0.00     0.035 H 
ATOM     26  H11 TDP d   1      74.497  -0.034   8.726  0.00  0.00     0.035 H 
ATOM     27  H12 TDP d   1      74.741  -0.771   7.106  0.00  0.00     0.035 H 
ENDBRANCH   5  24
BRANCH   4  28
ATOM     28  C5A TDP d   1      71.870   1.870   6.445  0.00  0.00    -0.013 C 
ATOM     29  H13 TDP d   1      71.643   0.891   6.893  0.00  0.00     0.044 H 
ATOM     30  H14 TDP d   1      71.562   1.871   5.389  0.00  0.00     0.044 H 
BRANCH  28  31
ATOM     31  C5B TDP d   1      71.080   2.980   7.210  0.00  0.00     0.036 C 
ATOM     32  H15 TDP d   1      71.266   3.957   6.741  0.00  0.00     0.075 H 
ATOM     33  H16 TDP d   1      71.406   3.009   8.260  0.00  0.00     0.075 H 
BRANCH  31  34
ATOM     34  O5G TDP d   1      69.684   2.674   7.147  0.00  0.00    -0.289 OA
BRANCH  34  35
ATOM     35  P1  TDP d   1      68.602   3.701   7.655  0.00  0.00     0.418 P 
ATOM     36  O12 TDP d   1      69.039   4.145   9.011  0.00  0.00    -0.624 OA
ATOM     37  O13 TDP d   1      67.282   3.081   7.518  0.00  0.00    -0.624 OA
BRANCH  35  38
ATOM     38  O11 TDP d   1      68.753   5.026   6.707  0.00  0.00    -0.173 OA
BRANCH  38  39
ATOM     39  P2  TDP d   1      68.443   5.119   5.055  0.00  0.00     0.431 P 
ATOM     40  O21 TDP d   1      69.832   4.836   4.335  0.00  0.00    -0.616 OA
ATOM     41  O22 TDP d   1      67.317   4.074   4.744  0.00  0.00    -0.616 OA
ATOM     42  O23 TDP d   1      67.969   6.536   4.862  0.00  0.00    -0.616 OA
ENDBRANCH  38  39
ENDBRANCH  35  38
ENDBRANCH  34  35
ENDBRANCH  31  34
ENDBRANCH  28  31
ENDBRANCH   4  28
TORSDOF 11
