REMARK  2 active torsions:
REMARK  status: ('A' for Active; 'I' for Inactive)
REMARK    1  A    between atoms: C1_1  and  C_7 
REMARK    2  A    between atoms: C_7  and  N1_8 
ROOT
ATOM      1  C1  BEN d   1      -3.181   9.069  19.677  0.00  0.00     0.007 A 
ATOM      2  C2  BEN d   1      -1.799   8.830  19.245  0.00  0.00    -0.069 A 
ATOM      3  C3  BEN d   1      -1.197   7.513  19.384  0.00  0.00    -0.082 A 
ATOM      4  C4  BEN d   1      -1.966   6.419  19.958  0.00  0.00    -0.083 A 
ATOM      5  C5  BEN d   1      -3.329   6.641  20.388  0.00  0.00    -0.082 A 
ATOM      6  C6  BEN d   1      -3.937   7.957  20.251  0.00  0.00    -0.069 A 
ATOM      7  H1  BEN d   1      -1.222   9.642  18.819  0.00  0.00     0.085 H 
ATOM      8  H2  BEN d   1      -0.176   7.347  19.060  0.00  0.00     0.083 H 
ATOM      9  H3  BEN d   1      -1.517   5.438  20.063  0.00  0.00     0.083 H 
ATOM     10  H4  BEN d   1      -3.900   5.824  20.814  0.00  0.00     0.083 H 
ATOM     11  H5  BEN d   1      -4.959   8.114  20.577  0.00  0.00     0.085 H 
ENDROOT
BRANCH   1  12
ATOM     12  C   BEN d   1      -3.825  10.462  19.531  0.00  0.00     0.102 C 
ATOM     13  N2  BEN d   1      -3.069  11.513  19.249  0.00  0.00    -0.385 N 
ATOM     14  H8  BEN d   1      -2.053  11.399  19.129  0.00  0.00     0.157 HD
ATOM     15  H9  BEN d   1      -3.498  12.444  19.150  0.00  0.00     0.157 HD
BRANCH  12  16
ATOM     16  N1  BEN d   1      -5.129  10.593  19.688  0.00  0.00    -0.385 N 
ATOM     17  H6  BEN d   1      -5.569  11.520  19.593  0.00  0.00     0.157 HD
ATOM     18  H7  BEN d   1      -5.707   9.769  19.906  0.00  0.00     0.157 HD
ENDBRANCH  12  16
ENDBRANCH   1  12
TORSDOF 2
