REMARK  4 active torsions:
REMARK  status: ('A' for Active; 'I' for Inactive)
REMARK    1  A    between atoms: C4_6  and  N7_7 
REMARK    2  A    between atoms: C10_12  and  C13_13 
REMARK       I    between atoms: C13_13  and  N14_15 
REMARK    3  A    between atoms: N17_20  and  S20_21 
REMARK    4  A    between atoms: S20_21  and  C24_24 
ROOT
ATOM      1  C13 ZEN d   1      51.249  74.343 -28.481  0.00  0.00     0.224 C 
ATOM      2  O23 ZEN d   1      51.545  74.155 -27.279  0.00  0.00    -0.273 OA
ATOM      3  N14 ZEN d   1      52.192  74.297 -29.446  0.00  0.00    -0.349 N 
ATOM      4  C15 ZEN d   1      51.914  74.527 -30.912  0.00  0.00     0.009 C 
ATOM      5  C16 ZEN d   1      52.527  73.344 -31.714  0.00  0.00     0.008 C 
ATOM      6  C18 ZEN d   1      54.101  72.751 -29.873  0.00  0.00     0.008 C 
ATOM      7  C19 ZEN d   1      53.621  74.012 -29.085  0.00  0.00     0.009 C 
ATOM      8  N17 ZEN d   1      53.956  73.093 -31.326  0.00  0.00    -0.203 NA
ATOM      9  H14 ZEN d   1      52.373  75.473 -31.234  0.00  0.00     0.066 H 
ATOM     10  H15 ZEN d   1      50.828  74.570 -31.083  0.00  0.00     0.066 H 
ATOM     11  H16 ZEN d   1      52.485  73.581 -32.787  0.00  0.00     0.059 H 
ATOM     12  H17 ZEN d   1      51.939  72.436 -31.516  0.00  0.00     0.059 H 
ATOM     13  H18 ZEN d   1      53.476  71.882 -29.621  0.00  0.00     0.059 H 
ATOM     14  H19 ZEN d   1      55.152  72.529 -29.636  0.00  0.00     0.059 H 
ATOM     15  H20 ZEN d   1      53.698  73.823 -28.004  0.00  0.00     0.066 H 
ATOM     16  H21 ZEN d   1      54.248  74.875 -29.352  0.00  0.00     0.066 H 
ENDROOT
BRANCH   1  17
ATOM     17  C10 ZEN d   1      49.758  74.616 -28.749  0.00  0.00     0.026 C 
ATOM     18  C9  ZEN d   1      49.034  75.308 -27.547  0.00  0.00    -0.039 C 
ATOM     19  C8  ZEN d   1      47.537  75.546 -27.914  0.00  0.00    -0.004 C 
ATOM     20  H7  ZEN d   1      49.096  74.662 -26.659  0.00  0.00     0.036 H 
ATOM     21  H8  ZEN d   1      49.518  76.272 -27.333  0.00  0.00     0.036 H 
ATOM     22  N7  ZEN d   1      46.847  74.248 -28.262  0.00  0.00    -0.381 N 
ATOM     23  H5  ZEN d   1      47.026  76.005 -27.055  0.00  0.00     0.064 H 
ATOM     24  H6  ZEN d   1      47.483  76.224 -28.778  0.00  0.00     0.064 H 
ATOM     25  C12 ZEN d   1      47.543  73.373 -29.284  0.00  0.00    -0.004 C 
ATOM     26  C11 ZEN d   1      49.058  73.222 -28.989  0.00  0.00    -0.039 C 
ATOM     27  H11 ZEN d   1      47.419  73.824 -30.280  0.00  0.00     0.064 H 
ATOM     28  H12 ZEN d   1      47.078  72.376 -29.272  0.00  0.00     0.064 H 
ATOM     29  H9  ZEN d   1      49.538  72.727 -29.846  0.00  0.00     0.036 H 
ATOM     30  H10 ZEN d   1      49.184  72.602 -28.089  0.00  0.00     0.036 H 
ATOM     31  H13 ZEN d   1      49.662  75.251 -29.642  0.00  0.00     0.054 H 
BRANCH  22  32
ATOM     32  C4  ZEN d   1      45.582  73.862 -27.658  0.00  0.00     0.032 A 
ATOM     33  C3  ZEN d   1      44.830  74.805 -26.864  0.00  0.00    -0.041 A 
ATOM     34  C2  ZEN d   1      43.591  74.398 -26.291  0.00  0.00     0.004 A 
ATOM     35  H2  ZEN d   1      45.204  75.810 -26.706  0.00  0.00     0.089 H 
ATOM     36  N1  ZEN d   1      43.128  73.117 -26.498  0.00  0.00    -0.273 NA
ATOM     37  H1  ZEN d   1      43.014  75.094 -25.694  0.00  0.00     0.114 H 
ATOM     38  C6  ZEN d   1      43.821  72.197 -27.247  0.00  0.00     0.004 A 
ATOM     39  C5  ZEN d   1      45.060  72.541 -27.845  0.00  0.00    -0.041 A 
ATOM     40  H4  ZEN d   1      43.417  71.200 -27.382  0.00  0.00     0.114 H 
ATOM     41  H3  ZEN d   1      45.605  71.814 -28.436  0.00  0.00     0.089 H 
ENDBRANCH  22  32
ENDBRANCH   1  17
BRANCH   8  42
ATOM     42  S20 ZEN d   1      54.669  71.994 -32.340  0.00  0.00     0.243 S 
ATOM     43  O21 ZEN d   1      56.038  71.778 -31.909  0.00  0.00    -0.206 OA
ATOM     44  O22 ZEN d   1      54.525  72.555 -33.659  0.00  0.00    -0.206 OA
BRANCH  42  45
ATOM     45  C24 ZEN d   1      53.813  70.419 -32.351  0.00  0.00     0.075 A 
ATOM     46  C25 ZEN d   1      54.064  69.410 -31.346  0.00  0.00    -0.050 A 
ATOM     47  C26 ZEN d   1      53.329  68.180 -31.366  0.00  0.00    -0.024 A 
ATOM     48  H22 ZEN d   1      54.808  69.584 -30.577  0.00  0.00     0.087 H 
ATOM     49  C27 ZEN d   1      52.321  67.972 -32.403  0.00  0.00    -0.024 A 
ATOM     50  C31 ZEN d   1      53.558  67.158 -30.388  0.00  0.00    -0.071 A 
ATOM     51  C34 ZEN d   1      52.075  68.971 -33.381  0.00  0.00    -0.071 A 
ATOM     52  C28 ZEN d   1      51.592  66.789 -32.431  0.00  0.00    -0.051 A 
ATOM     53  C33 ZEN d   1      52.809  70.182 -33.352  0.00  0.00    -0.060 A 
ATOM     54  H24 ZEN d   1      51.327  68.807 -34.148  0.00  0.00     0.084 H 
ATOM     55  H23 ZEN d   1      52.610  70.943 -34.098  0.00  0.00     0.085 H 
ATOM     56  C29 ZEN d   1      51.815  65.782 -31.464  0.00  0.00     0.034 A 
ATOM     57  H25 ZEN d   1      50.845  66.637 -33.202  0.00  0.00     0.087 H 
ATOM     58  C30 ZEN d   1      52.800  65.953 -30.435  0.00  0.00    -0.061 A 
ATOM     59 CL32 ZEN d   1      50.867  64.355 -31.564  0.00  0.00    -0.084 Cl
ATOM     60  H26 ZEN d   1      52.966  65.173 -29.701  0.00  0.00     0.086 H 
ATOM     61  H27 ZEN d   1      54.305  67.301 -29.616  0.00  0.00     0.084 H 
ENDBRANCH  42  45
ENDBRANCH   8  42
TORSDOF 4
