REMARK  2 active torsions:
REMARK  status: ('A' for Active; 'I' for Inactive)
REMARK    1  A    between atoms: C1_1  and  C_7 
REMARK    2  A    between atoms: C_7  and  N1_8 
ROOT
ATOM      1  C1  BEN d   1      53.220  67.262 -28.887  0.00  0.00     0.007 A 
ATOM      2  C2  BEN d   1      52.625  66.884 -30.174  0.00  0.00    -0.069 A 
ATOM      3  C3  BEN d   1      52.363  67.891 -31.190  0.00  0.00    -0.082 A 
ATOM      4  C4  BEN d   1      52.693  69.285 -30.934  0.00  0.00    -0.083 A 
ATOM      5  C5  BEN d   1      53.279  69.672 -29.670  0.00  0.00    -0.082 A 
ATOM      6  C6  BEN d   1      53.543  68.667 -28.648  0.00  0.00    -0.069 A 
ATOM      7  H1  BEN d   1      52.379  65.846 -30.369  0.00  0.00     0.085 H 
ATOM      8  H2  BEN d   1      51.922  67.603 -32.138  0.00  0.00     0.083 H 
ATOM      9  H3  BEN d   1      52.499  70.035 -31.692  0.00  0.00     0.083 H 
ATOM     10  H4  BEN d   1      53.522  70.712 -29.482  0.00  0.00     0.083 H 
ATOM     11  H5  BEN d   1      53.983  68.964 -27.703  0.00  0.00     0.085 H 
ENDROOT
BRANCH   1  12
ATOM     12  C   BEN d   1      53.501  66.200 -27.813  0.00  0.00     0.102 C 
ATOM     13  N2  BEN d   1      52.987  64.994 -27.942  0.00  0.00    -0.385 N 
ATOM     14  H8  BEN d   1      52.394  64.771 -28.754  0.00  0.00     0.157 HD
ATOM     15  H9  BEN d   1      53.178  64.274 -27.231  0.00  0.00     0.157 HD
BRANCH  12  16
ATOM     16  N1  BEN d   1      54.264  66.503 -26.777  0.00  0.00    -0.385 N 
ATOM     17  H6  BEN d   1      54.456  65.795 -26.054  0.00  0.00     0.157 HD
ATOM     18  H7  BEN d   1      54.667  67.447 -26.693  0.00  0.00     0.157 HD
ENDBRANCH  12  16
ENDBRANCH   1  12
TORSDOF 2
