REMARK  10 active torsions:
REMARK  status: ('A' for Active; 'I' for Inactive)
REMARK    1  A    between atoms: C8_1  and  C9_2 
REMARK    2  A    between atoms: C1_21  and  C8_1 
REMARK    3  A    between atoms: C12_7  and  C15_8 
REMARK    4  A    between atoms: C15_8  and  N16_9 
REMARK    5  A    between atoms: C15_8  and  N17_10 
REMARK    6  A    between atoms: C18_11  and  C19_12 
REMARK    7  A    between atoms: C5_26  and  C18_11 
REMARK    8  A    between atoms: C22_17  and  C25_18 
REMARK    9  A    between atoms: C25_18  and  N26_19 
REMARK   10  A    between atoms: C25_18  and  N27_20 
ROOT
ATOM      1  C1  BBA d   1      43.056  23.797  51.510  0.00  0.00    -0.007 C 
ATOM      2  C2  BBA d   1      42.645  24.763  50.419  0.00  0.00    -0.037 C 
ATOM      3  C3  BBA d   1      43.720  25.879  50.260  0.00  0.00    -0.061 C 
ATOM      4  C   BBA d   1      43.594  26.965  51.376  0.00  0.00    -0.061 C 
ATOM      5  C4  BBA d   1      43.997  26.403  52.776  0.00  0.00    -0.037 C 
ATOM      6  C5  BBA d   1      42.848  25.616  53.368  0.00  0.00    -0.007 C 
ATOM      7  C6  BBA d   1      42.707  24.187  52.923  0.00  0.00     0.184 C 
ATOM      8  O7  BBA d   1      42.320  23.336  53.718  0.00  0.00    -0.287 OA
ATOM      9  H19 BBA d   1      41.681  25.222  50.683  0.00  0.00     0.040 H 
ATOM     10  H20 BBA d   1      42.544  24.218  49.469  0.00  0.00     0.040 H 
ATOM     11  H21 BBA d   1      43.593  26.360  49.279  0.00  0.00     0.033 H 
ATOM     12  H22 BBA d   1      44.719  25.423  50.318  0.00  0.00     0.033 H 
ATOM     13  H23 BBA d   1      42.552  27.314  51.418  0.00  0.00     0.033 H 
ATOM     14  H24 BBA d   1      44.253  27.810  51.128  0.00  0.00     0.033 H 
ATOM     15  H25 BBA d   1      44.249  27.239  53.445  0.00  0.00     0.040 H 
ATOM     16  H26 BBA d   1      44.871  25.744  52.666  0.00  0.00     0.040 H 
ENDROOT
BRANCH   1  17
ATOM     17  C8  BBA d   1      43.606  22.617  51.103  0.00  0.00    -0.063 C 
ATOM     18  H1  BBA d   1      43.667  22.466  50.026  0.00  0.00     0.085 H 
BRANCH  17  19
ATOM     19  C9  BBA d   1      44.148  21.479  51.970  0.00  0.00    -0.036 A 
ATOM     20  C14 BBA d   1      44.963  21.729  53.122  0.00  0.00    -0.072 A 
ATOM     21  C13 BBA d   1      45.437  20.662  53.912  0.00  0.00    -0.069 A 
ATOM     22  H2  BBA d   1      45.217  22.748  53.389  0.00  0.00     0.084 H 
ATOM     23  C12 BBA d   1      45.140  19.320  53.549  0.00  0.00     0.007 A 
ATOM     24  H3  BBA d   1      46.029  20.865  54.797  0.00  0.00     0.085 H 
ATOM     25  C11 BBA d   1      44.333  19.057  52.403  0.00  0.00    -0.069 A 
ATOM     26  C10 BBA d   1      43.852  20.133  51.606  0.00  0.00    -0.072 A 
ATOM     27  H5  BBA d   1      44.086  18.035  52.139  0.00  0.00     0.085 H 
ATOM     28  H4  BBA d   1      43.260  19.929  50.721  0.00  0.00     0.084 H 
BRANCH  23  29
ATOM     29  C15 BBA d   1      45.657  18.190  54.407  0.00  0.00     0.102 C 
BRANCH  29  30
ATOM     30  N16 BBA d   1      45.128  16.934  54.296  0.00  0.00    -0.385 N 
ATOM     31  H6  BBA d   1      45.487  16.170  54.886  0.00  0.00     0.157 HD
ATOM     32  H7  BBA d   1      44.370  16.752  53.623  0.00  0.00     0.157 HD
ENDBRANCH  29  30
BRANCH  29  33
ATOM     33  N17 BBA d   1      46.663  18.422  55.309  0.00  0.00    -0.385 N 
ATOM     34  H8  BBA d   1      47.067  19.365  55.399  0.00  0.00     0.157 HD
ATOM     35  H9  BBA d   1      47.015  17.653  55.897  0.00  0.00     0.157 HD
ENDBRANCH  29  33
ENDBRANCH  23  29
ENDBRANCH  17  19
ENDBRANCH   1  17
BRANCH   6  36
ATOM     36  C18 BBA d   1      42.113  26.248  54.323  0.00  0.00    -0.063 C 
ATOM     37  H10 BBA d   1      42.456  27.243  54.604  0.00  0.00     0.085 H 
BRANCH  36  38
ATOM     38  C19 BBA d   1      40.873  25.744  55.050  0.00  0.00    -0.036 A 
ATOM     39  C20 BBA d   1      40.890  25.610  56.469  0.00  0.00    -0.072 A 
ATOM     40  C21 BBA d   1      39.727  25.147  57.158  0.00  0.00    -0.069 A 
ATOM     41  H11 BBA d   1      41.786  25.860  57.026  0.00  0.00     0.084 H 
ATOM     42  C22 BBA d   1      38.542  24.814  56.425  0.00  0.00     0.007 A 
ATOM     43  H12 BBA d   1      39.741  25.047  58.237  0.00  0.00     0.085 H 
ATOM     44  C23 BBA d   1      38.535  24.948  55.013  0.00  0.00    -0.069 A 
ATOM     45  C24 BBA d   1      39.690  25.408  54.332  0.00  0.00    -0.072 A 
ATOM     46  H14 BBA d   1      37.642  24.697  54.452  0.00  0.00     0.085 H 
ATOM     47  H13 BBA d   1      39.672  25.505  53.252  0.00  0.00     0.084 H 
BRANCH  42  48
ATOM     48  C25 BBA d   1      37.294  24.324  57.137  0.00  0.00     0.102 C 
BRANCH  48  49
ATOM     49  N26 BBA d   1      36.508  23.358  56.562  0.00  0.00    -0.385 N 
ATOM     50  H15 BBA d   1      35.662  23.027  57.047  0.00  0.00     0.157 HD
ATOM     51  H16 BBA d   1      36.764  22.964  55.646  0.00  0.00     0.157 HD
ENDBRANCH  48  49
BRANCH  48  52
ATOM     52  N27 BBA d   1      36.932  24.848  58.348  0.00  0.00    -0.385 N 
ATOM     53  H17 BBA d   1      37.514  25.574  58.790  0.00  0.00     0.157 HD
ATOM     54  H18 BBA d   1      36.077  24.517  58.818  0.00  0.00     0.157 HD
ENDBRANCH  48  52
ENDBRANCH  42  48
ENDBRANCH  36  38
ENDBRANCH   6  36
TORSDOF 10
