REMARK  13 active torsions:
REMARK  status: ('A' for Active; 'I' for Inactive)
REMARK    1  A    between atoms: N12_1  and  C13_2 
REMARK       I    between atoms: C11_17  and  N12_1 
REMARK    2  A    between atoms: C13_2  and  C30_3 
REMARK    3  A    between atoms: C13_2  and  C14_4 
REMARK    4  A    between atoms: C30_3  and  C21_8 
REMARK    5  A    between atoms: C14_4  and  O15_6 
REMARK    6  A    between atoms: O15_6  and  C16_7 
REMARK    7  A    between atoms: C25_12  and  C27_14 
REMARK    8  A    between atoms: C27_14  and  N28_15 
REMARK    9  A    between atoms: C10_18  and  C11_17 
REMARK   10  A    between atoms: N9_19  and  C10_18 
REMARK   11  A    between atoms: S8_28  and  N9_19 
REMARK   12  A    between atoms: C2_22  and  C1_21 
REMARK   13  A    between atoms: C5_25  and  S8_28 
ROOT
ATOM      1  C13 ANH d   1      -3.522  17.180  17.367  0.00  0.00     0.100 C 
ATOM      2  H2  ANH d   1      -3.937  16.562  16.557  0.00  0.00     0.088 H 
ENDROOT
BRANCH   1   3
ATOM      3  N12 ANH d   1      -2.259  17.794  16.829  0.00  0.00    -0.346 N 
ATOM      4  C11 ANH d   1      -2.209  18.644  15.789  0.00  0.00     0.236 C 
ATOM      5  O20 ANH d   1      -3.175  18.867  15.058  0.00  0.00    -0.272 OA
ATOM      6  H1  ANH d   1      -1.397  17.553  17.276  0.00  0.00     0.163 HD
BRANCH   4   7
ATOM      7  C10 ANH d   1      -0.890  19.342  15.482  0.00  0.00     0.076 C 
ATOM      8  H16 ANH d   1      -0.059  18.658  15.710  0.00  0.00     0.079 H 
ATOM      9  H17 ANH d   1      -0.806  20.243  16.107  0.00  0.00     0.079 H 
BRANCH   7  10
ATOM     10  N9  ANH d   1      -0.817  19.734  14.054  0.00  0.00    -0.307 N 
ATOM     11  H18 ANH d   1      -0.833  19.031  13.343  0.00  0.00     0.172 HD
BRANCH  10  12
ATOM     12  S8  ANH d   1      -0.707  21.355  13.628  0.00  0.00     0.259 S 
ATOM     13  O18 ANH d   1      -0.457  21.394  12.059  0.00  0.00    -0.201 OA
ATOM     14  O19 ANH d   1      -2.079  21.912  14.143  0.00  0.00    -0.201 OA
BRANCH  12  15
ATOM     15  C5  ANH d   1       0.571  22.106  14.520  0.00  0.00     0.079 A 
ATOM     16  C4  ANH d   1       1.954  21.803  14.250  0.00  0.00    -0.060 A 
ATOM     17  C3  ANH d   1       2.956  22.474  15.033  0.00  0.00    -0.076 A 
ATOM     18  H23 ANH d   1       2.230  21.091  13.480  0.00  0.00     0.085 H 
ATOM     19  C2  ANH d   1       2.550  23.406  16.050  0.00  0.00    -0.062 A 
ATOM     20  H22 ANH d   1       4.008  22.279  14.858  0.00  0.00     0.084 H 
ATOM     21  C7  ANH d   1       1.176  23.666  16.278  0.00  0.00    -0.076 A 
ATOM     22  C6  ANH d   1       0.187  23.027  15.526  0.00  0.00    -0.060 A 
ATOM     23  H25 ANH d   1       0.887  24.372  17.048  0.00  0.00     0.084 H 
ATOM     24  H24 ANH d   1      -0.861  23.233  15.710  0.00  0.00     0.085 H 
BRANCH  19  25
ATOM     25  C1  ANH d   1       3.527  24.133  16.891  0.00  0.00    -0.051 C 
ATOM     26  H19 ANH d   1       4.548  23.836  16.607  0.00  0.00     0.033 H 
ATOM     27  H20 ANH d   1       3.354  23.887  17.949  0.00  0.00     0.033 H 
ATOM     28  H21 ANH d   1       3.405  25.216  16.741  0.00  0.00     0.033 H 
ENDBRANCH  19  25
ENDBRANCH  12  15
ENDBRANCH  10  12
ENDBRANCH   7  10
ENDBRANCH   4   7
ENDBRANCH   1   3
BRANCH   1  29
ATOM     29  C30 ANH d   1      -3.167  16.254  18.535  0.00  0.00    -0.013 C 
ATOM     30  H3  ANH d   1      -4.107  15.952  19.020  0.00  0.00     0.043 H 
ATOM     31  H4  ANH d   1      -2.557  16.831  19.246  0.00  0.00     0.043 H 
BRANCH  29  32
ATOM     32  C21 ANH d   1      -2.396  14.984  18.187  0.00  0.00    -0.055 A 
ATOM     33  C22 ANH d   1      -1.375  14.549  19.066  0.00  0.00    -0.077 A 
ATOM     34  C23 ANH d   1      -0.624  13.373  18.790  0.00  0.00    -0.082 A 
ATOM     35  H8  ANH d   1      -1.163  15.120  19.962  0.00  0.00     0.084 H 
ATOM     36  C24 ANH d   1      -0.900  12.621  17.618  0.00  0.00    -0.069 A 
ATOM     37  H9  ANH d   1       0.156  13.052  19.471  0.00  0.00     0.083 H 
ATOM     38  C25 ANH d   1      -1.940  13.013  16.666  0.00  0.00     0.007 A 
ATOM     39  H10 ANH d   1      -0.321  11.726  17.422  0.00  0.00     0.085 H 
ATOM     40  C26 ANH d   1      -2.684  14.222  16.988  0.00  0.00    -0.063 A 
ATOM     41  H11 ANH d   1      -3.468  14.559  16.319  0.00  0.00     0.085 H 
BRANCH  38  42
ATOM     42  C27 ANH d   1      -2.194  12.245  15.510  0.00  0.00     0.102 C 
ATOM     43  N29 ANH d   1      -1.855  10.967  15.366  0.00  0.00    -0.385 N 
ATOM     44  H14 ANH d   1      -1.370  10.474  16.129  0.00  0.00     0.157 HD
ATOM     45  H15 ANH d   1      -2.078  10.470  14.492  0.00  0.00     0.157 HD
BRANCH  42  46
ATOM     46  N28 ANH d   1      -2.802  12.683  14.424  0.00  0.00    -0.385 N 
ATOM     47  H12 ANH d   1      -2.946  12.051  13.624  0.00  0.00     0.157 HD
ATOM     48  H13 ANH d   1      -3.133  13.657  14.377  0.00  0.00     0.157 HD
ENDBRANCH  42  46
ENDBRANCH  38  42
ENDBRANCH  29  32
ENDBRANCH   1  29
BRANCH   1  49
ATOM     49  C14 ANH d   1      -4.695  18.180  17.819  0.00  0.00     0.281 C 
ATOM     50  O17 ANH d   1      -5.844  17.985  17.354  0.00  0.00    -0.263 OA
BRANCH  49  51
ATOM     51  O15 ANH d   1      -4.406  19.258  18.727  0.00  0.00    -0.325 OA
BRANCH  51  52
ATOM     52  C16 ANH d   1      -3.096  19.577  19.333  0.00  0.00     0.013 C 
ATOM     53  H5  ANH d   1      -3.198  20.459  19.983  0.00  0.00     0.067 H 
ATOM     54  H6  ANH d   1      -2.366  19.790  18.538  0.00  0.00     0.067 H 
ATOM     55  H7  ANH d   1      -2.749  18.720  19.929  0.00  0.00     0.067 H 
ENDBRANCH  51  52
ENDBRANCH  49  51
ENDBRANCH   1  49
TORSDOF 13
