REMARK  2 active torsions:
REMARK  status: ('A' for Active; 'I' for Inactive)
REMARK    1  A    between atoms: C1_1  and  C_7 
REMARK    2  A    between atoms: C_7  and  N1_8 
ROOT
ATOM      1  C1  BEN d   1      53.274  67.097 -28.838  0.00  0.00     0.007 A 
ATOM      2  C2  BEN d   1      52.667  66.683 -30.109  0.00  0.00    -0.069 A 
ATOM      3  C3  BEN d   1      52.404  67.656 -31.159  0.00  0.00    -0.082 A 
ATOM      4  C4  BEN d   1      52.745  69.058 -30.954  0.00  0.00    -0.083 A 
ATOM      5  C5  BEN d   1      53.345  69.483 -29.705  0.00  0.00    -0.082 A 
ATOM      6  C6  BEN d   1      53.611  68.509 -28.650  0.00  0.00    -0.069 A 
ATOM      7  H1  BEN d   1      52.412  65.641 -30.267  0.00  0.00     0.085 H 
ATOM      8  H2  BEN d   1      51.955  67.338 -32.093  0.00  0.00     0.083 H 
ATOM      9  H3  BEN d   1      52.550  69.783 -31.736  0.00  0.00     0.083 H 
ATOM     10  H4  BEN d   1      53.597  70.526 -29.554  0.00  0.00     0.083 H 
ATOM     11  H5  BEN d   1      54.062  68.835 -27.720  0.00  0.00     0.085 H 
ENDROOT
BRANCH   1  12
ATOM     12  C   BEN d   1      53.552  66.067 -27.727  0.00  0.00     0.102 C 
ATOM     13  N2  BEN d   1      53.149  64.820 -27.877  0.00  0.00    -0.385 N 
ATOM     14  H8  BEN d   1      52.648  64.540 -28.732  0.00  0.00     0.157 HD
ATOM     15  H9  BEN d   1      53.335  64.126 -27.139  0.00  0.00     0.157 HD
BRANCH  12  16
ATOM     16  N1  BEN d   1      54.194  66.437 -26.636  0.00  0.00    -0.385 N 
ATOM     17  H6  BEN d   1      54.382  65.751 -25.891  0.00  0.00     0.157 HD
ATOM     18  H7  BEN d   1      54.508  67.412 -26.529  0.00  0.00     0.157 HD
ENDBRANCH  12  16
ENDBRANCH   1  12
TORSDOF 2
