REMARK  2 active torsions:
REMARK  status: ('A' for Active; 'I' for Inactive)
REMARK    1  A    between atoms: C1_1  and  C_7 
REMARK    2  A    between atoms: C_7  and  N1_8 
ROOT
ATOM      1  C1  BEN d   1      53.362  66.934 -28.854  0.00  0.00     0.007 A 
ATOM      2  C2  BEN d   1      52.739  66.559 -30.132  0.00  0.00    -0.069 A 
ATOM      3  C3  BEN d   1      52.456  67.568 -31.146  0.00  0.00    -0.082 A 
ATOM      4  C4  BEN d   1      52.791  68.960 -30.896  0.00  0.00    -0.083 A 
ATOM      5  C5  BEN d   1      53.406  69.347 -29.643  0.00  0.00    -0.082 A 
ATOM      6  C6  BEN d   1      53.692  68.342 -28.625  0.00  0.00    -0.069 A 
ATOM      7  H1  BEN d   1      52.487  65.522 -30.322  0.00  0.00     0.085 H 
ATOM      8  H2  BEN d   1      51.996  67.280 -32.085  0.00  0.00     0.083 H 
ATOM      9  H3  BEN d   1      52.580  69.710 -31.649  0.00  0.00     0.083 H 
ATOM     10  H4  BEN d   1      53.654  70.386 -29.461  0.00  0.00     0.083 H 
ATOM     11  H5  BEN d   1      54.153  68.640 -27.690  0.00  0.00     0.085 H 
ENDROOT
BRANCH   1  12
ATOM     12  C   BEN d   1      53.666  65.868 -27.780  0.00  0.00     0.102 C 
ATOM     13  N2  BEN d   1      53.201  64.642 -27.927  0.00  0.00    -0.385 N 
ATOM     14  H8  BEN d   1      52.631  64.403 -28.751  0.00  0.00     0.157 HD
ATOM     15  H9  BEN d   1      53.408  63.924 -27.218  0.00  0.00     0.157 HD
BRANCH  12  16
ATOM     16  N1  BEN d   1      54.397  66.184 -26.727  0.00  0.00    -0.385 N 
ATOM     17  H6  BEN d   1      54.601  65.474 -26.009  0.00  0.00     0.157 HD
ATOM     18  H7  BEN d   1      54.764  67.141 -26.623  0.00  0.00     0.157 HD
ENDBRANCH  12  16
ENDBRANCH   1  12
TORSDOF 2
