REMARK  13 active torsions:
REMARK  status: ('A' for Active; 'I' for Inactive)
REMARK    1  A    between atoms: N12_1  and  C13_2 
REMARK       I    between atoms: C11_17  and  N12_1 
REMARK    2  A    between atoms: C13_2  and  C30_3 
REMARK    3  A    between atoms: C13_2  and  C14_4 
REMARK    4  A    between atoms: C30_3  and  C21_8 
REMARK    5  A    between atoms: C14_4  and  O15_6 
REMARK    6  A    between atoms: O15_6  and  C16_7 
REMARK    7  A    between atoms: C25_12  and  C27_14 
REMARK    8  A    between atoms: C27_14  and  N28_15 
REMARK    9  A    between atoms: C10_18  and  C11_17 
REMARK   10  A    between atoms: N9_19  and  C10_18 
REMARK   11  A    between atoms: S8_28  and  N9_19 
REMARK   12  A    between atoms: C2_22  and  C1_21 
REMARK   13  A    between atoms: C5_25  and  S8_28 
ROOT
ATOM      1  C13 ANH d   1      -3.407  18.379  18.194  0.00  0.00     0.100 C 
ATOM      2  H2  ANH d   1      -3.898  17.806  17.394  0.00  0.00     0.088 H 
ENDROOT
BRANCH   1   3
ATOM      3  N12 ANH d   1      -2.230  19.060  17.582  0.00  0.00    -0.346 N 
ATOM      4  C11 ANH d   1      -2.288  19.977  16.606  0.00  0.00     0.236 C 
ATOM      5  O20 ANH d   1      -3.311  20.234  15.977  0.00  0.00    -0.272 OA
ATOM      6  H1  ANH d   1      -1.325  18.813  17.927  0.00  0.00     0.163 HD
BRANCH   4   7
ATOM      7  C10 ANH d   1      -1.003  20.714  16.276  0.00  0.00     0.076 C 
ATOM      8  H16 ANH d   1      -0.164  20.017  16.414  0.00  0.00     0.079 H 
ATOM      9  H17 ANH d   1      -0.901  21.555  16.978  0.00  0.00     0.079 H 
BRANCH   7  10
ATOM     10  N9  ANH d   1      -0.932  21.256  14.892  0.00  0.00    -0.307 N 
ATOM     11  H18 ANH d   1      -0.912  20.636  14.108  0.00  0.00     0.172 HD
BRANCH  10  12
ATOM     12  S8  ANH d   1      -0.886  22.930  14.656  0.00  0.00     0.259 S 
ATOM     13  O18 ANH d   1      -0.554  23.153  13.109  0.00  0.00    -0.201 OA
ATOM     14  O19 ANH d   1      -2.325  23.378  15.100  0.00  0.00    -0.201 OA
BRANCH  12  15
ATOM     15  C5  ANH d   1       0.284  23.619  15.751  0.00  0.00     0.079 A 
ATOM     16  C4  ANH d   1       1.701  23.383  15.596  0.00  0.00    -0.060 A 
ATOM     17  C3  ANH d   1       2.596  23.982  16.551  0.00  0.00    -0.076 A 
ATOM     18  H23 ANH d   1       2.079  22.773  14.784  0.00  0.00     0.085 H 
ATOM     19  C2  ANH d   1       2.066  24.786  17.620  0.00  0.00    -0.062 A 
ATOM     20  H22 ANH d   1       3.666  23.828  16.465  0.00  0.00     0.084 H 
ATOM     21  C7  ANH d   1       0.663  24.993  17.736  0.00  0.00    -0.076 A 
ATOM     22  C6  ANH d   1      -0.227  24.419  16.813  0.00  0.00    -0.060 A 
ATOM     23  H25 ANH d   1       0.276  25.601  18.546  0.00  0.00     0.084 H 
ATOM     24  H24 ANH d   1      -1.294  24.584  16.908  0.00  0.00     0.085 H 
BRANCH  19  25
ATOM     25  C1  ANH d   1       2.943  25.426  18.636  0.00  0.00    -0.051 C 
ATOM     26  H19 ANH d   1       3.993  25.180  18.421  0.00  0.00     0.033 H 
ATOM     27  H20 ANH d   1       2.677  25.054  19.637  0.00  0.00     0.033 H 
ATOM     28  H21 ANH d   1       2.807  26.517  18.602  0.00  0.00     0.033 H 
ENDBRANCH  19  25
ENDBRANCH  12  15
ENDBRANCH  10  12
ENDBRANCH   7  10
ENDBRANCH   4   7
ENDBRANCH   1   3
BRANCH   1  29
ATOM     29  C30 ANH d   1      -2.903  17.395  19.254  0.00  0.00    -0.013 C 
ATOM     30  H3  ANH d   1      -3.780  17.031  19.809  0.00  0.00     0.043 H 
ATOM     31  H4  ANH d   1      -2.244  17.954  19.935  0.00  0.00     0.043 H 
BRANCH  29  32
ATOM     32  C21 ANH d   1      -2.128  16.171  18.772  0.00  0.00    -0.055 A 
ATOM     33  C22 ANH d   1      -1.076  15.675  19.583  0.00  0.00    -0.077 A 
ATOM     34  C23 ANH d   1      -0.320  14.539  19.189  0.00  0.00    -0.082 A 
ATOM     35  H8  ANH d   1      -0.845  16.171  20.519  0.00  0.00     0.084 H 
ATOM     36  C24 ANH d   1      -0.620  13.886  17.965  0.00  0.00    -0.069 A 
ATOM     37  H9  ANH d   1       0.482  14.173  19.820  0.00  0.00     0.083 H 
ATOM     38  C25 ANH d   1      -1.694  14.348  17.080  0.00  0.00     0.007 A 
ATOM     39  H10 ANH d   1      -0.037  13.019  17.675  0.00  0.00     0.085 H 
ATOM     40  C26 ANH d   1      -2.440  15.512  17.522  0.00  0.00    -0.063 A 
ATOM     41  H11 ANH d   1      -3.245  15.894  16.905  0.00  0.00     0.085 H 
BRANCH  38  42
ATOM     42  C27 ANH d   1      -1.975  13.684  15.874  0.00  0.00     0.102 C 
ATOM     43  N29 ANH d   1      -1.594  12.444  15.596  0.00  0.00    -0.385 N 
ATOM     44  H14 ANH d   1      -1.048  11.906  16.284  0.00  0.00     0.157 HD
ATOM     45  H15 ANH d   1      -1.844  12.019  14.692  0.00  0.00     0.157 HD
BRANCH  42  46
ATOM     46  N28 ANH d   1      -2.657  14.191  14.870  0.00  0.00    -0.385 N 
ATOM     47  H12 ANH d   1      -2.816  13.631  14.020  0.00  0.00     0.157 HD
ATOM     48  H13 ANH d   1      -3.032  15.148  14.933  0.00  0.00     0.157 HD
ENDBRANCH  42  46
ENDBRANCH  38  42
ENDBRANCH  29  32
ENDBRANCH   1  29
BRANCH   1  49
ATOM     49  C14 ANH d   1      -4.528  19.329  18.838  0.00  0.00     0.281 C 
ATOM     50  O17 ANH d   1      -5.726  19.135  18.512  0.00  0.00    -0.263 OA
BRANCH  49  51
ATOM     51  O15 ANH d   1      -4.132  20.370  19.761  0.00  0.00    -0.325 OA
BRANCH  51  52
ATOM     52  C16 ANH d   1      -2.757  20.680  20.208  0.00  0.00     0.013 C 
ATOM     53  H5  ANH d   1      -2.782  21.526  20.911  0.00  0.00     0.067 H 
ATOM     54  H6  ANH d   1      -2.139  20.945  19.337  0.00  0.00     0.067 H 
ATOM     55  H7  ANH d   1      -2.327  19.800  20.709  0.00  0.00     0.067 H 
ENDBRANCH  51  52
ENDBRANCH  49  51
ENDBRANCH   1  49
TORSDOF 13
