REMARK  7 active torsions:
REMARK  status: ('A' for Active; 'I' for Inactive)
REMARK    1  A    between atoms: N9_1  and  C10_12 
REMARK    2  A    between atoms: C2_8  and  N2_9 
REMARK    3  A    between atoms: C10_12  and  C11_13 
REMARK    4  A    between atoms: C11_13  and  C12_14 
REMARK    5  A    between atoms: C12_14  and  C13_15 
REMARK    6  A    between atoms: C13_15  and  C14_16 
REMARK    7  A    between atoms: C14_16  and  P_19 
ROOT
ATOM      1  C10 HA1 d   1      72.650  45.132  50.212  0.00  0.00     0.002 C 
ATOM      2  H5  HA1 d   1      73.274  44.816  49.363  0.00  0.00     0.065 H 
ATOM      3  H6  HA1 d   1      71.707  44.565  50.205  0.00  0.00     0.065 H 
ENDROOT
BRANCH   1   4
ATOM      4  N9  HA1 d   1      72.365  46.488  50.086  0.00  0.00    -0.324 N 
ATOM      5  C8  HA1 d   1      71.103  46.989  50.343  0.00  0.00     0.068 A 
ATOM      6  N7  HA1 d   1      71.051  48.270  50.089  0.00  0.00    -0.234 NA
ATOM      7  H1  HA1 d   1      70.265  46.397  50.708  0.00  0.00     0.143 H 
ATOM      8  C5  HA1 d   1      72.295  48.654  49.653  0.00  0.00     0.172 A 
ATOM      9  C6  HA1 d   1      72.805  49.945  49.238  0.00  0.00     0.281 A 
ATOM     10  C4  HA1 d   1      73.145  47.550  49.644  0.00  0.00     0.169 A 
ATOM     11  O6  HA1 d   1      72.175  51.016  49.191  0.00  0.00    -0.265 OA
ATOM     12  N1  HA1 d   1      74.180  49.912  48.854  0.00  0.00    -0.292 N 
ATOM     13  C2  HA1 d   1      74.978  48.745  48.873  0.00  0.00     0.204 A 
ATOM     14  H2  HA1 d   1      74.604  50.766  48.553  0.00  0.00     0.172 HD
ATOM     15  N3  HA1 d   1      74.486  47.515  49.270  0.00  0.00    -0.195 NA
BRANCH  13  16
ATOM     16  N2  HA1 d   1      76.284  48.848  48.480  0.00  0.00    -0.369 N 
ATOM     17  H3  HA1 d   1      76.890  48.015  48.483  0.00  0.00     0.159 HD
ATOM     18  H4  HA1 d   1      76.662  49.758  48.181  0.00  0.00     0.159 HD
ENDBRANCH  13  16
ENDBRANCH   1   4
BRANCH   1  19
ATOM     19  C11 HA1 d   1      73.407  44.840  51.534  0.00  0.00    -0.049 C 
ATOM     20  H7  HA1 d   1      72.681  44.600  52.325  0.00  0.00     0.035 H 
ATOM     21  H8  HA1 d   1      73.988  45.727  51.826  0.00  0.00     0.035 H 
BRANCH  19  22
ATOM     22  C12 HA1 d   1      74.364  43.642  51.335  0.00  0.00    -0.058 C 
ATOM     23  H9  HA1 d   1      74.851  43.411  52.294  0.00  0.00     0.033 H 
ATOM     24  H10 HA1 d   1      75.128  43.915  50.592  0.00  0.00     0.033 H 
BRANCH  22  25
ATOM     25  C13 HA1 d   1      73.601  42.374  50.835  0.00  0.00     0.009 C 
ATOM     26  H11 HA1 d   1      73.342  42.506  49.774  0.00  0.00     0.043 H 
ATOM     27  H12 HA1 d   1      72.681  42.253  51.425  0.00  0.00     0.043 H 
BRANCH  25  28
ATOM     28  C14 HA1 d   1      74.471  41.099  50.988  0.00  0.00     0.353 C 
ATOM     29  F15 HA1 d   1      74.494  40.740  52.283  0.00  0.00    -0.191 F 
ATOM     30  F16 HA1 d   1      75.727  41.368  50.597  0.00  0.00    -0.191 F 
BRANCH  28  31
ATOM     31  P   HA1 d   1      73.918  39.967  50.136  0.00  0.00     0.334 P 
ATOM     32  O2P HA1 d   1      72.453  39.805  50.364  0.00  0.00    -0.636 OA
ATOM     33  O1P HA1 d   1      74.170  40.264  48.697  0.00  0.00    -0.636 OA
ATOM     34  O3P HA1 d   1      74.621  38.686  50.498  0.00  0.00    -0.636 OA
ENDBRANCH  28  31
ENDBRANCH  25  28
ENDBRANCH  22  25
ENDBRANCH  19  22
ENDBRANCH   1  19
TORSDOF 7
