REMARK  9 active torsions:
REMARK  status: ('A' for Active; 'I' for Inactive)
REMARK    1  A    between atoms: C13_9  and  N2_2 
REMARK    2  A    between atoms: C5_5  and  C8_6 
REMARK       I    between atoms: C8_6  and  N10_8 
REMARK    3  A    between atoms: C13_9  and  C14_10 
REMARK    4  A    between atoms: C18_12  and  C13_9 
REMARK    5  A    between atoms: C14_10  and  O15_11 
REMARK    6  A    between atoms: C14_10  and  C9_14 
REMARK    7  A    between atoms: C2_13  and  C18_12 
REMARK    8  A    between atoms: O1_15  and  C2_13 
REMARK    9  A    between atoms: C19_24  and  O1_15 
ROOT
ATOM      1  C18 FRC d   1      49.954  56.996  20.992  0.00  0.00    -0.023 C 
ATOM      2  H8  FRC d   1      49.961  56.340  20.109  0.00  0.00     0.039 H 
ATOM      3  H9  FRC d   1      50.281  58.005  20.701  0.00  0.00     0.039 H 
ENDROOT
BRANCH   1   4
ATOM      4  C13 FRC d   1      50.904  56.439  22.046  0.00  0.00     0.043 C 
ATOM      5  H5  FRC d   1      50.556  56.846  23.007  0.00  0.00     0.077 H 
BRANCH   4   6
ATOM      6  N2  FRC d   1      50.814  55.002  22.158  0.00  0.00    -0.342 N 
ATOM      7  C1  FRC d   1      50.751  54.054  21.048  0.00  0.00     0.014 C 
ATOM      8  C5  FRC d   1      50.547  52.854  21.613  0.00  0.00     0.141 C 
ATOM      9  H1  FRC d   1      50.849  54.275  19.986  0.00  0.00     0.115 H 
ATOM     10  N4  FRC d   1      50.632  53.002  23.084  0.00  0.00    -0.237 NA
ATOM     11  C3  FRC d   1      50.663  54.330  23.301  0.00  0.00     0.067 C 
ATOM     12  H2  FRC d   1      50.576  54.795  24.282  0.00  0.00     0.143 H 
BRANCH   8  13
ATOM     13  C8  FRC d   1      50.253  51.586  20.893  0.00  0.00     0.269 C 
ATOM     14  O9  FRC d   1      50.132  51.530  19.680  0.00  0.00    -0.266 OA
ATOM     15  N10 FRC d   1      50.150  50.489  21.626  0.00  0.00    -0.365 N 
ATOM     16  H3  FRC d   1      49.953  49.612  21.188  0.00  0.00     0.159 HD
ATOM     17  H4  FRC d   1      50.269  50.537  22.618  0.00  0.00     0.159 HD
ENDBRANCH   8  13
ENDBRANCH   4   6
BRANCH   4  18
ATOM     18  C14 FRC d   1      52.372  56.905  21.896  0.00  0.00     0.052 C 
ATOM     19  H6  FRC d   1      52.312  58.002  21.843  0.00  0.00     0.085 H 
BRANCH  18  20
ATOM     20  O15 FRC d   1      53.227  56.677  23.076  0.00  0.00    -0.394 OA
ATOM     21  H7  FRC d   1      52.869  57.146  23.821  0.00  0.00     0.210 HD
ENDBRANCH  18  20
BRANCH  18  22
ATOM     22  C9  FRC d   1      52.909  56.489  20.496  0.00  0.00    -0.051 C 
ATOM     23  H12 FRC d   1      53.953  56.821  20.390  0.00  0.00     0.031 H 
ATOM     24  H13 FRC d   1      52.294  56.958  19.713  0.00  0.00     0.031 H 
ATOM     25  H14 FRC d   1      52.860  55.395  20.395  0.00  0.00     0.031 H 
ENDBRANCH  18  22
ENDBRANCH   4  18
ENDBRANCH   1   4
BRANCH   1  26
ATOM     26  C2  FRC d   1      48.527  57.065  21.570  0.00  0.00     0.028 C 
ATOM     27  H10 FRC d   1      48.522  57.755  22.427  0.00  0.00     0.075 H 
ATOM     28  H11 FRC d   1      48.229  56.061  21.906  0.00  0.00     0.075 H 
BRANCH  26  29
ATOM     29  O1  FRC d   1      47.600  57.520  20.612  0.00  0.00    -0.351 OA
BRANCH  29  30
ATOM     30  C19 FRC d   1      47.416  56.704  19.508  0.00  0.00     0.069 A 
ATOM     31  C16 FRC d   1      46.856  57.352  18.400  0.00  0.00    -0.050 A 
ATOM     32  C7  FRC d   1      46.585  56.680  17.207  0.00  0.00    -0.070 A 
ATOM     33  H20 FRC d   1      46.626  58.409  18.471  0.00  0.00     0.087 H 
ATOM     34  C12 FRC d   1      46.925  55.324  17.124  0.00  0.00    -0.026 A 
ATOM     35  H19 FRC d   1      46.125  57.192  16.370  0.00  0.00     0.085 H 
ATOM     36  C17 FRC d   1      46.580  54.616  15.967  0.00  0.00    -0.072 A 
ATOM     37  C4  FRC d   1      47.471  54.641  18.234  0.00  0.00    -0.023 A 
ATOM     38  C11 FRC d   1      46.883  53.250  15.885  0.00  0.00    -0.082 A 
ATOM     39  H16 FRC d   1      46.084  55.118  15.144  0.00  0.00     0.084 H 
ATOM     40  C6  FRC d   1      47.466  52.576  16.962  0.00  0.00    -0.082 A 
ATOM     41  H15 FRC d   1      46.662  52.708  14.973  0.00  0.00     0.083 H 
ATOM     42  C15 FRC d   1      47.782  53.278  18.129  0.00  0.00    -0.072 A 
ATOM     43  H18 FRC d   1      47.672  51.514  16.893  0.00  0.00     0.083 H 
ATOM     44  H17 FRC d   1      48.268  52.768  18.953  0.00  0.00     0.084 H 
ATOM     45  C10 FRC d   1      47.754  55.333  19.423  0.00  0.00    -0.040 A 
ATOM     46  H21 FRC d   1      48.222  54.826  20.259  0.00  0.00     0.089 H 
ENDBRANCH  29  30
ENDBRANCH  26  29
ENDBRANCH   1  26
TORSDOF 9
