REMARK  0 active torsions:
REMARK  status: ('A' for Active; 'I' for Inactive)
ROOT
ATOM      1  N1  HPA d   1      74.594  49.823  49.650  0.00  0.00    -0.316 N 
ATOM      2  C2  HPA d   1      75.505  48.772  49.594  0.00  0.00     0.069 A 
ATOM      3  N3  HPA d   1      75.194  47.474  49.774  0.00  0.00    -0.222 NA
ATOM      4  C4  HPA d   1      73.867  47.308  49.970  0.00  0.00     0.184 A 
ATOM      5  C5  HPA d   1      72.886  48.294  50.093  0.00  0.00     0.150 A 
ATOM      6  C6  HPA d   1      73.229  49.667  49.956  0.00  0.00     0.277 A 
ATOM      7  O6  HPA d   1      72.487  50.656  50.002  0.00  0.00    -0.266 OA
ATOM      8  N7  HPA d   1      71.635  47.709  50.359  0.00  0.00    -0.343 N 
ATOM      9  C8  HPA d   1      71.897  46.431  50.392  0.00  0.00     0.067 A 
ATOM     10  N9  HPA d   1      73.237  46.102  50.170  0.00  0.00    -0.222 NA
ATOM     11  H1  HPA d   1      74.930  50.746  49.461  0.00  0.00     0.170 HD
ATOM     12  H2  HPA d   1      76.546  49.017  49.389  0.00  0.00     0.143 H 
ATOM     13  H3  HPA d   1      70.728  48.178  50.495  0.00  0.00     0.167 HD
ATOM     14  H4  HPA d   1      71.131  45.679  50.578  0.00  0.00     0.143 H 
ENDROOT
TORSDOF 0
