REMARK  15 active torsions:
REMARK  status: ('A' for Active; 'I' for Inactive)
REMARK    1  A    between atoms: C1_1  and  C2_2 
REMARK    2  A    between atoms: C2_2  and  C3_3 
REMARK    3  A    between atoms: C3_3  and  C4_4 
REMARK    4  A    between atoms: C4_4  and  C5_5 
REMARK    5  A    between atoms: C6_6  and  C7_7 
REMARK    6  A    between atoms: C7_7  and  C8_8 
REMARK    7  A    between atoms: C9_9  and  C10_10 
REMARK    8  A    between atoms: C10_10  and  C11_11 
REMARK    9  A    between atoms: C12_12  and  C13_13 
REMARK   10  A    between atoms: C13_13  and  C14_14 
REMARK   11  A    between atoms: C15_15  and  C16_16 
REMARK   12  A    between atoms: C16_16  and  C17_17 
REMARK   13  A    between atoms: C17_17  and  C18_18 
REMARK   14  A    between atoms: C18_18  and  C19_19 
REMARK   15  A    between atoms: C19_19  and  C20_20 
ROOT
ATOM      1  C11 ACD d   1       8.020  31.121   7.852  0.00  0.00    -0.103 C 
ATOM      2  C12 ACD d   1       7.512  31.600   6.732  0.00  0.00    -0.103 C 
ATOM      3  H15 ACD d   1       7.347  30.947   8.691  0.00  0.00     0.076 H 
ATOM      4  H16 ACD d   1       6.442  31.791   6.673  0.00  0.00     0.076 H 
ENDROOT
BRANCH   1   5
ATOM      5  C10 ACD d   1       9.481  30.802   8.032  0.00  0.00    -0.035 C 
ATOM      6  H13 ACD d   1       9.793  29.991   7.358  0.00  0.00     0.044 H 
ATOM      7  H14 ACD d   1      10.104  31.690   7.849  0.00  0.00     0.044 H 
BRANCH   5   8
ATOM      8  C9  ACD d   1       9.566  30.373   9.463  0.00  0.00    -0.103 C 
ATOM      9  C8  ACD d   1      10.519  29.630  10.019  0.00  0.00    -0.103 C 
ATOM     10  H11 ACD d   1      10.415  29.415  11.082  0.00  0.00     0.076 H 
ATOM     11  H12 ACD d   1       8.762  30.704  10.119  0.00  0.00     0.076 H 
BRANCH   9  12
ATOM     12  C7  ACD d   1      11.708  29.065   9.339  0.00  0.00    -0.035 C 
ATOM     13  H9  ACD d   1      11.594  27.980   9.196  0.00  0.00     0.044 H 
ATOM     14  H10 ACD d   1      11.864  29.549   8.364  0.00  0.00     0.044 H 
BRANCH  12  15
ATOM     15  C6  ACD d   1      12.863  29.363  10.274  0.00  0.00    -0.103 C 
ATOM     16  C5  ACD d   1      14.014  29.879   9.814  0.00  0.00    -0.106 C 
ATOM     17  H7  ACD d   1      14.845  30.080  10.488  0.00  0.00     0.076 H 
ATOM     18  H8  ACD d   1      12.758  29.155  11.338  0.00  0.00     0.076 H 
BRANCH  16  19
ATOM     19  C4  ACD d   1      14.126  30.176   8.323  0.00  0.00    -0.050 C 
ATOM     20  H5  ACD d   1      14.289  29.233   7.781  0.00  0.00     0.038 H 
ATOM     21  H6  ACD d   1      13.190  30.640   7.978  0.00  0.00     0.038 H 
BRANCH  19  22
ATOM     22  C3  ACD d   1      15.291  31.127   8.034  0.00  0.00    -0.053 C 
ATOM     23  H3  ACD d   1      14.935  31.967   7.420  0.00  0.00     0.034 H 
ATOM     24  H4  ACD d   1      15.695  31.511   8.982  0.00  0.00     0.034 H 
BRANCH  22  25
ATOM     25  C2  ACD d   1      16.386  30.375   7.282  0.00  0.00     0.016 C 
ATOM     26  H1  ACD d   1      17.136  30.000   7.994  0.00  0.00     0.049 H 
ATOM     27  H2  ACD d   1      15.947  29.530   6.732  0.00  0.00     0.049 H 
BRANCH  25  28
ATOM     28  C1  ACD d   1      17.034  31.329   6.316  0.00  0.00     0.172 C 
ATOM     29  O1  ACD d   1      17.671  32.316   6.695  0.00  0.00    -0.648 OA
ATOM     30  O2  ACD d   1      16.870  31.072   5.025  0.00  0.00    -0.648 OA
ENDBRANCH  25  28
ENDBRANCH  22  25
ENDBRANCH  19  22
ENDBRANCH  16  19
ENDBRANCH  12  15
ENDBRANCH   9  12
ENDBRANCH   5   8
ENDBRANCH   1   5
BRANCH   2  31
ATOM     31  C13 ACD d   1       8.370  31.886   5.543  0.00  0.00    -0.035 C 
ATOM     32  H17 ACD d   1       8.104  31.203   4.722  0.00  0.00     0.044 H 
ATOM     33  H18 ACD d   1       9.428  31.746   5.808  0.00  0.00     0.044 H 
BRANCH  31  34
ATOM     34  C14 ACD d   1       8.138  33.324   5.107  0.00  0.00    -0.103 C 
ATOM     35  C15 ACD d   1       9.019  33.995   4.356  0.00  0.00    -0.106 C 
ATOM     36  H20 ACD d   1       8.805  35.033   4.106  0.00  0.00     0.076 H 
ATOM     37  H19 ACD d   1       7.222  33.826   5.417  0.00  0.00     0.076 H 
BRANCH  35  38
ATOM     38  C16 ACD d   1      10.306  33.372   3.836  0.00  0.00    -0.050 C 
ATOM     39  H21 ACD d   1      10.333  33.464   2.740  0.00  0.00     0.038 H 
ATOM     40  H22 ACD d   1      10.329  32.308   4.115  0.00  0.00     0.038 H 
BRANCH  38  41
ATOM     41  C17 ACD d   1      11.524  34.066   4.423  0.00  0.00    -0.062 C 
ATOM     42  H23 ACD d   1      12.435  33.613   4.005  0.00  0.00     0.033 H 
ATOM     43  H24 ACD d   1      11.520  33.940   5.516  0.00  0.00     0.033 H 
BRANCH  41  44
ATOM     44  C18 ACD d   1      11.507  35.555   4.090  0.00  0.00    -0.065 C 
ATOM     45  H25 ACD d   1      10.633  35.784   3.463  0.00  0.00     0.033 H 
ATOM     46  H26 ACD d   1      12.427  35.824   3.550  0.00  0.00     0.033 H 
BRANCH  44  47
ATOM     47  C19 ACD d   1      11.427  36.344   5.389  0.00  0.00    -0.069 C 
ATOM     48  H27 ACD d   1      12.328  36.133   5.984  0.00  0.00     0.032 H 
ATOM     49  H28 ACD d   1      10.536  36.016   5.944  0.00  0.00     0.032 H 
BRANCH  47  50
ATOM     50  C20 ACD d   1      11.333  37.855   5.165  0.00  0.00    -0.077 C 
ATOM     51  H29 ACD d   1      11.278  38.367   6.137  0.00  0.00     0.027 H 
ATOM     52  H30 ACD d   1      10.431  38.083   4.579  0.00  0.00     0.027 H 
ATOM     53  H31 ACD d   1      12.223  38.201   4.618  0.00  0.00     0.027 H 
ENDBRANCH  47  50
ENDBRANCH  44  47
ENDBRANCH  41  44
ENDBRANCH  38  41
ENDBRANCH  35  38
ENDBRANCH  31  34
ENDBRANCH   2  31
TORSDOF 15
