REMARK  6 active torsions:
REMARK  status: ('A' for Active; 'I' for Inactive)
REMARK    1  A    between atoms: C3_2  and  N2_3 
REMARK    2  A    between atoms: C3_2  and  C4_4 
REMARK    3  A    between atoms: C7_7  and  C10_10 
REMARK    4  A    between atoms: C13_13  and  O20_29 
REMARK    5  A    between atoms: N19_18  and  C23_22 
REMARK    6  A    between atoms: C23_22  and  C24_23 
ROOT
ATOM      1  C10 SHY d   1      16.033 -11.126  20.047  0.00  0.00     0.142 C 
ATOM      2  N11 SHY d   1      15.984 -12.242  19.063  0.00  0.00    -0.054 N 
ATOM      3  C12 SHY d   1      15.107 -11.871  17.905  0.00  0.00     0.108 C 
ATOM      4  C13 SHY d   1      15.991 -11.714  16.651  0.00  0.00     0.061 C 
ATOM      5  C14 SHY d   1      17.347 -11.369  17.285  0.00  0.00    -0.012 C 
ATOM      6  C15 SHY d   1      17.370 -12.257  18.504  0.00  0.00     0.119 C 
ATOM      7  C16 SHY d   1      18.357 -11.698  19.554  0.00  0.00     0.066 C 
ATOM      8  C17 SHY d   1      19.154 -12.791  20.156  0.00  0.00     0.233 C 
ATOM      9  N19 SHY d   1      18.586 -13.278  21.327  0.00  0.00    -0.283 N 
ATOM     10  C20 SHY d   1      17.467 -12.479  21.672  0.00  0.00     0.234 C 
ATOM     11  O21 SHY d   1      16.747 -12.734  22.627  0.00  0.00    -0.272 OA
ATOM     12  C22 SHY d   1      17.399 -11.287  20.736  0.00  0.00     0.069 C 
ATOM     13  O24 SHY d   1      20.156 -13.329  19.707  0.00  0.00    -0.272 OA
ATOM     14  H9  SHY d   1      16.025 -10.163  19.515  0.00  0.00     0.093 H 
ATOM     15  H10 SHY d   1      15.709 -13.116  19.484  0.00  0.00     0.281 HD
ATOM     16  H11 SHY d   1      14.593 -10.922  18.118  0.00  0.00     0.080 H 
ATOM     17  H12 SHY d   1      14.361 -12.662  17.736  0.00  0.00     0.080 H 
ATOM     18  H13 SHY d   1      15.617 -10.928  15.979  0.00  0.00     0.085 H 
ATOM     19  H14 SHY d   1      17.396 -10.307  17.566  0.00  0.00     0.040 H 
ATOM     20  H15 SHY d   1      18.177 -11.607  16.604  0.00  0.00     0.040 H 
ATOM     21  H16 SHY d   1      17.663 -13.280  18.227  0.00  0.00     0.086 H 
ATOM     22  H17 SHY d   1      18.980 -10.880  19.163  0.00  0.00     0.059 H 
ATOM     23  H18 SHY d   1      17.703 -10.360  21.245  0.00  0.00     0.059 H 
ENDROOT
BRANCH   1  24
ATOM     24  C7  SHY d   1      14.808 -11.152  20.947  0.00  0.00    -0.027 A 
ATOM     25  C8  SHY d   1      14.452  -9.945  21.594  0.00  0.00    -0.074 A 
ATOM     26  C9  SHY d   1      13.369  -9.897  22.475  0.00  0.00    -0.069 A 
ATOM     27  H6  SHY d   1      15.027  -9.046  21.404  0.00  0.00     0.084 H 
ATOM     28  C4  SHY d   1      12.628 -11.042  22.728  0.00  0.00     0.007 A 
ATOM     29  H5  SHY d   1      13.107  -8.964  22.961  0.00  0.00     0.085 H 
ATOM     30  C5  SHY d   1      12.952 -12.238  22.050  0.00  0.00    -0.069 A 
ATOM     31  C6  SHY d   1      14.021 -12.279  21.182  0.00  0.00    -0.074 A 
ATOM     32  H8  SHY d   1      12.356 -13.129  22.214  0.00  0.00     0.085 H 
ATOM     33  H7  SHY d   1      14.255 -13.206  20.671  0.00  0.00     0.084 H 
BRANCH  28  34
ATOM     34  C3  SHY d   1      11.531 -10.991  23.661  0.00  0.00     0.102 C 
ATOM     35  N1  SHY d   1      11.273  -9.891  24.423  0.00  0.00    -0.385 N 
ATOM     36  H1  SHY d   1      11.836  -9.037  24.302  0.00  0.00     0.157 HD
ATOM     37  H2  SHY d   1      10.515  -9.914  25.120  0.00  0.00     0.157 HD
BRANCH  34  38
ATOM     38  N2  SHY d   1      10.738 -12.087  23.882  0.00  0.00    -0.385 N 
ATOM     39  H3  SHY d   1      10.886 -12.948  23.336  0.00  0.00     0.157 HD
ATOM     40  H4  SHY d   1       9.995 -12.050  24.594  0.00  0.00     0.157 HD
ENDBRANCH  34  38
ENDBRANCH  28  34
ENDBRANCH   1  24
BRANCH   4  41
ATOM     41  O20 SHY d   1      16.157 -12.951  15.945  0.00  0.00    -0.394 OA
ATOM     42  H25 SHY d   1      15.334 -13.195  15.539  0.00  0.00     0.210 HD
ENDBRANCH   4  41
BRANCH   9  43
ATOM     43  C23 SHY d   1      18.993 -14.432  22.140  0.00  0.00     0.029 C 
ATOM     44  H19 SHY d   1      19.350 -15.221  21.461  0.00  0.00     0.072 H 
ATOM     45  H20 SHY d   1      18.111 -14.792  22.689  0.00  0.00     0.072 H 
BRANCH  43  46
ATOM     46  C24 SHY d   1      20.069 -14.149  23.127  0.00  0.00    -0.037 A 
ATOM     47  C32 SHY d   1      19.681 -13.853  24.426  0.00  0.00    -0.072 A 
ATOM     48  C31 SHY d   1      20.578 -13.515  25.419  0.00  0.00    -0.047 A 
ATOM     49  H21 SHY d   1      18.626 -13.889  24.672  0.00  0.00     0.084 H 
ATOM     50  C30 SHY d   1      21.921 -13.469  25.029  0.00  0.00     0.105 A 
ATOM     51  H22 SHY d   1      20.263 -13.300  26.434  0.00  0.00     0.087 H 
ATOM     52  O29 SHY d   1      22.969 -13.185  25.814  0.00  0.00    -0.323 OA
ATOM     53  C26 SHY d   1      22.327 -13.749  23.740  0.00  0.00     0.105 A 
ATOM     54  C28 SHY d   1      24.132 -13.292  24.951  0.00  0.00     0.115 A 
ATOM     55  O27 SHY d   1      23.686 -13.738  23.627  0.00  0.00    -0.323 OA
ATOM     56  H23 SHY d   1      24.840 -14.022  25.370  0.00  0.00     0.118 H 
ATOM     57  H24 SHY d   1      24.624 -12.312  24.867  0.00  0.00     0.118 H 
ATOM     58  C25 SHY d   1      21.417 -14.101  22.756  0.00  0.00    -0.040 A 
ATOM     59  H26 SHY d   1      21.735 -14.329  21.745  0.00  0.00     0.088 H 
ENDBRANCH  43  46
ENDBRANCH   9  43
TORSDOF 6
