REMARK  16 active torsions:
REMARK  status: ('A' for Active; 'I' for Inactive)
REMARK    1  A    between atoms: N4_1  and  C18_3 
REMARK    2  A    between atoms: C18_3  and  C14_4 
REMARK    3  A    between atoms: C17_7  and  C11_10 
REMARK    4  A    between atoms: C11_10  and  N3_11 
REMARK       I    between atoms: N3_11  and  C10_12 
REMARK    5  A    between atoms: C10_12  and  C8_14 
REMARK    6  A    between atoms: C8_14  and  N2_15 
REMARK    7  A    between atoms: C8_14  and  C9_29 
REMARK       I    between atoms: N2_15  and  C7_16 
REMARK    8  A    between atoms: C7_16  and  C5_18 
REMARK    9  A    between atoms: C5_18  and  C6_19 
REMARK   10  A    between atoms: C5_18  and  N1_21 
REMARK   11  A    between atoms: C6_19  and  O3_20 
REMARK   12  A    between atoms: N1_21  and  S1_22 
REMARK   13  A    between atoms: S1_22  and  C1_25 
REMARK   14  A    between atoms: C1_25  and  C4_26 
REMARK   15  A    between atoms: C4_26  and  C3_27 
REMARK   16  A    between atoms: C3_27  and  C2_28 
ROOT
ATOM      1  C8  SI1 d   1      29.205  10.370  31.381  0.00  0.00     0.086 C 
ATOM      2  H12 SI1 d   1      29.359   9.671  32.216  0.00  0.00     0.086 H 
ENDROOT
BRANCH   1   3
ATOM      3  C10 SI1 d   1      29.071   9.611  30.133  0.00  0.00     0.240 C 
ATOM      4  N3  SI1 d   1      28.781   8.335  30.159  0.00  0.00    -0.355 N 
ATOM      5  H11 SI1 d   1      28.694   7.885  31.048  0.00  0.00     0.162 HD
ATOM      6  O5  SI1 d   1      29.239  10.205  29.059  0.00  0.00    -0.271 OA
BRANCH   4   7
ATOM      7  C11 SI1 d   1      28.585   7.563  28.993  0.00  0.00     0.019 C 
ATOM      8  H9  SI1 d   1      27.713   6.910  29.142  0.00  0.00     0.071 H 
ATOM      9  H10 SI1 d   1      28.397   8.239  28.146  0.00  0.00     0.071 H 
BRANCH   7  10
ATOM     10  C17 SI1 d   1      29.768   6.721  28.681  0.00  0.00    -0.040 A 
ATOM     11  C12 SI1 d   1      30.972   7.302  28.242  0.00  0.00    -0.074 A 
ATOM     12  C13 SI1 d   1      32.074   6.499  27.889  0.00  0.00    -0.069 A 
ATOM     13  H6  SI1 d   1      31.052   8.381  28.175  0.00  0.00     0.084 H 
ATOM     14  C14 SI1 d   1      32.049   5.094  28.062  0.00  0.00     0.007 A 
ATOM     15  H5  SI1 d   1      32.960   6.967  27.476  0.00  0.00     0.085 H 
ATOM     16  C15 SI1 d   1      30.844   4.527  28.526  0.00  0.00    -0.069 A 
ATOM     17  C16 SI1 d   1      29.717   5.321  28.817  0.00  0.00    -0.074 A 
ATOM     18  H8  SI1 d   1      30.783   3.453  28.662  0.00  0.00     0.085 H 
ATOM     19  H7  SI1 d   1      28.800   4.848  29.149  0.00  0.00     0.084 H 
BRANCH  14  20
ATOM     20  C18 SI1 d   1      33.187   4.298  27.784  0.00  0.00     0.102 C 
ATOM     21  N5  SI1 d   1      33.177   2.953  27.899  0.00  0.00    -0.385 N 
ATOM     22  H3  SI1 d   1      32.318   2.468  28.193  0.00  0.00     0.157 HD
ATOM     23  H4  SI1 d   1      34.029   2.412  27.692  0.00  0.00     0.157 HD
BRANCH  20  24
ATOM     24  N4  SI1 d   1      34.395   4.770  27.388  0.00  0.00    -0.385 N 
ATOM     25  H1  SI1 d   1      34.536   5.782  27.262  0.00  0.00     0.157 HD
ATOM     26  H2  SI1 d   1      35.171   4.116  27.213  0.00  0.00     0.157 HD
ENDBRANCH  20  24
ENDBRANCH  14  20
ENDBRANCH   7  10
ENDBRANCH   4   7
ENDBRANCH   1   3
BRANCH   1  27
ATOM     27  N2  SI1 d   1      30.302  11.263  31.304  0.00  0.00    -0.346 N 
ATOM     28  C7  SI1 d   1      31.570  10.928  31.176  0.00  0.00     0.243 C 
ATOM     29  O4  SI1 d   1      31.875   9.734  31.079  0.00  0.00    -0.271 OA
ATOM     30  H13 SI1 d   1      30.095  12.240  31.351  0.00  0.00     0.163 HD
BRANCH  28  31
ATOM     31  C5  SI1 d   1      32.666  11.906  31.134  0.00  0.00     0.116 C 
ATOM     32  H14 SI1 d   1      32.227  12.861  30.811  0.00  0.00     0.091 H 
BRANCH  31  33
ATOM     33  C6  SI1 d   1      33.401  12.104  32.490  0.00  0.00     0.044 C 
ATOM     34  H15 SI1 d   1      33.946  13.059  32.462  0.00  0.00     0.077 H 
ATOM     35  H16 SI1 d   1      34.114  11.279  32.631  0.00  0.00     0.077 H 
BRANCH  33  36
ATOM     36  O3  SI1 d   1      32.493  12.123  33.595  0.00  0.00    -0.398 OA
ATOM     37  H17 SI1 d   1      32.980  12.245  34.401  0.00  0.00     0.209 HD
ENDBRANCH  33  36
ENDBRANCH  31  33
BRANCH  31  38
ATOM     38  N1  SI1 d   1      33.798  11.560  30.238  0.00  0.00    -0.304 N 
ATOM     39  H18 SI1 d   1      34.561  11.001  30.562  0.00  0.00     0.173 HD
BRANCH  38  40
ATOM     40  S1  SI1 d   1      33.756  12.140  28.658  0.00  0.00     0.227 S 
ATOM     41  O2  SI1 d   1      33.365  13.638  28.602  0.00  0.00    -0.206 OA
ATOM     42  O1  SI1 d   1      35.184  11.850  28.111  0.00  0.00    -0.206 OA
BRANCH  40  43
ATOM     43  C1  SI1 d   1      32.615  11.143  27.770  0.00  0.00     0.046 C 
ATOM     44  H19 SI1 d   1      31.624  11.293  28.223  0.00  0.00     0.058 H 
ATOM     45  H20 SI1 d   1      32.922  10.095  27.900  0.00  0.00     0.058 H 
BRANCH  43  46
ATOM     46  C4  SI1 d   1      32.475  11.400  26.251  0.00  0.00    -0.052 C 
ATOM     47  H21 SI1 d   1      33.453  11.268  25.764  0.00  0.00     0.034 H 
ATOM     48  H22 SI1 d   1      32.118  12.427  26.083  0.00  0.00     0.034 H 
BRANCH  46  49
ATOM     49  C3  SI1 d   1      31.457  10.393  25.652  0.00  0.00    -0.068 C 
ATOM     50  H23 SI1 d   1      30.472  10.552  26.115  0.00  0.00     0.032 H 
ATOM     51  H24 SI1 d   1      31.797   9.367  25.856  0.00  0.00     0.032 H 
BRANCH  49  52
ATOM     52  C2  SI1 d   1      31.343  10.600  24.121  0.00  0.00    -0.076 C 
ATOM     53  H25 SI1 d   1      30.620   9.882  23.707  0.00  0.00     0.027 H 
ATOM     54  H26 SI1 d   1      32.327  10.440  23.655  0.00  0.00     0.027 H 
ATOM     55  H27 SI1 d   1      31.002  11.625  23.914  0.00  0.00     0.027 H 
ENDBRANCH  49  52
ENDBRANCH  46  49
ENDBRANCH  43  46
ENDBRANCH  40  43
ENDBRANCH  38  40
ENDBRANCH  31  38
ENDBRANCH  28  31
ENDBRANCH   1  27
BRANCH   1  56
ATOM     56  C9  SI1 d   1      27.916  11.198  31.624  0.00  0.00    -0.049 C 
ATOM     57  H28 SI1 d   1      27.052  10.521  31.687  0.00  0.00     0.030 H 
ATOM     58  H29 SI1 d   1      27.770  11.902  30.792  0.00  0.00     0.030 H 
ATOM     59  H30 SI1 d   1      28.012  11.758  32.566  0.00  0.00     0.030 H 
ENDBRANCH   1  56
TORSDOF 16
