REMARK  14 active torsions:
REMARK  status: ('A' for Active; 'I' for Inactive)
REMARK    1  A    between atoms: C11_11  and  N3_1 
REMARK       I    between atoms: N3_1  and  C10_12 
REMARK    2  A    between atoms: C18_3  and  N5_2 
REMARK    3  A    between atoms: C14_5  and  C18_3 
REMARK    4  A    between atoms: C17_8  and  C11_11 
REMARK    5  A    between atoms: C10_12  and  C8_14 
REMARK    6  A    between atoms: C8_14  and  N2_15 
REMARK    7  A    between atoms: C8_14  and  C22_32 
REMARK       I    between atoms: N2_15  and  C7_16 
REMARK    8  A    between atoms: C7_16  and  C5_18 
REMARK    9  A    between atoms: C5_18  and  C6_19 
REMARK   10  A    between atoms: C5_18  and  N1_21 
REMARK   11  A    between atoms: C6_19  and  O3_20 
REMARK   12  A    between atoms: N1_21  and  S1_22 
REMARK   13  A    between atoms: S1_22  and  C1_25 
REMARK   14  A    between atoms: C1_25  and  C4_26 
ROOT
ATOM      1  C8  SK1 d   1      28.936  10.155  30.941  0.00  0.00     0.086 C 
ATOM      2  H12 SK1 d   1      29.222   9.381  31.669  0.00  0.00     0.086 H 
ENDROOT
BRANCH   1   3
ATOM      3  C10 SK1 d   1      28.802   9.482  29.600  0.00  0.00     0.240 C 
ATOM      4  N3  SK1 d   1      28.462   8.149  29.675  0.00  0.00    -0.355 N 
ATOM      5  H1  SK1 d   1      28.270   7.739  30.567  0.00  0.00     0.162 HD
ATOM      6  O5  SK1 d   1      29.000  10.097  28.581  0.00  0.00    -0.271 OA
BRANCH   4   7
ATOM      7  C11 SK1 d   1      28.380   7.343  28.495  0.00  0.00     0.019 C 
ATOM      8  H10 SK1 d   1      28.167   7.994  27.634  0.00  0.00     0.071 H 
ATOM      9  H11 SK1 d   1      27.563   6.617  28.617  0.00  0.00     0.071 H 
BRANCH   7  10
ATOM     10  C17 SK1 d   1      29.666   6.593  28.234  0.00  0.00    -0.040 C 
ATOM     11  C12 SK1 d   1      30.748   7.168  27.535  0.00  0.00    -0.074 C 
ATOM     12  C13 SK1 d   1      31.947   6.471  27.300  0.00  0.00    -0.069 C 
ATOM     13  H7  SK1 d   1      30.652   8.183  27.166  0.00  0.00     0.084 H 
ATOM     14  C14 SK1 d   1      32.025   5.116  27.668  0.00  0.00     0.007 C 
ATOM     15  H6  SK1 d   1      32.795   6.969  26.844  0.00  0.00     0.085 H 
ATOM     16  C15 SK1 d   1      30.962   4.550  28.402  0.00  0.00    -0.069 C 
ATOM     17  C16 SK1 d   1      29.808   5.280  28.694  0.00  0.00    -0.074 C 
ATOM     18  H9  SK1 d   1      31.043   3.526  28.747  0.00  0.00     0.085 H 
ATOM     19  H8  SK1 d   1      29.017   4.826  29.281  0.00  0.00     0.084 H 
BRANCH  14  20
ATOM     20  C18 SK1 d   1      33.113   4.297  27.325  0.00  0.00     0.102 C 
ATOM     21  N4  SK1 d   1      33.043   2.972  27.518  0.00  0.00    -0.385 N 
ATOM     22  H4  SK1 d   1      32.192   2.555  27.922  0.00  0.00     0.157 HD
ATOM     23  H5  SK1 d   1      33.840   2.372  27.262  0.00  0.00     0.157 HD
BRANCH  20  24
ATOM     24  N5  SK1 d   1      34.276   4.721  26.791  0.00  0.00    -0.385 N 
ATOM     25  H2  SK1 d   1      34.423   5.724  26.606  0.00  0.00     0.157 HD
ATOM     26  H3  SK1 d   1      35.018   4.042  26.568  0.00  0.00     0.157 HD
ENDBRANCH  20  24
ENDBRANCH  14  20
ENDBRANCH   7  10
ENDBRANCH   4   7
ENDBRANCH   1   3
BRANCH   1  27
ATOM     27  N2  SK1 d   1      29.927  11.178  30.975  0.00  0.00    -0.346 N 
ATOM     28  C7  SK1 d   1      31.239  10.804  30.781  0.00  0.00     0.243 C 
ATOM     29  O4  SK1 d   1      31.551   9.639  30.630  0.00  0.00    -0.271 OA
ATOM     30  H13 SK1 d   1      29.679  12.134  31.134  0.00  0.00     0.163 HD
BRANCH  28  31
ATOM     31  C5  SK1 d   1      32.279  11.906  30.737  0.00  0.00     0.116 C 
ATOM     32  H14 SK1 d   1      31.764  12.843  30.479  0.00  0.00     0.091 H 
BRANCH  31  33
ATOM     33  C6  SK1 d   1      33.028  12.085  32.066  0.00  0.00     0.044 C 
ATOM     34  H15 SK1 d   1      33.536  13.061  32.083  0.00  0.00     0.077 H 
ATOM     35  H16 SK1 d   1      33.770  11.283  32.190  0.00  0.00     0.077 H 
BRANCH  33  36
ATOM     36  O3  SK1 d   1      32.073  12.021  33.098  0.00  0.00    -0.398 OA
ATOM     37  H17 SK1 d   1      32.507  12.129  33.936  0.00  0.00     0.209 HD
ENDBRANCH  33  36
ENDBRANCH  31  33
BRANCH  31  38
ATOM     38  N1  SK1 d   1      33.306  11.651  29.785  0.00  0.00    -0.303 N 
ATOM     39  H18 SK1 d   1      34.188  11.358  30.153  0.00  0.00     0.173 HD
BRANCH  38  40
ATOM     40  S1  SK1 d   1      33.207  11.783  28.152  0.00  0.00     0.231 S 
ATOM     41  O1  SK1 d   1      34.583  11.501  27.712  0.00  0.00    -0.206 OA
ATOM     42  O2  SK1 d   1      32.760  13.135  27.921  0.00  0.00    -0.206 OA
BRANCH  40  43
ATOM     43  C1  SK1 d   1      31.921  10.655  27.594  0.00  0.00     0.070 C 
ATOM     44  H19 SK1 d   1      30.956  10.891  28.066  0.00  0.00     0.066 H 
ATOM     45  H20 SK1 d   1      32.190   9.611  27.811  0.00  0.00     0.066 H 
BRANCH  43  46
ATOM     46  C4  SK1 d   1      31.874  10.907  26.103  0.00  0.00    -0.043 C 
ATOM     47  C19 SK1 d   1      32.573  10.088  25.210  0.00  0.00    -0.076 C 
ATOM     48  C20 SK1 d   1      32.679  10.511  23.883  0.00  0.00    -0.082 C 
ATOM     49  H21 SK1 d   1      33.018   9.155  25.537  0.00  0.00     0.084 H 
ATOM     50  C21 SK1 d   1      32.101  11.715  23.459  0.00  0.00    -0.083 C 
ATOM     51  H22 SK1 d   1      33.217   9.898  23.169  0.00  0.00     0.083 H 
ATOM     52  C2  SK1 d   1      31.326  12.483  24.341  0.00  0.00    -0.082 C 
ATOM     53  H23 SK1 d   1      32.254  12.056  22.441  0.00  0.00     0.083 H 
ATOM     54  C3  SK1 d   1      31.130  12.010  25.647  0.00  0.00    -0.076 C 
ATOM     55  H24 SK1 d   1      30.888  13.421  24.020  0.00  0.00     0.083 H 
ATOM     56  H25 SK1 d   1      30.411  12.491  26.300  0.00  0.00     0.084 H 
ENDBRANCH  43  46
ENDBRANCH  40  43
ENDBRANCH  38  40
ENDBRANCH  31  38
ENDBRANCH  28  31
ENDBRANCH   1  27
BRANCH   1  57
ATOM     57  C22 SK1 d   1      27.606  10.772  31.385  0.00  0.00    -0.049 C 
ATOM     58  H26 SK1 d   1      26.821  10.002  31.368  0.00  0.00     0.030 H 
ATOM     59  H27 SK1 d   1      27.334  11.588  30.700  0.00  0.00     0.030 H 
ATOM     60  H28 SK1 d   1      27.709  11.169  32.406  0.00  0.00     0.030 H 
ENDBRANCH   1  57
TORSDOF 14
