REMARK  13 active torsions:
REMARK  status: ('A' for Active; 'I' for Inactive)
REMARK       I    between atoms: N6_1  and  C18_2 
REMARK       I    between atoms: C18_2  and  N5_3 
REMARK    1  A    between atoms: N4_4  and  C14_5 
REMARK    2  A    between atoms: C17_8  and  C11_11 
REMARK    3  A    between atoms: C11_11  and  N3_12 
REMARK       I    between atoms: N3_12  and  C10_13 
REMARK    4  A    between atoms: C10_13  and  C8_15 
REMARK    5  A    between atoms: C8_15  and  C22_16 
REMARK    6  A    between atoms: C8_15  and  N2_17 
REMARK       I    between atoms: N2_17  and  C7_18 
REMARK    7  A    between atoms: C7_18  and  C5_19 
REMARK    8  A    between atoms: C5_19  and  C6_20 
REMARK    9  A    between atoms: C5_19  and  N1_22 
REMARK   10  A    between atoms: C6_20  and  O3_21 
REMARK   11  A    between atoms: N1_22  and  S1_25 
REMARK   12  A    between atoms: S1_25  and  C1_27 
REMARK   13  A    between atoms: C1_27  and  C4_28 
ROOT
ATOM      1  C8  SM1 d   1      28.659  10.316  31.394  0.00  0.00     0.086 C 
ATOM      2  H13 SM1 d   1      28.826   9.648  32.252  0.00  0.00     0.086 H 
ENDROOT
BRANCH   1   3
ATOM      3  C10 SM1 d   1      28.445   9.501  30.197  0.00  0.00     0.240 C 
ATOM      4  N3  SM1 d   1      28.166   8.219  30.315  0.00  0.00    -0.355 N 
ATOM      5  H12 SM1 d   1      28.040   7.849  31.235  0.00  0.00     0.162 HD
ATOM      6  O5  SM1 d   1      28.546  10.070  29.100  0.00  0.00    -0.271 OA
BRANCH   4   7
ATOM      7  C11 SM1 d   1      28.034   7.336  29.224  0.00  0.00     0.019 C 
ATOM      8  H10 SM1 d   1      27.438   6.467  29.541  0.00  0.00     0.071 H 
ATOM      9  H11 SM1 d   1      27.515   7.858  28.407  0.00  0.00     0.071 H 
BRANCH   7  10
ATOM     10  C17 SM1 d   1      29.346   6.860  28.729  0.00  0.00    -0.040 C 
ATOM     11  C12 SM1 d   1      30.005   7.492  27.657  0.00  0.00    -0.073 C 
ATOM     12  C13 SM1 d   1      31.287   7.054  27.266  0.00  0.00    -0.056 C 
ATOM     13  H7  SM1 d   1      29.528   8.313  27.134  0.00  0.00     0.084 H 
ATOM     14  C14 SM1 d   1      31.915   6.004  27.961  0.00  0.00     0.049 C 
ATOM     15  H6  SM1 d   1      31.789   7.527  26.430  0.00  0.00     0.086 H 
ATOM     16  C15 SM1 d   1      31.204   5.277  28.945  0.00  0.00    -0.056 C 
ATOM     17  C16 SM1 d   1      29.945   5.741  29.351  0.00  0.00    -0.073 C 
ATOM     18  H9  SM1 d   1      31.626   4.377  29.377  0.00  0.00     0.086 H 
ATOM     19  H8  SM1 d   1      29.423   5.234  30.154  0.00  0.00     0.084 H 
BRANCH  14  20
ATOM     20  N4  SM1 d   1      33.214   5.736  27.650  0.00  0.00    -0.193 N 
ATOM     21  C18 SM1 d   1      33.874   4.562  27.521  0.00  0.00     0.669 C 
ATOM     22  N6  SM1 d   1      35.215   4.523  27.334  0.00  0.00    -0.235 N 
ATOM     23  N5  SM1 d   1      33.228   3.391  27.579  0.00  0.00    -0.235 N 
ATOM     24  H1  SM1 d   1      35.696   3.617  27.238  0.00  0.00     0.174 HD
ATOM     25  H2  SM1 d   1      35.754   5.399  27.287  0.00  0.00     0.174 HD
ATOM     26  H3  SM1 d   1      32.208   3.372  27.720  0.00  0.00     0.174 HD
ATOM     27  H4  SM1 d   1      33.751   2.509  27.483  0.00  0.00     0.174 HD
ATOM     28  H5  SM1 d   1      33.794   6.571  27.485  0.00  0.00     0.184 HD
ENDBRANCH  14  20
ENDBRANCH   7  10
ENDBRANCH   4   7
ENDBRANCH   1   3
BRANCH   1  29
ATOM     29  C22 SM1 d   1      27.434  11.224  31.664  0.00  0.00    -0.049 C 
ATOM     30  H14 SM1 d   1      27.616  11.826  32.566  0.00  0.00     0.030 H 
ATOM     31  H15 SM1 d   1      26.541  10.600  31.814  0.00  0.00     0.030 H 
ATOM     32  H16 SM1 d   1      27.275  11.891  30.804  0.00  0.00     0.030 H 
ENDBRANCH   1  29
BRANCH   1  33
ATOM     33  N2  SM1 d   1      29.759  11.182  31.247  0.00  0.00    -0.346 N 
ATOM     34  C7  SM1 d   1      31.008  10.890  30.989  0.00  0.00     0.243 C 
ATOM     35  O4  SM1 d   1      31.352   9.715  30.848  0.00  0.00    -0.271 OA
ATOM     36  H17 SM1 d   1      29.558  12.156  31.355  0.00  0.00     0.163 HD
BRANCH  34  37
ATOM     37  C5  SM1 d   1      32.008  11.949  30.856  0.00  0.00     0.116 C 
ATOM     38  H18 SM1 d   1      31.495  12.851  30.491  0.00  0.00     0.091 H 
BRANCH  37  39
ATOM     39  C6  SM1 d   1      32.722  12.272  32.199  0.00  0.00     0.044 C 
ATOM     40  H19 SM1 d   1      33.390  13.135  32.058  0.00  0.00     0.077 H 
ATOM     41  H20 SM1 d   1      33.312  11.400  32.517  0.00  0.00     0.077 H 
BRANCH  39  42
ATOM     42  O3  SM1 d   1      31.750  12.583  33.210  0.00  0.00    -0.398 OA
ATOM     43  H21 SM1 d   1      31.174  11.838  33.333  0.00  0.00     0.209 HD
ENDBRANCH  39  42
ENDBRANCH  37  39
BRANCH  37  44
ATOM     44  N1  SM1 d   1      33.103  11.594  29.916  0.00  0.00    -0.303 N 
ATOM     45  H22 SM1 d   1      33.948  11.168  30.240  0.00  0.00     0.173 HD
BRANCH  44  46
ATOM     46  S1  SM1 d   1      32.866  11.936  28.283  0.00  0.00     0.231 S 
ATOM     47  O2  SM1 d   1      32.388  13.391  28.076  0.00  0.00    -0.206 OA
ATOM     48  O1  SM1 d   1      34.243  11.655  27.612  0.00  0.00    -0.206 OA
BRANCH  46  49
ATOM     49  C1  SM1 d   1      31.648  10.876  27.604  0.00  0.00     0.070 C 
ATOM     50  H23 SM1 d   1      30.690  11.067  28.110  0.00  0.00     0.066 H 
ATOM     51  H24 SM1 d   1      31.951   9.833  27.775  0.00  0.00     0.066 H 
BRANCH  49  52
ATOM     52  C4  SM1 d   1      31.470  11.088  26.149  0.00  0.00    -0.043 A 
ATOM     53  C19 SM1 d   1      32.210  10.316  25.216  0.00  0.00    -0.076 A 
ATOM     54  C20 SM1 d   1      32.093  10.536  23.826  0.00  0.00    -0.082 A 
ATOM     55  H25 SM1 d   1      32.878   9.543  25.577  0.00  0.00     0.084 H 
ATOM     56  C21 SM1 d   1      31.190  11.514  23.359  0.00  0.00    -0.083 A 
ATOM     57  H26 SM1 d   1      32.689   9.961  23.127  0.00  0.00     0.083 H 
ATOM     58  C2  SM1 d   1      30.404  12.247  24.278  0.00  0.00    -0.082 A 
ATOM     59  H27 SM1 d   1      31.099  11.704  22.296  0.00  0.00     0.083 H 
ATOM     60  C3  SM1 d   1      30.565  12.062  25.673  0.00  0.00    -0.076 A 
ATOM     61  H28 SM1 d   1      29.672  12.957  23.912  0.00  0.00     0.083 H 
ATOM     62  H29 SM1 d   1      29.996  12.665  26.372  0.00  0.00     0.084 H 
ENDBRANCH  49  52
ENDBRANCH  46  49
ENDBRANCH  44  46
ENDBRANCH  37  44
ENDBRANCH  34  37
ENDBRANCH   1  33
TORSDOF 13
