REMARK  4 active torsions:
REMARK  status: ('A' for Active; 'I' for Inactive)
REMARK    1  A    between atoms: C6_1  and  C5_2 
REMARK    2  A    between atoms: C6_1  and  O6_6 
REMARK    3  A    between atoms: C4_3  and  O4_8 
REMARK    4  A    between atoms: C3_4  and  O3_9 
ROOT
ATOM      1  C5  OXZ d   1      -2.127  10.734   8.977  0.00  0.00     0.119 C 
ATOM      2  C4  OXZ d   1      -0.983  10.733   7.936  0.00  0.00     0.091 C 
ATOM      3  C3  OXZ d   1      -0.071  11.946   8.228  0.00  0.00     0.088 C 
ATOM      4  C2  OXZ d   1       0.525  11.838   9.639  0.00  0.00     0.135 C 
ATOM      5  O5  OXZ d   1      -1.525  10.535  10.250  0.00  0.00    -0.195 OA
ATOM      6  N1  OXZ d   1      -0.522  11.591  10.640  0.00  0.00     0.042 N 
ATOM      7  H3  OXZ d   1      -2.654  11.699   8.947  0.00  0.00     0.094 H 
ATOM      8  H4  OXZ d   1      -0.399   9.809   8.061  0.00  0.00     0.091 H 
ATOM      9  H5  OXZ d   1      -0.706  12.843   8.193  0.00  0.00     0.089 H 
ATOM     10  H6  OXZ d   1       1.041  12.778   9.884  0.00  0.00     0.084 H 
ATOM     11  H7  OXZ d   1       1.246  11.008   9.662  0.00  0.00     0.084 H 
ATOM     12  H11 OXZ d   1      -1.018  12.454  10.796  0.00  0.00     0.315 HD
ATOM     13  H12 OXZ d   1      -0.076  11.301  11.496  0.00  0.00     0.315 HD
ENDROOT
BRANCH   1  14
ATOM     14  C6  OXZ d   1      -3.129   9.598   8.735  0.00  0.00     0.045 C 
ATOM     15  H1  OXZ d   1      -3.508   9.669   7.705  0.00  0.00     0.078 H 
ATOM     16  H2  OXZ d   1      -3.966   9.703   9.441  0.00  0.00     0.078 H 
BRANCH  14  17
ATOM     17  O6  OXZ d   1      -2.525   8.317   8.919  0.00  0.00    -0.398 OA
ATOM     18  H8  OXZ d   1      -1.804   8.217   8.308  0.00  0.00     0.209 HD
ENDBRANCH  14  17
ENDBRANCH   1  14
BRANCH   2  19
ATOM     19  O4  OXZ d   1      -1.455  10.773   6.603  0.00  0.00    -0.390 OA
ATOM     20  H9  OXZ d   1      -2.013  10.021   6.443  0.00  0.00     0.210 HD
ENDBRANCH   2  19
BRANCH   3  21
ATOM     21  O3  OXZ d   1       0.978  12.135   7.291  0.00  0.00    -0.391 OA
ATOM     22  H10 OXZ d   1       0.612  12.202   6.417  0.00  0.00     0.210 HD
ENDBRANCH   3  21
TORSDOF 4
