REMARK  5 active torsions:
REMARK  status: ('A' for Active; 'I' for Inactive)
REMARK    1  A    between atoms: N1_1  and  C1_9 
REMARK    2  A    between atoms: C3_11  and  O3_13 
REMARK    3  A    between atoms: C4_12  and  C5_15 
REMARK    4  A    between atoms: O3_13  and  P_17 
REMARK    5  A    between atoms: C5_15  and  O5_16 
ROOT
ATOM      1  C1  UM3 d   1      37.504  -1.135  12.252  0.00  0.00     0.116 C 
ATOM      2  C2  UM3 d   1      37.306  -0.184  13.554  0.00  0.00     0.003 C 
ATOM      3  C3  UM3 d   1      38.358   0.985  13.162  0.00  0.00     0.082 C 
ATOM      4  C4  UM3 d   1      39.567   0.222  12.602  0.00  0.00     0.087 C 
ATOM      5  O4  UM3 d   1      38.861  -0.736  11.813  0.00  0.00    -0.356 OA
ATOM      6  H4  UM3 d   1      36.969  -0.563  11.480  0.00  0.00     0.118 H 
ATOM      7  H5  UM3 d   1      37.584  -0.696  14.487  0.00  0.00     0.043 H 
ATOM      8  H6  UM3 d   1      36.277   0.196  13.637  0.00  0.00     0.043 H 
ATOM      9  H7  UM3 d   1      38.673   1.411  14.126  0.00  0.00     0.088 H 
ATOM     10  H8  UM3 d   1      40.052   0.865  11.853  0.00  0.00     0.090 H 
ENDROOT
BRANCH   1  11
ATOM     11  N1  UM3 d   1      36.580  -2.238  12.200  0.00  0.00    -0.282 N 
ATOM     12  C2  UM3 d   1      35.391  -2.358  11.436  0.00  0.00     0.331 A 
ATOM     13  N3  UM3 d   1      34.751  -3.584  11.586  0.00  0.00    -0.275 N 
ATOM     14  O2  UM3 d   1      34.944  -1.477  10.698  0.00  0.00    -0.246 OA
ATOM     15  C4  UM3 d   1      35.159  -4.669  12.396  0.00  0.00     0.250 A 
ATOM     16  H1  UM3 d   1      33.908  -3.712  11.063  0.00  0.00     0.173 HD
ATOM     17  C5  UM3 d   1      36.373  -4.458  13.137  0.00  0.00    -0.002 A 
ATOM     18  O4  UM3 d   1      34.487  -5.690  12.421  0.00  0.00    -0.268 OA
ATOM     19  C6  UM3 d   1      37.028  -3.278  13.018  0.00  0.00    -0.008 A 
ATOM     20  H2  UM3 d   1      36.762  -5.239  13.788  0.00  0.00     0.094 H 
ATOM     21  H3  UM3 d   1      37.946  -3.134  13.586  0.00  0.00     0.112 H 
ENDBRANCH   1  11
BRANCH   3  22
ATOM     22  O3  UM3 d   1      38.060   1.950  12.530  0.00  0.00    -0.275 OA
BRANCH  22  23
ATOM     23  P   UM3 d   1      37.477   3.104  13.364  0.00  0.00     0.422 P 
ATOM     24  O1P UM3 d   1      37.439   4.568  12.865  0.00  0.00    -0.617 OA
ATOM     25  O2P UM3 d   1      35.913   3.108  13.510  0.00  0.00    -0.617 OA
ATOM     26  O3P UM3 d   1      37.714   3.781  15.050  0.00  0.00    -0.617 OA
ENDBRANCH  22  23
ENDBRANCH   3  22
BRANCH   4  27
ATOM     27  C5  UM3 d   1      40.679   0.075  13.626  0.00  0.00     0.043 C 
ATOM     28  H9  UM3 d   1      40.724   0.920  14.329  0.00  0.00     0.078 H 
ATOM     29  H10 UM3 d   1      41.666  -0.071  13.164  0.00  0.00     0.078 H 
BRANCH  27  30
ATOM     30  O5  UM3 d   1      40.143  -1.176  14.256  0.00  0.00    -0.398 OA
ATOM     31  H11 UM3 d   1      40.091  -1.862  13.601  0.00  0.00     0.209 HD
ENDBRANCH  27  30
ENDBRANCH   4  27
TORSDOF 5
