REMARK  5 active torsions:
REMARK  status: ('A' for Active; 'I' for Inactive)
REMARK    1  A    between atoms: C1_17  and  N1_1 
REMARK    2  A    between atoms: C5_10  and  O5_9 
REMARK    3  A    between atoms: C4_11  and  C5_10 
REMARK    4  A    between atoms: C3_13  and  O3_14 
REMARK    5  A    between atoms: O3_14  and  P_19 
ROOT
ATOM      1  C4  UMF d   1      38.775   0.120  13.308  0.00  0.00     0.089 C 
ATOM      2  O4  UMF d   1      38.402  -1.142  12.960  0.00  0.00    -0.353 OA
ATOM      3  C3  UMF d   1      37.641   1.061  13.201  0.00  0.00     0.112 C 
ATOM      4  C2  UMF d   1      36.503   0.312  12.301  0.00  0.00     0.149 C 
ATOM      5  F2  UMF d   1      36.246   1.313  11.543  0.00  0.00    -0.242 F 
ATOM      6  C1  UMF d   1      37.174  -1.115  11.870  0.00  0.00     0.146 C 
ATOM      7  H7  UMF d   1      39.319   0.488  12.425  0.00  0.00     0.090 H 
ATOM      8  H8  UMF d   1      37.266   1.039  14.235  0.00  0.00     0.093 H 
ATOM      9  H9  UMF d   1      35.593   0.071  12.870  0.00  0.00     0.102 H 
ATOM     10  H10 UMF d   1      37.514  -1.121  10.824  0.00  0.00     0.123 H 
ENDROOT
BRANCH   6  11
ATOM     11  N1  UMF d   1      36.225  -2.366  12.158  0.00  0.00    -0.279 N 
ATOM     12  C2  UMF d   1      35.029  -2.555  11.421  0.00  0.00     0.331 A 
ATOM     13  O2  UMF d   1      34.700  -1.798  10.587  0.00  0.00    -0.246 OA
ATOM     14  N3  UMF d   1      34.327  -3.712  11.794  0.00  0.00    -0.275 N 
ATOM     15  C4  UMF d   1      34.675  -4.667  12.796  0.00  0.00     0.250 A 
ATOM     16  H1  UMF d   1      33.478  -3.889  11.296  0.00  0.00     0.173 HD
ATOM     17  O4  UMF d   1      33.925  -5.605  12.958  0.00  0.00    -0.268 OA
ATOM     18  C5  UMF d   1      35.924  -4.390  13.518  0.00  0.00    -0.002 A 
ATOM     19  C6  UMF d   1      36.645  -3.283  13.194  0.00  0.00    -0.008 A 
ATOM     20  H2  UMF d   1      36.268  -5.062  14.303  0.00  0.00     0.094 H 
ATOM     21  H3  UMF d   1      37.569  -3.081  13.733  0.00  0.00     0.112 H 
ENDBRANCH   6  11
BRANCH   1  22
ATOM     22  C5  UMF d   1      40.002  -0.165  14.210  0.00  0.00     0.043 C 
ATOM     23  H5  UMF d   1      40.593  -1.018  13.845  0.00  0.00     0.078 H 
ATOM     24  H6  UMF d   1      40.653   0.716  14.311  0.00  0.00     0.078 H 
BRANCH  22  25
ATOM     25  O5  UMF d   1      39.253  -0.499  15.546  0.00  0.00    -0.398 OA
ATOM     26  H4  UMF d   1      38.683  -1.247  15.410  0.00  0.00     0.209 HD
ENDBRANCH  22  25
ENDBRANCH   1  22
BRANCH   3  27
ATOM     27  O3  UMF d   1      37.542   2.532  12.911  0.00  0.00    -0.272 OA
BRANCH  27  28
ATOM     28  P   UMF d   1      37.016   3.503  13.630  0.00  0.00     0.422 P 
ATOM     29  O3P UMF d   1      35.468   3.125  13.520  0.00  0.00    -0.617 OA
ATOM     30  O1P UMF d   1      37.341   3.681  15.091  0.00  0.00    -0.617 OA
ATOM     31  O2P UMF d   1      37.471   4.666  12.834  0.00  0.00    -0.617 OA
ENDBRANCH  27  28
ENDBRANCH   3  27
TORSDOF 5
