REMARK  17 active torsions:
REMARK  status: ('A' for Active; 'I' for Inactive)
REMARK    1  A    between atoms: C23_23  and  C01_1 
REMARK    2  A    between atoms: C13_13  and  C07_7 
REMARK    3  A    between atoms: O14_14  and  C13_13 
REMARK    4  A    between atoms: C15_15  and  O14_14 
REMARK    5  A    between atoms: C16_16  and  C15_15 
REMARK    6  A    between atoms: C15_15  and  C26_26 
REMARK    7  A    between atoms: C17_17  and  C16_16 
REMARK    8  A    between atoms: C16_16  and  O25_25 
REMARK    9  A    between atoms: C18_18  and  C17_17 
REMARK   10  A    between atoms: C17_17  and  O24_24 
REMARK   11  A    between atoms: C18_18  and  C19_19 
REMARK   12  A    between atoms: O22_22  and  C18_18 
REMARK       I    between atoms: C19_19  and  N21_21 
REMARK   13  A    between atoms: N21_21  and  C39_39 
REMARK   14  A    between atoms: O22_22  and  C23_23 
REMARK       I    between atoms: C26_26  and  N28_28 
REMARK   15  A    between atoms: N28_28  and  C29_29 
REMARK   16  A    between atoms: C35_35  and  O36_36 
REMARK   17  A    between atoms: C45_45  and  O46_46 
ROOT
ATOM      1  C16 BE3 d   1      13.856  22.860   4.968  0.00  0.00     0.096 C 
ATOM      2  H12 BE3 d   1      12.966  22.258   5.206  0.00  0.00     0.091 H 
ENDROOT
BRANCH   1   3
ATOM      3  C15 BE3 d   1      14.923  22.579   6.004  0.00  0.00     0.142 C 
ATOM      4  H11 BE3 d   1      15.864  23.063   5.704  0.00  0.00     0.102 H 
BRANCH   3   5
ATOM      5  O14 BE3 d   1      14.597  23.095   7.400  0.00  0.00    -0.369 OA
BRANCH   5   6
ATOM      6  C13 BE3 d   1      15.702  23.324   8.322  0.00  0.00     0.044 C 
ATOM      7  H9  BE3 d   1      16.441  23.970   7.824  0.00  0.00     0.081 H 
ATOM      8  H10 BE3 d   1      15.310  23.835   9.213  0.00  0.00     0.081 H 
BRANCH   6   9
ATOM      9  C07 BE3 d   1      16.397  22.060   8.766  0.00  0.00    -0.032 A 
ATOM     10  C08 BE3 d   1      15.675  20.927   9.379  0.00  0.00    -0.038 A 
ATOM     11  C09 BE3 d   1      16.436  19.704   9.774  0.00  0.00     0.117 A 
ATOM     12  H5  BE3 d   1      14.604  20.982   9.540  0.00  0.00     0.089 H 
ATOM     13  C10 BE3 d   1      17.915  19.644   9.547  0.00  0.00    -0.046 A 
ATOM     14  F49 BE3 d   1      15.735  18.574  10.374  0.00  0.00    -0.206 F 
ATOM     15  C11 BE3 d   1      18.599  20.815   8.925  0.00  0.00    -0.080 A 
ATOM     16  H6  BE3 d   1      18.480  18.763   9.830  0.00  0.00     0.088 H 
ATOM     17  C12 BE3 d   1      17.841  21.981   8.550  0.00  0.00    -0.075 A 
ATOM     18  H7  BE3 d   1      19.669  20.788   8.755  0.00  0.00     0.083 H 
ATOM     19  H8  BE3 d   1      18.354  22.821   8.096  0.00  0.00     0.084 H 
ENDBRANCH   6   9
ENDBRANCH   5   6
ENDBRANCH   3   5
BRANCH   3  20
ATOM     20  C26 BE3 d   1      15.066  21.101   5.861  0.00  0.00     0.250 C 
ATOM     21  O27 BE3 d   1      14.082  20.375   6.131  0.00  0.00    -0.271 OA
ATOM     22  N28 BE3 d   1      16.270  20.609   5.459  0.00  0.00    -0.348 N 
ATOM     23  H20 BE3 d   1      17.005  21.258   5.262  0.00  0.00     0.163 HD
BRANCH  22  24
ATOM     24  C29 BE3 d   1      16.543  19.197   5.301  0.00  0.00     0.063 C 
ATOM     25  C30 BE3 d   1      16.498  18.813   3.862  0.00  0.00    -0.027 A 
ATOM     26  C31 BE3 d   1      17.477  17.755   3.602  0.00  0.00    -0.047 A 
ATOM     27  C32 BE3 d   1      15.652  19.333   2.775  0.00  0.00    -0.074 A 
ATOM     28  C37 BE3 d   1      17.647  17.184   2.259  0.00  0.00    -0.076 A 
ATOM     29  C38 BE3 d   1      18.179  17.422   4.858  0.00  0.00    -0.014 C 
ATOM     30  C34 BE3 d   1      16.804  17.704   1.173  0.00  0.00    -0.082 A 
ATOM     31  H27 BE3 d   1      18.374  16.401   2.074  0.00  0.00     0.084 H 
ATOM     32  C33 BE3 d   1      15.812  18.762   1.401  0.00  0.00    -0.082 A 
ATOM     33  H24 BE3 d   1      16.918  17.295   0.176  0.00  0.00     0.083 H 
ATOM     34  H23 BE3 d   1      15.202  19.126   0.582  0.00  0.00     0.083 H 
ATOM     35  C35 BE3 d   1      17.972  18.729   5.682  0.00  0.00     0.063 C 
ATOM     36  H28 BE3 d   1      19.246  17.222   4.682  0.00  0.00     0.044 H 
ATOM     37  H29 BE3 d   1      17.721  16.555   5.357  0.00  0.00     0.044 H 
ATOM     38  H25 BE3 d   1      18.049  18.512   6.758  0.00  0.00     0.087 H 
ATOM     39  H22 BE3 d   1      14.926  20.115   2.966  0.00  0.00     0.084 H 
ATOM     40  H21 BE3 d   1      15.797  18.637   5.885  0.00  0.00     0.084 H 
BRANCH  35  41
ATOM     41  O36 BE3 d   1      18.888  19.788   5.342  0.00  0.00    -0.393 OA
ATOM     42  H26 BE3 d   1      19.773  19.524   5.567  0.00  0.00     0.210 HD
ENDBRANCH  35  41
ENDBRANCH  22  24
ENDBRANCH   3  20
ENDBRANCH   1   3
BRANCH   1  43
ATOM     43  C17 BE3 d   1      13.506  24.287   4.980  0.00  0.00     0.096 C 
ATOM     44  H13 BE3 d   1      13.414  24.622   6.024  0.00  0.00     0.091 H 
BRANCH  43  45
ATOM     45  C18 BE3 d   1      12.099  24.479   4.282  0.00  0.00     0.142 C 
ATOM     46  H14 BE3 d   1      12.118  25.478   3.821  0.00  0.00     0.102 H 
BRANCH  45  47
ATOM     47  C19 BE3 d   1      10.919  24.462   5.240  0.00  0.00     0.250 C 
ATOM     48  O20 BE3 d   1      10.674  23.451   5.932  0.00  0.00    -0.271 OA
ATOM     49  N21 BE3 d   1      10.121  25.569   5.319  0.00  0.00    -0.348 N 
ATOM     50  H15 BE3 d   1      10.353  26.354   4.744  0.00  0.00     0.163 HD
BRANCH  49  51
ATOM     51  C39 BE3 d   1       8.963  25.681   6.180  0.00  0.00     0.063 C 
ATOM     52  C40 BE3 d   1       9.265  26.422   7.480  0.00  0.00    -0.027 A 
ATOM     53  C41 BE3 d   1       8.116  27.238   7.844  0.00  0.00    -0.047 A 
ATOM     54  C42 BE3 d   1      10.469  26.411   8.324  0.00  0.00    -0.074 A 
ATOM     55  C47 BE3 d   1       8.130  28.076   9.068  0.00  0.00    -0.076 A 
ATOM     56  C48 BE3 d   1       7.052  27.046   6.807  0.00  0.00    -0.014 C 
ATOM     57  C44 BE3 d   1       9.332  28.065   9.910  0.00  0.00    -0.082 A 
ATOM     58  H36 BE3 d   1       7.272  28.683   9.334  0.00  0.00     0.084 H 
ATOM     59  C43 BE3 d   1      10.504  27.247   9.563  0.00  0.00    -0.082 A 
ATOM     60  H33 BE3 d   1       9.357  28.673  10.807  0.00  0.00     0.083 H 
ATOM     61  H32 BE3 d   1      11.383  27.250  10.198  0.00  0.00     0.083 H 
ATOM     62  C45 BE3 d   1       7.846  26.580   5.577  0.00  0.00     0.063 C 
ATOM     63  H37 BE3 d   1       6.525  27.989   6.603  0.00  0.00     0.044 H 
ATOM     64  H38 BE3 d   1       6.327  26.281   7.122  0.00  0.00     0.044 H 
ATOM     65  H34 BE3 d   1       7.198  26.019   4.888  0.00  0.00     0.087 H 
ATOM     66  H31 BE3 d   1      11.323  25.802   8.050  0.00  0.00     0.084 H 
ATOM     67  H30 BE3 d   1       8.582  24.670   6.386  0.00  0.00     0.084 H 
BRANCH  62  68
ATOM     68  O46 BE3 d   1       8.493  27.667   4.869  0.00  0.00    -0.393 OA
ATOM     69  H35 BE3 d   1       7.832  28.234   4.489  0.00  0.00     0.210 HD
ENDBRANCH  62  68
ENDBRANCH  49  51
ENDBRANCH  45  47
BRANCH  45  70
ATOM     70  O22 BE3 d   1      11.869  23.489   3.180  0.00  0.00    -0.369 OA
BRANCH  70  71
ATOM     71  C23 BE3 d   1      11.165  23.935   1.979  0.00  0.00     0.044 C 
ATOM     72  H16 BE3 d   1      11.549  24.927   1.698  0.00  0.00     0.081 H 
ATOM     73  H17 BE3 d   1      11.370  23.220   1.169  0.00  0.00     0.081 H 
BRANCH  71  74
ATOM     74  C01 BE3 d   1       9.641  24.037   2.164  0.00  0.00    -0.032 A 
ATOM     75  C02 BE3 d   1       8.998  25.293   1.734  0.00  0.00    -0.075 A 
ATOM     76  C03 BE3 d   1       7.568  25.524   1.859  0.00  0.00    -0.080 A 
ATOM     77  H1  BE3 d   1       9.616  26.075   1.308  0.00  0.00     0.084 H 
ATOM     78  C04 BE3 d   1       6.700  24.488   2.433  0.00  0.00    -0.046 A 
ATOM     79  H2  BE3 d   1       7.141  26.464   1.528  0.00  0.00     0.083 H 
ATOM     80  C05 BE3 d   1       7.305  23.210   2.879  0.00  0.00     0.117 A 
ATOM     81  H3  BE3 d   1       5.633  24.655   2.529  0.00  0.00     0.088 H 
ATOM     82  C06 BE3 d   1       8.746  22.989   2.748  0.00  0.00    -0.038 A 
ATOM     83  F50 BE3 d   1       6.458  22.166   3.455  0.00  0.00    -0.206 F 
ATOM     84  H4  BE3 d   1       9.173  22.049   3.080  0.00  0.00     0.089 H 
ENDBRANCH  71  74
ENDBRANCH  70  71
ENDBRANCH  45  70
ENDBRANCH  43  45
BRANCH  43  85
ATOM     85  O24 BE3 d   1      14.578  25.044   4.362  0.00  0.00    -0.390 OA
ATOM     86  H18 BE3 d   1      14.674  24.773   3.456  0.00  0.00     0.210 HD
ENDBRANCH  43  85
ENDBRANCH   1  43
BRANCH   1  87
ATOM     87  O25 BE3 d   1      14.314  22.535   3.590  0.00  0.00    -0.390 OA
ATOM     88  H19 BE3 d   1      13.613  22.714   2.974  0.00  0.00     0.210 HD
ENDBRANCH   1  87
TORSDOF 17
