REMARK  17 active torsions:
REMARK  status: ('A' for Active; 'I' for Inactive)
REMARK    1  A    between atoms: C23_23  and  C01_1 
REMARK    2  A    between atoms: C13_13  and  C07_7 
REMARK    3  A    between atoms: O14_14  and  C13_13 
REMARK    4  A    between atoms: C15_15  and  O14_14 
REMARK    5  A    between atoms: C16_16  and  C15_15 
REMARK    6  A    between atoms: C15_15  and  C26_26 
REMARK    7  A    between atoms: C17_17  and  C16_16 
REMARK    8  A    between atoms: C16_16  and  O25_25 
REMARK    9  A    between atoms: C18_18  and  C17_17 
REMARK   10  A    between atoms: C17_17  and  O24_24 
REMARK   11  A    between atoms: C18_18  and  C19_19 
REMARK   12  A    between atoms: O22_22  and  C18_18 
REMARK       I    between atoms: C19_19  and  N21_21 
REMARK   13  A    between atoms: N21_21  and  C39_39 
REMARK   14  A    between atoms: O22_22  and  C23_23 
REMARK       I    between atoms: C26_26  and  N28_28 
REMARK   15  A    between atoms: N28_28  and  C29_29 
REMARK   16  A    between atoms: C35_35  and  O36_36 
REMARK   17  A    between atoms: C45_45  and  O46_46 
ROOT
ATOM      1  C16 BE4 d   1      12.946  23.869   5.674  0.00  0.00     0.096 C 
ATOM      2  H10 BE4 d   1      12.665  22.988   6.270  0.00  0.00     0.091 H 
ENDROOT
BRANCH   1   3
ATOM      3  C15 BE4 d   1      11.889  24.100   4.626  0.00  0.00     0.142 C 
ATOM      4  H9  BE4 d   1      12.084  25.049   4.105  0.00  0.00     0.102 H 
BRANCH   3   5
ATOM      5  O14 BE4 d   1      11.842  23.015   3.562  0.00  0.00    -0.369 OA
BRANCH   5   6
ATOM      6  C13 BE4 d   1      11.338  23.362   2.249  0.00  0.00     0.047 C 
ATOM      7  H7  BE4 d   1      11.943  24.192   1.855  0.00  0.00     0.082 H 
ATOM      8  H8  BE4 d   1      11.447  22.485   1.594  0.00  0.00     0.082 H 
BRANCH   6   9
ATOM      9  C07 BE4 d   1       9.888  23.785   2.239  0.00  0.00     0.004 A 
ATOM     10  C08 BE4 d   1       8.784  22.896   2.660  0.00  0.00     0.127 A 
ATOM     11  C09 BE4 d   1       7.380  23.402   2.625  0.00  0.00    -0.008 A 
ATOM     12  F52 BE4 d   1       9.056  21.600   3.086  0.00  0.00    -0.205 F 
ATOM     13  C10 BE4 d   1       7.121  24.802   2.163  0.00  0.00     0.119 A 
ATOM     14  H4  BE4 d   1       6.559  22.764   2.930  0.00  0.00     0.093 H 
ATOM     15  C11 BE4 d   1       8.269  25.660   1.750  0.00  0.00    -0.045 A 
ATOM     16  F49 BE4 d   1       5.771  25.318   2.117  0.00  0.00    -0.206 F 
ATOM     17  C12 BE4 d   1       9.604  25.145   1.796  0.00  0.00    -0.069 A 
ATOM     18  H5  BE4 d   1       8.092  26.675   1.414  0.00  0.00     0.088 H 
ATOM     19  H6  BE4 d   1      10.426  25.783   1.493  0.00  0.00     0.084 H 
ENDBRANCH   6   9
ENDBRANCH   5   6
ENDBRANCH   3   5
BRANCH   3  20
ATOM     20  C26 BE4 d   1      10.668  24.246   5.469  0.00  0.00     0.250 C 
ATOM     21  O27 BE4 d   1      10.306  23.275   6.179  0.00  0.00    -0.271 OA
ATOM     22  N28 BE4 d   1       9.989  25.423   5.415  0.00  0.00    -0.348 N 
ATOM     23  H18 BE4 d   1      10.340  26.150   4.825  0.00  0.00     0.163 HD
BRANCH  22  24
ATOM     24  C29 BE4 d   1       8.780  25.671   6.174  0.00  0.00     0.063 C 
ATOM     25  C30 BE4 d   1       9.086  26.410   7.432  0.00  0.00    -0.027 A 
ATOM     26  C31 BE4 d   1       7.952  27.273   7.778  0.00  0.00    -0.047 A 
ATOM     27  C32 BE4 d   1      10.293  26.374   8.290  0.00  0.00    -0.074 A 
ATOM     28  C37 BE4 d   1       7.980  28.123   8.979  0.00  0.00    -0.076 A 
ATOM     29  C38 BE4 d   1       6.891  27.113   6.755  0.00  0.00    -0.014 C 
ATOM     30  C34 BE4 d   1       9.182  28.089   9.833  0.00  0.00    -0.082 A 
ATOM     31  H25 BE4 d   1       7.138  28.758   9.230  0.00  0.00     0.084 H 
ATOM     32  C33 BE4 d   1      10.337  27.233   9.515  0.00  0.00    -0.082 A 
ATOM     33  H22 BE4 d   1       9.216  28.712  10.720  0.00  0.00     0.083 H 
ATOM     34  H21 BE4 d   1      11.208  27.225  10.160  0.00  0.00     0.083 H 
ATOM     35  C35 BE4 d   1       7.722  26.612   5.536  0.00  0.00     0.063 C 
ATOM     36  H26 BE4 d   1       6.393  28.069   6.538  0.00  0.00     0.044 H 
ATOM     37  H27 BE4 d   1       6.141  26.370   7.064  0.00  0.00     0.044 H 
ATOM     38  H23 BE4 d   1       7.073  26.073   4.830  0.00  0.00     0.087 H 
ATOM     39  H20 BE4 d   1      11.131  25.736   8.035  0.00  0.00     0.084 H 
ATOM     40  H19 BE4 d   1       8.320  24.697   6.394  0.00  0.00     0.084 H 
BRANCH  35  41
ATOM     41  O36 BE4 d   1       8.433  27.651   4.838  0.00  0.00    -0.393 OA
ATOM     42  H24 BE4 d   1       7.810  28.244   4.436  0.00  0.00     0.210 HD
ENDBRANCH  35  41
ENDBRANCH  22  24
ENDBRANCH   3  20
ENDBRANCH   1   3
BRANCH   1  43
ATOM     43  C17 BE4 d   1      14.249  23.634   5.021  0.00  0.00     0.096 C 
ATOM     44  H11 BE4 d   1      14.091  22.999   4.137  0.00  0.00     0.091 H 
BRANCH  43  45
ATOM     45  C18 BE4 d   1      15.192  22.853   6.019  0.00  0.00     0.142 C 
ATOM     46  H12 BE4 d   1      16.220  23.184   5.808  0.00  0.00     0.102 H 
BRANCH  45  47
ATOM     47  C19 BE4 d   1      15.157  21.349   5.834  0.00  0.00     0.250 C 
ATOM     48  O20 BE4 d   1      14.105  20.710   6.055  0.00  0.00    -0.271 OA
ATOM     49  N21 BE4 d   1      16.303  20.706   5.445  0.00  0.00    -0.348 N 
ATOM     50  H13 BE4 d   1      17.120  21.262   5.290  0.00  0.00     0.163 HD
BRANCH  49  51
ATOM     51  C39 BE4 d   1      16.411  19.278   5.244  0.00  0.00     0.063 C 
ATOM     52  C40 BE4 d   1      16.313  18.890   3.770  0.00  0.00    -0.027 A 
ATOM     53  C41 BE4 d   1      17.253  17.823   3.481  0.00  0.00    -0.047 A 
ATOM     54  C42 BE4 d   1      15.453  19.430   2.705  0.00  0.00    -0.074 A 
ATOM     55  C47 BE4 d   1      17.385  17.246   2.130  0.00  0.00    -0.076 A 
ATOM     56  C48 BE4 d   1      17.984  17.479   4.743  0.00  0.00    -0.014 C 
ATOM     57  C44 BE4 d   1      16.530  17.786   1.074  0.00  0.00    -0.082 A 
ATOM     58  H34 BE4 d   1      18.091  16.449   1.927  0.00  0.00     0.084 H 
ATOM     59  C43 BE4 d   1      15.565  18.863   1.324  0.00  0.00    -0.082 A 
ATOM     60  H31 BE4 d   1      16.612  17.377   0.073  0.00  0.00     0.083 H 
ATOM     61  H30 BE4 d   1      14.943  19.242   0.521  0.00  0.00     0.083 H 
ATOM     62  C45 BE4 d   1      17.818  18.733   5.614  0.00  0.00     0.063 C 
ATOM     63  H35 BE4 d   1      19.047  17.281   4.539  0.00  0.00     0.044 H 
ATOM     64  H36 BE4 d   1      17.534  16.601   5.230  0.00  0.00     0.044 H 
ATOM     65  H32 BE4 d   1      17.877  18.465   6.679  0.00  0.00     0.087 H 
ATOM     66  H29 BE4 d   1      14.749  20.226   2.917  0.00  0.00     0.084 H 
ATOM     67  H28 BE4 d   1      15.629  18.778   5.834  0.00  0.00     0.084 H 
BRANCH  62  68
ATOM     68  O46 BE4 d   1      18.787  19.773   5.321  0.00  0.00    -0.393 OA
ATOM     69  H33 BE4 d   1      19.658  19.463   5.539  0.00  0.00     0.210 HD
ENDBRANCH  62  68
ENDBRANCH  49  51
ENDBRANCH  45  47
BRANCH  45  70
ATOM     70  O22 BE4 d   1      14.898  23.181   7.442  0.00  0.00    -0.369 OA
BRANCH  70  71
ATOM     71  C23 BE4 d   1      16.016  23.296   8.378  0.00  0.00     0.047 C 
ATOM     72  H14 BE4 d   1      16.819  23.874   7.897  0.00  0.00     0.082 H 
ATOM     73  H15 BE4 d   1      15.669  23.828   9.276  0.00  0.00     0.082 H 
BRANCH  71  74
ATOM     74  C01 BE4 d   1      16.582  21.931   8.804  0.00  0.00     0.004 A 
ATOM     75  C02 BE4 d   1      18.015  21.693   8.545  0.00  0.00    -0.069 A 
ATOM     76  C03 BE4 d   1      18.665  20.446   8.896  0.00  0.00    -0.045 A 
ATOM     77  H1  BE4 d   1      18.601  22.476   8.077  0.00  0.00     0.084 H 
ATOM     78  C04 BE4 d   1      17.900  19.360   9.530  0.00  0.00     0.119 A 
ATOM     79  H2  BE4 d   1      19.721  20.312   8.690  0.00  0.00     0.088 H 
ATOM     80  C05 BE4 d   1      16.457  19.559   9.806  0.00  0.00    -0.008 A 
ATOM     81  F50 BE4 d   1      18.537  18.149   9.866  0.00  0.00    -0.206 F 
ATOM     82  C06 BE4 d   1      15.810  20.822   9.449  0.00  0.00     0.127 A 
ATOM     83  H3  BE4 d   1      15.881  18.768  10.273  0.00  0.00     0.093 H 
ATOM     84  F51 BE4 d   1      14.425  21.004   9.714  0.00  0.00    -0.205 F 
ENDBRANCH  71  74
ENDBRANCH  70  71
ENDBRANCH  45  70
ENDBRANCH  43  45
BRANCH  43  85
ATOM     85  O24 BE4 d   1      14.800  24.891   4.570  0.00  0.00    -0.390 OA
ATOM     86  H16 BE4 d   1      14.952  25.456   5.319  0.00  0.00     0.210 HD
ENDBRANCH  43  85
ENDBRANCH   1  43
BRANCH   1  87
ATOM     87  O25 BE4 d   1      13.115  25.036   6.579  0.00  0.00    -0.390 OA
ATOM     88  H17 BE4 d   1      13.784  24.840   7.225  0.00  0.00     0.210 HD
ENDBRANCH   1  87
TORSDOF 17
