REMARK  17 active torsions:
REMARK  status: ('A' for Active; 'I' for Inactive)
REMARK    1  A    between atoms: C23_23  and  C01_1 
REMARK    2  A    between atoms: C13_13  and  C07_7 
REMARK    3  A    between atoms: O14_14  and  C13_13 
REMARK    4  A    between atoms: C15_15  and  O14_14 
REMARK    5  A    between atoms: C16_16  and  C15_15 
REMARK    6  A    between atoms: C15_15  and  C26_26 
REMARK    7  A    between atoms: C17_17  and  C16_16 
REMARK    8  A    between atoms: C16_16  and  O25_25 
REMARK    9  A    between atoms: C18_18  and  C17_17 
REMARK   10  A    between atoms: C17_17  and  O24_24 
REMARK   11  A    between atoms: C18_18  and  C19_19 
REMARK   12  A    between atoms: O22_22  and  C18_18 
REMARK       I    between atoms: C19_19  and  N21_21 
REMARK   13  A    between atoms: N21_21  and  C39_39 
REMARK   14  A    between atoms: O22_22  and  C23_23 
REMARK       I    between atoms: C26_26  and  N28_28 
REMARK   15  A    between atoms: N28_28  and  C29_29 
REMARK   16  A    between atoms: C35_35  and  O36_36 
REMARK   17  A    between atoms: C45_45  and  O46_46 
ROOT
ATOM      1  C16 BE5 d   1      12.997  23.686   5.566  0.00  0.00     0.096 C 
ATOM      2  H10 BE5 d   1      12.691  22.766   6.085  0.00  0.00     0.091 H 
ENDROOT
BRANCH   1   3
ATOM      3  C15 BE5 d   1      11.936  24.080   4.576  0.00  0.00     0.142 C 
ATOM      4  H9  BE5 d   1      12.199  25.049   4.127  0.00  0.00     0.102 H 
BRANCH   3   5
ATOM      5  O14 BE5 d   1      11.760  23.061   3.446  0.00  0.00    -0.369 OA
BRANCH   5   6
ATOM      6  C13 BE5 d   1      11.290  23.491   2.127  0.00  0.00     0.047 C 
ATOM      7  H7  BE5 d   1      11.868  24.369   1.804  0.00  0.00     0.082 H 
ATOM      8  H8  BE5 d   1      11.433  22.673   1.406  0.00  0.00     0.082 H 
BRANCH   6   9
ATOM      9  C07 BE5 d   1       9.811  23.856   2.186  0.00  0.00     0.007 A 
ATOM     10  C08 BE5 d   1       8.770  22.928   2.668  0.00  0.00     0.163 A 
ATOM     11  C09 BE5 d   1       7.342  23.366   2.704  0.00  0.00     0.155 A 
ATOM     12  F52 BE5 d   1       9.143  21.560   3.121  0.00  0.00    -0.202 F 
ATOM     13  C10 BE5 d   1       6.981  24.748   2.245  0.00  0.00    -0.043 A 
ATOM     14  F49 BE5 d   1       6.315  22.450   3.184  0.00  0.00    -0.203 F 
ATOM     15  C11 BE5 d   1       8.069  25.653   1.764  0.00  0.00    -0.079 A 
ATOM     16  H4  BE5 d   1       5.950  25.084   2.262  0.00  0.00     0.088 H 
ATOM     17  C12 BE5 d   1       9.435  25.199   1.746  0.00  0.00    -0.072 A 
ATOM     18  H5  BE5 d   1       7.829  26.655   1.427  0.00  0.00     0.083 H 
ATOM     19  H6  BE5 d   1      10.208  25.873   1.396  0.00  0.00     0.084 H 
ENDBRANCH   6   9
ENDBRANCH   5   6
ENDBRANCH   3   5
BRANCH   3  20
ATOM     20  C26 BE5 d   1      10.697  24.217   5.367  0.00  0.00     0.250 C 
ATOM     21  O27 BE5 d   1      10.267  23.236   6.026  0.00  0.00    -0.271 OA
ATOM     22  N28 BE5 d   1      10.049  25.410   5.370  0.00  0.00    -0.348 N 
ATOM     23  H18 BE5 d   1      10.421  26.170   4.837  0.00  0.00     0.163 HD
BRANCH  22  24
ATOM     24  C29 BE5 d   1       8.831  25.605   6.129  0.00  0.00     0.063 C 
ATOM     25  C30 BE5 d   1       9.143  26.303   7.414  0.00  0.00    -0.027 A 
ATOM     26  C31 BE5 d   1       8.009  27.145   7.803  0.00  0.00    -0.047 A 
ATOM     27  C32 BE5 d   1      10.361  26.247   8.258  0.00  0.00    -0.074 A 
ATOM     28  C37 BE5 d   1       8.044  27.954   9.034  0.00  0.00    -0.076 A 
ATOM     29  C38 BE5 d   1       6.940  27.011   6.789  0.00  0.00    -0.014 C 
ATOM     30  C34 BE5 d   1       9.256  27.900   9.874  0.00  0.00    -0.082 A 
ATOM     31  H25 BE5 d   1       7.200  28.573   9.316  0.00  0.00     0.084 H 
ATOM     32  C33 BE5 d   1      10.414  27.064   9.512  0.00  0.00    -0.082 A 
ATOM     33  H22 BE5 d   1       9.295  28.491  10.782  0.00  0.00     0.083 H 
ATOM     34  H21 BE5 d   1      11.293  27.041  10.145  0.00  0.00     0.083 H 
ATOM     35  C35 BE5 d   1       7.766  26.571   5.544  0.00  0.00     0.063 C 
ATOM     36  H26 BE5 d   1       6.426  27.968   6.615  0.00  0.00     0.044 H 
ATOM     37  H27 BE5 d   1       6.204  26.246   7.077  0.00  0.00     0.044 H 
ATOM     38  H23 BE5 d   1       7.114  26.066   4.816  0.00  0.00     0.087 H 
ATOM     39  H20 BE5 d   1      11.200  25.624   7.971  0.00  0.00     0.084 H 
ATOM     40  H19 BE5 d   1       8.380  24.618   6.307  0.00  0.00     0.084 H 
BRANCH  35  41
ATOM     41  O36 BE5 d   1       8.483  27.646   4.889  0.00  0.00    -0.393 OA
ATOM     42  H24 BE5 d   1       7.861  28.260   4.517  0.00  0.00     0.210 HD
ENDBRANCH  35  41
ENDBRANCH  22  24
ENDBRANCH   3  20
ENDBRANCH   1   3
BRANCH   1  43
ATOM     43  C17 BE5 d   1      14.282  23.465   4.915  0.00  0.00     0.096 C 
ATOM     44  H11 BE5 d   1      14.150  22.834   4.024  0.00  0.00     0.091 H 
BRANCH  43  45
ATOM     45  C18 BE5 d   1      15.229  22.727   5.959  0.00  0.00     0.142 C 
ATOM     46  H12 BE5 d   1      16.258  23.065   5.768  0.00  0.00     0.102 H 
BRANCH  45  47
ATOM     47  C19 BE5 d   1      15.186  21.217   5.792  0.00  0.00     0.250 C 
ATOM     48  O20 BE5 d   1      14.128  20.572   6.003  0.00  0.00    -0.271 OA
ATOM     49  N21 BE5 d   1      16.340  20.585   5.428  0.00  0.00    -0.348 N 
ATOM     50  H13 BE5 d   1      17.157  21.141   5.277  0.00  0.00     0.163 HD
BRANCH  49  51
ATOM     51  C39 BE5 d   1      16.442  19.156   5.250  0.00  0.00     0.063 C 
ATOM     52  C40 BE5 d   1      16.360  18.758   3.782  0.00  0.00    -0.027 A 
ATOM     53  C41 BE5 d   1      17.305  17.688   3.510  0.00  0.00    -0.047 A 
ATOM     54  C42 BE5 d   1      15.512  19.292   2.705  0.00  0.00    -0.074 A 
ATOM     55  C47 BE5 d   1      17.449  17.103   2.162  0.00  0.00    -0.076 A 
ATOM     56  C48 BE5 d   1      18.023  17.353   4.783  0.00  0.00    -0.014 C 
ATOM     57  C44 BE5 d   1      16.601  17.640   1.096  0.00  0.00    -0.082 A 
ATOM     58  H34 BE5 d   1      18.157  16.305   1.969  0.00  0.00     0.084 H 
ATOM     59  C43 BE5 d   1      15.636  18.719   1.330  0.00  0.00    -0.082 A 
ATOM     60  H31 BE5 d   1      16.690  17.225   0.098  0.00  0.00     0.083 H 
ATOM     61  H30 BE5 d   1      15.023  19.095   0.519  0.00  0.00     0.083 H 
ATOM     62  C45 BE5 d   1      17.846  18.620   5.638  0.00  0.00     0.063 C 
ATOM     63  H35 BE5 d   1      19.088  17.152   4.593  0.00  0.00     0.044 H 
ATOM     64  H36 BE5 d   1      17.567  16.480   5.274  0.00  0.00     0.044 H 
ATOM     65  H32 BE5 d   1      17.896  18.365   6.707  0.00  0.00     0.087 H 
ATOM     66  H29 BE5 d   1      14.807  20.090   2.906  0.00  0.00     0.084 H 
ATOM     67  H28 BE5 d   1      15.654  18.664   5.839  0.00  0.00     0.084 H 
BRANCH  62  68
ATOM     68  O46 BE5 d   1      18.812  19.662   5.343  0.00  0.00    -0.393 OA
ATOM     69  H33 BE5 d   1      19.683  19.359   5.572  0.00  0.00     0.210 HD
ENDBRANCH  62  68
ENDBRANCH  49  51
ENDBRANCH  45  47
BRANCH  45  70
ATOM     70  O22 BE5 d   1      14.886  23.062   7.373  0.00  0.00    -0.369 OA
BRANCH  70  71
ATOM     71  C23 BE5 d   1      15.946  23.304   8.351  0.00  0.00     0.047 C 
ATOM     72  H14 BE5 d   1      16.719  23.948   7.906  0.00  0.00     0.082 H 
ATOM     73  H15 BE5 d   1      15.524  23.798   9.239  0.00  0.00     0.082 H 
BRANCH  71  74
ATOM     74  C01 BE5 d   1      16.567  21.959   8.756  0.00  0.00     0.007 A 
ATOM     75  C02 BE5 d   1      18.013  21.787   8.523  0.00  0.00    -0.072 A 
ATOM     76  C03 BE5 d   1      18.711  20.561   8.861  0.00  0.00    -0.079 A 
ATOM     77  H1  BE5 d   1      18.573  22.605   8.084  0.00  0.00     0.084 H 
ATOM     78  C04 BE5 d   1      17.983  19.429   9.455  0.00  0.00    -0.043 A 
ATOM     79  H2  BE5 d   1      19.776  20.479   8.675  0.00  0.00     0.083 H 
ATOM     80  C05 BE5 d   1      16.530  19.562   9.702  0.00  0.00     0.155 A 
ATOM     81  H3  BE5 d   1      18.503  18.512   9.708  0.00  0.00     0.088 H 
ATOM     82  C06 BE5 d   1      15.843  20.800   9.359  0.00  0.00     0.163 A 
ATOM     83  F50 BE5 d   1      15.778  18.448  10.291  0.00  0.00    -0.203 F 
ATOM     84  F51 BE5 d   1      14.351  20.974   9.593  0.00  0.00    -0.202 F 
ENDBRANCH  71  74
ENDBRANCH  70  71
ENDBRANCH  45  70
ENDBRANCH  43  45
BRANCH  43  85
ATOM     85  O24 BE5 d   1      14.843  24.745   4.519  0.00  0.00    -0.390 OA
ATOM     86  H16 BE5 d   1      14.941  25.297   5.286  0.00  0.00     0.210 HD
ENDBRANCH  43  85
ENDBRANCH   1  43
BRANCH   1  87
ATOM     87  O25 BE5 d   1      13.137  24.798   6.543  0.00  0.00    -0.390 OA
ATOM     88  H17 BE5 d   1      13.791  24.567   7.192  0.00  0.00     0.210 HD
ENDBRANCH   1  87
TORSDOF 17
