REMARK  17 active torsions:
REMARK  status: ('A' for Active; 'I' for Inactive)
REMARK    1  A    between atoms: C23_23  and  C01_1 
REMARK    2  A    between atoms: C13_13  and  C07_7 
REMARK    3  A    between atoms: O14_14  and  C13_13 
REMARK    4  A    between atoms: C15_15  and  O14_14 
REMARK    5  A    between atoms: C16_16  and  C15_15 
REMARK    6  A    between atoms: C15_15  and  C26_26 
REMARK    7  A    between atoms: C17_17  and  C16_16 
REMARK    8  A    between atoms: C16_16  and  O25_25 
REMARK    9  A    between atoms: C18_18  and  C17_17 
REMARK   10  A    between atoms: C17_17  and  O24_24 
REMARK   11  A    between atoms: C18_18  and  C19_19 
REMARK   12  A    between atoms: O22_22  and  C18_18 
REMARK       I    between atoms: C19_19  and  N21_21 
REMARK   13  A    between atoms: N21_21  and  C39_39 
REMARK   14  A    between atoms: O22_22  and  C23_23 
REMARK       I    between atoms: C26_26  and  N28_28 
REMARK   15  A    between atoms: N28_28  and  C29_29 
REMARK   16  A    between atoms: C35_35  and  O36_36 
REMARK   17  A    between atoms: C45_45  and  O46_46 
ROOT
ATOM      1  C16 BE6 d   1      13.153  24.094   5.659  0.00  0.00     0.096 C 
ATOM      2  H10 BE6 d   1      12.812  23.246   6.271  0.00  0.00     0.091 H 
ENDROOT
BRANCH   1   3
ATOM      3  C15 BE6 d   1      12.110  24.359   4.586  0.00  0.00     0.142 C 
ATOM      4  H9  BE6 d   1      12.300  25.323   4.092  0.00  0.00     0.102 H 
BRANCH   3   5
ATOM      5  O14 BE6 d   1      12.085  23.288   3.508  0.00  0.00    -0.369 OA
BRANCH   5   6
ATOM      6  C13 BE6 d   1      11.526  23.626   2.210  0.00  0.00     0.047 C 
ATOM      7  H7  BE6 d   1      12.147  24.419   1.767  0.00  0.00     0.082 H 
ATOM      8  H8  BE6 d   1      11.569  22.728   1.576  0.00  0.00     0.082 H 
BRANCH   6   9
ATOM      9  C07 BE6 d   1      10.089  24.114   2.238  0.00  0.00     0.007 A 
ATOM     10  C08 BE6 d   1       8.964  23.269   2.639  0.00  0.00     0.124 A 
ATOM     11  C09 BE6 d   1       7.590  23.833   2.651  0.00  0.00    -0.042 A 
ATOM     12  F52 BE6 d   1       9.155  22.127   2.962  0.00  0.00    -0.205 F 
ATOM     13  C10 BE6 d   1       7.377  25.248   2.256  0.00  0.00    -0.043 A 
ATOM     14  H4  BE6 d   1       6.749  23.216   2.946  0.00  0.00     0.088 H 
ATOM     15  C11 BE6 d   1       8.544  26.065   1.859  0.00  0.00     0.117 A 
ATOM     16  H5  BE6 d   1       6.381  25.676   2.259  0.00  0.00     0.088 H 
ATOM     17  C12 BE6 d   1       9.853  25.494   1.858  0.00  0.00    -0.035 A 
ATOM     18  F49 BE6 d   1       8.474  27.395   1.473  0.00  0.00    -0.206 F 
ATOM     19  H6  BE6 d   1      10.695  26.110   1.565  0.00  0.00     0.089 H 
ENDBRANCH   6   9
ENDBRANCH   5   6
ENDBRANCH   3   5
BRANCH   3  20
ATOM     20  C26 BE6 d   1      10.881  24.450   5.430  0.00  0.00     0.250 C 
ATOM     21  O27 BE6 d   1      10.493  23.422   6.030  0.00  0.00    -0.271 OA
ATOM     22  N28 BE6 d   1      10.239  25.664   5.505  0.00  0.00    -0.348 N 
ATOM     23  H18 BE6 d   1      10.625  26.430   4.991  0.00  0.00     0.163 HD
BRANCH  22  24
ATOM     24  C29 BE6 d   1       9.038  25.904   6.281  0.00  0.00     0.063 C 
ATOM     25  C30 BE6 d   1       9.383  26.697   7.501  0.00  0.00    -0.027 A 
ATOM     26  C31 BE6 d   1       8.309  27.623   7.814  0.00  0.00    -0.047 A 
ATOM     27  C32 BE6 d   1      10.537  26.573   8.384  0.00  0.00    -0.074 A 
ATOM     28  C37 BE6 d   1       8.351  28.448   9.014  0.00  0.00    -0.076 A 
ATOM     29  C38 BE6 d   1       7.165  27.323   6.925  0.00  0.00    -0.014 C 
ATOM     30  C34 BE6 d   1       9.505  28.325   9.898  0.00  0.00    -0.082 A 
ATOM     31  H25 BE6 d   1       7.545  29.136   9.244  0.00  0.00     0.084 H 
ATOM     32  C33 BE6 d   1      10.597  27.405   9.605  0.00  0.00    -0.082 A 
ATOM     33  H22 BE6 d   1       9.552  28.933  10.794  0.00  0.00     0.083 H 
ATOM     34  H21 BE6 d   1      11.445  27.331  10.276  0.00  0.00     0.083 H 
ATOM     35  C35 BE6 d   1       7.928  26.815   5.669  0.00  0.00     0.063 C 
ATOM     36  H26 BE6 d   1       6.571  28.222   6.706  0.00  0.00     0.044 H 
ATOM     37  H27 BE6 d   1       6.511  26.546   7.348  0.00  0.00     0.044 H 
ATOM     38  H23 BE6 d   1       7.256  26.255   5.002  0.00  0.00     0.087 H 
ATOM     39  H20 BE6 d   1      11.338  25.882   8.149  0.00  0.00     0.084 H 
ATOM     40  H19 BE6 d   1       8.608  24.927   6.545  0.00  0.00     0.084 H 
BRANCH  35  41
ATOM     41  O36 BE6 d   1       8.580  27.870   4.935  0.00  0.00    -0.393 OA
ATOM     42  H24 BE6 d   1       7.924  28.440   4.552  0.00  0.00     0.210 HD
ENDBRANCH  35  41
ENDBRANCH  22  24
ENDBRANCH   3  20
ENDBRANCH   1   3
BRANCH   1  43
ATOM     43  C17 BE6 d   1      14.461  23.765   5.046  0.00  0.00     0.096 C 
ATOM     44  H11 BE6 d   1      14.321  23.102   4.180  0.00  0.00     0.091 H 
BRANCH  43  45
ATOM     45  C18 BE6 d   1      15.349  23.037   6.127  0.00  0.00     0.142 C 
ATOM     46  H12 BE6 d   1      16.373  23.428   6.037  0.00  0.00     0.102 H 
BRANCH  45  47
ATOM     47  C19 BE6 d   1      15.405  21.537   5.942  0.00  0.00     0.250 C 
ATOM     48  O20 BE6 d   1      14.390  20.853   6.149  0.00  0.00    -0.271 OA
ATOM     49  N21 BE6 d   1      16.581  20.934   5.580  0.00  0.00    -0.348 N 
ATOM     50  H13 BE6 d   1      17.385  21.507   5.423  0.00  0.00     0.163 HD
BRANCH  49  51
ATOM     51  C39 BE6 d   1      16.706  19.505   5.416  0.00  0.00     0.063 C 
ATOM     52  C40 BE6 d   1      16.586  19.037   3.958  0.00  0.00    -0.027 A 
ATOM     53  C41 BE6 d   1      17.524  17.972   3.716  0.00  0.00    -0.047 A 
ATOM     54  C42 BE6 d   1      15.781  19.557   2.864  0.00  0.00    -0.074 A 
ATOM     55  C47 BE6 d   1      17.705  17.380   2.391  0.00  0.00    -0.076 A 
ATOM     56  C48 BE6 d   1      18.183  17.634   5.020  0.00  0.00    -0.014 C 
ATOM     57  C44 BE6 d   1      16.903  17.905   1.304  0.00  0.00    -0.082 A 
ATOM     58  H34 BE6 d   1      18.414  16.577   2.228  0.00  0.00     0.084 H 
ATOM     59  C43 BE6 d   1      15.945  18.979   1.509  0.00  0.00    -0.082 A 
ATOM     60  H31 BE6 d   1      17.021  17.485   0.311  0.00  0.00     0.083 H 
ATOM     61  H30 BE6 d   1      15.357  19.353   0.679  0.00  0.00     0.083 H 
ATOM     62  C45 BE6 d   1      18.102  18.956   5.794  0.00  0.00     0.063 C 
ATOM     63  H35 BE6 d   1      19.228  17.327   4.868  0.00  0.00     0.044 H 
ATOM     64  H36 BE6 d   1      17.639  16.834   5.544  0.00  0.00     0.044 H 
ATOM     65  H32 BE6 d   1      18.195  18.777   6.875  0.00  0.00     0.087 H 
ATOM     66  H29 BE6 d   1      15.070  20.357   3.037  0.00  0.00     0.084 H 
ATOM     67  H28 BE6 d   1      15.931  19.027   6.033  0.00  0.00     0.084 H 
BRANCH  62  68
ATOM     68  O46 BE6 d   1      19.076  19.940   5.373  0.00  0.00    -0.393 OA
ATOM     69  H33 BE6 d   1      19.948  19.634   5.591  0.00  0.00     0.210 HD
ENDBRANCH  62  68
ENDBRANCH  49  51
ENDBRANCH  45  47
BRANCH  45  70
ATOM     70  O22 BE6 d   1      14.849  23.337   7.487  0.00  0.00    -0.369 OA
BRANCH  70  71
ATOM     71  C23 BE6 d   1      15.827  23.613   8.533  0.00  0.00     0.047 C 
ATOM     72  H14 BE6 d   1      16.454  24.457   8.209  0.00  0.00     0.082 H 
ATOM     73  H15 BE6 d   1      15.287  23.888   9.451  0.00  0.00     0.082 H 
BRANCH  71  74
ATOM     74  C01 BE6 d   1      16.747  22.415   8.849  0.00  0.00     0.007 A 
ATOM     75  C02 BE6 d   1      18.137  22.507   8.407  0.00  0.00    -0.035 A 
ATOM     76  C03 BE6 d   1      19.093  21.452   8.627  0.00  0.00     0.117 A 
ATOM     77  H1  BE6 d   1      18.462  23.405   7.893  0.00  0.00     0.089 H 
ATOM     78  C04 BE6 d   1      18.699  20.231   9.316  0.00  0.00    -0.043 A 
ATOM     79  F50 BE6 d   1      20.291  21.576   8.220  0.00  0.00    -0.206 F 
ATOM     80  C05 BE6 d   1      17.312  20.096   9.775  0.00  0.00    -0.042 A 
ATOM     81  H2  BE6 d   1      19.417  19.437   9.486  0.00  0.00     0.088 H 
ATOM     82  C06 BE6 d   1      16.360  21.165   9.544  0.00  0.00     0.124 A 
ATOM     83  H3  BE6 d   1      16.998  19.194  10.288  0.00  0.00     0.088 H 
ATOM     84  F51 BE6 d   1      14.905  21.054  10.000  0.00  0.00    -0.205 F 
ENDBRANCH  71  74
ENDBRANCH  70  71
ENDBRANCH  45  70
ENDBRANCH  43  45
BRANCH  43  85
ATOM     85  O24 BE6 d   1      15.061  25.014   4.613  0.00  0.00    -0.390 OA
ATOM     86  H16 BE6 d   1      15.159  25.593   5.360  0.00  0.00     0.210 HD
ENDBRANCH  43  85
ENDBRANCH   1  43
BRANCH   1  87
ATOM     87  O25 BE6 d   1      13.370  25.261   6.533  0.00  0.00    -0.390 OA
ATOM     88  H17 BE6 d   1      14.009  25.041   7.201  0.00  0.00     0.210 HD
ENDBRANCH   1  87
TORSDOF 17
