REMARK  13 active torsions:
REMARK  status: ('A' for Active; 'I' for Inactive)
REMARK    1  A    between atoms: C1_1  and  S11_2 
REMARK    2  A    between atoms: S11_2  and  N12_3 
REMARK    3  A    between atoms: N12_3  and  C13_4 
REMARK    4  A    between atoms: C13_4  and  C14_16 
REMARK    5  A    between atoms: C13_4  and  C16_25 
REMARK    6  A    between atoms: C5_10  and  C6_11 
REMARK       I    between atoms: C14_16  and  N26_18 
REMARK    7  A    between atoms: N29_21  and  C32_24 
REMARK    8  A    between atoms: C32_24  and  C33_32 
REMARK    9  A    between atoms: C16_25  and  C17_26 
REMARK   10  A    between atoms: C17_26  and  C18_27 
REMARK   11  A    between atoms: C18_27  and  N19_28 
REMARK       I    between atoms: N19_28  and  C20_29 
REMARK       I    between atoms: C20_29  and  N21_30 
REMARK   12  A    between atoms: C33_32  and  C8_33 
REMARK   13  A    between atoms: C8_33  and  N9_34 
ROOT
ATOM      1  C13 MIU d   1      14.764 -15.071  20.885  0.00  0.00     0.097 C 
ATOM      2  H2  MIU d   1      15.084 -15.608  19.980  0.00  0.00     0.088 H 
ENDROOT
BRANCH   1   3
ATOM      3  N12 MIU d   1      14.523 -16.047  21.981  0.00  0.00    -0.302 N 
ATOM      4  H1  MIU d   1      13.873 -15.857  22.716  0.00  0.00     0.173 HD
BRANCH   3   5
ATOM      5  S11 MIU d   1      15.424 -17.533  21.925  0.00  0.00     0.259 S 
ATOM      6  O24 MIU d   1      14.927 -18.442  23.121  0.00  0.00    -0.201 OA
ATOM      7  O25 MIU d   1      15.010 -18.222  20.556  0.00  0.00    -0.201 OA
BRANCH   5   8
ATOM      8  C1  MIU d   1      17.155 -17.292  21.985  0.00  0.00     0.080 A 
ATOM      9  C2  MIU d   1      17.976 -17.716  20.908  0.00  0.00    -0.060 A 
ATOM     10  C3  MIU d   1      19.380 -17.502  20.981  0.00  0.00    -0.081 A 
ATOM     11  H3  MIU d   1      17.538 -18.197  20.041  0.00  0.00     0.085 H 
ATOM     12  C4  MIU d   1      19.949 -16.874  22.124  0.00  0.00    -0.068 A 
ATOM     13  H4  MIU d   1      20.018 -17.818  20.164  0.00  0.00     0.083 H 
ATOM     14  C5  MIU d   1      19.116 -16.447  23.213  0.00  0.00     0.049 A 
ATOM     15  H5  MIU d   1      21.020 -16.717  22.173  0.00  0.00     0.084 H 
ATOM     16  C10 MIU d   1      17.711 -16.669  23.127  0.00  0.00    -0.046 A 
ATOM     17  H6  MIU d   1      17.065 -16.359  23.941  0.00  0.00     0.087 H 
BRANCH  14  18
ATOM     18  C6  MIU d   1      19.750 -15.757  24.454  0.00  0.00     0.417 C 
ATOM     19  F61 MIU d   1      20.647 -16.581  25.060  0.00  0.00    -0.166 F 
ATOM     20  F1  MIU d   1      20.399 -14.616  24.076  0.00  0.00    -0.166 F 
ATOM     21  F6  MIU d   1      18.794 -15.420  25.364  0.00  0.00    -0.166 F 
ENDBRANCH  14  18
ENDBRANCH   5   8
ENDBRANCH   3   5
ENDBRANCH   1   3
BRANCH   1  22
ATOM     22  C14 MIU d   1      15.946 -14.050  21.248  0.00  0.00     0.243 C 
ATOM     23  O15 MIU d   1      16.142 -13.800  22.450  0.00  0.00    -0.271 OA
ATOM     24  N26 MIU d   1      16.751 -13.465  20.272  0.00  0.00    -0.347 N 
ATOM     25  C27 MIU d   1      18.017 -12.781  20.573  0.00  0.00     0.020 C 
ATOM     26  C31 MIU d   1      16.315 -13.499  18.805  0.00  0.00     0.020 C 
ATOM     27  C28 MIU d   1      19.104 -13.451  19.809  0.00  0.00     0.098 C 
ATOM     28  H7  MIU d   1      18.227 -12.844  21.651  0.00  0.00     0.066 H 
ATOM     29  H8  MIU d   1      17.949 -11.725  20.274  0.00  0.00     0.066 H 
ATOM     30  N29 MIU d   1      18.746 -13.410  18.324  0.00  0.00    -0.068 N 
ATOM     31  H9  MIU d   1      19.201 -14.496  20.139  0.00  0.00     0.078 H 
ATOM     32  H10 MIU d   1      20.055 -12.924  19.977  0.00  0.00     0.078 H 
ATOM     33  C30 MIU d   1      17.450 -14.137  18.001  0.00  0.00     0.098 C 
ATOM     34  H11 MIU d   1      18.801 -12.471  17.960  0.00  0.00     0.280 HD
ATOM     35  H12 MIU d   1      17.544 -15.199  18.272  0.00  0.00     0.078 H 
ATOM     36  H13 MIU d   1      17.235 -14.051  16.926  0.00  0.00     0.078 H 
ATOM     37  H14 MIU d   1      16.129 -12.476  18.445  0.00  0.00     0.066 H 
ATOM     38  H15 MIU d   1      15.398 -14.098  18.700  0.00  0.00     0.066 H 
BRANCH  30  39
ATOM     39  C32 MIU d   1      19.548 -14.410  17.612  0.00  0.00     0.085 C 
ATOM     40  H16 MIU d   1      18.840 -15.155  17.219  0.00  0.00     0.076 H 
ATOM     41  H17 MIU d   1      20.198 -14.882  18.364  0.00  0.00     0.076 H 
BRANCH  39  42
ATOM     42  C33 MIU d   1      20.469 -14.007  16.424  0.00  0.00    -0.020 C 
ATOM     43  H29 MIU d   1      20.149 -14.571  15.536  0.00  0.00     0.037 H 
ATOM     44  H30 MIU d   1      21.502 -14.284  16.682  0.00  0.00     0.037 H 
BRANCH  42  45
ATOM     45  C8  MIU d   1      20.448 -12.507  16.073  0.00  0.00     0.081 C 
ATOM     46  H31 MIU d   1      21.130 -12.319  15.230  0.00  0.00     0.075 H 
ATOM     47  H32 MIU d   1      20.774 -11.923  16.946  0.00  0.00     0.075 H 
BRANCH  45  48
ATOM     48  N9  MIU d   1      19.080 -12.103  15.696  0.00  0.00    -0.079 N 
ATOM     49  H33 MIU d   1      19.071 -11.121  15.467  0.00  0.00     0.274 HD
ATOM     50  H34 MIU d   1      18.454 -12.274  16.468  0.00  0.00     0.274 HD
ATOM     51  H35 MIU d   1      18.780 -12.637  14.896  0.00  0.00     0.274 HD
ENDBRANCH  45  48
ENDBRANCH  42  45
ENDBRANCH  39  42
ENDBRANCH  30  39
ENDBRANCH   1  22
BRANCH   1  52
ATOM     52  C16 MIU d   1      13.338 -14.488  20.624  0.00  0.00    -0.036 C 
ATOM     53  H18 MIU d   1      12.694 -15.332  20.336  0.00  0.00     0.036 H 
ATOM     54  H19 MIU d   1      13.427 -13.790  19.779  0.00  0.00     0.036 H 
BRANCH  52  55
ATOM     55  C17 MIU d   1      12.607 -13.730  21.760  0.00  0.00    -0.048 C 
ATOM     56  H20 MIU d   1      13.251 -13.683  22.651  0.00  0.00     0.035 H 
ATOM     57  H21 MIU d   1      11.670 -14.249  22.011  0.00  0.00     0.035 H 
BRANCH  55  58
ATOM     58  C18 MIU d   1      12.300 -12.315  21.267  0.00  0.00     0.009 C 
ATOM     59  H22 MIU d   1      11.677 -12.400  20.364  0.00  0.00     0.064 H 
ATOM     60  H23 MIU d   1      13.255 -11.833  21.010  0.00  0.00     0.064 H 
BRANCH  58  61
ATOM     61  N19 MIU d   1      11.591 -11.437  22.228  0.00  0.00    -0.227 N 
ATOM     62  C20 MIU d   1      12.174 -10.807  23.244  0.00  0.00     0.665 C 
ATOM     63  N21 MIU d   1      13.142  -9.939  23.131  0.00  0.00    -0.235 N 
ATOM     64  N22 MIU d   1      11.759 -11.056  24.455  0.00  0.00    -0.235 N 
ATOM     65  H25 MIU d   1      13.538  -9.496  23.973  0.00  0.00     0.174 HD
ATOM     66  H26 MIU d   1      13.510  -9.697  22.200  0.00  0.00     0.174 HD
ATOM     67  H27 MIU d   1      10.997 -11.732  24.610  0.00  0.00     0.174 HD
ATOM     68  H28 MIU d   1      12.193 -10.577  25.257  0.00  0.00     0.174 HD
ATOM     69  H24 MIU d   1      10.577 -11.306  22.100  0.00  0.00     0.177 HD
ENDBRANCH  58  61
ENDBRANCH  55  58
ENDBRANCH  52  55
ENDBRANCH   1  52
TORSDOF 13
