REMARK  12 active torsions:
REMARK  status: ('A' for Active; 'I' for Inactive)
REMARK    1  A    between atoms: C2_2  and  C19_18 
REMARK    2  A    between atoms: C3_3  and  O3_31 
REMARK    3  A    between atoms: C4_4  and  O4_32 
REMARK    4  A    between atoms: C5_5  and  O5_33 
REMARK    5  A    between atoms: C6_6  and  C21_20 
REMARK    6  A    between atoms: C8_8  and  C22_21 
REMARK    7  A    between atoms: C11_11  and  O11_35 
REMARK    8  A    between atoms: C12_12  and  O12_36 
REMARK    9  A    between atoms: C17_17  and  C25_24 
REMARK   10  A    between atoms: O4_32  and  C20_19 
REMARK   11  A    between atoms: O11_35  and  C23_22 
REMARK   12  A    between atoms: O12_36  and  C24_23 
ROOT
ATOM      1  C1  S1A d   1      12.459  27.209 115.547  0.00  0.00     0.268 C 
ATOM      2  C2  S1A d   1      13.585  27.685 114.635  0.00  0.00     0.083 C 
ATOM      3  C3  S1A d   1      14.714  26.627 114.679  0.00  0.00     0.203 C 
ATOM      4  C4  S1A d   1      15.869  27.047 113.713  0.00  0.00     0.117 C 
ATOM      5  C5  S1A d   1      16.902  25.885 113.493  0.00  0.00     0.071 C 
ATOM      6  C6  S1A d   1      16.184  24.549 113.242  0.00  0.00    -0.004 C 
ATOM      7  C7  S1A d   1      15.124  24.323 114.333  0.00  0.00     0.054 C 
ATOM      8  C8  S1A d   1      14.396  22.984 114.109  0.00  0.00    -0.016 C 
ATOM      9  C9  S1A d   1      13.296  22.805 115.188  0.00  0.00    -0.098 C 
ATOM     10  C10 S1A d   1      13.511  21.997 116.299  0.00  0.00    -0.076 C 
ATOM     11  C11 S1A d   1      12.439  21.912 117.408  0.00  0.00     0.079 C 
ATOM     12  C12 S1A d   1      13.068  22.216 118.779  0.00  0.00     0.066 C 
ATOM     13  C13 S1A d   1      13.580  23.661 118.834  0.00  0.00    -0.038 C 
ATOM     14  C14 S1A d   1      12.486  24.704 118.659  0.00  0.00    -0.063 C 
ATOM     15  C15 S1A d   1      12.967  26.088 119.019  0.00  0.00    -0.062 C 
ATOM     16  C16 S1A d   1      11.825  27.092 118.959  0.00  0.00    -0.036 C 
ATOM     17  C17 S1A d   1      11.331  27.403 117.544  0.00  0.00     0.073 C 
ATOM     18  O1  S1A d   1      11.575  26.345 115.344  0.00  0.00    -0.265 OA
ATOM     19  O7  S1A d   1      14.157  25.374 114.269  0.00  0.00    -0.346 OA
ATOM     20  O18 S1A d   1      12.448  27.797 116.731  0.00  0.00    -0.311 OA
ATOM     21  H1  S1A d   1      13.210  27.775 113.605  0.00  0.00     0.063 H 
ATOM     22  H2  S1A d   1      16.399  27.903 114.156  0.00  0.00     0.095 H 
ATOM     23  H3  S1A d   1      17.514  26.126 112.611  0.00  0.00     0.087 H 
ATOM     24  H4  S1A d   1      16.922  23.735 113.293  0.00  0.00     0.047 H 
ATOM     25  H5  S1A d   1      15.609  24.319 115.320  0.00  0.00     0.085 H 
ATOM     26  H6  S1A d   1      13.911  23.017 113.122  0.00  0.00     0.049 H 
ATOM     27  H7  S1A d   1      12.343  23.319 115.074  0.00  0.00     0.077 H 
ATOM     28  H8  S1A d   1      14.434  21.425 116.387  0.00  0.00     0.080 H 
ATOM     29  H9  S1A d   1      11.650  22.650 117.201  0.00  0.00     0.093 H 
ATOM     30  H10 S1A d   1      12.302  22.084 119.558  0.00  0.00     0.087 H 
ATOM     31  H11 S1A d   1      14.321  23.798 118.033  0.00  0.00     0.036 H 
ATOM     32  H12 S1A d   1      14.061  23.822 119.810  0.00  0.00     0.036 H 
ATOM     33  H13 S1A d   1      11.637  24.442 119.308  0.00  0.00     0.033 H 
ATOM     34  H14 S1A d   1      12.158  24.703 117.609  0.00  0.00     0.033 H 
ATOM     35  H15 S1A d   1      13.752  26.392 118.311  0.00  0.00     0.033 H 
ATOM     36  H16 S1A d   1      13.380  26.072 120.039  0.00  0.00     0.033 H 
ATOM     37  H17 S1A d   1      12.168  28.031 119.418  0.00  0.00     0.037 H 
ATOM     38  H18 S1A d   1      10.981  26.688 119.537  0.00  0.00     0.037 H 
ATOM     39  H19 S1A d   1      10.848  26.515 117.110  0.00  0.00     0.091 H 
ENDROOT
BRANCH  17  40
ATOM     40  C25 S1A d   1      10.324  28.563 117.626  0.00  0.00    -0.029 A 
ATOM     41  C26 S1A d   1      10.793  29.872 117.842  0.00  0.00    -0.074 A 
ATOM     42  C27 S1A d   1       9.901  30.897 118.143  0.00  0.00    -0.082 A 
ATOM     43  H38 S1A d   1      11.854  30.083 117.774  0.00  0.00     0.084 H 
ATOM     44  C28 S1A d   1       8.538  30.623 118.231  0.00  0.00    -0.083 A 
ATOM     45  H39 S1A d   1      10.265  31.904 118.308  0.00  0.00     0.083 H 
ATOM     46  C29 S1A d   1       8.069  29.323 118.018  0.00  0.00    -0.082 A 
ATOM     47  H40 S1A d   1       7.840  31.419 118.465  0.00  0.00     0.083 H 
ATOM     48  C30 S1A d   1       8.963  28.294 117.718  0.00  0.00    -0.074 A 
ATOM     49  H41 S1A d   1       7.008  29.114 118.086  0.00  0.00     0.083 H 
ATOM     50  H42 S1A d   1       8.597  27.287 117.557  0.00  0.00     0.084 H 
ENDBRANCH  17  40
BRANCH   2  51
ATOM     51  C19 S1A d   1      14.095  29.043 115.094  0.00  0.00    -0.059 C 
ATOM     52  H20 S1A d   1      13.275  29.775 115.053  0.00  0.00     0.028 H 
ATOM     53  H21 S1A d   1      14.912  29.370 114.434  0.00  0.00     0.028 H 
ATOM     54  H22 S1A d   1      14.466  28.965 116.126  0.00  0.00     0.028 H 
ENDBRANCH   2  51
BRANCH   3  55
ATOM     55  O3  S1A d   1      15.216  26.526 116.016  0.00  0.00    -0.362 OA
ATOM     56  H43 S1A d   1      15.583  27.362 116.279  0.00  0.00     0.213 HD
ENDBRANCH   3  55
BRANCH  12  57
ATOM     57  O12 S1A d   1      14.142  21.300 119.025  0.00  0.00    -0.388 OA
BRANCH  57  58
ATOM     58  C24 S1A d   1      14.392  21.194 120.448  0.00  0.00     0.005 C 
ATOM     59  H35 S1A d   1      15.218  20.489 120.624  0.00  0.00     0.066 H 
ATOM     60  H36 S1A d   1      13.485  20.830 120.954  0.00  0.00     0.066 H 
ATOM     61  H37 S1A d   1      14.663  22.183 120.847  0.00  0.00     0.066 H 
ENDBRANCH  57  58
ENDBRANCH  12  57
BRANCH   4  62
ATOM     62  O4  S1A d   1      15.315  27.445 112.454  0.00  0.00    -0.383 OA
BRANCH  62  63
ATOM     63  C20 S1A d   1      16.077  28.549 111.900  0.00  0.00     0.005 C 
ATOM     64  H23 S1A d   1      15.643  28.846 110.934  0.00  0.00     0.066 H 
ATOM     65  H24 S1A d   1      17.121  28.236 111.752  0.00  0.00     0.066 H 
ATOM     66  H25 S1A d   1      16.045  29.402 112.594  0.00  0.00     0.066 H 
ENDBRANCH  62  63
ENDBRANCH   4  62
BRANCH  11  67
ATOM     67  O11 S1A d   1      11.863  20.600 117.435  0.00  0.00    -0.384 OA
BRANCH  67  68
ATOM     68  C23 S1A d   1      10.878  20.462 116.377  0.00  0.00     0.005 C 
ATOM     69  H32 S1A d   1      10.444  19.452 116.409  0.00  0.00     0.066 H 
ATOM     70  H33 S1A d   1      11.362  20.622 115.402  0.00  0.00     0.066 H 
ATOM     71  H34 S1A d   1      10.082  21.207 116.518  0.00  0.00     0.066 H 
ENDBRANCH  67  68
ENDBRANCH  11  67
BRANCH   5  72
ATOM     72  O5  S1A d   1      17.764  25.760 114.630  0.00  0.00    -0.392 OA
ATOM     73  H44 S1A d   1      18.206  26.587 114.783  0.00  0.00     0.210 HD
ENDBRANCH   5  72
BRANCH   6  74
ATOM     74  C21 S1A d   1      15.546  24.541 111.850  0.00  0.00    -0.068 C 
ATOM     75  H26 S1A d   1      16.324  24.704 111.089  0.00  0.00     0.028 H 
ATOM     76  H27 S1A d   1      14.796  25.343 111.786  0.00  0.00     0.028 H 
ATOM     77  H28 S1A d   1      15.060  23.570 111.675  0.00  0.00     0.028 H 
ENDBRANCH   6  74
BRANCH   8  78
ATOM     78  C22 S1A d   1      15.365  21.807 114.117  0.00  0.00    -0.067 C 
ATOM     79  H29 S1A d   1      14.808  20.872 113.954  0.00  0.00     0.028 H 
ATOM     80  H30 S1A d   1      15.880  21.763 115.088  0.00  0.00     0.028 H 
ATOM     81  H31 S1A d   1      16.106  21.937 113.314  0.00  0.00     0.028 H 
ENDBRANCH   8  78
TORSDOF 12
