REMARK  10 active torsions:
REMARK  status: ('A' for Active; 'I' for Inactive)
REMARK    1  A    between atoms: O3B_8  and  PG_1 
REMARK    2  A    between atoms: PB_5  and  O3B_8 
REMARK    3  A    between atoms: O3A_12  and  PB_5 
REMARK    4  A    between atoms: PA_9  and  O3A_12 
REMARK    5  A    between atoms: PA_9  and  O13_13 
REMARK    6  A    between atoms: O13_13  and  C14_14 
REMARK    7  A    between atoms: C14_14  and  C15_15 
REMARK    8  A    between atoms: C17_17  and  O18_18 
REMARK    9  A    between atoms: C19_19  and  O20_20 
REMARK   10  A    between atoms: C21_21  and  N9_22 
ROOT
ATOM      1  C15 TAT d   1      37.542  40.721 146.972  0.00  0.00     0.089 C 
ATOM      2  O16 TAT d   1      36.696  39.885 147.857  0.00  0.00    -0.353 OA
ATOM      3  C17 TAT d   1      36.617  41.157 145.839  0.00  0.00     0.091 C 
ATOM      4  C19 TAT d   1      35.758  39.983 145.672  0.00  0.00     0.105 C 
ATOM      5  C21 TAT d   1      35.511  39.485 147.097  0.00  0.00     0.139 C 
ATOM      6  H3  TAT d   1      38.396  40.151 146.576  0.00  0.00     0.090 H 
ATOM      7  H4  TAT d   1      36.019  42.028 146.144  0.00  0.00     0.091 H 
ATOM      8  H6  TAT d   1      34.807  40.252 145.189  0.00  0.00     0.093 H 
ATOM      9  H8  TAT d   1      35.402  38.391 147.102  0.00  0.00     0.122 H 
ENDROOT
BRANCH   1  10
ATOM     10  C14 TAT d   1      38.032  41.888 147.777  0.00  0.00     0.056 C 
ATOM     11  H1  TAT d   1      38.635  41.520 148.620  0.00  0.00     0.079 H 
ATOM     12  H2  TAT d   1      38.651  42.535 147.138  0.00  0.00     0.079 H 
BRANCH  10  13
ATOM     13  O13 TAT d   1      36.910  42.654 148.290  0.00  0.00    -0.300 OA
BRANCH  13  14
ATOM     14  PA  TAT d   1      36.735  44.140 147.865  0.00  0.00     0.431 P 
ATOM     15  S1A TAT d   1      35.326  45.022 148.959  0.00  0.00     0.009 SA
ATOM     16  O2A TAT d   1      36.422  44.234 146.354  0.00  0.00    -0.240 OA
BRANCH  14  17
ATOM     17  O3A TAT d   1      38.104  44.825 148.223  0.00  0.00    -0.194 OA
BRANCH  17  18
ATOM     18  PB  TAT d   1      39.114  45.485 147.178  0.00  0.00     0.426 P 
ATOM     19  O1B TAT d   1      38.419  46.379 146.166  0.00  0.00    -0.624 OA
ATOM     20  O2B TAT d   1      39.946  44.405 146.451  0.00  0.00    -0.624 OA
BRANCH  18  21
ATOM     21  O3B TAT d   1      40.071  46.335 148.105  0.00  0.00    -0.173 OA
BRANCH  21  22
ATOM     22  PG  TAT d   1      40.519  47.832 147.949  0.00  0.00     0.431 P 
ATOM     23  O1G TAT d   1      41.664  47.827 146.975  0.00  0.00    -0.616 OA
ATOM     24  O2G TAT d   1      39.396  48.720 147.492  0.00  0.00    -0.616 OA
ATOM     25  O3G TAT d   1      41.035  48.291 149.289  0.00  0.00    -0.616 OA
ENDBRANCH  21  22
ENDBRANCH  18  21
ENDBRANCH  17  18
ENDBRANCH  14  17
ENDBRANCH  13  14
ENDBRANCH  10  13
ENDBRANCH   1  10
BRANCH   3  26
ATOM     26  O18 TAT d   1      37.339  41.499 144.649  0.00  0.00    -0.390 OA
ATOM     27  H5  TAT d   1      37.834  40.744 144.352  0.00  0.00     0.210 HD
ENDBRANCH   3  26
BRANCH   5  28
ATOM     28  N9  TAT d   1      34.276  40.111 147.701  0.00  0.00    -0.294 N 
ATOM     29  C8  TAT d   1      34.180  40.964 148.748  0.00  0.00     0.071 A 
ATOM     30  N7  TAT d   1      32.907  41.329 149.044  0.00  0.00    -0.236 NA
ATOM     31  H9  TAT d   1      35.045  41.324 149.302  0.00  0.00     0.144 H 
ATOM     32  C5  TAT d   1      32.185  40.678 148.144  0.00  0.00     0.149 A 
ATOM     33  C6  TAT d   1      30.797  40.624 147.919  0.00  0.00     0.155 A 
ATOM     34  C4  TAT d   1      32.998  39.898 147.274  0.00  0.00     0.167 A 
ATOM     35  N6  TAT d   1      29.917  41.286 148.660  0.00  0.00    -0.382 N 
ATOM     36  N1  TAT d   1      30.329  39.827 146.852  0.00  0.00    -0.222 NA
ATOM     37  H10 TAT d   1      28.911  41.212 148.453  0.00  0.00     0.157 HD
ATOM     38  H11 TAT d   1      30.240  41.873 149.442  0.00  0.00     0.157 HD
ATOM     39  C2  TAT d   1      31.269  39.120 146.078  0.00  0.00     0.091 A 
ATOM     40  N3  TAT d   1      32.591  39.099 146.224  0.00  0.00    -0.222 NA
ATOM     41  H12 TAT d   1      30.868  38.522 145.268  0.00  0.00     0.146 H 
ENDBRANCH   5  28
BRANCH   4  42
ATOM     42  O20 TAT d   1      36.448  39.020 144.870  0.00  0.00    -0.388 OA
ATOM     43  H7  TAT d   1      35.899  38.253 144.755  0.00  0.00     0.210 HD
ENDBRANCH   4  42
TORSDOF 10
