REMARK  12 active torsions:
REMARK  status: ('A' for Active; 'I' for Inactive)
REMARK    1  A    between atoms: C2_2  and  C1_1 
REMARK    2  A    between atoms: C4_4  and  O4_15 
REMARK    3  A    between atoms: N5_12  and  C5_5 
REMARK    4  A    between atoms: C6_6  and  C7_7 
REMARK    5  A    between atoms: C7_7  and  C8_8 
REMARK    6  A    between atoms: C7_7  and  O7_17 
REMARK    7  A    between atoms: C8_8  and  C9_9 
REMARK    8  A    between atoms: C8_8  and  O8_18 
REMARK    9  A    between atoms: C9_9  and  O9_19 
REMARK   10  A    between atoms: C10_10  and  C11_11 
REMARK   11  A    between atoms: C10_10  and  N5_12 
REMARK   12  A    between atoms: C10_10  and  O10_20 
ROOT
ATOM      1  C2  DAN d   1     -31.328  55.173  75.677  0.00  0.00     0.144 C 
ATOM      2  C3  DAN d   1     -31.850  54.981  76.949  0.00  0.00    -0.035 C 
ATOM      3  C4  DAN d   1     -32.474  56.199  77.653  0.00  0.00     0.085 C 
ATOM      4  C5  DAN d   1     -32.993  57.221  76.716  0.00  0.00     0.160 C 
ATOM      5  C6  DAN d   1     -31.861  57.612  75.799  0.00  0.00     0.102 C 
ATOM      6  O6  DAN d   1     -31.405  56.427  75.095  0.00  0.00    -0.335 OA
ATOM      7  H1  DAN d   1     -31.819  54.005  77.431  0.00  0.00     0.085 H 
ATOM      8  H2  DAN d   1     -31.625  56.686  78.154  0.00  0.00     0.092 H 
ATOM      9  H3  DAN d   1     -33.868  56.862  76.155  0.00  0.00     0.093 H 
ATOM     10  H4  DAN d   1     -31.045  58.045  76.396  0.00  0.00     0.091 H 
ENDROOT
BRANCH   5  11
ATOM     11  C7  DAN d   1     -32.288  58.600  74.718  0.00  0.00     0.089 C 
ATOM     12  H5  DAN d   1     -32.442  59.572  75.209  0.00  0.00     0.091 H 
BRANCH  11  13
ATOM     13  C8  DAN d   1     -31.229  58.742  73.687  0.00  0.00     0.083 C 
ATOM     14  H6  DAN d   1     -31.175  57.815  73.098  0.00  0.00     0.090 H 
BRANCH  13  15
ATOM     15  C9  DAN d   1     -31.576  59.894  72.761  0.00  0.00     0.043 C 
ATOM     16  H7  DAN d   1     -31.635  60.848  73.306  0.00  0.00     0.078 H 
ATOM     17  H8  DAN d   1     -32.523  59.716  72.231  0.00  0.00     0.078 H 
BRANCH  15  18
ATOM     18  O9  DAN d   1     -30.477  59.868  71.880  0.00  0.00    -0.398 OA
ATOM     19  H18 DAN d   1     -29.675  60.003  72.371  0.00  0.00     0.209 HD
ENDBRANCH  15  18
ENDBRANCH  13  15
BRANCH  13  20
ATOM     20  O8  DAN d   1     -29.962  58.965  74.312  0.00  0.00    -0.391 OA
ATOM     21  H17 DAN d   1     -29.290  59.038  73.645  0.00  0.00     0.210 HD
ENDBRANCH  13  20
ENDBRANCH  11  13
BRANCH  11  22
ATOM     22  O7  DAN d   1     -33.514  58.255  74.003  0.00  0.00    -0.390 OA
ATOM     23  H16 DAN d   1     -34.224  58.153  74.626  0.00  0.00     0.210 HD
ENDBRANCH  11  22
ENDBRANCH   5  11
BRANCH   4  24
ATOM     24  N5  DAN d   1     -33.307  58.390  77.540  0.00  0.00    -0.040 N 
ATOM     25  H13 DAN d   1     -32.619  59.097  77.332  0.00  0.00     0.280 HD
ATOM     26  H14 DAN d   1     -33.219  58.109  78.504  0.00  0.00     0.280 HD
BRANCH  24  27
ATOM     27  C10 DAN d   1     -34.607  58.997  77.386  0.00  0.00     0.187 C 
ATOM     28  H9  DAN d   1     -35.356  58.347  77.863  0.00  0.00     0.128 H 
BRANCH  27  29
ATOM     29  C11 DAN d   1     -34.683  60.383  78.066  0.00  0.00    -0.029 C 
ATOM     30  H10 DAN d   1     -35.688  60.807  77.924  0.00  0.00     0.033 H 
ATOM     31  H11 DAN d   1     -33.936  61.053  77.617  0.00  0.00     0.033 H 
ATOM     32  H12 DAN d   1     -34.480  60.275  79.142  0.00  0.00     0.033 H 
ENDBRANCH  27  29
BRANCH  27  33
ATOM     33  O10 DAN d   1     -34.887  59.071  76.020  0.00  0.00    -0.370 OA
ATOM     34  H19 DAN d   1     -35.741  59.468  75.894  0.00  0.00     0.212 HD
ENDBRANCH  27  33
ENDBRANCH  24  27
ENDBRANCH   4  24
BRANCH   3  35
ATOM     35  O4  DAN d   1     -33.387  55.895  78.717  0.00  0.00    -0.389 OA
ATOM     36  H15 DAN d   1     -33.562  56.683  79.218  0.00  0.00     0.210 HD
ENDBRANCH   3  35
BRANCH   1  37
ATOM     37  C1  DAN d   1     -30.601  54.023  74.903  0.00  0.00     0.233 C 
ATOM     38  O1A DAN d   1     -30.486  52.885  75.445  0.00  0.00    -0.642 OA
ATOM     39  O1B DAN d   1     -30.163  54.291  73.767  0.00  0.00    -0.642 OA
ENDBRANCH   1  37
TORSDOF 12
