REMARK  5 active torsions:
REMARK  status: ('A' for Active; 'I' for Inactive)
REMARK    1  A    between atoms: CA_2  and  N_1 
REMARK    2  A    between atoms: CA_2  and  C_3 
REMARK    3  A    between atoms: CA_2  and  CB_5 
REMARK    4  A    between atoms: CB_5  and  CG_6 
REMARK    5  A    between atoms: CG_6  and  CD_7 
REMARK       I    between atoms: CD_7  and  NE2_9 
ROOT
ATOM      1  CB  GLN d   1       0.785  12.950  16.114  0.00  0.00    -0.021 C 
ATOM      2  H5  GLN d   1      -0.128  13.017  16.724  0.00  0.00     0.037 H 
ATOM      3  H6  GLN d   1       0.846  13.824  15.449  0.00  0.00     0.037 H 
ENDROOT
BRANCH   1   4
ATOM      4  CA  GLN d   1       0.708  11.689  15.257  0.00  0.00     0.183 C 
ATOM      5  H4  GLN d   1       0.779  10.804  15.906  0.00  0.00     0.101 H 
BRANCH   4   6
ATOM      6  C   GLN d   1      -0.623  11.657  14.528  0.00  0.00     0.204 C 
ATOM      7  O   GLN d   1      -1.593  11.109  15.085  0.00  0.00    -0.646 OA
ATOM      8  O1  GLN d   1      -0.744  12.173  13.385  0.00  0.00    -0.646 OA
ENDBRANCH   4   6
BRANCH   4   9
ATOM      9  N   GLN d   1       1.841  11.676  14.302  0.00  0.00    -0.065 N 
ATOM     10  H1  GLN d   1       2.710  11.698  14.812  0.00  0.00     0.275 HD
ATOM     11  H2  GLN d   1       1.784  12.483  13.701  0.00  0.00     0.275 HD
ATOM     12  H3  GLN d   1       1.800  10.838  13.743  0.00  0.00     0.275 HD
ENDBRANCH   4   9
ENDBRANCH   1   4
BRANCH   1  13
ATOM     13  CG  GLN d   1       1.987  12.961  17.039  0.00  0.00     0.011 C 
ATOM     14  H7  GLN d   1       2.881  13.229  16.457  0.00  0.00     0.047 H 
ATOM     15  H8  GLN d   1       2.116  11.956  17.466  0.00  0.00     0.047 H 
BRANCH  13  16
ATOM     16  CD  GLN d   1       1.823  13.953  18.166  0.00  0.00     0.215 C 
ATOM     17  OE1 GLN d   1       1.921  13.614  19.358  0.00  0.00    -0.274 OA
ATOM     18  NE2 GLN d   1       1.614  15.194  17.796  0.00  0.00    -0.370 N 
ATOM     19  H9  GLN d   1       1.496  15.908  18.486  0.00  0.00     0.159 HD
ATOM     20  H10 GLN d   1       1.573  15.426  16.824  0.00  0.00     0.159 HD
ENDBRANCH  13  16
ENDBRANCH   1  13
TORSDOF 5
