REMARK  5 active torsions:
REMARK  status: ('A' for Active; 'I' for Inactive)
REMARK    1  A    between atoms: C1_1  and  C2_2 
REMARK    2  A    between atoms: C2_2  and  CA_3 
REMARK    3  A    between atoms: CA_3  and  CB_5 
REMARK    4  A    between atoms: CA_3  and  C_4 
REMARK    5  A    between atoms: CB_5  and  CG_6 
ROOT
ATOM      1  CB  BZS d   1      63.889  35.268  73.136  0.00  0.00    -0.028 C 
ATOM      2  H4  BZS d   1      64.531  35.830  73.830  0.00  0.00     0.041 H 
ATOM      3  H5  BZS d   1      62.864  35.231  73.533  0.00  0.00     0.041 H 
ENDROOT
BRANCH   1   4
ATOM      4  CA  BZS d   1      64.417  33.848  73.034  0.00  0.00     0.043 C 
ATOM      5  H3  BZS d   1      64.536  33.447  74.051  0.00  0.00     0.058 H 
BRANCH   4   6
ATOM      6  C2  BZS d   1      65.804  33.744  72.326  0.00  0.00     0.028 C 
ATOM      7  H1  BZS d   1      65.749  34.312  71.386  0.00  0.00     0.050 H 
ATOM      8  H2  BZS d   1      66.557  34.199  72.986  0.00  0.00     0.050 H 
BRANCH   6   9
ATOM      9  C1  BZS d   1      66.265  32.317  71.992  0.00  0.00     0.173 C 
ATOM     10  O2  BZS d   1      66.749  32.167  70.869  0.00  0.00    -0.648 OA
ATOM     11  O1  BZS d   1      66.182  31.366  72.862  0.00  0.00    -0.648 OA
ENDBRANCH   6   9
ENDBRANCH   4   6
BRANCH   4  12
ATOM     12  C   BZS d   1      63.368  33.055  72.324  0.00  0.00     0.177 C 
ATOM     13  O4  BZS d   1      63.531  32.775  71.128  0.00  0.00    -0.648 OA
ATOM     14  O3  BZS d   1      62.362  32.805  72.978  0.00  0.00    -0.648 OA
ENDBRANCH   4  12
ENDBRANCH   1   4
BRANCH   1  15
ATOM     15  CG  BZS d   1      63.864  35.984  71.833  0.00  0.00    -0.057 A 
ATOM     16  CD2 BZS d   1      64.857  36.934  71.569  0.00  0.00    -0.077 A 
ATOM     17  CE2 BZS d   1      64.897  37.677  70.389  0.00  0.00    -0.082 A 
ATOM     18  H7  BZS d   1      65.628  37.100  72.313  0.00  0.00     0.084 H 
ATOM     19  CZ  BZS d   1      63.919  37.388  69.431  0.00  0.00    -0.083 A 
ATOM     20  H9  BZS d   1      65.648  38.440  70.222  0.00  0.00     0.083 H 
ATOM     21  CE1 BZS d   1      62.935  36.412  69.666  0.00  0.00    -0.082 A 
ATOM     22  H10 BZS d   1      63.920  37.927  68.490  0.00  0.00     0.083 H 
ATOM     23  CD1 BZS d   1      62.889  35.706  70.873  0.00  0.00    -0.077 A 
ATOM     24  H8  BZS d   1      62.199  36.203  68.898  0.00  0.00     0.083 H 
ATOM     25  H6  BZS d   1      62.119  34.965  71.057  0.00  0.00     0.084 H 
ENDBRANCH   1  15
TORSDOF 5
