REMARK  6 active torsions:
REMARK  status: ('A' for Active; 'I' for Inactive)
REMARK    1  A    between atoms: CA_2  and  C_3 
REMARK    2  A    between atoms: C_3  and  C2_8 
REMARK    3  A    between atoms: C5_11  and  C6_13 
REMARK    4  A    between atoms: C6_13  and  C7_14 
REMARK    5  A    between atoms: C6_13  and  C8_15 
REMARK    6  A    between atoms: C6_13  and  C9_16 
ROOT
ATOM      1  C2  PTB d   1      21.584   1.139  -8.195  0.00  0.00     0.241 A 
ATOM      2  N3  PTB d   1      21.276   2.371  -8.644  0.00  0.00    -0.118 NA
ATOM      3  N4  PTB d   1      22.368   3.104  -8.682  0.00  0.00    -0.126 NA
ATOM      4  C5  PTB d   1      23.430   2.372  -8.256  0.00  0.00     0.177 A 
ATOM      5  O1  PTB d   1      22.974   1.076  -7.925  0.00  0.00    -0.270 OA
ENDROOT
BRANCH   1   6
ATOM      6  C   PTB d   1      20.736  -0.018  -7.967  0.00  0.00     0.234 C 
ATOM      7  O   PTB d   1      21.180  -1.105  -7.648  0.00  0.00    -0.286 OA
BRANCH   6   8
ATOM      8  CA  PTB d   1      19.246   0.236  -8.128  0.00  0.00     0.167 C 
ATOM      9  N   PTB d   1      18.680  -0.476  -9.324  0.00  0.00    -0.064 N 
ATOM     10  CD  PTB d   1      17.356  -1.060  -8.904  0.00  0.00     0.083 C 
ATOM     11  H1  PTB d   1      19.305  -1.211  -9.617  0.00  0.00     0.278 HD
ATOM     12  H2  PTB d   1      18.546   0.174 -10.083  0.00  0.00     0.278 HD
ATOM     13  CG  PTB d   1      17.090  -0.647  -7.463  0.00  0.00    -0.040 C 
ATOM     14  H8  PTB d   1      17.393  -2.157  -8.976  0.00  0.00     0.075 H 
ATOM     15  H9  PTB d   1      16.556  -0.676  -9.555  0.00  0.00     0.075 H 
ATOM     16  CB  PTB d   1      18.413  -0.173  -6.912  0.00  0.00    -0.030 C 
ATOM     17  H6  PTB d   1      16.349   0.166  -7.429  0.00  0.00     0.035 H 
ATOM     18  H7  PTB d   1      16.720  -1.505  -6.882  0.00  0.00     0.035 H 
ATOM     19  H4  PTB d   1      18.264   0.687  -6.243  0.00  0.00     0.036 H 
ATOM     20  H5  PTB d   1      18.912  -0.984  -6.361  0.00  0.00     0.036 H 
ATOM     21  H3  PTB d   1      19.118   1.318  -8.277  0.00  0.00     0.097 H 
ENDBRANCH   6   8
ENDBRANCH   1   6
BRANCH   4  22
ATOM     22  C6  PTB d   1      24.884   2.716  -8.101  0.00  0.00     0.018 C 
BRANCH  22  23
ATOM     23  C7  PTB d   1      25.001   4.023  -7.318  0.00  0.00    -0.062 C 
ATOM     24  H10 PTB d   1      26.063   4.285  -7.198  0.00  0.00     0.029 H 
ATOM     25  H11 PTB d   1      24.540   3.899  -6.327  0.00  0.00     0.029 H 
ATOM     26  H12 PTB d   1      24.485   4.826  -7.865  0.00  0.00     0.029 H 
ENDBRANCH  22  23
BRANCH  22  27
ATOM     27  C8  PTB d   1      25.506   2.894  -9.481  0.00  0.00    -0.062 C 
ATOM     28  H13 PTB d   1      25.422   1.953 -10.045  0.00  0.00     0.029 H 
ATOM     29  H14 PTB d   1      26.567   3.163  -9.373  0.00  0.00     0.029 H 
ATOM     30  H15 PTB d   1      24.978   3.694 -10.021  0.00  0.00     0.029 H 
ENDBRANCH  22  27
BRANCH  22  31
ATOM     31  C9  PTB d   1      25.600   1.592  -7.354  0.00  0.00    -0.062 C 
ATOM     32  H16 PTB d   1      25.148   1.467  -6.359  0.00  0.00     0.029 H 
ATOM     33  H17 PTB d   1      26.665   1.845  -7.244  0.00  0.00     0.029 H 
ATOM     34  H18 PTB d   1      25.503   0.655  -7.921  0.00  0.00     0.029 H 
ENDBRANCH  22  31
ENDBRANCH   4  22
TORSDOF 6
