REMARK  7 active torsions:
REMARK  status: ('A' for Active; 'I' for Inactive)
REMARK    1  A    between atoms: C1_1  and  O1_8 
REMARK    2  A    between atoms: C2_2  and  O2_9 
REMARK    3  A    between atoms: C3_3  and  O3_10 
REMARK    4  A    between atoms: C4_4  and  O4_11 
REMARK    5  A    between atoms: C5_5  and  C6_6 
REMARK    6  A    between atoms: C6_6  and  O6_13 
REMARK    7  A    between atoms: O1_8  and  C7_7 
ROOT
ATOM      1  C1  GYP d   1      51.084  54.128  66.381  0.00  0.00     0.158 C 
ATOM      2  C2  GYP d   1      51.664  55.415  65.784  0.00  0.00     0.110 C 
ATOM      3  C3  GYP d   1      51.671  56.572  66.782  0.00  0.00     0.092 C 
ATOM      4  C4  GYP d   1      50.233  56.808  67.247  0.00  0.00     0.090 C 
ATOM      5  C5  GYP d   1      49.701  55.516  67.913  0.00  0.00     0.089 C 
ATOM      6  O5  GYP d   1      49.748  54.414  66.940  0.00  0.00    -0.349 OA
ATOM      7  H1  GYP d   1      50.965  53.400  65.565  0.00  0.00     0.133 H 
ATOM      8  H2  GYP d   1      51.036  55.711  64.930  0.00  0.00     0.094 H 
ATOM      9  H3  GYP d   1      52.298  56.312  67.648  0.00  0.00     0.091 H 
ATOM     10  H4  GYP d   1      49.602  57.060  66.382  0.00  0.00     0.091 H 
ATOM     11  H5  GYP d   1      50.352  55.272  68.766  0.00  0.00     0.090 H 
ENDROOT
BRANCH   1  12
ATOM     12  O1  GYP d   1      51.954  53.534  67.370  0.00  0.00    -0.363 OA
BRANCH  12  13
ATOM     13  C7  GYP d   1      51.427  52.301  67.918  0.00  0.00     0.007 C 
ATOM     14  H8  GYP d   1      52.131  51.900  68.662  0.00  0.00     0.066 H 
ATOM     15  H9  GYP d   1      51.291  51.569  67.109  0.00  0.00     0.066 H 
ATOM     16  H10 GYP d   1      50.458  52.498  68.400  0.00  0.00     0.066 H 
ENDBRANCH  12  13
ENDBRANCH   1  12
BRANCH   2  17
ATOM     17  O2  GYP d   1      52.993  55.149  65.303  0.00  0.00    -0.388 OA
ATOM     18  H11 GYP d   1      53.334  55.924  64.872  0.00  0.00     0.210 HD
ENDBRANCH   2  17
BRANCH   3  19
ATOM     19  O3  GYP d   1      52.207  57.750  66.145  0.00  0.00    -0.390 OA
ATOM     20  H12 GYP d   1      52.200  58.473  66.761  0.00  0.00     0.210 HD
ENDBRANCH   3  19
BRANCH   5  21
ATOM     21  C6  GYP d   1      48.261  55.666  68.427  0.00  0.00     0.043 C 
ATOM     22  H6  GYP d   1      48.223  56.494  69.150  0.00  0.00     0.078 H 
ATOM     23  H7  GYP d   1      47.958  54.732  68.922  0.00  0.00     0.078 H 
BRANCH  21  24
ATOM     24  O6  GYP d   1      47.357  55.940  67.360  0.00  0.00    -0.398 OA
ATOM     25  H14 GYP d   1      47.611  56.748  66.931  0.00  0.00     0.209 HD
ENDBRANCH  21  24
ENDBRANCH   5  21
BRANCH   4  26
ATOM     26  O4  GYP d   1      50.210  57.888  68.181  0.00  0.00    -0.390 OA
ATOM     27  H13 GYP d   1      49.318  58.033  68.474  0.00  0.00     0.210 HD
ENDBRANCH   4  26
TORSDOF 7
