REMARK  11 active torsions:
REMARK  status: ('A' for Active; 'I' for Inactive)
REMARK    1  A    between atoms: O3B_5  and  PG_1 
REMARK    2  A    between atoms: PB_6  and  O3B_5 
REMARK    3  A    between atoms: O3A_9  and  PB_6 
REMARK    4  A    between atoms: PA_10  and  O3A_9 
REMARK    5  A    between atoms: O5'_25  and  PA_10 
REMARK    6  A    between atoms: C1'_33  and  N9_13 
REMARK    7  A    between atoms: C2_20  and  N2_21 
REMARK    8  A    between atoms: C5'_26  and  O5'_25 
REMARK    9  A    between atoms: C4'_27  and  C5'_26 
REMARK   10  A    between atoms: C3'_29  and  O3'_30 
REMARK   11  A    between atoms: C2'_31  and  O2'_32 
ROOT
ATOM      1  C4' 8GT d   1     -28.095 -19.119   6.115  0.00  0.00     0.089 C 
ATOM      2  O4' 8GT d   1     -26.849 -19.798   6.507  0.00  0.00    -0.353 OA
ATOM      3  C3' 8GT d   1     -27.640 -17.886   5.287  0.00  0.00     0.091 C 
ATOM      4  C2' 8GT d   1     -26.151 -18.074   5.239  0.00  0.00     0.105 C 
ATOM      5  C1' 8GT d   1     -25.895 -18.761   6.510  0.00  0.00     0.143 C 
ATOM      6  H7  8GT d   1     -28.605 -18.762   7.022  0.00  0.00     0.090 H 
ATOM      7  H8  8GT d   1     -28.062 -17.908   4.271  0.00  0.00     0.091 H 
ATOM      8  H10 8GT d   1     -25.852 -18.693   4.380  0.00  0.00     0.093 H 
ATOM      9  H12 8GT d   1     -26.094 -18.069   7.341  0.00  0.00     0.123 H 
ENDROOT
BRANCH   1  10
ATOM     10  C5' 8GT d   1     -29.059 -20.025   5.396  0.00  0.00     0.058 C 
ATOM     11  H5  8GT d   1     -28.592 -20.415   4.479  0.00  0.00     0.079 H 
ATOM     12  H6  8GT d   1     -29.341 -20.864   6.049  0.00  0.00     0.079 H 
BRANCH  10  13
ATOM     13  O5' 8GT d   1     -30.223 -19.256   5.061  0.00  0.00    -0.287 OA
BRANCH  13  14
ATOM     14  PA  8GT d   1     -31.507 -19.876   4.352  0.00  0.00     0.417 P 
ATOM     15  O1A 8GT d   1     -31.846 -21.225   4.895  0.00  0.00    -0.624 OA
ATOM     16  O2A 8GT d   1     -32.632 -18.891   4.311  0.00  0.00    -0.624 OA
BRANCH  14  17
ATOM     17  O3A 8GT d   1     -30.965 -20.079   2.838  0.00  0.00    -0.180 OA
BRANCH  17  18
ATOM     18  PB  8GT d   1     -30.792 -19.142   1.570  0.00  0.00     0.428 P 
ATOM     19  O1B 8GT d   1     -29.929 -19.820   0.583  0.00  0.00    -0.624 OA
ATOM     20  O2B 8GT d   1     -32.109 -18.776   1.018  0.00  0.00    -0.624 OA
BRANCH  18  21
ATOM     21  O3B 8GT d   1     -30.046 -17.830   2.159  0.00  0.00    -0.173 OA
BRANCH  21  22
ATOM     22  PG  8GT d   1     -29.367 -16.593   1.387  0.00  0.00     0.431 P 
ATOM     23  O1G 8GT d   1     -29.932 -16.528  -0.003  0.00  0.00    -0.616 OA
ATOM     24  O2G 8GT d   1     -29.665 -15.358   2.191  0.00  0.00    -0.616 OA
ATOM     25  O3G 8GT d   1     -27.861 -16.807   1.308  0.00  0.00    -0.616 OA
ENDBRANCH  21  22
ENDBRANCH  18  21
ENDBRANCH  17  18
ENDBRANCH  14  17
ENDBRANCH  13  14
ENDBRANCH  10  13
ENDBRANCH   1  10
BRANCH   3  26
ATOM     26  O3' 8GT d   1     -28.062 -16.683   5.937  0.00  0.00    -0.390 OA
ATOM     27  H9  8GT d   1     -27.781 -15.933   5.426  0.00  0.00     0.210 HD
ENDBRANCH   3  26
BRANCH   5  28
ATOM     28  N9  8GT d   1     -24.537 -19.280   6.683  0.00  0.00    -0.251 N 
ATOM     29  C8  8GT d   1     -23.764 -19.979   5.781  0.00  0.00     0.353 A 
ATOM     30  N7  8GT d   1     -22.572 -20.277   6.250  0.00  0.00    -0.184 NA
ATOM     31  O8  8GT d   1     -24.206 -20.254   4.670  0.00  0.00    -0.244 OA
ATOM     32  C5  8GT d   1     -22.575 -19.739   7.537  0.00  0.00     0.175 A 
ATOM     33  C6  8GT d   1     -21.570 -19.722   8.546  0.00  0.00     0.292 A 
ATOM     34  C4  8GT d   1     -23.784 -19.138   7.796  0.00  0.00     0.164 A 
ATOM     35  O6  8GT d   1     -20.429 -20.184   8.523  0.00  0.00    -0.265 OA
ATOM     36  N1  8GT d   1     -22.011 -19.065   9.709  0.00  0.00    -0.154 N 
ATOM     37  C2  8GT d   1     -23.269 -18.500   9.852  0.00  0.00     0.680 A 
ATOM     38  H1  8GT d   1     -21.378 -19.002  10.480  0.00  0.00     0.187 HD
ATOM     39  N3  8GT d   1     -24.190 -18.507   8.920  0.00  0.00    -0.174 N 
ATOM     40  H4  8GT d   1     -25.120 -18.079   9.032  0.00  0.00     0.186 HD
BRANCH  37  41
ATOM     41  N2  8GT d   1     -23.522 -17.917  11.029  0.00  0.00    -0.234 N 
ATOM     42  H2  8GT d   1     -24.438 -17.478  11.200  0.00  0.00     0.174 HD
ATOM     43  H3  8GT d   1     -22.801 -17.907  11.764  0.00  0.00     0.174 HD
ENDBRANCH  37  41
ENDBRANCH   5  28
BRANCH   4  44
ATOM     44  O2' 8GT d   1     -25.468 -16.821   5.185  0.00  0.00    -0.388 OA
ATOM     45  H11 8GT d   1     -25.738 -16.348   4.407  0.00  0.00     0.210 HD
ENDBRANCH   4  44
TORSDOF 11
