REMARK  10 active torsions:
REMARK  status: ('A' for Active; 'I' for Inactive)
REMARK    1  A    between atoms: O3B_5  and  PG_1 
REMARK    2  A    between atoms: PB_6  and  O3B_5 
REMARK    3  A    between atoms: O3A_9  and  PB_6 
REMARK    4  A    between atoms: PA_10  and  O3A_9 
REMARK    5  A    between atoms: O5'_25  and  PA_10 
REMARK    6  A    between atoms: C1'_32  and  N9_13 
REMARK    7  A    between atoms: C2_20  and  N2_21 
REMARK    8  A    between atoms: C5'_26  and  O5'_25 
REMARK    9  A    between atoms: C4'_27  and  C5'_26 
REMARK   10  A    between atoms: C3'_29  and  O3'_30 
ROOT
ATOM      1  C4' 8DG d   1     -27.991 -19.009   5.835  0.00  0.00     0.087 C 
ATOM      2  O4' 8DG d   1     -26.764 -19.705   6.207  0.00  0.00    -0.356 OA
ATOM      3  C3' 8DG d   1     -27.513 -17.711   5.143  0.00  0.00     0.066 C 
ATOM      4  C2' 8DG d   1     -26.014 -17.798   5.202  0.00  0.00     0.003 C 
ATOM      5  C1' 8DG d   1     -25.849 -18.654   6.406  0.00  0.00     0.119 C 
ATOM      6  H6  8DG d   1     -28.536 -18.737   6.751  0.00  0.00     0.090 H 
ATOM      7  H7  8DG d   1     -27.849 -17.682   4.096  0.00  0.00     0.087 H 
ATOM      8  H9  8DG d   1     -25.553 -16.809   5.339  0.00  0.00     0.043 H 
ATOM      9  H10 8DG d   1     -25.598 -18.275   4.303  0.00  0.00     0.043 H 
ATOM     10  H11 8DG d   1     -26.131 -18.075   7.298  0.00  0.00     0.119 H 
ENDROOT
BRANCH   1  11
ATOM     11  C5' 8DG d   1     -28.922 -19.853   5.004  0.00  0.00     0.058 C 
ATOM     12  H4  8DG d   1     -28.458 -20.073   4.031  0.00  0.00     0.079 H 
ATOM     13  H5  8DG d   1     -29.140 -20.795   5.528  0.00  0.00     0.079 H 
BRANCH  11  14
ATOM     14  O5' 8DG d   1     -30.136 -19.112   4.809  0.00  0.00    -0.287 OA
BRANCH  14  15
ATOM     15  PA  8DG d   1     -31.481 -19.774   4.277  0.00  0.00     0.417 P 
ATOM     16  O1A 8DG d   1     -31.744 -21.095   4.921  0.00  0.00    -0.624 OA
ATOM     17  O2A 8DG d   1     -32.618 -18.813   4.301  0.00  0.00    -0.624 OA
BRANCH  15  18
ATOM     18  O3A 8DG d   1     -31.095 -20.048   2.732  0.00  0.00    -0.180 OA
BRANCH  18  19
ATOM     19  PB  8DG d   1     -30.864 -19.147   1.449  0.00  0.00     0.428 P 
ATOM     20  O1B 8DG d   1     -29.839 -19.786   0.602  0.00  0.00    -0.624 OA
ATOM     21  O2B 8DG d   1     -32.136 -18.921   0.737  0.00  0.00    -0.624 OA
BRANCH  19  22
ATOM     22  O3B 8DG d   1     -30.305 -17.752   2.043  0.00  0.00    -0.173 OA
BRANCH  22  23
ATOM     23  PG  8DG d   1     -29.492 -16.582   1.305  0.00  0.00     0.431 P 
ATOM     24  O1G 8DG d   1     -30.013 -16.457  -0.094  0.00  0.00    -0.616 OA
ATOM     25  O2G 8DG d   1     -29.700 -15.336   2.117  0.00  0.00    -0.616 OA
ATOM     26  O3G 8DG d   1     -28.002 -16.930   1.270  0.00  0.00    -0.616 OA
ENDBRANCH  22  23
ENDBRANCH  19  22
ENDBRANCH  18  19
ENDBRANCH  15  18
ENDBRANCH  14  15
ENDBRANCH  11  14
ENDBRANCH   1  11
BRANCH   3  27
ATOM     27  O3' 8DG d   1     -28.030 -16.574   5.825  0.00  0.00    -0.393 OA
ATOM     28  H8  8DG d   1     -27.730 -15.783   5.392  0.00  0.00     0.210 HD
ENDBRANCH   3  27
BRANCH   5  29
ATOM     29  N9  8DG d   1     -24.497 -19.176   6.624  0.00  0.00    -0.252 N 
ATOM     30  C8  8DG d   1     -23.683 -19.861   5.742  0.00  0.00     0.353 A 
ATOM     31  N7  8DG d   1     -22.515 -20.165   6.259  0.00  0.00    -0.184 NA
ATOM     32  O8  8DG d   1     -24.076 -20.124   4.599  0.00  0.00    -0.244 OA
ATOM     33  C5  8DG d   1     -22.572 -19.650   7.556  0.00  0.00     0.177 A 
ATOM     34  C6  8DG d   1     -21.612 -19.651   8.610  0.00  0.00     0.292 A 
ATOM     35  C4  8DG d   1     -23.791 -19.053   7.774  0.00  0.00     0.190 A 
ATOM     36  O6  8DG d   1     -20.470 -20.113   8.632  0.00  0.00    -0.265 OA
ATOM     37  N1  8DG d   1     -22.103 -19.017   9.766  0.00  0.00    -0.152 N 
ATOM     38  C2  8DG d   1     -23.363 -18.455   9.867  0.00  0.00     0.703 A 
ATOM     39  H1  8DG d   1     -21.503 -18.970  10.565  0.00  0.00     0.187 HD
ATOM     40  N3  8DG d   1     -24.245 -18.443   8.895  0.00  0.00    -0.044 NA
BRANCH  38  41
ATOM     41  N2  8DG d   1     -23.664 -17.896  11.049  0.00  0.00    -0.233 N 
ATOM     42  H2  8DG d   1     -24.586 -17.459  11.192  0.00  0.00     0.174 HD
ATOM     43  H3  8DG d   1     -22.973 -17.904  11.813  0.00  0.00     0.174 HD
ENDBRANCH  38  41
ENDBRANCH   5  29
TORSDOF 10
