REMARK  4 active torsions:
REMARK  status: ('A' for Active; 'I' for Inactive)
REMARK    1  A    between atoms: C11_2  and  C10_4 
REMARK    2  A    between atoms: C10_4  and  N2_5 
REMARK    3  A    between atoms: C10_4  and  C9_6 
REMARK    4  A    between atoms: C9_6  and  C4_7 
ROOT
ATOM      1  C4  IBC d   1      13.886   8.634  22.052  0.00  0.00    -0.041 C 
ATOM      2  C1  IBC d   1      14.152   7.771  20.888  0.00  0.00     0.071 A 
ATOM      3  C5  IBC d   1      13.398   9.906  21.965  0.00  0.00    -0.096 C 
ATOM      4  C6  IBC d   1      13.058  10.731  20.727  0.00  0.00    -0.049 C 
ATOM      5  C7  IBC d   1      12.143  10.028  19.713  0.00  0.00    -0.057 C 
ATOM      6  C8  IBC d   1      12.792   8.890  18.883  0.00  0.00    -0.017 C 
ATOM      7  C3  IBC d   1      13.683   7.916  19.590  0.00  0.00     0.092 A 
ATOM      8  O1  IBC d   1      14.126   6.932  18.788  0.00  0.00    -0.238 OA
ATOM      9  N1  IBC d   1      14.969   6.053  19.575  0.00  0.00    -0.225 N 
ATOM     10  C2  IBC d   1      14.991   6.539  20.835  0.00  0.00     0.278 A 
ATOM     11  O2  IBC d   1      15.635   6.008  21.788  0.00  0.00    -0.265 OA
ATOM     12  H7  IBC d   1      13.226  10.405  22.918  0.00  0.00     0.077 H 
ATOM     13  H8  IBC d   1      13.999  10.987  20.218  0.00  0.00     0.038 H 
ATOM     14  H9  IBC d   1      12.557  11.653  21.058  0.00  0.00     0.038 H 
ATOM     15  H10 IBC d   1      11.774  10.789  19.009  0.00  0.00     0.034 H 
ATOM     16  H11 IBC d   1      11.295   9.599  20.267  0.00  0.00     0.034 H 
ATOM     17  H12 IBC d   1      13.391   9.365  18.092  0.00  0.00     0.043 H 
ATOM     18  H13 IBC d   1      11.975   8.312  18.427  0.00  0.00     0.043 H 
ATOM     19  H14 IBC d   1      15.446   5.238  19.246  0.00  0.00     0.198 HD
ENDROOT
BRANCH   1  20
ATOM     20  C9  IBC d   1      14.090   8.069  23.463  0.00  0.00    -0.004 C 
ATOM     21  H5  IBC d   1      15.132   7.727  23.549  0.00  0.00     0.044 H 
ATOM     22  H6  IBC d   1      13.909   8.878  24.186  0.00  0.00     0.044 H 
BRANCH  20  23
ATOM     23  C10 IBC d   1      13.152   6.872  23.824  0.00  0.00     0.186 C 
ATOM     24  H1  IBC d   1      13.440   6.006  23.209  0.00  0.00     0.101 H 
BRANCH  23  25
ATOM     25  C11 IBC d   1      13.386   6.515  25.334  0.00  0.00     0.204 C 
ATOM     26  O4  IBC d   1      14.528   6.105  25.695  0.00  0.00    -0.646 OA
ATOM     27  O3  IBC d   1      12.364   6.642  26.107  0.00  0.00    -0.646 OA
ENDBRANCH  23  25
BRANCH  23  28
ATOM     28  N2  IBC d   1      11.685   7.174  23.542  0.00  0.00    -0.065 N 
ATOM     29  H2  IBC d   1      11.570   7.399  22.566  0.00  0.00     0.275 HD
ATOM     30  H3  IBC d   1      11.389   7.957  24.104  0.00  0.00     0.275 HD
ATOM     31  H4  IBC d   1      11.126   6.367  23.769  0.00  0.00     0.275 HD
ENDBRANCH  23  28
ENDBRANCH  20  23
ENDBRANCH   1  20
TORSDOF 4
