REMARK  7 active torsions:
REMARK  status: ('A' for Active; 'I' for Inactive)
REMARK    1  A    between atoms: P_1  and  O5_5 
REMARK    2  A    between atoms: O5_5  and  C5_6 
REMARK    3  A    between atoms: C5_6  and  C4_7 
REMARK    4  A    between atoms: C3_9  and  O3_10 
REMARK    5  A    between atoms: C2_11  and  O2_12 
REMARK    6  A    between atoms: C1_13  and  N1_14 
REMARK    7  A    between atoms: C6_21  and  O1_22 
ROOT
ATOM      1  C4  BMP d   1      24.570 -18.098  11.954  0.00  0.00     0.089 C 
ATOM      2  O4  BMP d   1      25.497 -18.971  12.659  0.00  0.00    -0.353 OA
ATOM      3  C3  BMP d   1      24.009 -17.222  13.013  0.00  0.00     0.091 C 
ATOM      4  C2  BMP d   1      25.133 -17.119  14.052  0.00  0.00     0.105 C 
ATOM      5  C1  BMP d   1      25.749 -18.497  13.988  0.00  0.00     0.143 C 
ATOM      6  H3  BMP d   1      23.757 -18.678  11.493  0.00  0.00     0.090 H 
ATOM      7  H4  BMP d   1      23.751 -16.235  12.602  0.00  0.00     0.091 H 
ATOM      8  H6  BMP d   1      25.871 -16.362  13.749  0.00  0.00     0.093 H 
ATOM      9  H8  BMP d   1      25.240 -19.135  14.725  0.00  0.00     0.123 H 
ENDROOT
BRANCH   5  10
ATOM     10  N1  BMP d   1      27.210 -18.608  14.219  0.00  0.00    -0.249 N 
ATOM     11  C2  BMP d   1      28.114 -17.816  13.529  0.00  0.00     0.333 A 
ATOM     12  O2  BMP d   1      27.762 -17.032  12.679  0.00  0.00    -0.246 OA
ATOM     13  N3  BMP d   1      29.410 -17.979  13.838  0.00  0.00    -0.275 N 
ATOM     14  C4  BMP d   1      29.941 -18.882  14.796  0.00  0.00     0.253 A 
ATOM     15  H9  BMP d   1      30.066 -17.408  13.345  0.00  0.00     0.173 HD
ATOM     16  O4  BMP d   1      31.158 -18.892  14.928  0.00  0.00    -0.268 OA
ATOM     17  C5  BMP d   1      28.989 -19.696  15.479  0.00  0.00     0.032 A 
ATOM     18  C6  BMP d   1      27.649 -19.578  15.183  0.00  0.00     0.153 A 
ATOM     19  H10 BMP d   1      29.321 -20.409  16.232  0.00  0.00     0.098 H 
BRANCH  18  20
ATOM     20  O1  BMP d   1      26.751 -20.295  15.702  0.00  0.00    -0.346 OA
ATOM     21  H11 BMP d   1      27.147 -20.898  16.320  0.00  0.00     0.219 HD
ENDBRANCH  18  20
ENDBRANCH   5  10
BRANCH   4  22
ATOM     22  O2  BMP d   1      24.640 -16.768  15.310  0.00  0.00    -0.388 OA
ATOM     23  H7  BMP d   1      25.360 -16.713  15.927  0.00  0.00     0.210 HD
ENDBRANCH   4  22
BRANCH   1  24
ATOM     24  C5  BMP d   1      25.336 -17.393  10.865  0.00  0.00     0.059 C 
ATOM     25  H1  BMP d   1      26.002 -16.622  11.280  0.00  0.00     0.079 H 
ATOM     26  H2  BMP d   1      25.926 -18.104  10.268  0.00  0.00     0.079 H 
BRANCH  24  27
ATOM     27  O5  BMP d   1      24.276 -16.804  10.082  0.00  0.00    -0.280 OA
BRANCH  27  28
ATOM     28  P   BMP d   1      24.589 -15.993   8.731  0.00  0.00     0.422 P 
ATOM     29  O1P BMP d   1      25.885 -15.230   8.879  0.00  0.00    -0.617 OA
ATOM     30  O2P BMP d   1      23.425 -15.049   8.592  0.00  0.00    -0.617 OA
ATOM     31  O3P BMP d   1      24.685 -16.977   7.590  0.00  0.00    -0.617 OA
ENDBRANCH  27  28
ENDBRANCH  24  27
ENDBRANCH   1  24
BRANCH   3  32
ATOM     32  O3  BMP d   1      22.855 -17.802  13.644  0.00  0.00    -0.390 OA
ATOM     33  H5  BMP d   1      22.179 -17.948  12.993  0.00  0.00     0.210 HD
ENDBRANCH   3  32
TORSDOF 7
