REMARK  6 active torsions:
REMARK  status: ('A' for Active; 'I' for Inactive)
REMARK    1  A    between atoms: C7B_19  and  C1_1 
REMARK    2  A    between atoms: C2B_8  and  O2B_13 
REMARK    3  A    between atoms: C3B_9  and  O3B_14 
REMARK    4  A    between atoms: C4B_10  and  O4B_15 
REMARK    5  A    between atoms: C5B_11  and  C6B_12 
REMARK    6  A    between atoms: C6B_12  and  O6B_17 
ROOT
ATOM      1  C1B IDD d   1      25.216  26.007  36.348  0.00  0.00     0.139 A 
ATOM      2  C2B IDD d   1      24.515  24.961  37.105  0.00  0.00     0.119 C 
ATOM      3  C3B IDD d   1      23.977  23.870  36.184  0.00  0.00     0.093 C 
ATOM      4  C4B IDD d   1      23.481  24.457  34.834  0.00  0.00     0.085 C 
ATOM      5  C5B IDD d   1      24.655  25.120  34.078  0.00  0.00     0.065 C 
ATOM      6  N1B IDD d   1      25.255  26.115  35.008  0.00  0.00    -0.331 N 
ATOM      7  N2B IDD d   1      25.865  27.038  36.864  0.00  0.00    -0.230 NA
ATOM      8  C7B IDD d   1      26.319  27.806  35.817  0.00  0.00     0.084 A 
ATOM      9  C8B IDD d   1      25.960  27.263  34.628  0.00  0.00     0.010 A 
ATOM     10  H6  IDD d   1      23.646  25.430  37.590  0.00  0.00     0.099 H 
ATOM     11  H7  IDD d   1      24.779  23.145  35.981  0.00  0.00     0.091 H 
ATOM     12  H8  IDD d   1      22.711  25.218  35.029  0.00  0.00     0.090 H 
ATOM     13  H9  IDD d   1      25.411  24.350  33.865  0.00  0.00     0.080 H 
ATOM     14  H16 IDD d   1      26.169  27.630  33.624  0.00  0.00     0.115 H 
ENDROOT
BRANCH   8  15
ATOM     15  C1  IDD d   1      27.089  29.072  35.957  0.00  0.00    -0.006 A 
ATOM     16  C2  IDD d   1      27.721  29.313  37.193  0.00  0.00    -0.071 A 
ATOM     17  C3  IDD d   1      28.437  30.501  37.411  0.00  0.00    -0.082 A 
ATOM     18  H1  IDD d   1      27.654  28.574  37.983  0.00  0.00     0.084 H 
ATOM     19  C4  IDD d   1      28.515  31.452  36.390  0.00  0.00    -0.083 A 
ATOM     20  H2  IDD d   1      28.925  30.679  38.363  0.00  0.00     0.083 H 
ATOM     21  C5  IDD d   1      27.877  31.225  35.165  0.00  0.00    -0.082 A 
ATOM     22  H3  IDD d   1      29.072  32.369  36.547  0.00  0.00     0.083 H 
ATOM     23  C6  IDD d   1      27.154  30.046  34.940  0.00  0.00    -0.071 A 
ATOM     24  H4  IDD d   1      27.943  31.970  34.381  0.00  0.00     0.083 H 
ATOM     25  H5  IDD d   1      26.650  29.885  33.994  0.00  0.00     0.084 H 
ENDBRANCH   8  15
BRANCH   2  26
ATOM     26  O2B IDD d   1      25.356  24.445  38.149  0.00  0.00    -0.385 OA
ATOM     27  H12 IDD d   1      26.100  23.998  37.763  0.00  0.00     0.210 HD
ENDBRANCH   2  26
BRANCH   5  28
ATOM     28  C6B IDD d   1      24.223  25.714  32.726  0.00  0.00     0.038 C 
ATOM     29  H10 IDD d   1      23.726  24.936  32.128  0.00  0.00     0.077 H 
ATOM     30  H11 IDD d   1      25.110  26.080  32.188  0.00  0.00     0.077 H 
BRANCH  28  31
ATOM     31  O6B IDD d   1      23.333  26.780  32.936  0.00  0.00    -0.399 OA
ATOM     32  H15 IDD d   1      22.566  26.464  33.400  0.00  0.00     0.209 HD
ENDBRANCH  28  31
ENDBRANCH   5  28
BRANCH   3  33
ATOM     33  O3B IDD d   1      22.898  23.208  36.850  0.00  0.00    -0.390 OA
ATOM     34  H13 IDD d   1      23.207  22.851  37.674  0.00  0.00     0.210 HD
ENDBRANCH   3  33
BRANCH   4  35
ATOM     35  O4B IDD d   1      22.912  23.407  34.074  0.00  0.00    -0.391 OA
ATOM     36  H14 IDD d   1      22.195  23.018  34.561  0.00  0.00     0.210 HD
ENDBRANCH   4  35
TORSDOF 6
