REMARK  8 active torsions:
REMARK  status: ('A' for Active; 'I' for Inactive)
REMARK    1  A    between atoms: O6B_1  and  C6B_2 
REMARK    2  A    between atoms: C6B_2  and  C5B_3 
REMARK    3  A    between atoms: C4B_4  and  O4B_5 
REMARK    4  A    between atoms: C3B_6  and  O3B_7 
REMARK    5  A    between atoms: C2B_8  and  O2B_9 
REMARK    6  A    between atoms: C7B_12  and  C7_15 
REMARK    7  A    between atoms: C7_15  and  N1_16 
REMARK    8  A    between atoms: N1_16  and  C1_17 
ROOT
ATOM      1  C5B IDE d   1      23.914  24.805  34.232  0.00  0.00     0.065 C 
ATOM      2  C4B IDE d   1      22.756  24.161  35.027  0.00  0.00     0.085 C 
ATOM      3  C3B IDE d   1      23.221  23.626  36.401  0.00  0.00     0.093 C 
ATOM      4  C2B IDE d   1      23.761  24.735  37.304  0.00  0.00     0.119 C 
ATOM      5  N1B IDE d   1      24.519  25.794  35.168  0.00  0.00    -0.332 N 
ATOM      6  C8B IDE d   1      25.231  26.913  34.729  0.00  0.00     0.007 A 
ATOM      7  C7B IDE d   1      25.585  27.506  35.896  0.00  0.00     0.069 A 
ATOM      8  N2B IDE d   1      25.118  26.806  36.980  0.00  0.00    -0.234 NA
ATOM      9  C1B IDE d   1      24.467  25.760  36.503  0.00  0.00     0.138 A 
ATOM     10  H4  IDE d   1      24.665  24.031  34.016  0.00  0.00     0.080 H 
ATOM     11  H5  IDE d   1      21.994  24.936  35.200  0.00  0.00     0.090 H 
ATOM     12  H7  IDE d   1      24.014  22.882  36.236  0.00  0.00     0.091 H 
ATOM     13  H9  IDE d   1      22.903  25.211  37.801  0.00  0.00     0.099 H 
ATOM     14  H11 IDE d   1      25.447  27.229  33.709  0.00  0.00     0.114 H 
ENDROOT
BRANCH   7  15
ATOM     15  C7  IDE d   1      26.402  28.762  35.856  0.00  0.00     0.034 C 
ATOM     16  H12 IDE d   1      25.765  29.626  36.096  0.00  0.00     0.073 H 
ATOM     17  H13 IDE d   1      26.833  28.892  34.852  0.00  0.00     0.073 H 
BRANCH  15  18
ATOM     18  N1  IDE d   1      27.473  28.653  36.840  0.00  0.00    -0.384 N 
ATOM     19  H14 IDE d   1      27.440  27.925  37.568  0.00  0.00     0.160 HD
BRANCH  18  20
ATOM     20  C1  IDE d   1      28.589  29.585  36.782  0.00  0.00     0.028 A 
ATOM     21  C6  IDE d   1      28.352  30.935  36.506  0.00  0.00    -0.058 A 
ATOM     22  C5  IDE d   1      29.421  31.831  36.451  0.00  0.00    -0.081 A 
ATOM     23  H15 IDE d   1      27.340  31.285  36.335  0.00  0.00     0.086 H 
ATOM     24  C4  IDE d   1      30.721  31.365  36.664  0.00  0.00    -0.083 A 
ATOM     25  H16 IDE d   1      29.244  32.880  36.245  0.00  0.00     0.083 H 
ATOM     26  C3  IDE d   1      30.962  30.014  36.927  0.00  0.00    -0.081 A 
ATOM     27  H17 IDE d   1      31.552  32.060  36.625  0.00  0.00     0.083 H 
ATOM     28  C2  IDE d   1      29.893  29.124  36.992  0.00  0.00    -0.058 A 
ATOM     29  H18 IDE d   1      31.975  29.661  37.080  0.00  0.00     0.083 H 
ATOM     30  H19 IDE d   1      30.071  28.076  37.205  0.00  0.00     0.086 H 
ENDBRANCH  18  20
ENDBRANCH  15  18
ENDBRANCH   7  15
BRANCH   1  31
ATOM     31  C6B IDE d   1      23.472  25.379  32.882  0.00  0.00     0.038 C 
ATOM     32  H2  IDE d   1      24.357  25.673  32.299  0.00  0.00     0.077 H 
ATOM     33  H3  IDE d   1      22.903  24.619  32.327  0.00  0.00     0.077 H 
BRANCH  31  34
ATOM     34  O6B IDE d   1      22.651  26.517  33.108  0.00  0.00    -0.399 OA
ATOM     35  H1  IDE d   1      23.144  27.172  33.589  0.00  0.00     0.209 HD
ENDBRANCH  31  34
ENDBRANCH   1  31
BRANCH   4  36
ATOM     36  O2B IDE d   1      24.642  24.238  38.317  0.00  0.00    -0.385 OA
ATOM     37  H10 IDE d   1      25.383  23.807  37.907  0.00  0.00     0.210 HD
ENDBRANCH   4  36
BRANCH   2  38
ATOM     38  O4B IDE d   1      22.156  23.094  34.289  0.00  0.00    -0.391 OA
ATOM     39  H6  IDE d   1      21.449  22.716  34.799  0.00  0.00     0.210 HD
ENDBRANCH   2  38
BRANCH   3  40
ATOM     40  O3B IDE d   1      22.118  23.005  37.085  0.00  0.00    -0.390 OA
ATOM     41  H8  IDE d   1      22.412  22.679  37.928  0.00  0.00     0.210 HD
ENDBRANCH   3  40
TORSDOF 8
