REMARK  4 active torsions:
REMARK  status: ('A' for Active; 'I' for Inactive)
REMARK    1  A    between atoms: C2_2  and  O2_8 
REMARK    2  A    between atoms: C3_3  and  O3_9 
REMARK    3  A    between atoms: C4_4  and  O4_10 
REMARK    4  A    between atoms: C5_5  and  C6_6 
ROOT
ATOM      1  C1  RNS d   1      11.237  31.777  10.298  0.00  0.00     0.288 C 
ATOM      2  C2  RNS d   1      12.145  31.848   9.071  0.00  0.00     0.125 C 
ATOM      3  C3  RNS d   1      11.399  31.244   7.873  0.00  0.00     0.092 C 
ATOM      4  C4  RNS d   1      10.074  31.983   7.665  0.00  0.00     0.087 C 
ATOM      5  C5  RNS d   1       9.261  31.936   8.967  0.00  0.00     0.066 C 
ATOM      6  O1  RNS d   1      11.873  32.334  11.389  0.00  0.00    -0.188 OA
ATOM      7  O5  RNS d   1      10.026  32.506  10.053  0.00  0.00    -0.339 OA
ATOM      8  H1  RNS d   1      13.062  31.271   9.258  0.00  0.00     0.096 H 
ATOM      9  H2  RNS d   1      11.190  30.184   8.081  0.00  0.00     0.091 H 
ATOM     10  H3  RNS d   1      10.274  33.031   7.398  0.00  0.00     0.091 H 
ATOM     11  H4  RNS d   1       9.045  30.881   9.193  0.00  0.00     0.086 H 
ENDROOT
BRANCH   5  12
ATOM     12  C6  RNS d   1       7.947  32.688   8.892  0.00  0.00    -0.050 C 
ATOM     13  H5  RNS d   1       7.424  32.609   9.857  0.00  0.00     0.031 H 
ATOM     14  H6  RNS d   1       7.321  32.254   8.099  0.00  0.00     0.031 H 
ATOM     15  H7  RNS d   1       8.143  33.747   8.666  0.00  0.00     0.031 H 
ENDBRANCH   5  12
BRANCH   4  16
ATOM     16  O4  RNS d   1       9.355  31.356   6.609  0.00  0.00    -0.390 OA
ATOM     17  H10 RNS d   1       9.187  30.449   6.837  0.00  0.00     0.210 HD
ENDBRANCH   4  16
BRANCH   3  18
ATOM     18  O3  RNS d   1      12.191  31.334   6.696  0.00  0.00    -0.390 OA
ATOM     19  H9  RNS d   1      11.722  30.941   5.969  0.00  0.00     0.210 HD
ENDBRANCH   3  18
BRANCH   2  20
ATOM     20  O2  RNS d   1      12.492  33.208   8.810  0.00  0.00    -0.387 OA
ATOM     21  H8  RNS d   1      12.952  33.566   9.560  0.00  0.00     0.210 HD
ENDBRANCH   2  20
TORSDOF 4
