REMARK  3 active torsions:
REMARK  status: ('A' for Active; 'I' for Inactive)
REMARK    1  A    between atoms: C3_3  and  O3_4 
REMARK    2  A    between atoms: C10_11  and  C19_21 
REMARK    3  A    between atoms: C13_14  and  C18_20 
ROOT
ATOM      1  C1  AOI d   1      22.980  -7.539  41.090  0.00  0.00    -0.055 C 
ATOM      2  C2  AOI d   1      24.385  -8.106  40.777  0.00  0.00    -0.040 C 
ATOM      3  C3  AOI d   1      25.009  -8.776  42.023  0.00  0.00     0.036 C 
ATOM      4  C4  AOI d   1      24.089  -9.780  42.671  0.00  0.00    -0.037 C 
ATOM      5  C5  AOI d   1      22.679  -9.206  42.983  0.00  0.00    -0.044 C 
ATOM      6  C6  AOI d   1      21.746 -10.266  43.646  0.00  0.00    -0.060 C 
ATOM      7  C7  AOI d   1      20.383  -9.681  43.947  0.00  0.00    -0.061 C 
ATOM      8  C8  AOI d   1      19.674  -9.099  42.699  0.00  0.00    -0.045 C 
ATOM      9  C9  AOI d   1      20.590  -8.013  42.041  0.00  0.00    -0.043 C 
ATOM     10  C10 AOI d   1      22.006  -8.622  41.667  0.00  0.00    -0.036 C 
ATOM     11  C11 AOI d   1      19.858  -7.411  40.793  0.00  0.00    -0.060 C 
ATOM     12  C12 AOI d   1      18.448  -6.811  41.135  0.00  0.00    -0.051 C 
ATOM     13  C13 AOI d   1      17.561  -7.871  41.802  0.00  0.00     0.021 C 
ATOM     14  C14 AOI d   1      18.314  -8.470  43.042  0.00  0.00    -0.036 C 
ATOM     15  C15 AOI d   1      17.199  -9.305  43.714  0.00  0.00    -0.054 C 
ATOM     16  C16 AOI d   1      16.041  -8.304  43.702  0.00  0.00    -0.009 C 
ATOM     17  C17 AOI d   1      16.294  -7.378  42.503  0.00  0.00     0.135 C 
ATOM     18  O17 AOI d   1      15.604  -6.450  42.202  0.00  0.00    -0.297 OA
ATOM     19  H1  AOI d   1      22.548  -7.136  40.162  0.00  0.00     0.034 H 
ATOM     20  H2  AOI d   1      23.083  -6.730  41.828  0.00  0.00     0.034 H 
ATOM     21  H3  AOI d   1      25.038  -7.285  40.447  0.00  0.00     0.036 H 
ATOM     22  H4  AOI d   1      24.300  -8.852  39.973  0.00  0.00     0.036 H 
ATOM     23  H5  AOI d   1      25.927  -9.302  41.721  0.00  0.00     0.082 H 
ATOM     24  H7  AOI d   1      24.546 -10.116  43.614  0.00  0.00     0.037 H 
ATOM     25  H8  AOI d   1      23.975 -10.638  41.993  0.00  0.00     0.037 H 
ATOM     26  H9  AOI d   1      22.806  -8.378  43.696  0.00  0.00     0.041 H 
ATOM     27  H10 AOI d   1      22.204 -10.611  44.585  0.00  0.00     0.033 H 
ATOM     28  H11 AOI d   1      21.628 -11.119  42.961  0.00  0.00     0.033 H 
ATOM     29  H12 AOI d   1      20.505  -8.876  44.686  0.00  0.00     0.033 H 
ATOM     30  H13 AOI d   1      19.749 -10.474  44.370  0.00  0.00     0.033 H 
ATOM     31  H14 AOI d   1      19.510  -9.915  41.980  0.00  0.00     0.041 H 
ATOM     32  H15 AOI d   1      20.751  -7.204  42.769  0.00  0.00     0.041 H 
ATOM     33  H16 AOI d   1      19.727  -8.208  40.046  0.00  0.00     0.033 H 
ATOM     34  H17 AOI d   1      20.485  -6.612  40.371  0.00  0.00     0.033 H 
ATOM     35  H18 AOI d   1      17.966  -6.467  40.208  0.00  0.00     0.034 H 
ATOM     36  H19 AOI d   1      18.573  -5.960  41.821  0.00  0.00     0.034 H 
ATOM     37  H20 AOI d   1      18.555  -7.647  43.731  0.00  0.00     0.042 H 
ATOM     38  H21 AOI d   1      17.473  -9.595  44.739  0.00  0.00     0.034 H 
ATOM     39  H22 AOI d   1      16.961 -10.206  43.130  0.00  0.00     0.034 H 
ATOM     40  H23 AOI d   1      16.027  -7.724  44.637  0.00  0.00     0.044 H 
ATOM     41  H24 AOI d   1      15.082  -8.830  43.583  0.00  0.00     0.044 H 
ENDROOT
BRANCH  10  42
ATOM     42  C19 AOI d   1      21.831  -9.735  40.569  0.00  0.00    -0.068 C 
ATOM     43  H28 AOI d   1      22.815 -10.155  40.312  0.00  0.00     0.028 H 
ATOM     44  H29 AOI d   1      21.375  -9.295  39.670  0.00  0.00     0.028 H 
ATOM     45  H30 AOI d   1      21.181 -10.534  40.957  0.00  0.00     0.028 H 
ENDBRANCH  10  42
BRANCH   3  46
ATOM     46  O3  AOI d   1      25.352  -7.713  42.943  0.00  0.00    -0.396 OA
ATOM     47  H6  AOI d   1      25.740  -8.086  43.726  0.00  0.00     0.210 HD
ENDBRANCH   3  46
BRANCH  13  48
ATOM     48  C18 AOI d   1      17.097  -8.947  40.753  0.00  0.00    -0.062 C 
ATOM     49  H25 AOI d   1      16.581  -8.448  39.920  0.00  0.00     0.029 H 
ATOM     50  H26 AOI d   1      16.411  -9.658  41.236  0.00  0.00     0.029 H 
ATOM     51  H27 AOI d   1      17.975  -9.487  40.369  0.00  0.00     0.029 H 
ENDBRANCH  13  48
TORSDOF 3
