REMARK  9 active torsions:
REMARK  status: ('A' for Active; 'I' for Inactive)
REMARK    1  A    between atoms: C1_1  and  C7_7 
REMARK    2  A    between atoms: C3_3  and  O1_8 
REMARK    3  A    between atoms: C4_4  and  O2_9 
REMARK    4  A    between atoms: C5_5  and  O3_10 
REMARK    5  A    between atoms: O1_8  and  P1_13 
REMARK    6  A    between atoms: O3_10  and  C8_17 
REMARK    7  A    between atoms: C8_17  and  C9_18 
REMARK    8  A    between atoms: C8_17  and  C10_19 
REMARK    9  A    between atoms: C8_17  and  P2_22 
ROOT
ATOM      1  C1  SC1 d   1      56.286  12.177  27.907  0.00  0.00     0.020 C 
ATOM      2  C2  SC1 d   1      55.144  11.388  28.252  0.00  0.00    -0.060 C 
ATOM      3  C3  SC1 d   1      55.316  10.114  29.052  0.00  0.00     0.096 C 
ATOM      4  C4  SC1 d   1      56.715  10.062  29.867  0.00  0.00     0.089 C 
ATOM      5  C5  SC1 d   1      57.874  10.284  28.846  0.00  0.00     0.072 C 
ATOM      6  C6  SC1 d   1      57.698  11.778  28.327  0.00  0.00    -0.008 C 
ATOM      7  H1  SC1 d   1      54.150  11.704  27.939  0.00  0.00     0.082 H 
ATOM      8  H2  SC1 d   1      54.507  10.070  29.796  0.00  0.00     0.095 H 
ATOM      9  H3  SC1 d   1      56.755  10.853  30.630  0.00  0.00     0.091 H 
ATOM     10  H4  SC1 d   1      57.807   9.565  28.016  0.00  0.00     0.088 H 
ATOM     11  H5  SC1 d   1      58.013  12.454  29.135  0.00  0.00     0.044 H 
ATOM     12  H6  SC1 d   1      58.359  11.913  27.458  0.00  0.00     0.044 H 
ENDROOT
BRANCH   5  13
ATOM     13  O3  SC1 d   1      59.144  10.166  29.499  0.00  0.00    -0.349 OA
BRANCH  13  14
ATOM     14  C8  SC1 d   1      60.098   9.084  29.123  0.00  0.00     0.259 C 
BRANCH  14  15
ATOM     15  C9  SC1 d   1      59.527   7.580  29.019  0.00  0.00    -0.025 C 
ATOM     16  H8  SC1 d   1      59.217   7.236  30.017  0.00  0.00     0.033 H 
ATOM     17  H9  SC1 d   1      60.312   6.916  28.630  0.00  0.00     0.033 H 
ATOM     18  H10 SC1 d   1      58.662   7.562  28.340  0.00  0.00     0.033 H 
ENDBRANCH  14  15
BRANCH  14  19
ATOM     19  C10 SC1 d   1      61.326   9.188  30.028  0.00  0.00     0.223 C 
ATOM     20  O9  SC1 d   1      61.774  10.327  30.393  0.00  0.00    -0.645 OA
ATOM     21  O10 SC1 d   1      61.716   8.069  30.459  0.00  0.00    -0.645 OA
ENDBRANCH  14  19
BRANCH  14  22
ATOM     22  P2  SC1 d   1      60.530   9.366  27.292  0.00  0.00     0.306 P 
ATOM     23  O11 SC1 d   1      61.858   8.610  27.023  0.00  0.00    -0.637 OA
ATOM     24  O12 SC1 d   1      60.763  10.840  27.087  0.00  0.00    -0.637 OA
ATOM     25  O13 SC1 d   1      59.403   8.768  26.388  0.00  0.00    -0.637 OA
ENDBRANCH  14  22
ENDBRANCH  13  14
ENDBRANCH   5  13
BRANCH   4  26
ATOM     26  O2  SC1 d   1      56.720   8.781  30.505  0.00  0.00    -0.390 OA
ATOM     27  H7  SC1 d   1      57.534   8.669  30.983  0.00  0.00     0.210 HD
ENDBRANCH   4  26
BRANCH   3  28
ATOM     28  O1  SC1 d   1      55.140   8.871  28.056  0.00  0.00    -0.271 OA
BRANCH  28  29
ATOM     29  P1  SC1 d   1      53.731   7.966  27.831  0.00  0.00     0.422 P 
ATOM     30  O6  SC1 d   1      52.710   8.945  27.219  0.00  0.00    -0.617 OA
ATOM     31  O7  SC1 d   1      53.355   7.467  29.277  0.00  0.00    -0.617 OA
ATOM     32  O8  SC1 d   1      54.247   6.931  26.821  0.00  0.00    -0.617 OA
ENDBRANCH  28  29
ENDBRANCH   3  28
BRANCH   1  33
ATOM     33  C7  SC1 d   1      56.107  13.435  27.136  0.00  0.00     0.205 C 
ATOM     34  O4  SC1 d   1      55.213  13.483  26.305  0.00  0.00    -0.644 OA
ATOM     35  O5  SC1 d   1      56.863  14.330  27.398  0.00  0.00    -0.644 OA
ENDBRANCH   1  33
TORSDOF 9
