REMARK  8 active torsions:
REMARK  status: ('A' for Active; 'I' for Inactive)
REMARK    1  A    between atoms: C_1  and  C2_2 
REMARK    2  A    between atoms: C2_2  and  C11_13 
REMARK    3  A    between atoms: C3_3  and  C4_4 
REMARK    4  A    between atoms: C7_7  and  C8_8 
REMARK    5  A    between atoms: C17_19  and  C18_20 
REMARK    6  A    between atoms: C17_19  and  C19_21 
REMARK    7  A    between atoms: C22_24  and  C23_25 
REMARK    8  A    between atoms: C22_24  and  C24_26 
ROOT
ATOM      1  C11 TTB d   1      43.837  21.464 100.048  0.00  0.00    -0.030 A 
ATOM      2  C12 TTB d   1      44.881  22.415 100.150  0.00  0.00    -0.072 A 
ATOM      3  C13 TTB d   1      46.059  22.266  99.406  0.00  0.00    -0.075 A 
ATOM      4  C14 TTB d   1      46.272  21.157  98.523  0.00  0.00    -0.043 A 
ATOM      5  C15 TTB d   1      45.218  20.171  98.402  0.00  0.00    -0.042 A 
ATOM      6  C16 TTB d   1      44.031  20.357  99.175  0.00  0.00    -0.065 A 
ATOM      7  C17 TTB d   1      45.351  18.928  97.477  0.00  0.00    -0.020 C 
ATOM      8  C20 TTB d   1      46.835  18.634  97.103  0.00  0.00    -0.054 C 
ATOM      9  C21 TTB d   1      47.634  19.893  96.689  0.00  0.00    -0.054 C 
ATOM     10  C22 TTB d   1      47.610  21.059  97.734  0.00  0.00    -0.020 C 
ATOM     11  H9  TTB d   1      44.768  23.267 100.810  0.00  0.00     0.084 H 
ATOM     12  H10 TTB d   1      46.836  23.015  99.501  0.00  0.00     0.084 H 
ATOM     13  H11 TTB d   1      43.240  19.620  99.093  0.00  0.00     0.085 H 
ATOM     14  H18 TTB d   1      46.847  17.924  96.263  0.00  0.00     0.034 H 
ATOM     15  H19 TTB d   1      47.329  18.180  97.975  0.00  0.00     0.034 H 
ATOM     16  H20 TTB d   1      47.213  20.270  95.745  0.00  0.00     0.034 H 
ATOM     17  H21 TTB d   1      48.681  19.597  96.531  0.00  0.00     0.034 H 
ENDROOT
BRANCH   1  18
ATOM     18  C2  TTB d   1      42.558  21.617 100.835  0.00  0.00    -0.051 C 
ATOM     19  C3  TTB d   1      42.098  22.905 101.041  0.00  0.00    -0.067 C 
ATOM     20  H4  TTB d   1      42.741  23.669 100.605  0.00  0.00     0.085 H 
BRANCH  18  21
ATOM     21  C   TTB d   1      41.900  20.310 101.310  0.00  0.00    -0.050 C 
ATOM     22  H1  TTB d   1      40.982  20.544 101.869  0.00  0.00     0.033 H 
ATOM     23  H2  TTB d   1      42.597  19.764 101.963  0.00  0.00     0.033 H 
ATOM     24  H3  TTB d   1      41.650  19.687 100.438  0.00  0.00     0.033 H 
ENDBRANCH  18  21
BRANCH  19  25
ATOM     25  C4  TTB d   1      40.898  23.466 101.740  0.00  0.00    -0.036 A 
ATOM     26  C5  TTB d   1      40.481  24.789 101.378  0.00  0.00    -0.072 A 
ATOM     27  C6  TTB d   1      39.357  25.400 101.978  0.00  0.00    -0.066 A 
ATOM     28  H5  TTB d   1      41.041  25.333 100.626  0.00  0.00     0.084 H 
ATOM     29  C7  TTB d   1      38.592  24.708 102.964  0.00  0.00     0.040 A 
ATOM     30  H6  TTB d   1      39.073  26.405 101.686  0.00  0.00     0.085 H 
ATOM     31  C9  TTB d   1      39.006  23.398 103.335  0.00  0.00    -0.066 A 
ATOM     32  C10 TTB d   1      40.136  22.791 102.730  0.00  0.00    -0.072 A 
ATOM     33  H7  TTB d   1      38.450  22.856 104.091  0.00  0.00     0.085 H 
ATOM     34  H8  TTB d   1      40.424  21.790 103.030  0.00  0.00     0.084 H 
BRANCH  29  35
ATOM     35  C8  TTB d   1      37.389  25.338 103.595  0.00  0.00     0.209 C 
ATOM     36  O   TTB d   1      37.046  26.475 103.251  0.00  0.00    -0.644 OA
ATOM     37  O1  TTB d   1      36.750  24.707 104.446  0.00  0.00    -0.644 OA
ENDBRANCH  29  35
ENDBRANCH  19  25
ENDBRANCH   1  18
BRANCH   7  38
ATOM     38  C18 TTB d   1      44.791  17.685  98.207  0.00  0.00    -0.065 C 
ATOM     39  H12 TTB d   1      44.884  16.804  97.555  0.00  0.00     0.028 H 
ATOM     40  H13 TTB d   1      43.731  17.850  98.452  0.00  0.00     0.028 H 
ATOM     41  H14 TTB d   1      45.359  17.517  99.133  0.00  0.00     0.028 H 
ENDBRANCH   7  38
BRANCH   7  42
ATOM     42  C19 TTB d   1      44.555  19.097  96.159  0.00  0.00    -0.065 C 
ATOM     43  H15 TTB d   1      44.930  19.976  95.614  0.00  0.00     0.028 H 
ATOM     44  H16 TTB d   1      43.489  19.237  96.390  0.00  0.00     0.028 H 
ATOM     45  H17 TTB d   1      44.681  18.199  95.537  0.00  0.00     0.028 H 
ENDBRANCH   7  42
BRANCH  10  46
ATOM     46  C23 TTB d   1      47.883  22.381  96.976  0.00  0.00    -0.065 C 
ATOM     47  H22 TTB d   1      47.872  23.220  97.687  0.00  0.00     0.028 H 
ATOM     48  H23 TTB d   1      47.104  22.535  96.215  0.00  0.00     0.028 H 
ATOM     49  H24 TTB d   1      48.867  22.327  96.487  0.00  0.00     0.028 H 
ENDBRANCH  10  46
BRANCH  10  50
ATOM     50  C24 TTB d   1      48.772  20.813  98.717  0.00  0.00    -0.065 C 
ATOM     51  H25 TTB d   1      48.596  19.876  99.266  0.00  0.00     0.028 H 
ATOM     52  H26 TTB d   1      48.833  21.649  99.429  0.00  0.00     0.028 H 
ATOM     53  H27 TTB d   1      49.716  20.738  98.157  0.00  0.00     0.028 H 
ENDBRANCH  10  50
TORSDOF 8
