REMARK  12 active torsions:
REMARK  status: ('A' for Active; 'I' for Inactive)
REMARK    1  A    between atoms: C2_2  and  C7_7 
REMARK    2  A    between atoms: C8_15  and  C4_4 
REMARK    3  A    between atoms: C14_10  and  C16_12 
REMARK    4  A    between atoms: C15_11  and  C9_30 
REMARK    5  A    between atoms: O3_27  and  C32_16 
REMARK    6  A    between atoms: C36_20  and  O14_26 
REMARK    7  A    between atoms: C37_21  and  C38_22 
REMARK    8  A    between atoms: C38_22  and  O13_24 
REMARK    9  A    between atoms: O13_24  and  C39_25 
REMARK   10  A    between atoms: C40_28  and  O3_27 
REMARK   11  A    between atoms: C40_28  and  C41_29 
REMARK   12  A    between atoms: C9_30  and  O4_31 
ROOT
ATOM      1  C8  IX1 d   1      28.653  30.985  18.929  0.00  0.00    -0.075 C 
ATOM      2  C41 IX1 d   1      28.062  31.481  20.051  0.00  0.00    -0.079 C 
ATOM      3  H5  IX1 d   1      28.097  30.413  18.188  0.00  0.00     0.084 H 
ATOM      4  H15 IX1 d   1      28.743  32.038  20.693  0.00  0.00     0.080 H 
ENDROOT
BRANCH   1   5
ATOM      5  C4  IX1 d   1      30.100  31.272  18.778  0.00  0.00    -0.036 A 
ATOM      6  C3  IX1 d   1      31.024  30.664  19.675  0.00  0.00    -0.060 A 
ATOM      7  C2  IX1 d   1      32.428  30.907  19.584  0.00  0.00     0.001 A 
ATOM      8  H2  IX1 d   1      30.652  30.000  20.447  0.00  0.00     0.086 H 
ATOM      9  C1  IX1 d   1      32.896  31.790  18.557  0.00  0.00    -0.070 A 
ATOM     10  C6  IX1 d   1      31.982  32.404  17.650  0.00  0.00    -0.081 A 
ATOM     11  H1  IX1 d   1      33.957  31.994  18.468  0.00  0.00     0.084 H 
ATOM     12  C5  IX1 d   1      30.589  32.151  17.755  0.00  0.00    -0.073 A 
ATOM     13  H4  IX1 d   1      32.353  33.067  16.877  0.00  0.00     0.083 H 
ATOM     14  H3  IX1 d   1      29.897  32.620  17.065  0.00  0.00     0.084 H 
BRANCH   7  15
ATOM     15  C7  IX1 d   1      33.316  30.219  20.589  0.00  0.00     0.122 A 
ATOM     16  O12 IX1 d   1      32.695  29.515  21.609  0.00  0.00    -0.211 OA
ATOM     17  N13 IX1 d   1      33.709  28.982  22.416  0.00  0.00    -0.120 NA
ATOM     18  C14 IX1 d   1      34.912  29.341  21.914  0.00  0.00     0.171 A 
ATOM     19  C15 IX1 d   1      34.678  30.158  20.699  0.00  0.00     0.040 A 
BRANCH  18  20
ATOM     20  C16 IX1 d   1      36.257  28.945  22.542  0.00  0.00     0.232 C 
ATOM     21  O1  IX1 d   1      37.209  29.917  22.584  0.00  0.00    -0.643 OA
ATOM     22  O2  IX1 d   1      36.431  27.834  22.987  0.00  0.00    -0.643 OA
ENDBRANCH  18  20
BRANCH  19  23
ATOM     23  C9  IX1 d   1      35.838  30.722  19.893  0.00  0.00     0.046 C 
ATOM     24  H16 IX1 d   1      36.781  30.392  20.353  0.00  0.00     0.081 H 
ATOM     25  H17 IX1 d   1      35.783  31.820  19.916  0.00  0.00     0.081 H 
BRANCH  23  26
ATOM     26  O4  IX1 d   1      35.816  30.293  18.540  0.00  0.00    -0.396 OA
ATOM     27  H18 IX1 d   1      35.008  30.579  18.131  0.00  0.00     0.209 HD
ENDBRANCH  23  26
ENDBRANCH  19  23
ENDBRANCH   7  15
ENDBRANCH   1   5
BRANCH   2  28
ATOM     28  C40 IX1 d   1      26.649  31.413  20.583  0.00  0.00     0.041 C 
ATOM     29  H13 IX1 d   1      26.601  32.027  21.494  0.00  0.00     0.081 H 
ATOM     30  H14 IX1 d   1      25.980  31.837  19.820  0.00  0.00     0.081 H 
BRANCH  28  31
ATOM     31  O3  IX1 d   1      26.165  30.091  20.913  0.00  0.00    -0.346 OA
BRANCH  31  32
ATOM     32  C32 IX1 d   1      24.811  29.969  21.426  0.00  0.00     0.088 A 
ATOM     33  C33 IX1 d   1      23.945  31.122  21.618  0.00  0.00    -0.050 A 
ATOM     34  C34 IX1 d   1      22.621  31.001  22.119  0.00  0.00    -0.078 A 
ATOM     35  H6  IX1 d   1      24.323  32.107  21.370  0.00  0.00     0.087 H 
ATOM     36  C35 IX1 d   1      22.115  29.732  22.447  0.00  0.00    -0.050 A 
ATOM     37  H7  IX1 d   1      22.004  31.883  22.247  0.00  0.00     0.083 H 
ATOM     38  C36 IX1 d   1      22.915  28.572  22.281  0.00  0.00     0.084 A 
ATOM     39  H8  IX1 d   1      21.105  29.638  22.830  0.00  0.00     0.087 H 
ATOM     40  C37 IX1 d   1      24.262  28.660  21.774  0.00  0.00     0.105 A 
BRANCH  38  41
ATOM     41  O14 IX1 d   1      22.308  27.382  22.636  0.00  0.00    -0.360 OA
ATOM     42  H12 IX1 d   1      22.808  26.967  23.328  0.00  0.00     0.217 HD
ENDBRANCH  38  41
BRANCH  40  43
ATOM     43  C38 IX1 d   1      25.034  27.380  21.632  0.00  0.00     0.298 C 
ATOM     44  O11 IX1 d   1      25.126  26.601  22.558  0.00  0.00    -0.259 OA
BRANCH  43  45
ATOM     45  O13 IX1 d   1      25.607  27.146  20.428  0.00  0.00    -0.322 OA
BRANCH  45  46
ATOM     46  C39 IX1 d   1      26.362  25.916  20.223  0.00  0.00     0.013 C 
ATOM     47  H9  IX1 d   1      26.753  25.893  19.195  0.00  0.00     0.067 H 
ATOM     48  H10 IX1 d   1      25.703  25.050  20.384  0.00  0.00     0.067 H 
ATOM     49  H11 IX1 d   1      27.199  25.877  20.935  0.00  0.00     0.067 H 
ENDBRANCH  45  46
ENDBRANCH  43  45
ENDBRANCH  40  43
ENDBRANCH  31  32
ENDBRANCH  28  31
ENDBRANCH   2  28
TORSDOF 12
