REMARK  29 active torsions:
REMARK  status: ('A' for Active; 'I' for Inactive)
REMARK    1  A    between atoms: CR1_1  and  OR1_7 
REMARK    2  A    between atoms: CR2_2  and  OR2_8 
REMARK    3  A    between atoms: CR3_3  and  OR3_9 
REMARK    4  A    between atoms: OR4_10  and  CR4_4 
REMARK    5  A    between atoms: CR5_5  and  CR6_6 
REMARK    6  A    between atoms: CR6_6  and  OR6_12 
REMARK    7  A    between atoms: CV1_13  and  OR4_10 
REMARK    8  A    between atoms: CV2_14  and  OV2_19 
REMARK    9  A    between atoms: CV3_15  and  OV3_20 
REMARK   10  A    between atoms: NV4_21  and  CV4_16 
REMARK   11  A    between atoms: CV5_17  and  CV6_18 
REMARK   12  A    between atoms: CY1_45  and  NV4_21 
REMARK   13  A    between atoms: OY4_51  and  CQ1_23 
REMARK   14  A    between atoms: CQ2_24  and  OQ2_29 
REMARK   15  A    between atoms: CQ3_25  and  OQ3_30 
REMARK   16  A    between atoms: CQ4_26  and  OQ4_31 
REMARK   17  A    between atoms: CQ5_27  and  CQ6_28 
REMARK   18  A    between atoms: CQ6_28  and  OQ6_33 
REMARK   19  A    between atoms: OQ4_31  and  CW1_34 
REMARK   20  A    between atoms: CW2_35  and  OW2_40 
REMARK   21  A    between atoms: CW3_36  and  OW3_41 
REMARK   22  A    between atoms: CW4_37  and  OW4_42 
REMARK   23  A    between atoms: CW5_38  and  CW6_39 
REMARK   24  A    between atoms: CW6_39  and  OW6_44 
REMARK   25  A    between atoms: CY2_46  and  OY2_47 
REMARK   26  A    between atoms: CY3_48  and  OY3_49 
REMARK   27  A    between atoms: CY4_50  and  OY4_51 
REMARK   28  A    between atoms: CY5_52  and  CY7_54 
REMARK   29  A    between atoms: CY7_54  and  OY7_55 
ROOT
ATOM      1  CY1 ARE d   1      10.115  17.803  45.117  0.00  0.00     0.130 C 
ATOM      2  CY2 ARE d   1      11.030  19.066  44.873  0.00  0.00     0.090 C 
ATOM      3  CY3 ARE d   1      11.671  18.993  43.416  0.00  0.00     0.087 C 
ATOM      4  CY4 ARE d   1      12.508  17.634  43.207  0.00  0.00     0.074 C 
ATOM      5  CY5 ARE d   1      11.809  16.414  43.809  0.00  0.00    -0.004 C 
ATOM      6  CY6 ARE d   1      11.121  16.606  44.955  0.00  0.00    -0.028 C 
ATOM      7  H45 ARE d   1       9.714  17.800  46.141  0.00  0.00     0.088 H 
ATOM      8  H46 ARE d   1      11.840  19.061  45.618  0.00  0.00     0.090 H 
ATOM      9  H48 ARE d   1      10.849  19.003  42.685  0.00  0.00     0.091 H 
ATOM     10  H50 ARE d   1      13.506  17.754  43.653  0.00  0.00     0.088 H 
ATOM     11  H51 ARE d   1      11.059  16.121  43.060  0.00  0.00     0.047 H 
ATOM     12  H52 ARE d   1      10.541  15.687  45.127  0.00  0.00     0.036 H 
ATOM     13  H53 ARE d   1      11.871  16.720  45.752  0.00  0.00     0.036 H 
ENDROOT
BRANCH   1  14
ATOM     14  NV4 ARE d   1       8.929  17.860  44.141  0.00  0.00    -0.059 N 
ATOM     15  H22 ARE d   1       8.149  18.236  44.657  0.00  0.00     0.278 HD
ATOM     16  H23 ARE d   1       9.189  18.502  43.409  0.00  0.00     0.278 HD
BRANCH  14  17
ATOM     17  CV4 ARE d   1       8.441  16.633  43.473  0.00  0.00     0.153 C 
ATOM     18  CV3 ARE d   1       7.265  16.033  44.276  0.00  0.00     0.094 C 
ATOM     19  CV2 ARE d   1       6.783  14.767  43.573  0.00  0.00     0.110 C 
ATOM     20  H14 ARE d   1       6.447  16.766  44.336  0.00  0.00     0.090 H 
ATOM     21  CV1 ARE d   1       6.346  15.038  42.138  0.00  0.00     0.159 C 
ATOM     22  H13 ARE d   1       7.624  14.058  43.550  0.00  0.00     0.094 H 
ATOM     23  OV5 ARE d   1       7.416  15.713  41.423  0.00  0.00    -0.351 OA
ATOM     24  H12 ARE d   1       6.166  14.065  41.658  0.00  0.00     0.133 H 
ATOM     25  CV5 ARE d   1       7.896  16.965  42.038  0.00  0.00     0.068 C 
ATOM     26  H16 ARE d   1       7.063  17.679  42.118  0.00  0.00     0.086 H 
ATOM     27  H15 ARE d   1       9.262  15.904  43.403  0.00  0.00     0.092 H 
BRANCH  18  28
ATOM     28  OV3 ARE d   1       7.683  15.681  45.574  0.00  0.00    -0.391 OA
ATOM     29  H21 ARE d   1       8.002  16.455  46.024  0.00  0.00     0.210 HD
ENDBRANCH  18  28
BRANCH  19  30
ATOM     30  OV2 ARE d   1       5.711  14.161  44.260  0.00  0.00    -0.388 OA
ATOM     31  H20 ARE d   1       5.990  13.927  45.137  0.00  0.00     0.210 HD
ENDBRANCH  19  30
BRANCH  21  32
ATOM     32  OR4 ARE d   1       5.177  15.781  42.027  0.00  0.00    -0.348 OA
BRANCH  32  33
ATOM     33  CR4 ARE d   1       4.145  15.159  41.263  0.00  0.00     0.096 C 
ATOM     34  CR3 ARE d   1       2.847  15.133  42.110  0.00  0.00     0.092 C 
ATOM     35  CR2 ARE d   1       1.736  14.473  41.285  0.00  0.00     0.110 C 
ATOM     36  H3  ARE d   1       2.560  16.159  42.383  0.00  0.00     0.091 H 
ATOM     37  CR1 ARE d   1       1.499  15.283  39.981  0.00  0.00     0.156 C 
ATOM     38  H2  ARE d   1       2.038  13.447  41.030  0.00  0.00     0.094 H 
ATOM     39  OR5 ARE d   1       2.762  15.366  39.206  0.00  0.00    -0.349 OA
ATOM     40  H1  ARE d   1       0.749  14.751  39.377  0.00  0.00     0.133 H 
ATOM     41  CR5 ARE d   1       3.869  16.001  39.931  0.00  0.00     0.089 C 
ATOM     42  H5  ARE d   1       3.585  17.027  40.209  0.00  0.00     0.090 H 
ATOM     43  H4  ARE d   1       4.444  14.134  41.000  0.00  0.00     0.091 H 
BRANCH  34  44
ATOM     44  OR3 ARE d   1       3.042  14.363  43.275  0.00  0.00    -0.390 OA
ATOM     45  H10 ARE d   1       3.743  14.743  43.791  0.00  0.00     0.210 HD
ENDBRANCH  34  44
BRANCH  35  46
ATOM     46  OR2 ARE d   1       0.531  14.436  42.017  0.00  0.00    -0.388 OA
ATOM     47  H9  ARE d   1      -0.145  14.025  41.491  0.00  0.00     0.210 HD
ENDBRANCH  35  46
BRANCH  37  48
ATOM     48  OR1 ARE d   1       1.011  16.588  40.245  0.00  0.00    -0.369 OA
ATOM     49  H8  ARE d   1       0.203  16.528  40.741  0.00  0.00     0.212 HD
ENDBRANCH  37  48
BRANCH  41  50
ATOM     50  CR6 ARE d   1       5.025  16.056  39.083  0.00  0.00     0.043 C 
ATOM     51  H6  ARE d   1       5.831  16.579  39.619  0.00  0.00     0.078 H 
ATOM     52  H7  ARE d   1       4.767  16.615  38.172  0.00  0.00     0.078 H 
BRANCH  50  53
ATOM     53  OR6 ARE d   1       5.490  14.764  38.709  0.00  0.00    -0.398 OA
ATOM     54  H11 ARE d   1       4.804  14.306  38.239  0.00  0.00     0.209 HD
ENDBRANCH  50  53
ENDBRANCH  41  50
ENDBRANCH  32  33
ENDBRANCH  21  32
BRANCH  25  55
ATOM     55  CV6 ARE d   1       8.996  17.574  41.182  0.00  0.00    -0.050 C 
ATOM     56  H17 ARE d   1       8.599  17.801  40.181  0.00  0.00     0.031 H 
ATOM     57  H18 ARE d   1       9.829  16.861  41.093  0.00  0.00     0.031 H 
ATOM     58  H19 ARE d   1       9.356  18.501  41.652  0.00  0.00     0.031 H 
ENDBRANCH  25  55
ENDBRANCH  14  17
ENDBRANCH   1  14
BRANCH   2  59
ATOM     59  OY2 ARE d   1      10.309  20.246  45.013  0.00  0.00    -0.391 OA
ATOM     60  H47 ARE d   1       9.600  20.259  44.381  0.00  0.00     0.210 HD
ENDBRANCH   2  59
BRANCH   3  61
ATOM     61  OY3 ARE d   1      12.487  20.107  43.170  0.00  0.00    -0.390 OA
ATOM     62  H49 ARE d   1      11.967  20.899  43.236  0.00  0.00     0.210 HD
ENDBRANCH   3  61
BRANCH   5  63
ATOM     63  CY7 ARE d   1      12.755  15.195  43.982  0.00  0.00     0.022 C 
ATOM     64  H54 ARE d   1      13.222  14.958  43.015  0.00  0.00     0.074 H 
ATOM     65  H55 ARE d   1      12.172  14.329  44.330  0.00  0.00     0.074 H 
BRANCH  63  66
ATOM     66  OY7 ARE d   1      13.788  15.494  44.950  0.00  0.00    -0.400 OA
ATOM     67  H56 ARE d   1      13.387  15.697  45.787  0.00  0.00     0.209 HD
ENDBRANCH  63  66
ENDBRANCH   5  63
BRANCH   4  68
ATOM     68  OY4 ARE d   1      12.610  17.347  41.817  0.00  0.00    -0.350 OA
BRANCH  68  69
ATOM     69  CQ1 ARE d   1      13.633  18.035  41.134  0.00  0.00     0.159 C 
ATOM     70  CQ2 ARE d   1      13.210  18.276  39.668  0.00  0.00     0.110 C 
ATOM     71  CQ3 ARE d   1      13.278  16.978  38.807  0.00  0.00     0.092 C 
ATOM     72  H25 ARE d   1      13.883  19.027  39.228  0.00  0.00     0.094 H 
ATOM     73  CQ4 ARE d   1      14.701  16.417  38.857  0.00  0.00     0.096 C 
ATOM     74  H26 ARE d   1      12.577  16.227  39.200  0.00  0.00     0.091 H 
ATOM     75  CQ5 ARE d   1      14.960  16.064  40.384  0.00  0.00     0.089 C 
ATOM     76  H27 ARE d   1      15.428  17.160  38.497  0.00  0.00     0.091 H 
ATOM     77  OQ5 ARE d   1      14.860  17.263  41.191  0.00  0.00    -0.348 OA
ATOM     78  H28 ARE d   1      14.197  15.339  40.704  0.00  0.00     0.090 H 
ATOM     79  H24 ARE d   1      13.800  19.007  41.621  0.00  0.00     0.133 H 
BRANCH  70  80
ATOM     80  OQ2 ARE d   1      11.881  18.764  39.640  0.00  0.00    -0.388 OA
ATOM     81  H31 ARE d   1      11.634  18.956  38.743  0.00  0.00     0.210 HD
ENDBRANCH  70  80
BRANCH  71  82
ATOM     82  OQ3 ARE d   1      12.904  17.333  37.474  0.00  0.00    -0.390 OA
ATOM     83  H32 ARE d   1      12.945  16.563  36.919  0.00  0.00     0.210 HD
ENDBRANCH  71  82
BRANCH  73  84
ATOM     84  OQ4 ARE d   1      14.784  15.254  38.083  0.00  0.00    -0.348 OA
BRANCH  84  85
ATOM     85  CW1 ARE d   1      15.897  15.319  37.178  0.00  0.00     0.159 C 
ATOM     86  CW2 ARE d   1      15.467  15.284  35.692  0.00  0.00     0.110 C 
ATOM     87  CW3 ARE d   1      14.794  13.918  35.395  0.00  0.00     0.092 C 
ATOM     88  H35 ARE d   1      16.348  15.403  35.044  0.00  0.00     0.094 H 
ATOM     89  CW4 ARE d   1      15.840  12.821  35.661  0.00  0.00     0.090 C 
ATOM     90  H36 ARE d   1      13.915  13.774  36.040  0.00  0.00     0.091 H 
ATOM     91  CW5 ARE d   1      16.266  12.888  37.179  0.00  0.00     0.089 C 
ATOM     92  H37 ARE d   1      16.718  12.978  35.018  0.00  0.00     0.091 H 
ATOM     93  OW5 ARE d   1      16.823  14.205  37.443  0.00  0.00    -0.348 OA
ATOM     94  H38 ARE d   1      15.384  12.722  37.815  0.00  0.00     0.090 H 
ATOM     95  H34 ARE d   1      16.426  16.267  37.358  0.00  0.00     0.133 H 
BRANCH  86  96
ATOM     96  OW2 ARE d   1      14.577  16.353  35.473  0.00  0.00    -0.388 OA
ATOM     97  H41 ARE d   1      13.823  16.258  36.043  0.00  0.00     0.210 HD
ENDBRANCH  86  96
BRANCH  87  98
ATOM     98  OW3 ARE d   1      14.412  13.880  34.040  0.00  0.00    -0.390 OA
ATOM     99  H42 ARE d   1      14.039  13.029  33.841  0.00  0.00     0.210 HD
ENDBRANCH  87  98
BRANCH  89 100
ATOM    100  OW4 ARE d   1      15.269  11.551  35.392  0.00  0.00    -0.390 OA
ATOM    101  H43 ARE d   1      15.909  10.873  35.574  0.00  0.00     0.210 HD
ENDBRANCH  89 100
BRANCH  91 102
ATOM    102  CW6 ARE d   1      17.333  11.821  37.496  0.00  0.00     0.043 C 
ATOM    103  H39 ARE d   1      17.623  11.911  38.553  0.00  0.00     0.078 H 
ATOM    104  H40 ARE d   1      18.212  11.996  36.858  0.00  0.00     0.078 H 
BRANCH 102 105
ATOM    105  OW6 ARE d   1      16.856  10.523  37.265  0.00  0.00    -0.398 OA
ATOM    106  H44 ARE d   1      16.099  10.362  37.816  0.00  0.00     0.209 HD
ENDBRANCH 102 105
ENDBRANCH  91 102
ENDBRANCH  84  85
ENDBRANCH  73  84
BRANCH  75 107
ATOM    107  CQ6 ARE d   1      16.341  15.473  40.647  0.00  0.00     0.043 C 
ATOM    108  H29 ARE d   1      16.388  14.461  40.218  0.00  0.00     0.078 H 
ATOM    109  H30 ARE d   1      16.509  15.419  41.733  0.00  0.00     0.078 H 
BRANCH 107 110
ATOM    110  OQ6 ARE d   1      17.346  16.270  40.063  0.00  0.00    -0.398 OA
ATOM    111  H33 ARE d   1      17.311  17.144  40.434  0.00  0.00     0.209 HD
ENDBRANCH 107 110
ENDBRANCH  75 107
ENDBRANCH  68  69
ENDBRANCH   4  68
TORSDOF 29
