REMARK  5 active torsions:
REMARK  status: ('A' for Active; 'I' for Inactive)
REMARK    1  A    between atoms: N_1  and  CA_2 
REMARK    2  A    between atoms: CA_2  and  C_3 
REMARK    3  A    between atoms: CA_2  and  CB_5 
REMARK    4  A    between atoms: CB_5  and  CG_6 
REMARK    5  A    between atoms: CG_6  and  CD_7 
ROOT
ATOM      1  CA  GLU d   1       5.552  30.497  28.594  0.00  0.00     0.183 C 
ATOM      2  H4  GLU d   1       4.726  31.222  28.635  0.00  0.00     0.101 H 
ENDROOT
BRANCH   1   3
ATOM      3  N   GLU d   1       6.405  30.706  29.813  0.00  0.00    -0.065 N 
ATOM      4  H1  GLU d   1       6.780  31.642  29.804  0.00  0.00     0.275 HD
ATOM      5  H2  GLU d   1       7.162  30.040  29.812  0.00  0.00     0.275 HD
ATOM      6  H3  GLU d   1       5.845  30.577  30.641  0.00  0.00     0.275 HD
ENDBRANCH   1   3
BRANCH   1   7
ATOM      7  C   GLU d   1       4.954  29.103  28.546  0.00  0.00     0.204 C 
ATOM      8  O   GLU d   1       4.011  28.853  27.771  0.00  0.00    -0.646 OA
ATOM      9  OXT GLU d   1       5.422  28.237  29.311  0.00  0.00    -0.646 OA
ENDBRANCH   1   7
BRANCH   1  10
ATOM     10  CB  GLU d   1       6.345  30.749  27.322  0.00  0.00    -0.020 C 
ATOM     11  H5  GLU d   1       6.740  31.774  27.372  0.00  0.00     0.037 H 
ATOM     12  H6  GLU d   1       5.651  30.664  26.473  0.00  0.00     0.037 H 
BRANCH  10  13
ATOM     13  CG  GLU d   1       7.525  29.807  27.056  0.00  0.00     0.018 C 
ATOM     14  H7  GLU d   1       7.161  28.769  27.037  0.00  0.00     0.049 H 
ATOM     15  H8  GLU d   1       8.266  29.921  27.861  0.00  0.00     0.049 H 
BRANCH  13  16
ATOM     16  CD  GLU d   1       8.180  30.128  25.728  0.00  0.00     0.172 C 
ATOM     17  OE1 GLU d   1       8.892  31.161  25.662  0.00  0.00    -0.648 OA
ATOM     18  OE2 GLU d   1       8.017  29.358  24.753  0.00  0.00    -0.648 OA
ENDBRANCH  13  16
ENDBRANCH  10  13
ENDBRANCH   1  10
TORSDOF 5
