REMARK  10 active torsions:
REMARK  status: ('A' for Active; 'I' for Inactive)
REMARK    1  A    between atoms: C21_2  and  C14_3 
REMARK       I    between atoms: C21_2  and  N23_9 
REMARK    2  A    between atoms: N23_9  and  C31_10 
REMARK    3  A    between atoms: C37_16  and  N41_17 
REMARK       I    between atoms: N41_17  and  C42_18 
REMARK    4  A    between atoms: C42_18  and  C51_20 
REMARK    5  A    between atoms: C54_25  and  C61_26 
REMARK    6  A    between atoms: C61_26  and  C71_28 
REMARK    7  A    between atoms: C72_29  and  O92_30 
REMARK    8  A    between atoms: C75_34  and  N95_35 
REMARK    9  A    between atoms: N95_35  and  C98_36 
REMARK   10  A    between atoms: N95_35  and  C99_37 
ROOT
ATOM      1  N41 R69 d   1       6.556  21.595  30.973  0.00  0.00    -0.350 N 
ATOM      2  C42 R69 d   1       5.901  21.573  32.213  0.00  0.00     0.252 C 
ATOM      3  O43 R69 d   1       5.926  22.529  33.012  0.00  0.00    -0.268 OA
ATOM      4  H18 R69 d   1       6.636  20.745  30.452  0.00  0.00     0.163 HD
ENDROOT
BRANCH   1   5
ATOM      5  C37 R69 d   1       7.138  22.847  30.406  0.00  0.00     0.033 C 
ATOM      6  C31 R69 d   1       8.237  22.512  29.340  0.00  0.00     0.055 C 
ATOM      7  C32 R69 d   1       8.034  22.990  27.898  0.00  0.00     0.102 C 
ATOM      8  H6  R69 d   1       8.338  21.417  29.310  0.00  0.00     0.078 H 
ATOM      9  N33 R69 d   1       6.705  22.448  27.434  0.00  0.00    -0.073 N 
ATOM     10  H7  R69 d   1       8.842  22.608  27.257  0.00  0.00     0.079 H 
ATOM     11  H8  R69 d   1       8.026  24.089  27.863  0.00  0.00     0.079 H 
ATOM     12  C34 R69 d   1       5.507  23.344  27.605  0.00  0.00     0.082 C 
ATOM     13  H9  R69 d   1       6.526  21.599  27.947  0.00  0.00     0.277 HD
ATOM     14  H10 R69 d   1       6.789  22.236  26.452  0.00  0.00     0.277 HD
ATOM     15  C35 R69 d   1       4.973  23.296  29.025  0.00  0.00    -0.041 C 
ATOM     16  H11 R69 d   1       4.715  23.018  26.915  0.00  0.00     0.075 H 
ATOM     17  H12 R69 d   1       5.798  24.378  27.367  0.00  0.00     0.075 H 
ATOM     18  C36 R69 d   1       6.028  23.839  30.002  0.00  0.00    -0.043 C 
ATOM     19  H13 R69 d   1       4.733  22.255  29.289  0.00  0.00     0.035 H 
ATOM     20  H14 R69 d   1       4.063  23.910  29.093  0.00  0.00     0.035 H 
ATOM     21  H15 R69 d   1       5.509  24.157  30.918  0.00  0.00     0.036 H 
ATOM     22  H16 R69 d   1       6.508  24.710  29.532  0.00  0.00     0.036 H 
ATOM     23  H17 R69 d   1       7.677  23.340  31.229  0.00  0.00     0.075 H 
BRANCH   6  24
ATOM     24  N23 R69 d   1       9.484  23.106  29.809  0.00  0.00    -0.349 N 
ATOM     25  C21 R69 d   1      10.597  22.348  30.163  0.00  0.00     0.252 C 
ATOM     26  O22 R69 d   1      10.477  21.116  30.256  0.00  0.00    -0.268 OA
ATOM     27  H5  R69 d   1       9.542  24.102  29.879  0.00  0.00     0.163 HD
BRANCH  25  28
ATOM     28  C14 R69 d   1      11.886  23.036  30.377  0.00  0.00     0.034 A 
ATOM     29  C13 R69 d   1      13.052  22.283  30.622  0.00  0.00    -0.051 A 
ATOM     30  C12 R69 d   1      14.286  22.930  30.763  0.00  0.00     0.003 A 
ATOM     31  H1  R69 d   1      12.994  21.203  30.701  0.00  0.00     0.087 H 
ATOM     32  N11 R69 d   1      14.402  24.259  30.711  0.00  0.00    -0.273 NA
ATOM     33  H2  R69 d   1      15.176  22.332  30.919  0.00  0.00     0.114 H 
ATOM     34  C16 R69 d   1      13.312  25.004  30.478  0.00  0.00     0.003 A 
ATOM     35  C15 R69 d   1      12.036  24.438  30.286  0.00  0.00    -0.051 A 
ATOM     36  H3  R69 d   1      13.416  26.082  30.436  0.00  0.00     0.114 H 
ATOM     37  H4  R69 d   1      11.181  25.069  30.072  0.00  0.00     0.087 H 
ENDBRANCH  25  28
ENDBRANCH   6  24
ENDBRANCH   1   5
BRANCH   2  38
ATOM     38  C51 R69 d   1       5.099  20.404  32.540  0.00  0.00     0.032 A 
ATOM     39  C52 R69 d   1       4.744  20.148  33.881  0.00  0.00    -0.067 A 
ATOM     40  C53 R69 d   1       3.927  19.068  34.210  0.00  0.00    -0.068 A 
ATOM     41  H19 R69 d   1       5.111  20.800  34.666  0.00  0.00     0.085 H 
ATOM     42  C54 R69 d   1       3.517  18.205  33.169  0.00  0.00     0.015 A 
ATOM     43  H20 R69 d   1       3.615  18.895  35.234  0.00  0.00     0.085 H 
ATOM     44  C55 R69 d   1       3.884  18.453  31.825  0.00  0.00    -0.068 A 
ATOM     45  C56 R69 d   1       4.654  19.551  31.510  0.00  0.00    -0.067 A 
ATOM     46  H22 R69 d   1       3.559  17.778  31.042  0.00  0.00     0.085 H 
ATOM     47  H21 R69 d   1       4.915  19.757  30.478  0.00  0.00     0.085 H 
BRANCH  42  48
ATOM     48  C61 R69 d   1       2.633  17.078  33.447  0.00  0.00     0.195 C 
ATOM     49  O62 R69 d   1       1.830  17.234  34.392  0.00  0.00    -0.287 OA
BRANCH  48  50
ATOM     50  C71 R69 d   1       2.529  15.918  32.620  0.00  0.00     0.050 A 
ATOM     51  C72 R69 d   1       3.605  15.023  32.309  0.00  0.00     0.080 A 
ATOM     52  C73 R69 d   1       3.275  13.926  31.434  0.00  0.00    -0.048 A 
ATOM     53  C74 R69 d   1       1.999  13.742  30.936  0.00  0.00    -0.055 A 
ATOM     54  H24 R69 d   1       4.053  13.223  31.158  0.00  0.00     0.087 H 
ATOM     55  C75 R69 d   1       0.952  14.627  31.273  0.00  0.00     0.030 A 
ATOM     56  H25 R69 d   1       1.799  12.905  30.276  0.00  0.00     0.087 H 
ATOM     57  C76 R69 d   1       1.247  15.698  32.101  0.00  0.00    -0.041 A 
ATOM     58  H26 R69 d   1       0.455  16.392  32.357  0.00  0.00     0.088 H 
BRANCH  51  59
ATOM     59  O92 R69 d   1       4.799  15.178  32.758  0.00  0.00    -0.360 OA
ATOM     60  H23 R69 d   1       5.352  14.478  32.432  0.00  0.00     0.217 HD
ENDBRANCH  51  59
BRANCH  55  61
ATOM     61  N95 R69 d   1      -0.371  14.447  30.720  0.00  0.00    -0.390 N 
BRANCH  61  62
ATOM     62  C98 R69 d   1      -1.514  15.272  31.155  0.00  0.00    -0.019 C 
ATOM     63  H27 R69 d   1      -2.417  14.966  30.607  0.00  0.00     0.056 H 
ATOM     64  H28 R69 d   1      -1.301  16.331  30.948  0.00  0.00     0.056 H 
ATOM     65  H29 R69 d   1      -1.676  15.134  32.234  0.00  0.00     0.056 H 
ENDBRANCH  61  62
BRANCH  61  66
ATOM     66  C99 R69 d   1      -0.747  13.114  30.197  0.00  0.00    -0.019 C 
ATOM     67  H30 R69 d   1       0.160  12.569  29.897  0.00  0.00     0.056 H 
ATOM     68  H31 R69 d   1      -1.407  13.235  29.325  0.00  0.00     0.056 H 
ATOM     69  H32 R69 d   1      -1.273  12.548  30.980  0.00  0.00     0.056 H 
ENDBRANCH  61  66
ENDBRANCH  55  61
ENDBRANCH  48  50
ENDBRANCH  42  48
ENDBRANCH   2  38
TORSDOF 10
