REMARK  10 active torsions:
REMARK  status: ('A' for Active; 'I' for Inactive)
REMARK    1  A    between atoms: C21_2  and  C14_3 
REMARK       I    between atoms: C21_2  and  N23_9 
REMARK    2  A    between atoms: N23_9  and  C31_10 
REMARK    3  A    between atoms: C37_16  and  N41_17 
REMARK       I    between atoms: N41_17  and  C42_18 
REMARK    4  A    between atoms: C42_18  and  C51_20 
REMARK    5  A    between atoms: C54_25  and  C61_26 
REMARK    6  A    between atoms: C61_26  and  C71_28 
REMARK    7  A    between atoms: C72_29  and  O82_30 
REMARK    8  A    between atoms: C75_33  and  C91_36 
REMARK    9  A    between atoms: C92_37  and  C97_38 
REMARK   10  A    between atoms: C92_37  and  C98_39 
ROOT
ATOM      1  C51 R68 d   1      12.717  12.298   1.229  0.00  0.00     0.032 A 
ATOM      2  C52 R68 d   1      13.101  13.653   1.137  0.00  0.00    -0.067 A 
ATOM      3  C53 R68 d   1      14.041  14.066   0.203  0.00  0.00    -0.068 A 
ATOM      4  C56 R68 d   1      13.343  11.362   0.389  0.00  0.00    -0.067 A 
ATOM      5  C55 R68 d   1      14.297  11.775  -0.525  0.00  0.00    -0.068 A 
ATOM      6  C54 R68 d   1      14.626  13.129  -0.658  0.00  0.00     0.015 A 
ATOM      7  H19 R68 d   1      12.656  14.381   1.805  0.00  0.00     0.085 H 
ATOM      8  H20 R68 d   1      14.322  15.111   0.140  0.00  0.00     0.085 H 
ATOM      9  H21 R68 d   1      13.078  10.313   0.457  0.00  0.00     0.085 H 
ATOM     10  H22 R68 d   1      14.796  11.040  -1.146  0.00  0.00     0.085 H 
ENDROOT
BRANCH   1  11
ATOM     11  C42 R68 d   1      11.806  11.877   2.292  0.00  0.00     0.252 C 
ATOM     12  N41 R68 d   1      11.246  10.618   2.292  0.00  0.00    -0.350 N 
ATOM     13  H18 R68 d   1      11.253  10.107   1.432  0.00  0.00     0.163 HD
ATOM     14  O43 R68 d   1      11.677  12.582   3.305  0.00  0.00    -0.268 OA
BRANCH  12  15
ATOM     15  C37 R68 d   1      10.649   9.982   3.445  0.00  0.00     0.033 C 
ATOM     16  C31 R68 d   1       9.657   8.867   3.018  0.00  0.00     0.055 C 
ATOM     17  C32 R68 d   1       9.970   7.431   3.455  0.00  0.00     0.102 C 
ATOM     18  H6  R68 d   1       9.616   8.883   1.919  0.00  0.00     0.078 H 
ATOM     19  N33 R68 d   1      11.246   6.964   2.911  0.00  0.00    -0.073 N 
ATOM     20  H7  R68 d   1       9.167   6.768   3.100  0.00  0.00     0.079 H 
ATOM     21  H8  R68 d   1      10.017   7.395   4.553  0.00  0.00     0.079 H 
ATOM     22  C34 R68 d   1      12.410   7.176   3.833  0.00  0.00     0.082 C 
ATOM     23  H9  R68 d   1      11.426   7.460   2.052  0.00  0.00     0.277 HD
ATOM     24  H10 R68 d   1      11.168   5.978   2.719  0.00  0.00     0.277 HD
ATOM     25  C35 R68 d   1      12.821   8.638   3.830  0.00  0.00    -0.041 C 
ATOM     26  H11 R68 d   1      13.257   6.560   3.497  0.00  0.00     0.075 H 
ATOM     27  H12 R68 d   1      12.124   6.881   4.853  0.00  0.00     0.075 H 
ATOM     28  C36 R68 d   1      11.748   9.574   4.455  0.00  0.00    -0.043 C 
ATOM     29  H13 R68 d   1      12.995   8.951   2.790  0.00  0.00     0.035 H 
ATOM     30  H14 R68 d   1      13.753   8.741   4.405  0.00  0.00     0.035 H 
ATOM     31  H15 R68 d   1      12.245  10.485   4.821  0.00  0.00     0.036 H 
ATOM     32  H16 R68 d   1      11.274   9.051   5.299  0.00  0.00     0.036 H 
ATOM     33  H17 R68 d   1      10.040  10.744   3.953  0.00  0.00     0.075 H 
BRANCH  16  34
ATOM     34  N23 R68 d   1       8.309   9.138   3.561  0.00  0.00    -0.349 N 
ATOM     35  C21 R68 d   1       7.202   9.358   2.754  0.00  0.00     0.252 C 
ATOM     36  O22 R68 d   1       7.390   9.414   1.524  0.00  0.00    -0.268 OA
ATOM     37  H5  R68 d   1       8.190   9.164   4.553  0.00  0.00     0.163 HD
BRANCH  35  38
ATOM     38  C14 R68 d   1       5.851   9.495   3.363  0.00  0.00     0.034 A 
ATOM     39  C13 R68 d   1       4.713   9.520   2.526  0.00  0.00    -0.051 A 
ATOM     40  C12 R68 d   1       3.435   9.635   3.084  0.00  0.00     0.003 A 
ATOM     41  H1  R68 d   1       4.830   9.450   1.451  0.00  0.00     0.087 H 
ATOM     42  N11 R68 d   1       3.265   9.637   4.411  0.00  0.00    -0.273 NA
ATOM     43  H2  R68 d   1       2.572   9.723   2.433  0.00  0.00     0.114 H 
ATOM     44  C16 R68 d   1       4.310   9.598   5.225  0.00  0.00     0.003 A 
ATOM     45  C15 R68 d   1       5.631   9.557   4.749  0.00  0.00    -0.051 A 
ATOM     46  H3  R68 d   1       4.139   9.598   6.295  0.00  0.00     0.114 H 
ATOM     47  H4  R68 d   1       6.466   9.573   5.439  0.00  0.00     0.087 H 
ENDBRANCH  35  38
ENDBRANCH  16  34
ENDBRANCH  12  15
ENDBRANCH   1  11
BRANCH   6  48
ATOM     48  C61 R68 d   1      15.703  13.501  -1.577  0.00  0.00     0.198 C 
ATOM     49  O62 R68 d   1      16.295  14.590  -1.385  0.00  0.00    -0.286 OA
BRANCH  48  50
ATOM     50  C71 R68 d   1      16.236  12.536  -2.540  0.00  0.00     0.087 A 
ATOM     51  C72 R68 d   1      15.533  12.172  -3.669  0.00  0.00     0.083 A 
ATOM     52  C73 R68 d   1      16.010  11.256  -4.597  0.00  0.00    -0.049 A 
ATOM     53  C74 R68 d   1      17.252  10.656  -4.378  0.00  0.00    -0.069 A 
ATOM     54  H24 R68 d   1      15.428  11.010  -5.478  0.00  0.00     0.087 H 
ATOM     55  C75 R68 d   1      17.996  10.960  -3.220  0.00  0.00     0.013 A 
ATOM     56  H25 R68 d   1      17.646   9.953  -5.103  0.00  0.00     0.084 H 
ATOM     57  C76 R68 d   1      17.455  11.904  -2.350  0.00  0.00     0.141 A 
ATOM     58  F89 R68 d   1      18.118  12.245  -1.252  0.00  0.00    -0.204 F 
BRANCH  51  59
ATOM     59  O82 R68 d   1      14.363  12.796  -3.818  0.00  0.00    -0.360 OA
ATOM     60  H23 R68 d   1      13.943  12.492  -4.614  0.00  0.00     0.217 HD
ENDBRANCH  51  59
BRANCH  55  61
ATOM     61  C91 R68 d   1      19.358  10.327  -2.982  0.00  0.00     0.136 C 
ATOM     62  C92 R68 d   1      20.559  11.193  -3.523  0.00  0.00    -0.015 C 
ATOM     63  C93 R68 d   1      21.899  10.448  -3.265  0.00  0.00    -0.055 C 
ATOM     64  C94 R68 d   1      22.032   9.958  -1.798  0.00  0.00    -0.042 C 
ATOM     65  H33 R68 d   1      22.732  11.132  -3.486  0.00  0.00     0.034 H 
ATOM     66  H34 R68 d   1      21.953   9.577  -3.934  0.00  0.00     0.034 H 
ATOM     67  C95 R68 d   1      20.771   9.169  -1.351  0.00  0.00     0.083 C 
ATOM     68  H35 R68 d   1      22.162  10.829  -1.139  0.00  0.00     0.035 H 
ATOM     69  H36 R68 d   1      22.912   9.303  -1.717  0.00  0.00     0.035 H 
ATOM     70  N96 R68 d   1      19.514   9.965  -1.544  0.00  0.00    -0.066 N 
ATOM     71  H37 R68 d   1      20.870   8.914  -0.285  0.00  0.00     0.075 H 
ATOM     72  H38 R68 d   1      20.701   8.245  -1.944  0.00  0.00     0.075 H 
ATOM     73  H39 R68 d   1      18.722   9.415  -1.250  0.00  0.00     0.278 HD
ATOM     74  H40 R68 d   1      19.563  10.806  -0.991  0.00  0.00     0.278 HD
ATOM     75  H26 R68 d   1      19.374   9.387  -3.553  0.00  0.00     0.093 H 
BRANCH  62  76
ATOM     76  C97 R68 d   1      20.675  12.588  -2.839  0.00  0.00    -0.067 C 
ATOM     77  H27 R68 d   1      21.530  13.134  -3.264  0.00  0.00     0.028 H 
ATOM     78  H28 R68 d   1      20.825  12.455  -1.758  0.00  0.00     0.028 H 
ATOM     79  H29 R68 d   1      19.752  13.160  -3.013  0.00  0.00     0.028 H 
ENDBRANCH  62  76
BRANCH  62  80
ATOM     80  C98 R68 d   1      20.440  11.380  -5.026  0.00  0.00    -0.067 C 
ATOM     81  H30 R68 d   1      20.358  10.397  -5.512  0.00  0.00     0.028 H 
ATOM     82  H31 R68 d   1      21.332  11.902  -5.402  0.00  0.00     0.028 H 
ATOM     83  H32 R68 d   1      19.544  11.977  -5.252  0.00  0.00     0.028 H 
ENDBRANCH  62  80
ENDBRANCH  55  61
ENDBRANCH  48  50
ENDBRANCH   6  48
TORSDOF 10
