REMARK  10 active torsions:
REMARK  status: ('A' for Active; 'I' for Inactive)
REMARK    1  A    between atoms: C21_2  and  C14_3 
REMARK       I    between atoms: C21_2  and  N23_9 
REMARK    2  A    between atoms: N23_9  and  C31_10 
REMARK    3  A    between atoms: C37_16  and  N41_17 
REMARK       I    between atoms: N41_17  and  C42_18 
REMARK    4  A    between atoms: C42_18  and  C51_20 
REMARK    5  A    between atoms: C54_25  and  C61_26 
REMARK    6  A    between atoms: C61_26  and  C71_28 
REMARK    7  A    between atoms: C72_29  and  O92_30 
REMARK    8  A    between atoms: C75_34  and  N95_35 
REMARK    9  A    between atoms: N95_35  and  C98_36 
REMARK   10  A    between atoms: N95_35  and  C99_37 
ROOT
ATOM      1  N41 R69 d   1      10.959  40.177  13.316  0.00  0.00    -0.350 N 
ATOM      2  C42 R69 d   1      12.122  40.106  14.060  0.00  0.00     0.252 C 
ATOM      3  O43 R69 d   1      12.856  41.085  14.106  0.00  0.00    -0.268 OA
ATOM      4  H18 R69 d   1      10.451  39.336  13.131  0.00  0.00     0.163 HD
ENDROOT
BRANCH   1   5
ATOM      5  C37 R69 d   1      10.441  41.457  12.784  0.00  0.00     0.033 C 
ATOM      6  C31 R69 d   1       9.399  41.127  11.670  0.00  0.00     0.055 C 
ATOM      7  C32 R69 d   1       7.957  41.644  11.814  0.00  0.00     0.102 C 
ATOM      8  H6  R69 d   1       9.337  40.031  11.608  0.00  0.00     0.078 H 
ATOM      9  N33 R69 d   1       7.314  41.061  13.044  0.00  0.00    -0.073 N 
ATOM     10  H7  R69 d   1       7.376  41.351  10.927  0.00  0.00     0.079 H 
ATOM     11  H8  R69 d   1       7.971  42.741  11.897  0.00  0.00     0.079 H 
ATOM     12  C34 R69 d   1       7.517  41.913  14.299  0.00  0.00     0.082 C 
ATOM     13  H9  R69 d   1       7.710  40.149  13.210  0.00  0.00     0.277 HD
ATOM     14  H10 R69 d   1       6.324  40.972  12.875  0.00  0.00     0.277 HD
ATOM     15  C35 R69 d   1       8.934  41.820  14.867  0.00  0.00    -0.041 C 
ATOM     16  H11 R69 d   1       6.809  41.575  15.070  0.00  0.00     0.075 H 
ATOM     17  H12 R69 d   1       7.310  42.963  14.046  0.00  0.00     0.075 H 
ATOM     18  C36 R69 d   1       9.980  42.412  13.909  0.00  0.00    -0.043 C 
ATOM     19  H13 R69 d   1       9.176  40.762  15.046  0.00  0.00     0.035 H 
ATOM     20  H14 R69 d   1       8.972  42.371  15.818  0.00  0.00     0.035 H 
ATOM     21  H15 R69 d   1      10.863  42.697  14.500  0.00  0.00     0.036 H 
ATOM     22  H16 R69 d   1       9.547  43.309  13.441  0.00  0.00     0.036 H 
ATOM     23  H17 R69 d   1      11.278  41.968  12.286  0.00  0.00     0.075 H 
BRANCH   6  24
ATOM     24  N23 R69 d   1       9.937  41.651  10.407  0.00  0.00    -0.349 N 
ATOM     25  C21 R69 d   1      10.102  40.851   9.284  0.00  0.00     0.252 C 
ATOM     26  O22 R69 d   1      10.072  39.613   9.425  0.00  0.00    -0.268 OA
ATOM     27  H5  R69 d   1      10.193  42.616  10.354  0.00  0.00     0.163 HD
BRANCH  25  28
ATOM     28  C14 R69 d   1      10.249  41.488   7.968  0.00  0.00     0.034 A 
ATOM     29  C13 R69 d   1      10.096  40.738   6.800  0.00  0.00    -0.051 A 
ATOM     30  C12 R69 d   1      10.209  41.317   5.539  0.00  0.00     0.003 A 
ATOM     31  H1  R69 d   1       9.884  39.678   6.877  0.00  0.00     0.087 H 
ATOM     32  N11 R69 d   1      10.474  42.611   5.403  0.00  0.00    -0.273 NA
ATOM     33  H2  R69 d   1      10.079  40.703   4.655  0.00  0.00     0.114 H 
ATOM     34  C16 R69 d   1      10.638  43.355   6.506  0.00  0.00     0.003 A 
ATOM     35  C15 R69 d   1      10.530  42.848   7.799  0.00  0.00    -0.051 A 
ATOM     36  H3  R69 d   1      10.867  44.408   6.385  0.00  0.00     0.114 H 
ATOM     37  H4  R69 d   1      10.661  43.495   8.659  0.00  0.00     0.087 H 
ENDBRANCH  25  28
ENDBRANCH   6  24
ENDBRANCH   1   5
BRANCH   2  38
ATOM     38  C51 R69 d   1      12.433  38.897  14.849  0.00  0.00     0.032 A 
ATOM     39  C52 R69 d   1      13.747  38.667  15.318  0.00  0.00    -0.067 A 
ATOM     40  C53 R69 d   1      14.036  37.556  16.097  0.00  0.00    -0.068 A 
ATOM     41  H19 R69 d   1      14.537  39.366  15.066  0.00  0.00     0.085 H 
ATOM     42  C54 R69 d   1      13.019  36.643  16.429  0.00  0.00     0.015 A 
ATOM     43  H20 R69 d   1      15.047  37.391  16.450  0.00  0.00     0.085 H 
ATOM     44  C55 R69 d   1      11.731  36.884  15.967  0.00  0.00    -0.068 A 
ATOM     45  C56 R69 d   1      11.433  37.993  15.192  0.00  0.00    -0.067 A 
ATOM     46  H22 R69 d   1      10.940  36.187  16.219  0.00  0.00     0.085 H 
ATOM     47  H21 R69 d   1      10.417  38.157  14.852  0.00  0.00     0.085 H 
BRANCH  42  48
ATOM     48  C61 R69 d   1      13.310  35.504  17.295  0.00  0.00     0.195 C 
ATOM     49  O62 R69 d   1      14.269  35.638  18.090  0.00  0.00    -0.287 OA
BRANCH  48  50
ATOM     50  C71 R69 d   1      12.568  34.279  17.366  0.00  0.00     0.050 A 
ATOM     51  C72 R69 d   1      12.415  33.445  16.224  0.00  0.00     0.080 A 
ATOM     52  C73 R69 d   1      11.688  32.234  16.382  0.00  0.00    -0.048 A 
ATOM     53  C74 R69 d   1      11.152  31.895  17.605  0.00  0.00    -0.055 A 
ATOM     54  H24 R69 d   1      11.554  31.572  15.534  0.00  0.00     0.087 H 
ATOM     55  C75 R69 d   1      11.317  32.730  18.738  0.00  0.00     0.030 A 
ATOM     56  H25 R69 d   1      10.593  30.971  17.703  0.00  0.00     0.087 H 
ATOM     57  C76 R69 d   1      12.021  33.922  18.616  0.00  0.00    -0.041 A 
ATOM     58  H26 R69 d   1      12.149  34.572  19.474  0.00  0.00     0.088 H 
BRANCH  51  59
ATOM     59  O92 R69 d   1      12.903  33.767  15.067  0.00  0.00    -0.360 OA
ATOM     60  H23 R69 d   1      12.697  33.086  14.437  0.00  0.00     0.217 HD
ENDBRANCH  51  59
BRANCH  55  61
ATOM     61  N95 R69 d   1      10.736  32.364  19.981  0.00  0.00    -0.390 N 
BRANCH  61  62
ATOM     62  C98 R69 d   1      10.601  30.926  20.282  0.00  0.00    -0.019 C 
ATOM     63  H27 R69 d   1      10.138  30.800  21.272  0.00  0.00     0.056 H 
ATOM     64  H28 R69 d   1      11.596  30.456  20.280  0.00  0.00     0.056 H 
ATOM     65  H29 R69 d   1       9.969  30.449  19.518  0.00  0.00     0.056 H 
ENDBRANCH  61  62
BRANCH  61  66
ATOM     66  C99 R69 d   1       9.565  33.173  20.369  0.00  0.00    -0.019 C 
ATOM     67  H30 R69 d   1       9.746  34.227  20.112  0.00  0.00     0.056 H 
ATOM     68  H31 R69 d   1       9.400  33.083  21.453  0.00  0.00     0.056 H 
ATOM     69  H32 R69 d   1       8.676  32.812  19.832  0.00  0.00     0.056 H 
ENDBRANCH  61  66
ENDBRANCH  55  61
ENDBRANCH  48  50
ENDBRANCH  42  48
ENDBRANCH   2  38
TORSDOF 10
