REMARK  9 active torsions:
REMARK  status: ('A' for Active; 'I' for Inactive)
REMARK    1  A    between atoms: N6_6  and  C24_24 
REMARK    2  A    between atoms: N9_9  and  C28_28 
REMARK    3  A    between atoms: C16_16  and  C17_17 
REMARK    4  A    between atoms: C21_21  and  C22_22 
REMARK    5  A    between atoms: C24_24  and  C35_35 
REMARK    6  A    between atoms: C25_25  and  O33_33 
REMARK    7  A    between atoms: C26_26  and  N31_31 
REMARK    8  A    between atoms: N31_31  and  C32_32 
REMARK    9  A    between atoms: O33_33  and  C34_34 
ROOT
ATOM      1  C24 STU d   1      54.759   5.875   2.756  0.00  0.00     0.168 C 
ATOM      2  C25 STU d   1      53.967   5.789   4.219  0.00  0.00     0.113 C 
ATOM      3  C26 STU d   1      54.712   4.695   5.051  0.00  0.00     0.134 C 
ATOM      4  C27 STU d   1      56.254   5.136   5.300  0.00  0.00     0.005 C 
ATOM      5  C28 STU d   1      57.043   5.523   3.938  0.00  0.00     0.115 C 
ATOM      6  O29 STU d   1      56.126   5.390   2.811  0.00  0.00    -0.333 OA
ATOM      7  H12 STU d   1      52.919   5.496   4.061  0.00  0.00     0.094 H 
ATOM      8  H13 STU d   1      54.690   3.761   4.471  0.00  0.00     0.088 H 
ATOM      9  H14 STU d   1      56.782   4.300   5.783  0.00  0.00     0.042 H 
ATOM     10  H15 STU d   1      56.263   6.010   5.968  0.00  0.00     0.042 H 
ATOM     11  H16 STU d   1      57.902   4.850   3.799  0.00  0.00     0.118 H 
ENDROOT
BRANCH   3  12
ATOM     12  N31 STU d   1      54.087   4.411   6.485  0.00  0.00    -0.072 N 
ATOM     13  H17 STU d   1      53.123   4.138   6.370  0.00  0.00     0.277 HD
ATOM     14  H18 STU d   1      54.134   5.256   7.032  0.00  0.00     0.277 HD
BRANCH  12  15
ATOM     15  C32 STU d   1      54.826   3.300   7.233  0.00  0.00     0.065 C 
ATOM     16  H19 STU d   1      54.356   3.144   8.215  0.00  0.00     0.067 H 
ATOM     17  H20 STU d   1      55.878   3.589   7.372  0.00  0.00     0.067 H 
ATOM     18  H21 STU d   1      54.775   2.369   6.650  0.00  0.00     0.067 H 
ENDBRANCH  12  15
ENDBRANCH   3  12
BRANCH   2  19
ATOM     19  O33 STU d   1      54.005   7.111   4.939  0.00  0.00    -0.384 OA
BRANCH  19  20
ATOM     20  C34 STU d   1      52.783   7.836   4.894  0.00  0.00     0.005 C 
ATOM     21  H22 STU d   1      52.898   8.783   5.441  0.00  0.00     0.066 H 
ATOM     22  H23 STU d   1      51.985   7.239   5.359  0.00  0.00     0.066 H 
ATOM     23  H24 STU d   1      52.520   8.047   3.847  0.00  0.00     0.066 H 
ENDBRANCH  19  20
ENDBRANCH   2  19
BRANCH   1  24
ATOM     24  N6  STU d   1      54.678   7.380   2.283  0.00  0.00    -0.308 N 
ATOM     25  C5  STU d   1      53.682   8.044   1.472  0.00  0.00     0.049 A 
ATOM     26  C4  STU d   1      52.377   7.645   0.890  0.00  0.00    -0.056 A 
ATOM     27  C23 STU d   1      54.129   9.482   1.354  0.00  0.00     0.004 A 
ATOM     28  C3  STU d   1      51.571   8.563   0.145  0.00  0.00    -0.081 A 
ATOM     29  H4  STU d   1      52.024   6.630   1.033  0.00  0.00     0.087 H 
ATOM     30  C2  STU d   1      52.012   9.993  -0.013  0.00  0.00    -0.082 A 
ATOM     31  H3  STU d   1      50.643   8.229  -0.305  0.00  0.00     0.083 H 
ATOM     32  C1  STU d   1      53.280  10.398   0.573  0.00  0.00    -0.070 A 
ATOM     33  H2  STU d   1      51.398  10.706  -0.552  0.00  0.00     0.083 H 
ATOM     34  H1  STU d   1      53.615  11.419   0.429  0.00  0.00     0.084 H 
ATOM     35  C22 STU d   1      55.387   9.642   1.986  0.00  0.00     0.015 A 
ATOM     36  C7  STU d   1      55.759   8.309   2.603  0.00  0.00     0.077 A 
ATOM     37  C8  STU d   1      56.975   8.152   3.343  0.00  0.00     0.077 A 
ATOM     38  N9  STU d   1      57.542   6.993   4.044  0.00  0.00    -0.316 N 
ATOM     39  C16 STU d   1      57.931   9.292   3.545  0.00  0.00     0.022 A 
ATOM     40  C10 STU d   1      58.755   7.365   4.590  0.00  0.00     0.048 A 
ATOM     41  C11 STU d   1      59.705   6.568   5.431  0.00  0.00    -0.056 A 
ATOM     42  C15 STU d   1      58.992   8.833   4.330  0.00  0.00     0.004 A 
ATOM     43  C12 STU d   1      60.918   7.223   5.917  0.00  0.00    -0.081 A 
ATOM     44  H5  STU d   1      59.498   5.532   5.673  0.00  0.00     0.087 H 
ATOM     45  C13 STU d   1      61.177   8.665   5.634  0.00  0.00    -0.082 A 
ATOM     46  H6  STU d   1      61.640   6.653   6.491  0.00  0.00     0.083 H 
ATOM     47  C14 STU d   1      60.241   9.426   4.840  0.00  0.00    -0.070 A 
ATOM     48  H7  STU d   1      62.069   9.142   6.025  0.00  0.00     0.083 H 
ATOM     49  H8  STU d   1      60.463  10.462   4.613  0.00  0.00     0.084 H 
BRANCH  35  50
ATOM     50  C21 STU d   1      56.331  10.786   2.200  0.00  0.00    -0.010 A 
ATOM     51  C17 STU d   1      57.488  10.647   2.887  0.00  0.00     0.054 A 
ATOM     52  C18 STU d   1      58.213  11.942   2.911  0.00  0.00     0.253 A 
ATOM     53  N19 STU d   1      57.427  12.742   2.229  0.00  0.00    -0.353 N 
ATOM     54  O30 STU d   1      59.277  12.216   3.424  0.00  0.00    -0.268 OA
ATOM     55  C20 STU d   1      56.206  12.205   1.700  0.00  0.00     0.021 A 
ATOM     56  H9  STU d   1      57.673  13.700   2.082  0.00  0.00     0.163 HD
ATOM     57  H10 STU d   1      56.177  12.253   0.602  0.00  0.00     0.071 H 
ATOM     58  H11 STU d   1      55.321  12.711   2.113  0.00  0.00     0.071 H 
ENDBRANCH  35  50
ENDBRANCH   1  24
BRANCH   1  59
ATOM     59  C35 STU d   1      54.119   4.791   1.859  0.00  0.00    -0.028 C 
ATOM     60  H25 STU d   1      54.258   3.803   2.322  0.00  0.00     0.034 H 
ATOM     61  H26 STU d   1      54.599   4.803   0.870  0.00  0.00     0.034 H 
ATOM     62  H27 STU d   1      53.044   4.995   1.747  0.00  0.00     0.034 H 
ENDBRANCH   1  59
TORSDOF 9
