REMARK  21 active torsions:
REMARK  status: ('A' for Active; 'I' for Inactive)
REMARK    1  A    between atoms: CBM_4  and  NBV_5 
REMARK    2  A    between atoms: NBV_5  and  CBZ_6 
REMARK    3  A    between atoms: NBV_5  and  CBW_7 
REMARK    4  A    between atoms: NBH_11  and  CBC_12 
REMARK    5  A    between atoms: NBP_14  and  CBQ_15 
REMARK    6  A    between atoms: CBX_17  and  OCA_18 
REMARK    7  A    between atoms: CBY_19  and  OCB_20 
REMARK    8  A    between atoms: CBS_21  and  CBT_22 
REMARK    9  A    between atoms: CBT_22  and  OBU_23 
REMARK   10  A    between atoms: OBU_23  and  PBK_24 
REMARK   11  A    between atoms: PBK_24  and  OBD_27 
REMARK   12  A    between atoms: OBD_27  and  PAZ_28 
REMARK   13  A    between atoms: PAZ_28  and  OAX_31 
REMARK   14  A    between atoms: OAX_31  and  PAT_32 
REMARK   15  A    between atoms: PAT_32  and  O5_35 
REMARK   16  A    between atoms: O5_35  and  C5_36 
REMARK   17  A    between atoms: C5_36  and  C4_37 
REMARK   18  A    between atoms: C3_39  and  O3_40 
REMARK   19  A    between atoms: C2_41  and  O2_42 
REMARK   20  A    between atoms: C1_43  and  N9_44 
REMARK   21  A    between atoms: C2_50  and  N2_51 
ROOT
ATOM      1  PBK TPG d   1      12.635  35.519   4.030  0.00  0.00     0.417 P 
ATOM      2  OBL TPG d   1      13.873  36.369   4.613  0.00  0.00    -0.624 OA
ATOM      3  OBJ TPG d   1      11.577  36.403   3.492  0.00  0.00    -0.624 OA
ENDROOT
BRANCH   1   4
ATOM      4  OBU TPG d   1      12.089  34.611   5.241  0.00  0.00    -0.287 OA
BRANCH   4   5
ATOM      5  CBT TPG d   1      12.665  34.735   6.543  0.00  0.00     0.058 C 
ATOM      6  H18 TPG d   1      13.550  34.086   6.613  0.00  0.00     0.079 H 
ATOM      7  H19 TPG d   1      12.963  35.780   6.711  0.00  0.00     0.079 H 
BRANCH   5   8
ATOM      8  CBS TPG d   1      11.648  34.321   7.607  0.00  0.00     0.089 C 
ATOM      9  OBR TPG d   1      12.135  34.523   8.945  0.00  0.00    -0.353 OA
ATOM     10  CBQ TPG d   1      11.064  35.068   9.738  0.00  0.00     0.139 C 
ATOM     11  CBX TPG d   1       9.799  34.877   8.898  0.00  0.00     0.105 C 
ATOM     12  H12 TPG d   1      10.960  34.530  10.692  0.00  0.00     0.122 H 
ATOM     13  CBY TPG d   1      10.363  35.140   7.505  0.00  0.00     0.091 C 
ATOM     14  H13 TPG d   1       9.001  35.585   9.165  0.00  0.00     0.093 H 
ATOM     15  H15 TPG d   1      10.553  36.206   7.314  0.00  0.00     0.091 H 
ATOM     16  H17 TPG d   1      11.416  33.255   7.462  0.00  0.00     0.090 H 
BRANCH  10  17
ATOM     17  NBP TPG d   1      11.409  36.484  10.006  0.00  0.00    -0.295 N 
ATOM     18  CBO TPG d   1      12.105  36.940  11.045  0.00  0.00     0.184 A 
ATOM     19  NBN TPG d   1      12.636  36.268  12.080  0.00  0.00    -0.044 NA
ATOM     20  CBG TPG d   1      12.332  38.306  10.888  0.00  0.00     0.151 A 
ATOM     21  CBM TPG d   1      13.402  36.863  13.007  0.00  0.00     0.706 A 
ATOM     22  NBE TPG d   1      13.660  38.236  12.903  0.00  0.00    -0.152 N 
ATOM     23  CBF TPG d   1      13.120  38.960  11.831  0.00  0.00     0.290 A 
ATOM     24  H1  TPG d   1      14.225  38.696  13.588  0.00  0.00     0.187 HD
ATOM     25  OBB TPG d   1      13.343  40.165  11.728  0.00  0.00    -0.265 OA
ATOM     26  NBH TPG d   1      11.796  38.701   9.736  0.00  0.00    -0.340 N 
ATOM     27  CBI TPG d   1      11.018  37.607   9.142  0.00  0.00     0.049 C 
ATOM     28  H11 TPG d   1      10.337  37.623   8.293  0.00  0.00     0.141 H 
BRANCH  21  29
ATOM     29  NBV TPG d   1      13.938  36.146  13.993  0.00  0.00    -0.224 N 
BRANCH  29  30
ATOM     30  CBZ TPG d   1      13.670  34.704  14.094  0.00  0.00    -0.003 C 
ATOM     31  H2  TPG d   1      14.198  34.293  14.967  0.00  0.00     0.057 H 
ATOM     32  H3  TPG d   1      14.023  34.201  13.182  0.00  0.00     0.057 H 
ATOM     33  H4  TPG d   1      12.588  34.539  14.208  0.00  0.00     0.057 H 
ENDBRANCH  29  30
BRANCH  29  34
ATOM     34  CBW TPG d   1      14.811  36.787  14.987  0.00  0.00    -0.003 C 
ATOM     35  H5  TPG d   1      14.900  37.860  14.760  0.00  0.00     0.057 H 
ATOM     36  H6  TPG d   1      15.807  36.322  14.954  0.00  0.00     0.057 H 
ATOM     37  H7  TPG d   1      14.379  36.660  15.991  0.00  0.00     0.057 H 
ENDBRANCH  29  34
ENDBRANCH  21  29
BRANCH  26  38
ATOM     38  CBC TPG d   1      11.941  40.044   9.131  0.00  0.00    -0.013 C 
ATOM     39  H8  TPG d   1      11.389  40.079   8.180  0.00  0.00     0.057 H 
ATOM     40  H9  TPG d   1      13.005  40.249   8.945  0.00  0.00     0.057 H 
ATOM     41  H10 TPG d   1      11.536  40.801   9.818  0.00  0.00     0.057 H 
ENDBRANCH  26  38
ENDBRANCH  10  17
BRANCH  11  42
ATOM     42  OCA TPG d   1       9.336  33.530   9.029  0.00  0.00    -0.388 OA
ATOM     43  H14 TPG d   1       8.551  33.414   8.507  0.00  0.00     0.210 HD
ENDBRANCH  11  42
BRANCH  13  44
ATOM     44  OCB TPG d   1       9.489  34.600   6.510  0.00  0.00    -0.390 OA
ATOM     45  H16 TPG d   1       8.635  35.010   6.584  0.00  0.00     0.210 HD
ENDBRANCH  13  44
ENDBRANCH   5   8
ENDBRANCH   4   5
ENDBRANCH   1   4
BRANCH   1  46
ATOM     46  OBD TPG d   1      13.231  34.495   2.939  0.00  0.00    -0.180 OA
BRANCH  46  47
ATOM     47  PAZ TPG d   1      14.794  34.107   2.933  0.00  0.00     0.427 P 
ATOM     48  OBA TPG d   1      15.179  33.205   1.655  0.00  0.00    -0.624 OA
ATOM     49  OAY TPG d   1      15.807  34.894   3.671  0.00  0.00    -0.624 OA
BRANCH  47  50
ATOM     50  OAX TPG d   1      14.610  32.854   3.929  0.00  0.00    -0.180 OA
BRANCH  50  51
ATOM     51  PAT TPG d   1      15.878  32.212   4.689  0.00  0.00     0.417 P 
ATOM     52  OAU TPG d   1      16.500  30.965   3.880  0.00  0.00    -0.624 OA
ATOM     53  OAS TPG d   1      16.657  32.962   5.698  0.00  0.00    -0.624 OA
BRANCH  51  54
ATOM     54  O5  TPG d   1      14.985  31.281   5.653  0.00  0.00    -0.287 OA
BRANCH  54  55
ATOM     55  C5  TPG d   1      14.158  31.834   6.682  0.00  0.00     0.058 C 
ATOM     56  H20 TPG d   1      13.241  31.232   6.760  0.00  0.00     0.079 H 
ATOM     57  H21 TPG d   1      13.897  32.867   6.409  0.00  0.00     0.079 H 
BRANCH  55  58
ATOM     58  C4  TPG d   1      14.854  31.847   8.045  0.00  0.00     0.089 C 
ATOM     59  O4  TPG d   1      15.877  32.851   8.153  0.00  0.00    -0.353 OA
ATOM     60  C1  TPG d   1      16.009  33.179   9.551  0.00  0.00     0.139 C 
ATOM     61  C2  TPG d   1      14.908  32.400  10.276  0.00  0.00     0.105 C 
ATOM     62  H27 TPG d   1      16.999  32.884   9.929  0.00  0.00     0.122 H 
ATOM     63  C3  TPG d   1      13.883  32.243   9.156  0.00  0.00     0.091 C 
ATOM     64  H25 TPG d   1      14.507  32.943  11.145  0.00  0.00     0.093 H 
ATOM     65  H23 TPG d   1      13.309  33.157   8.944  0.00  0.00     0.091 H 
ATOM     66  H22 TPG d   1      15.277  30.849   8.233  0.00  0.00     0.090 H 
BRANCH  60  67
ATOM     67  N9  TPG d   1      15.823  34.640   9.718  0.00  0.00    -0.293 N 
ATOM     68  C8  TPG d   1      15.274  35.468   8.832  0.00  0.00     0.071 A 
ATOM     69  N7  TPG d   1      15.352  36.718   9.283  0.00  0.00    -0.234 NA
ATOM     70  H28 TPG d   1      14.829  35.169   7.884  0.00  0.00     0.144 H 
ATOM     71  C5  TPG d   1      15.950  36.689  10.470  0.00  0.00     0.173 A 
ATOM     72  C4  TPG d   1      16.244  35.360  10.755  0.00  0.00     0.186 A 
ATOM     73  C6  TPG d   1      16.298  37.671  11.390  0.00  0.00     0.292 A 
ATOM     74  N3  TPG d   1      16.847  35.020  11.905  0.00  0.00    -0.044 NA
ATOM     75  C2  TPG d   1      17.193  35.938  12.820  0.00  0.00     0.703 A 
ATOM     76  N1  TPG d   1      16.927  37.293  12.583  0.00  0.00    -0.152 N 
ATOM     77  H31 TPG d   1      17.184  37.984  13.259  0.00  0.00     0.187 HD
ATOM     78  O6  TPG d   1      16.079  38.858  11.153  0.00  0.00    -0.265 OA
BRANCH  75  79
ATOM     79  N2  TPG d   1      17.778  35.563  13.954  0.00  0.00    -0.233 N 
ATOM     80  H29 TPG d   1      17.973  34.567  14.128  0.00  0.00     0.174 HD
ATOM     81  H30 TPG d   1      18.036  36.269  14.659  0.00  0.00     0.174 HD
ENDBRANCH  75  79
ENDBRANCH  60  67
BRANCH  61  82
ATOM     82  O2  TPG d   1      15.403  31.115  10.662  0.00  0.00    -0.388 OA
ATOM     83  H26 TPG d   1      14.682  30.578  10.968  0.00  0.00     0.210 HD
ENDBRANCH  61  82
BRANCH  63  84
ATOM     84  O3  TPG d   1      13.026  31.137   9.452  0.00  0.00    -0.390 OA
ATOM     85  H24 TPG d   1      12.422  31.382  10.143  0.00  0.00     0.210 HD
ENDBRANCH  63  84
ENDBRANCH  55  58
ENDBRANCH  54  55
ENDBRANCH  51  54
ENDBRANCH  50  51
ENDBRANCH  47  50
ENDBRANCH  46  47
ENDBRANCH   1  46
TORSDOF 21
