REMARK  5 active torsions:
REMARK  status: ('A' for Active; 'I' for Inactive)
REMARK    1  A    between atoms: CAA_1  and  N_2 
REMARK    2  A    between atoms: N_2  and  CAB_3 
REMARK    3  A    between atoms: N_2  and  CA_4 
REMARK    4  A    between atoms: CA_4  and  C_5 
REMARK       I    between atoms: C_5  and  NAM_7 
REMARK    5  A    between atoms: NAM_7  and  CAP_8 
ROOT
ATOM      1  CAP P34 d   1      29.351   9.377  18.613  0.00  0.00     0.035 A 
ATOM      2  CAK P34 d   1      28.142   8.517  18.614  0.00  0.00    -0.044 A 
ATOM      3  CAU P34 d   1      27.400   8.156  19.849  0.00  0.00     0.004 A 
ATOM      4  CAT P34 d   1      26.168   7.312  19.900  0.00  0.00    -0.008 A 
ATOM      5  CAI P34 d   1      25.570   6.707  18.721  0.00  0.00    -0.071 A 
ATOM      6  CAF P34 d   1      24.369   5.876  18.809  0.00  0.00    -0.082 A 
ATOM      7  CAE P34 d   1      23.770   5.612  20.060  0.00  0.00    -0.082 A 
ATOM      8  CAH P34 d   1      24.327   6.179  21.249  0.00  0.00    -0.067 A 
ATOM      9  CAS P34 d   1      25.533   7.005  21.197  0.00  0.00     0.043 A 
ATOM     10  CAQ P34 d   1      26.074   7.570  22.384  0.00  0.00     0.257 A 
ATOM     11  OAD P34 d   1      25.596   7.370  23.506  0.00  0.00    -0.267 OA
ATOM     12  NAN P34 d   1      27.265   8.389  22.310  0.00  0.00    -0.322 N 
ATOM     13  CAR P34 d   1      27.922   8.693  21.077  0.00  0.00     0.046 A 
ATOM     14  CAJ P34 d   1      29.112   9.536  21.115  0.00  0.00    -0.054 A 
ATOM     15  CAG P34 d   1      29.816   9.862  19.881  0.00  0.00    -0.055 A 
ATOM     16  H11 P34 d   1      27.782   8.133  17.666  0.00  0.00     0.088 H 
ATOM     17  H12 P34 d   1      26.026   6.876  17.752  0.00  0.00     0.084 H 
ATOM     18  H13 P34 d   1      23.936   5.460  17.907  0.00  0.00     0.083 H 
ATOM     19  H14 P34 d   1      22.890   4.981  20.119  0.00  0.00     0.083 H 
ATOM     20  H15 P34 d   1      23.848   5.994  22.204  0.00  0.00     0.085 H 
ATOM     21  H16 P34 d   1      27.645   8.758  23.158  0.00  0.00     0.169 HD
ATOM     22  H17 P34 d   1      29.473   9.920  22.062  0.00  0.00     0.087 H 
ATOM     23  H18 P34 d   1      30.705  10.481  19.922  0.00  0.00     0.087 H 
ENDROOT
BRANCH   1  24
ATOM     24  NAM P34 d   1      29.871   9.562  17.327  0.00  0.00    -0.326 N 
ATOM     25  C   P34 d   1      31.022  10.021  16.615  0.00  0.00     0.248 C 
ATOM     26  O   P34 d   1      30.809  10.781  15.649  0.00  0.00    -0.271 OA
ATOM     27  H10 P34 d   1      29.186   9.264  16.663  0.00  0.00     0.169 HD
BRANCH  25  28
ATOM     28  CA  P34 d   1      32.525   9.649  16.908  0.00  0.00     0.155 C 
ATOM     29  H8  P34 d   1      32.922   9.178  15.997  0.00  0.00     0.090 H 
ATOM     30  H9  P34 d   1      33.058  10.593  17.095  0.00  0.00     0.090 H 
BRANCH  28  31
ATOM     31  N   P34 d   1      32.851   8.717  18.068  0.00  0.00    -0.070 N 
ATOM     32  H4  P34 d   1      33.767   8.328  17.908  0.00  0.00     0.279 HD
BRANCH  31  33
ATOM     33  CAA P34 d   1      31.888   7.603  18.138  0.00  0.00     0.066 C 
ATOM     34  H1  P34 d   1      32.147   6.947  18.983  0.00  0.00     0.068 H 
ATOM     35  H2  P34 d   1      31.925   7.027  17.202  0.00  0.00     0.068 H 
ATOM     36  H3  P34 d   1      30.874   8.004  18.282  0.00  0.00     0.068 H 
ENDBRANCH  31  33
BRANCH  31  37
ATOM     37  CAB P34 d   1      32.886   9.462  19.336  0.00  0.00     0.066 C 
ATOM     38  H5  P34 d   1      33.611  10.286  19.257  0.00  0.00     0.068 H 
ATOM     39  H6  P34 d   1      33.186   8.786  20.150  0.00  0.00     0.068 H 
ATOM     40  H7  P34 d   1      31.887   9.871  19.549  0.00  0.00     0.068 H 
ENDBRANCH  31  37
ENDBRANCH  28  31
ENDBRANCH  25  28
ENDBRANCH   1  24
TORSDOF 5
