REMARK  10 active torsions:
REMARK  status: ('A' for Active; 'I' for Inactive)
REMARK    1  A    between atoms: C1_11  and  C1C_1 
REMARK    2  A    between atoms: N1_10  and  C4P_7 
REMARK    3  A    between atoms: C4_14  and  N1_10 
REMARK    4  A    between atoms: C1_11  and  C4D_21 
REMARK    5  A    between atoms: C1_11  and  C2_12 
REMARK    6  A    between atoms: C2_12  and  C3_13 
REMARK    7  A    between atoms: C3_13  and  C4_14 
REMARK    8  A    between atoms: C1A_17  and  N1A_15 
REMARK    9  A    between atoms: C5B_28  and  C1A_17 
REMARK   10  A    between atoms: C6D_23  and  C3B_26 
ROOT
ATOM      1  C1D 4PP d   1       0.718  16.784  14.071  0.00  0.00    -0.072 A 
ATOM      2  C2D 4PP d   1      -0.485  16.274  14.632  0.00  0.00    -0.082 A 
ATOM      3  C3D 4PP d   1      -0.780  16.503  16.001  0.00  0.00    -0.076 A 
ATOM      4  C4D 4PP d   1       0.124  17.241  16.820  0.00  0.00    -0.043 A 
ATOM      5  C5D 4PP d   1       1.339  17.756  16.261  0.00  0.00    -0.065 A 
ATOM      6  C6D 4PP d   1       1.639  17.529  14.883  0.00  0.00    -0.025 A 
ATOM      7  H17 4PP d   1       0.941  16.610  13.025  0.00  0.00     0.084 H 
ATOM      8  H18 4PP d   1      -1.176  15.711  14.015  0.00  0.00     0.083 H 
ATOM      9  H19 4PP d   1      -1.698  16.114  16.427  0.00  0.00     0.084 H 
ATOM     10  H20 4PP d   1       2.028  18.316  16.882  0.00  0.00     0.085 H 
ENDROOT
BRANCH   4  11
ATOM     11  C1  4PP d   1      -0.230  17.466  18.299  0.00  0.00     0.056 C 
ATOM     12  H6  4PP d   1      -1.311  17.307  18.426  0.00  0.00     0.064 H 
BRANCH  11  13
ATOM     13  C1C 4PP d   1       0.520  16.439  19.171  0.00  0.00     0.181 C 
ATOM     14  O3  4PP d   1       1.696  16.772  19.787  0.00  0.00    -0.647 OA
ATOM     15  O2  4PP d   1       0.048  15.301  19.301  0.00  0.00    -0.647 OA
ENDBRANCH  11  13
BRANCH  11  16
ATOM     16  C2  4PP d   1       0.096  18.897  18.734  0.00  0.00    -0.047 C 
ATOM     17  H7  4PP d   1       0.623  19.425  17.926  0.00  0.00     0.034 H 
ATOM     18  H8  4PP d   1       0.727  18.882  19.635  0.00  0.00     0.034 H 
BRANCH  16  19
ATOM     19  C3  4PP d   1      -1.227  19.594  19.036  0.00  0.00    -0.049 C 
ATOM     20  H9  4PP d   1      -1.599  19.263  20.017  0.00  0.00     0.035 H 
ATOM     21  H10 4PP d   1      -1.962  19.337  18.259  0.00  0.00     0.035 H 
BRANCH  19  22
ATOM     22  C4  4PP d   1      -1.018  21.104  19.056  0.00  0.00    -0.007 C 
ATOM     23  H11 4PP d   1       0.032  21.336  18.823  0.00  0.00     0.063 H 
ATOM     24  H12 4PP d   1      -1.269  21.500  20.051  0.00  0.00     0.063 H 
BRANCH  22  25
ATOM     25  N1  4PP d   1      -1.902  21.714  18.039  0.00  0.00    -0.390 N 
ATOM     26  H5  4PP d   1      -2.528  21.170  17.428  0.00  0.00     0.159 HD
BRANCH  25  27
ATOM     27  C4P 4PP d   1      -1.790  23.196  17.993  0.00  0.00     0.030 A 
ATOM     28  C5P 4PP d   1      -0.913  23.909  18.858  0.00  0.00    -0.041 A 
ATOM     29  C6P 4PP d   1      -0.842  25.307  18.776  0.00  0.00     0.004 A 
ATOM     30  H3  4PP d   1      -0.303  23.374  19.577  0.00  0.00     0.089 H 
ATOM     31  N1P 4PP d   1      -1.637  26.005  17.839  0.00  0.00    -0.273 NA
ATOM     32  H4  4PP d   1      -0.175  25.854  19.433  0.00  0.00     0.114 H 
ATOM     33  C2P 4PP d   1      -2.508  25.304  16.982  0.00  0.00     0.004 A 
ATOM     34  C3P 4PP d   1      -2.583  23.898  17.062  0.00  0.00    -0.041 A 
ATOM     35  H1  4PP d   1      -3.117  25.842  16.265  0.00  0.00     0.114 H 
ATOM     36  H2  4PP d   1      -3.253  23.355  16.405  0.00  0.00     0.089 H 
ENDBRANCH  25  27
ENDBRANCH  22  25
ENDBRANCH  19  22
ENDBRANCH  16  19
ENDBRANCH  11  16
ENDBRANCH   4  11
BRANCH   6  37
ATOM     37  C3B 4PP d   1       2.949  18.089  14.263  0.00  0.00    -0.025 A 
ATOM     38  C4B 4PP d   1       2.952  18.489  12.901  0.00  0.00    -0.059 A 
ATOM     39  C5B 4PP d   1       4.126  19.005  12.299  0.00  0.00     0.008 A 
ATOM     40  H23 4PP d   1       2.045  18.398  12.314  0.00  0.00     0.086 H 
ATOM     41  C6B 4PP d   1       5.319  19.130  13.065  0.00  0.00    -0.069 A 
ATOM     42  C1B 4PP d   1       5.330  18.733  14.436  0.00  0.00    -0.081 A 
ATOM     43  H24 4PP d   1       6.218  19.526  12.608  0.00  0.00     0.085 H 
ATOM     44  C2B 4PP d   1       4.147  18.212  15.037  0.00  0.00    -0.072 A 
ATOM     45  H21 4PP d   1       6.238  18.828  15.020  0.00  0.00     0.083 H 
ATOM     46  H22 4PP d   1       4.154  17.910  16.078  0.00  0.00     0.084 H 
BRANCH  39  47
ATOM     47  C1A 4PP d   1       4.081  19.423  10.817  0.00  0.00     0.102 C 
ATOM     48  N2A 4PP d   1       3.174  18.887  10.025  0.00  0.00    -0.385 N 
ATOM     49  H15 4PP d   1       2.510  18.194  10.398  0.00  0.00     0.157 HD
ATOM     50  H16 4PP d   1       3.129  19.162   9.033  0.00  0.00     0.157 HD
BRANCH  47  51
ATOM     51  N1A 4PP d   1       4.933  20.312  10.341  0.00  0.00    -0.385 N 
ATOM     52  H13 4PP d   1       4.893  20.584   9.348  0.00  0.00     0.157 HD
ATOM     53  H14 4PP d   1       5.638  20.734  10.962  0.00  0.00     0.157 HD
ENDBRANCH  47  51
ENDBRANCH  39  47
ENDBRANCH   6  37
TORSDOF 10
