REMARK  12 active torsions:
REMARK  status: ('A' for Active; 'I' for Inactive)
REMARK    1  A    between atoms: C1_1  and  S2_2 
REMARK    2  A    between atoms: S2_2  and  C5_5 
REMARK    3  A    between atoms: C5_5  and  C6_6 
REMARK    4  A    between atoms: C6_6  and  N7_7 
REMARK    5  A    between atoms: N7_7  and  C8_8 
REMARK    6  A    between atoms: C8_8  and  C9_9 
REMARK    7  A    between atoms: C12_12  and  C14_14 
REMARK    8  A    between atoms: C21_21  and  N22_22 
REMARK    9  A    between atoms: N22_22  and  C23_23 
REMARK   10  A    between atoms: C26_26  and  O27_27 
REMARK   11  A    between atoms: O27_27  and  C28_28 
REMARK   12  A    between atoms: C28_28  and  C29_29 
ROOT
ATOM      1  C14 FMM d   1      16.176  32.058  35.407  0.00  0.00    -0.001 A 
ATOM      2  C15 FMM d   1      14.958  31.986  34.735  0.00  0.00    -0.068 A 
ATOM      3  C16 FMM d   1      13.807  32.402  35.359  0.00  0.00    -0.053 A 
ATOM      4  C17 FMM d   1      13.849  32.890  36.664  0.00  0.00     0.072 A 
ATOM      5  N18 FMM d   1      12.683  33.305  37.276  0.00  0.00    -0.241 NA
ATOM      6  C19 FMM d   1      12.708  33.790  38.568  0.00  0.00     0.089 A 
ATOM      7  N20 FMM d   1      13.899  33.863  39.260  0.00  0.00    -0.224 NA
ATOM      8  C21 FMM d   1      15.077  33.452  38.668  0.00  0.00     0.142 A 
ATOM      9  C39 FMM d   1      15.053  32.959  37.349  0.00  0.00     0.040 A 
ATOM     10  C40 FMM d   1      16.220  32.545  36.731  0.00  0.00    -0.054 A 
ATOM     11  H14 FMM d   1      14.918  31.602  33.722  0.00  0.00     0.085 H 
ATOM     12  H15 FMM d   1      12.860  32.350  34.833  0.00  0.00     0.087 H 
ATOM     13  H16 FMM d   1      11.788  34.115  39.041  0.00  0.00     0.146 H 
ATOM     14  H27 FMM d   1      17.164  32.594  37.262  0.00  0.00     0.086 H 
ENDROOT
BRANCH   8  15
ATOM     15  N22 FMM d   1      16.282  33.527  39.366  0.00  0.00    -0.340 N 
ATOM     16  H17 FMM d   1      17.162  33.345  38.863  0.00  0.00     0.167 HD
BRANCH  15  17
ATOM     17  C23 FMM d   1      16.332  33.843  40.735  0.00  0.00     0.035 A 
ATOM     18  C24 FMM d   1      17.118  34.909  41.178  0.00  0.00    -0.054 A 
ATOM     19  C25 FMM d   1      17.164  35.215  42.535  0.00  0.00    -0.047 A 
ATOM     20  H18 FMM d   1      17.690  35.496  40.468  0.00  0.00     0.087 H 
ATOM     21  C26 FMM d   1      16.428  34.457  43.438  0.00  0.00     0.091 A 
ATOM     22  H19 FMM d   1      17.771  36.041  42.886  0.00  0.00     0.087 H 
ATOM     23  C36 FMM d   1      15.665  33.415  42.999  0.00  0.00     0.069 A 
ATOM     24 CL3  FMM d   1      14.784  32.514  44.128  0.00  0.00    -0.081 Cl
ATOM     25  C38 FMM d   1      15.607  33.098  41.660  0.00  0.00    -0.034 A 
ATOM     26  H26 FMM d   1      14.996  32.267  41.326  0.00  0.00     0.089 H 
BRANCH  21  27
ATOM     27  O27 FMM d   1      16.446  34.747  44.828  0.00  0.00    -0.345 OA
BRANCH  27  28
ATOM     28  C28 FMM d   1      17.065  36.002  45.143  0.00  0.00     0.050 C 
ATOM     29  H20 FMM d   1      17.920  36.156  44.468  0.00  0.00     0.082 H 
ATOM     30  H21 FMM d   1      17.420  35.972  46.184  0.00  0.00     0.082 H 
BRANCH  28  31
ATOM     31  C29 FMM d   1      16.085  37.181  44.984  0.00  0.00    -0.031 A 
ATOM     32  C30 FMM d   1      16.519  38.462  45.246  0.00  0.00    -0.075 A 
ATOM     33  C31 FMM d   1      15.653  39.527  45.102  0.00  0.00    -0.080 A 
ATOM     34  H22 FMM d   1      17.541  38.633  45.565  0.00  0.00     0.084 H 
ATOM     35  C32 FMM d   1      14.354  39.312  44.693  0.00  0.00    -0.046 A 
ATOM     36  H23 FMM d   1      15.995  40.534  45.311  0.00  0.00     0.083 H 
ATOM     37  C33 FMM d   1      13.916  38.036  44.429  0.00  0.00     0.117 A 
ATOM     38  H24 FMM d   1      13.677  40.151  44.579  0.00  0.00     0.088 H 
ATOM     39  F34 FMM d   1      12.679  37.837  44.035  0.00  0.00    -0.206 F 
ATOM     40  C35 FMM d   1      14.772  36.966  44.573  0.00  0.00    -0.038 A 
ATOM     41  H25 FMM d   1      14.425  35.960  44.367  0.00  0.00     0.089 H 
ENDBRANCH  28  31
ENDBRANCH  27  28
ENDBRANCH  21  27
ENDBRANCH  15  17
ENDBRANCH   8  15
BRANCH   1  42
ATOM     42  C12 FMM d   1      17.409  31.645  34.731  0.00  0.00     0.086 A 
ATOM     43  C11 FMM d   1      17.445  31.237  33.421  0.00  0.00    -0.047 A 
ATOM     44  C10 FMM d   1      18.674  30.977  33.121  0.00  0.00    -0.050 A 
ATOM     45  H13 FMM d   1      16.589  31.148  32.753  0.00  0.00     0.087 H 
ATOM     46  C9  FMM d   1      19.416  31.208  34.223  0.00  0.00     0.079 A 
ATOM     47  H12 FMM d   1      19.043  30.634  32.156  0.00  0.00     0.087 H 
ATOM     48  O13 FMM d   1      18.655  31.653  35.363  0.00  0.00    -0.313 OA
BRANCH  46  49
ATOM     49  C8  FMM d   1      20.914  31.019  34.265  0.00  0.00     0.125 C 
ATOM     50  H10 FMM d   1      21.241  30.912  35.310  0.00  0.00     0.086 H 
ATOM     51  H11 FMM d   1      21.186  30.114  33.701  0.00  0.00     0.086 H 
BRANCH  49  52
ATOM     52  N7  FMM d   1      21.569  32.184  33.665  0.00  0.00    -0.069 N 
ATOM     53  H8  FMM d   1      20.907  32.941  33.594  0.00  0.00     0.277 HD
ATOM     54  H9  FMM d   1      22.344  32.468  34.243  0.00  0.00     0.277 HD
BRANCH  52  55
ATOM     55  C6  FMM d   1      22.061  31.836  32.324  0.00  0.00     0.094 C 
ATOM     56  H6  FMM d   1      21.785  30.797  32.089  0.00  0.00     0.077 H 
ATOM     57  H7  FMM d   1      21.612  32.512  31.581  0.00  0.00     0.077 H 
BRANCH  55  58
ATOM     58  C5  FMM d   1      23.587  31.980  32.291  0.00  0.00     0.051 C 
ATOM     59  H4  FMM d   1      23.969  32.068  33.319  0.00  0.00     0.058 H 
ATOM     60  H5  FMM d   1      24.028  31.094  31.810  0.00  0.00     0.058 H 
BRANCH  58  61
ATOM     61  S2  FMM d   1      24.036  33.465  31.350  0.00  0.00     0.142 S 
ATOM     62  O3  FMM d   1      25.053  34.204  32.067  0.00  0.00    -0.228 OA
ATOM     63  O4  FMM d   1      24.543  33.077  30.053  0.00  0.00    -0.228 OA
BRANCH  61  64
ATOM     64  C1  FMM d   1      22.604  34.487  31.141  0.00  0.00     0.016 C 
ATOM     65  H1  FMM d   1      22.218  34.783  32.127  0.00  0.00     0.048 H 
ATOM     66  H2  FMM d   1      21.830  33.926  30.597  0.00  0.00     0.048 H 
ATOM     67  H3  FMM d   1      22.876  35.386  30.569  0.00  0.00     0.048 H 
ENDBRANCH  61  64
ENDBRANCH  58  61
ENDBRANCH  55  58
ENDBRANCH  52  55
ENDBRANCH  49  52
ENDBRANCH  46  49
ENDBRANCH   1  42
TORSDOF 12
