REMARK  7 active torsions:
REMARK  status: ('A' for Active; 'I' for Inactive)
REMARK    1  A    between atoms: O3_4  and  S2_1 
REMARK    2  A    between atoms: S2_1  and  N1_5 
REMARK    3  A    between atoms: C14_24  and  O3_4 
REMARK    4  A    between atoms: N2_6  and  N3_7 
REMARK    5  A    between atoms: N2_6  and  C3_13 
REMARK    6  A    between atoms: C10_20  and  N2_6 
REMARK    7  A    between atoms: C11_21  and  C10_20 
ROOT
ATOM      1  N6  4TZ d   1      26.286  34.331  24.919  0.00  0.00    -0.191 NA
ATOM      2  C3  4TZ d   1      23.770  33.709  20.050  0.00  0.00     0.051 A 
ATOM      3  C4  4TZ d   1      23.130  33.298  21.318  0.00  0.00    -0.054 A 
ATOM      4  C5  4TZ d   1      23.782  33.449  22.574  0.00  0.00    -0.061 A 
ATOM      5  C6  4TZ d   1      25.101  34.013  22.650  0.00  0.00     0.044 A 
ATOM      6  C7  4TZ d   1      25.760  34.427  21.435  0.00  0.00    -0.061 A 
ATOM      7  C8  4TZ d   1      25.115  34.280  20.169  0.00  0.00    -0.054 A 
ATOM      8  C9  4TZ d   1      25.763  34.170  23.911  0.00  0.00     0.099 C 
ATOM      9  H5  4TZ d   1      22.135  32.869  21.290  0.00  0.00     0.087 H 
ATOM     10  H6  4TZ d   1      23.279  33.136  23.482  0.00  0.00     0.085 H 
ATOM     11  H7  4TZ d   1      26.755  34.854  21.483  0.00  0.00     0.085 H 
ATOM     12  H8  4TZ d   1      25.634  34.599  19.272  0.00  0.00     0.087 H 
ENDROOT
BRANCH   2  13
ATOM     13  N2  4TZ d   1      23.095  33.555  18.724  0.00  0.00    -0.280 N 
BRANCH  13  14
ATOM     14  N3  4TZ d   1      23.581  34.305  17.602  0.00  0.00    -0.237 N 
ATOM     15  C1  4TZ d   1      24.456  33.868  16.631  0.00  0.00     0.109 A 
ATOM     16  N4  4TZ d   1      24.670  34.812  15.765  0.00  0.00    -0.142 NA
ATOM     17  H3  4TZ d   1      24.903  32.876  16.595  0.00  0.00     0.149 H 
ATOM     18  N5  4TZ d   1      23.920  35.919  16.157  0.00  0.00    -0.142 NA
ATOM     19  C2  4TZ d   1      23.283  35.603  17.242  0.00  0.00     0.109 A 
ATOM     20  H4  4TZ d   1      22.612  36.265  17.788  0.00  0.00     0.149 H 
ENDBRANCH  13  14
BRANCH  13  21
ATOM     21  C10 4TZ d   1      21.710  32.974  18.471  0.00  0.00     0.040 C 
ATOM     22  H9  4TZ d   1      21.500  33.032  17.393  0.00  0.00     0.074 H 
ATOM     23  H10 4TZ d   1      20.974  33.578  19.021  0.00  0.00     0.074 H 
BRANCH  21  24
ATOM     24  C11 4TZ d   1      21.567  31.517  18.913  0.00  0.00    -0.038 A 
ATOM     25  C12 4TZ d   1      22.580  30.547  18.549  0.00  0.00    -0.073 A 
ATOM     26  C13 4TZ d   1      22.460  29.200  18.972  0.00  0.00    -0.049 A 
ATOM     27  H11 4TZ d   1      23.431  30.852  17.952  0.00  0.00     0.084 H 
ATOM     28  C14 4TZ d   1      21.337  28.797  19.759  0.00  0.00     0.091 A 
ATOM     29  H12 4TZ d   1      23.219  28.476  18.699  0.00  0.00     0.087 H 
ATOM     30  C15 4TZ d   1      20.324  29.748  20.125  0.00  0.00    -0.049 A 
ATOM     31  C16 4TZ d   1      20.441  31.109  19.700  0.00  0.00    -0.073 A 
ATOM     32  H13 4TZ d   1      19.474  29.435  20.721  0.00  0.00     0.087 H 
ATOM     33  H14 4TZ d   1      19.679  31.830  19.973  0.00  0.00     0.084 H 
BRANCH  28  34
ATOM     34  O3  4TZ d   1      21.218  27.486  20.186  0.00  0.00    -0.217 OA
BRANCH  34  35
ATOM     35  S2  4TZ d   1      20.447  26.373  19.333  0.00  0.00     0.360 S 
ATOM     36  O1  4TZ d   1      20.672  25.187  20.085  0.00  0.00    -0.176 OA
ATOM     37  O2  4TZ d   1      19.122  26.899  19.210  0.00  0.00    -0.176 OA
BRANCH  35  38
ATOM     38  N1  4TZ d   1      21.160  26.235  17.963  0.00  0.00    -0.305 N 
ATOM     39  H1  4TZ d   1      20.820  25.582  17.286  0.00  0.00     0.171 HD
ATOM     40  H2  4TZ d   1      21.959  26.799  17.756  0.00  0.00     0.171 HD
ENDBRANCH  35  38
ENDBRANCH  34  35
ENDBRANCH  28  34
ENDBRANCH  21  24
ENDBRANCH  13  21
ENDBRANCH   2  13
TORSDOF 7
