REMARK  7 active torsions:
REMARK  status: ('A' for Active; 'I' for Inactive)
REMARK    1  A    between atoms: O3_4  and  S1_1 
REMARK    2  A    between atoms: S1_1  and  N1_5 
REMARK    3  A    between atoms: C1_6  and  O3_4 
REMARK    4  A    between atoms: C7_12  and  C4_9 
REMARK    5  A    between atoms: N3_21  and  C7_12 
REMARK    6  A    between atoms: N3_21  and  C12_18 
REMARK    7  A    between atoms: N6_25  and  N3_21 
ROOT
ATOM      1  C8  4TR d   1      26.282  34.492  21.829  0.00  0.00     0.099 C 
ATOM      2  N2  4TR d   1      27.300  34.689  22.323  0.00  0.00    -0.191 NA
ATOM      3  C9  4TR d   1      25.009  34.288  21.198  0.00  0.00     0.044 A 
ATOM      4  C10 4TR d   1      24.844  33.318  20.177  0.00  0.00    -0.061 A 
ATOM      5  C11 4TR d   1      23.594  33.128  19.567  0.00  0.00    -0.054 A 
ATOM      6  C12 4TR d   1      22.441  33.906  19.958  0.00  0.00     0.051 A 
ATOM      7  C13 4TR d   1      22.636  34.882  20.992  0.00  0.00    -0.054 A 
ATOM      8  C14 4TR d   1      23.889  35.067  21.597  0.00  0.00    -0.061 A 
ATOM      9  H8  4TR d   1      25.691  32.718  19.865  0.00  0.00     0.085 H 
ATOM     10  H9  4TR d   1      23.492  32.382  18.787  0.00  0.00     0.087 H 
ATOM     11  H10 4TR d   1      21.797  35.489  21.313  0.00  0.00     0.087 H 
ATOM     12  H11 4TR d   1      24.004  35.812  22.377  0.00  0.00     0.085 H 
ENDROOT
BRANCH   6  13
ATOM     13  N3  4TR d   1      21.141  33.710  19.337  0.00  0.00    -0.280 N 
BRANCH  13  14
ATOM     14  C7  4TR d   1      20.838  32.715  18.263  0.00  0.00     0.040 C 
ATOM     15  H6  4TR d   1      19.815  32.893  17.899  0.00  0.00     0.074 H 
ATOM     16  H7  4TR d   1      21.551  32.862  17.438  0.00  0.00     0.074 H 
BRANCH  14  17
ATOM     17  C4  4TR d   1      20.939  31.273  18.740  0.00  0.00    -0.037 A 
ATOM     18  C3  4TR d   1      21.686  30.325  17.984  0.00  0.00    -0.072 A 
ATOM     19  C2  4TR d   1      21.796  29.003  18.432  0.00  0.00    -0.047 A 
ATOM     20  H4  4TR d   1      22.169  30.627  17.062  0.00  0.00     0.084 H 
ATOM     21  C1  4TR d   1      21.170  28.610  19.634  0.00  0.00     0.108 A 
ATOM     22  H3  4TR d   1      22.362  28.281  17.855  0.00  0.00     0.087 H 
ATOM     23  C6  4TR d   1      20.426  29.542  20.387  0.00  0.00     0.046 A 
ATOM     24  C5  4TR d   1      20.311  30.875  19.938  0.00  0.00    -0.056 A 
ATOM     25 BR   4TR d   1      19.602  29.008  22.002  0.00  0.00    -0.048 Br
ATOM     26  H5  4TR d   1      19.739  31.593  20.515  0.00  0.00     0.086 H 
BRANCH  21  27
ATOM     27  O3  4TR d   1      21.285  27.307  20.096  0.00  0.00    -0.215 OA
BRANCH  27  28
ATOM     28  S1  4TR d   1      20.354  26.127  19.500  0.00  0.00     0.360 S 
ATOM     29  O1  4TR d   1      20.504  25.073  20.442  0.00  0.00    -0.176 OA
ATOM     30  O2  4TR d   1      19.088  26.764  19.328  0.00  0.00    -0.176 OA
BRANCH  28  31
ATOM     31  N1  4TR d   1      20.965  25.680  18.136  0.00  0.00    -0.305 N 
ATOM     32  H1  4TR d   1      20.528  24.953  17.607  0.00  0.00     0.171 HD
ATOM     33  H2  4TR d   1      21.794  26.121  17.791  0.00  0.00     0.171 HD
ENDBRANCH  28  31
ENDBRANCH  27  28
ENDBRANCH  21  27
ENDBRANCH  14  17
ENDBRANCH  13  14
BRANCH  13  34
ATOM     34  N6  4TR d   1      20.188  34.748  19.430  0.00  0.00    -0.237 N 
ATOM     35  C17 4TR d   1      19.126  34.850  20.289  0.00  0.00     0.109 A 
ATOM     36  N5  4TR d   1      18.482  35.950  20.061  0.00  0.00    -0.142 NA
ATOM     37  H12 4TR d   1      18.863  34.116  21.049  0.00  0.00     0.149 H 
ATOM     38  N4  4TR d   1      19.124  36.609  19.017  0.00  0.00    -0.142 NA
ATOM     39  C15 4TR d   1      20.132  35.877  18.658  0.00  0.00     0.109 A 
ATOM     40  H13 4TR d   1      20.831  36.124  17.860  0.00  0.00     0.149 H 
ENDBRANCH  13  34
ENDBRANCH   6  13
TORSDOF 7
