REMARK  32 active torsions:
REMARK  status: ('A' for Active; 'I' for Inactive)
REMARK    1  A    between atoms: N_1  and  CA_2 
REMARK    2  A    between atoms: CA_2  and  C_3 
REMARK    3  A    between atoms: CA_2  and  CB_5 
REMARK       I    between atoms: C_3  and  N_9 
REMARK    4  A    between atoms: CB_5  and  CG1_6 
REMARK    5  A    between atoms: CB_5  and  CG2_7 
REMARK    6  A    between atoms: CG1_6  and  CD1_8 
REMARK    7  A    between atoms: N_9  and  CA_10 
REMARK    8  A    between atoms: CA_10  and  C_11 
REMARK    9  A    between atoms: CA_10  and  CB_13 
REMARK       I    between atoms: C_11  and  N_17 
REMARK   10  A    between atoms: CB_13  and  CG_14 
REMARK   11  A    between atoms: CG_14  and  CD1_15 
REMARK   12  A    between atoms: CG_14  and  CD2_16 
REMARK   13  A    between atoms: N_17  and  CA_18 
REMARK   14  A    between atoms: CA_18  and  C_19 
REMARK       I    between atoms: C_19  and  N_21 
REMARK   15  A    between atoms: CA_22  and  C_23 
REMARK       I    between atoms: C_23  and  N_28 
REMARK   16  A    between atoms: CA_29  and  C_30 
REMARK       I    between atoms: C_30  and  N_35 
REMARK   17  A    between atoms: N_35  and  CA_36 
REMARK   18  A    between atoms: CA_36  and  C_37 
REMARK       I    between atoms: C_37  and  N_39 
REMARK   19  A    between atoms: N_39  and  CA_40 
REMARK   20  A    between atoms: CA_40  and  C_41 
REMARK   21  A    between atoms: CA_40  and  CB_43 
REMARK       I    between atoms: C_41  and  N_45 
REMARK   22  A    between atoms: CB_43  and  OG_44 
REMARK   23  A    between atoms: N_45  and  CA_46 
REMARK   24  A    between atoms: CA_46  and  C_47 
REMARK   25  A    between atoms: CA_46  and  CB_49 
REMARK       I    between atoms: C_47  and  N_52 
REMARK   26  A    between atoms: CB_49  and  CG1_50 
REMARK   27  A    between atoms: CB_49  and  CG2_51 
REMARK   28  A    between atoms: N_52  and  CA_53 
REMARK   29  A    between atoms: CA_53  and  C_54 
REMARK   30  A    between atoms: CA_53  and  CB_56 
REMARK   31  A    between atoms: CB_56  and  CG_57 
REMARK   32  A    between atoms: CZ_62  and  OH_63 
ROOT
ATOM      1  C   PRO d   1      23.736  26.328  37.744  0.00  0.00     0.243 C 
ATOM      2  O   PRO d   1      24.291  26.071  36.669  0.00  0.00    -0.271 OA
ATOM      3  N   PRO d   1      24.088  27.363  38.510  0.00  0.00    -0.337 N 
ATOM      4  CA  PRO d   1      25.375  28.013  38.334  0.00  0.00     0.091 C 
ATOM      5  CB  PRO d   1      25.466  28.983  39.529  0.00  0.00    -0.036 C 
ATOM      6  CG  PRO d   1      24.291  28.665  40.419  0.00  0.00    -0.048 C 
ATOM      7  CD  PRO d   1      23.282  28.008  39.558  0.00  0.00    -0.001 C 
ATOM      8  H35 PRO d   1      25.443  28.542  37.372  0.00  0.00     0.087 H 
ATOM      9  H36 PRO d   1      25.409  30.025  39.180  0.00  0.00     0.036 H 
ATOM     10  H37 PRO d   1      26.409  28.830  40.074  0.00  0.00     0.036 H 
ATOM     11  H38 PRO d   1      23.879  29.589  40.851  0.00  0.00     0.035 H 
ATOM     12  H39 PRO d   1      24.599  27.988  41.229  0.00  0.00     0.035 H 
ATOM     13  H40 PRO d   1      22.707  27.262  40.126  0.00  0.00     0.064 H 
ATOM     14  H41 PRO d   1      22.594  28.749  39.124  0.00  0.00     0.064 H 
ENDROOT
BRANCH   1  15
ATOM     15  CA  PRO d   1      22.583  25.448  38.238  0.00  0.00     0.092 C 
ATOM     16  N   PRO d   1      21.606  25.134  37.208  0.00  0.00    -0.337 N 
ATOM     17  C   GLY d   1      20.565  25.921  36.967  0.00  0.00     0.238 C 
ATOM     18  CD  PRO d   1      21.920  23.874  36.506  0.00  0.00    -0.001 C 
ATOM     19  O   GLY d   1      20.460  27.046  37.441  0.00  0.00    -0.272 OA
ATOM     20  CG  PRO d   1      23.031  23.263  37.311  0.00  0.00    -0.048 C 
ATOM     21  H33 PRO d   1      22.251  24.074  35.476  0.00  0.00     0.064 H 
ATOM     22  H34 PRO d   1      21.043  23.210  36.487  0.00  0.00     0.064 H 
ATOM     23  CB  PRO d   1      23.111  24.067  38.619  0.00  0.00    -0.036 C 
ATOM     24  H31 PRO d   1      22.809  22.207  37.526  0.00  0.00     0.035 H 
ATOM     25  H32 PRO d   1      23.982  23.333  36.762  0.00  0.00     0.035 H 
ATOM     26  H29 PRO d   1      22.483  23.610  39.398  0.00  0.00     0.036 H 
ATOM     27  H30 PRO d   1      24.150  24.130  38.976  0.00  0.00     0.036 H 
ATOM     28  H28 PRO d   1      22.097  25.940  39.093  0.00  0.00     0.087 H 
BRANCH  17  29
ATOM     29  CA  GLY d   1      19.514  25.375  36.022  0.00  0.00     0.069 C 
ATOM     30  H26 GLY d   1      19.997  25.095  35.074  0.00  0.00     0.078 H 
ATOM     31  H27 GLY d   1      19.053  24.485  36.476  0.00  0.00     0.078 H 
BRANCH  29  32
ATOM     32  N   GLY d   1      18.470  26.366  35.750  0.00  0.00    -0.351 N 
ATOM     33  C   LEU d   1      17.507  26.667  36.621  0.00  0.00     0.240 C 
ATOM     34  O   LEU d   1      17.309  26.034  37.663  0.00  0.00    -0.271 OA
ATOM     35  H25 GLY d   1      18.480  26.839  34.869  0.00  0.00     0.163 HD
BRANCH  33  36
ATOM     36  CA  LEU d   1      16.650  27.882  36.274  0.00  0.00     0.089 C 
ATOM     37  H15 LEU d   1      16.516  27.898  35.182  0.00  0.00     0.087 H 
BRANCH  36  38
ATOM     38  N   LEU d   1      15.310  27.850  36.886  0.00  0.00    -0.346 N 
ATOM     39  C   ILE d   1      14.486  26.816  36.708  0.00  0.00     0.249 C 
ATOM     40  O   ILE d   1      14.821  25.796  36.115  0.00  0.00    -0.271 OA
ATOM     41  H14 LEU d   1      15.011  28.621  37.448  0.00  0.00     0.163 HD
BRANCH  39  42
ATOM     42  CA  ILE d   1      13.039  26.969  37.214  0.00  0.00     0.179 C 
ATOM     43  H4  ILE d   1      12.761  28.028  37.113  0.00  0.00     0.099 H 
BRANCH  42  44
ATOM     44  N   ILE d   1      12.129  26.158  36.356  0.00  0.00    -0.066 N 
ATOM     45  H1  ILE d   1      12.257  26.418  35.391  0.00  0.00     0.275 HD
ATOM     46  H2  ILE d   1      11.173  26.328  36.626  0.00  0.00     0.275 HD
ATOM     47  H3  ILE d   1      12.342  25.180  36.472  0.00  0.00     0.275 HD
ENDBRANCH  42  44
BRANCH  42  48
ATOM     48  CB  ILE d   1      12.847  26.572  38.718  0.00  0.00    -0.022 C 
ATOM     49  H5  ILE d   1      11.783  26.326  38.851  0.00  0.00     0.043 H 
BRANCH  48  50
ATOM     50  CG1 ILE d   1      13.143  27.761  39.642  0.00  0.00    -0.063 C 
ATOM     51  H6  ILE d   1      12.622  28.645  39.245  0.00  0.00     0.033 H 
ATOM     52  H7  ILE d   1      14.228  27.942  39.635  0.00  0.00     0.033 H 
BRANCH  50  53
ATOM     53  CD1 ILE d   1      12.708  27.557  41.066  0.00  0.00    -0.076 C 
ATOM     54  H11 ILE d   1      12.956  28.451  41.657  0.00  0.00     0.027 H 
ATOM     55  H12 ILE d   1      13.228  26.684  41.487  0.00  0.00     0.027 H 
ATOM     56  H13 ILE d   1      11.622  27.387  41.097  0.00  0.00     0.027 H 
ENDBRANCH  50  53
ENDBRANCH  48  50
BRANCH  48  57
ATOM     57  CG2 ILE d   1      13.637  25.303  39.088  0.00  0.00    -0.070 C 
ATOM     58  H8  ILE d   1      13.379  24.494  38.389  0.00  0.00     0.028 H 
ATOM     59  H9  ILE d   1      13.381  24.998  40.113  0.00  0.00     0.028 H 
ATOM     60  H10 ILE d   1      14.715  25.511  39.026  0.00  0.00     0.028 H 
ENDBRANCH  48  57
ENDBRANCH  42  48
ENDBRANCH  39  42
ENDBRANCH  36  38
BRANCH  36  61
ATOM     61  CB  LEU d   1      17.395  29.160  36.692  0.00  0.00    -0.035 C 
ATOM     62  H16 LEU d   1      18.460  29.008  36.465  0.00  0.00     0.037 H 
ATOM     63  H17 LEU d   1      17.264  29.276  37.778  0.00  0.00     0.037 H 
BRANCH  61  64
ATOM     64  CG  LEU d   1      16.972  30.483  36.036  0.00  0.00    -0.059 C 
ATOM     65  H18 LEU d   1      15.874  30.512  35.985  0.00  0.00     0.038 H 
BRANCH  64  66
ATOM     66  CD1 LEU d   1      17.455  31.653  36.903  0.00  0.00    -0.073 C 
ATOM     67  H19 LEU d   1      17.154  32.603  36.437  0.00  0.00     0.028 H 
ATOM     68  H20 LEU d   1      18.551  31.618  36.989  0.00  0.00     0.028 H 
ATOM     69  H21 LEU d   1      17.006  31.577  37.904  0.00  0.00     0.028 H 
ENDBRANCH  64  66
BRANCH  64  70
ATOM     70  CD2 LEU d   1      17.525  30.609  34.604  0.00  0.00    -0.073 C 
ATOM     71  H22 LEU d   1      17.169  29.763  33.998  0.00  0.00     0.028 H 
ATOM     72  H23 LEU d   1      18.625  30.602  34.634  0.00  0.00     0.028 H 
ATOM     73  H24 LEU d   1      17.176  31.552  34.158  0.00  0.00     0.028 H 
ENDBRANCH  64  70
ENDBRANCH  61  64
ENDBRANCH  36  61
ENDBRANCH  33  36
ENDBRANCH  29  32
ENDBRANCH  17  29
ENDBRANCH   1  15
BRANCH   4  74
ATOM     74  C   PRO d   1      26.458  26.960  38.451  0.00  0.00     0.241 C 
ATOM     75  O   PRO d   1      26.319  26.020  39.242  0.00  0.00    -0.271 OA
ATOM     76  N   GLY d   1      27.532  27.123  37.690  0.00  0.00    -0.351 N 
ATOM     77  H42 GLY d   1      27.577  27.904  37.066  0.00  0.00     0.163 HD
BRANCH  76  78
ATOM     78  CA  GLY d   1      28.647  26.187  37.745  0.00  0.00     0.069 C 
ATOM     79  H43 GLY d   1      28.382  25.296  37.156  0.00  0.00     0.078 H 
ATOM     80  H44 GLY d   1      28.807  25.899  38.794  0.00  0.00     0.078 H 
BRANCH  78  81
ATOM     81  C   GLY d   1      29.946  26.753  37.200  0.00  0.00     0.236 C 
ATOM     82  O   GLY d   1      30.174  27.965  37.222  0.00  0.00    -0.272 OA
ATOM     83  N   SER d   1      30.803  25.865  36.708  0.00  0.00    -0.344 N 
ATOM     84  H45 SER d   1      30.529  24.906  36.633  0.00  0.00     0.163 HD
BRANCH  83  85
ATOM     85  CA  SER d   1      32.137  26.265  36.276  0.00  0.00     0.109 C 
ATOM     86  H46 SER d   1      32.658  26.697  37.143  0.00  0.00     0.090 H 
BRANCH  85  87
ATOM     87  C   SER d   1      32.091  27.329  35.173  0.00  0.00     0.243 C 
ATOM     88  O   SER d   1      31.316  27.233  34.216  0.00  0.00    -0.271 OA
ATOM     89  N   VAL d   1      32.926  28.346  35.337  0.00  0.00    -0.346 N 
ATOM     90  H50 VAL d   1      33.328  28.501  36.239  0.00  0.00     0.163 HD
BRANCH  89  91
ATOM     91  CA  VAL d   1      33.273  29.235  34.257  0.00  0.00     0.092 C 
ATOM     92  H51 VAL d   1      32.391  29.816  33.948  0.00  0.00     0.088 H 
BRANCH  91  93
ATOM     93  C   VAL d   1      33.728  28.337  33.088  0.00  0.00     0.241 C 
ATOM     94  O   VAL d   1      34.111  27.171  33.295  0.00  0.00    -0.271 OA
ATOM     95  N   TYR d   1      33.685  28.850  31.865  0.00  0.00    -0.344 N 
ATOM     96  H59 TYR d   1      33.280  29.752  31.717  0.00  0.00     0.163 HD
BRANCH  95  97
ATOM     97  CA  TYR d   1      34.230  28.096  30.729  0.00  0.00     0.100 C 
ATOM     98  H60 TYR d   1      33.930  27.044  30.841  0.00  0.00     0.090 H 
BRANCH  97  99
ATOM     99  C   TYR d   1      35.757  28.165  30.720  0.00  0.00     0.197 C 
ATOM    100  O   TYR d   1      36.361  29.061  31.329  0.00  0.00    -0.646 OA
ATOM    101  OXT TYR d   1      36.430  27.339  30.087  0.00  0.00    -0.646 OA
ENDBRANCH  97  99
BRANCH  97 102
ATOM    102  CB  TYR d   1      33.677  28.616  29.393  0.00  0.00    -0.013 C 
ATOM    103  H61 TYR d   1      34.285  28.181  28.586  0.00  0.00     0.043 H 
ATOM    104  H62 TYR d   1      33.788  29.710  29.387  0.00  0.00     0.043 H 
BRANCH 102 105
ATOM    105  CG  TYR d   1      32.217  28.294  29.102  0.00  0.00    -0.056 A 
ATOM    106  CD1 TYR d   1      31.185  28.777  29.933  0.00  0.00    -0.074 A 
ATOM    107  CE1 TYR d   1      29.840  28.500  29.650  0.00  0.00    -0.051 A 
ATOM    108  H63 TYR d   1      31.436  29.372  30.804  0.00  0.00     0.084 H 
ATOM    109  CZ  TYR d   1      29.522  27.735  28.529  0.00  0.00     0.065 A 
ATOM    110  H65 TYR d   1      29.055  28.877  30.296  0.00  0.00     0.087 H 
ATOM    111  CE2 TYR d   1      30.517  27.237  27.697  0.00  0.00    -0.051 A 
ATOM    112  CD2 TYR d   1      31.863  27.529  27.980  0.00  0.00    -0.074 A 
ATOM    113  H66 TYR d   1      30.258  26.629  26.838  0.00  0.00     0.087 H 
ATOM    114  H64 TYR d   1      32.639  27.157  27.321  0.00  0.00     0.084 H 
BRANCH 109 115
ATOM    115  OH  TYR d   1      28.212  27.457  28.267  0.00  0.00    -0.361 OA
ATOM    116  H67 TYR d   1      28.079  26.517  28.286  0.00  0.00     0.217 HD
ENDBRANCH 109 115
ENDBRANCH 102 105
ENDBRANCH  97 102
ENDBRANCH  95  97
ENDBRANCH  91  93
BRANCH  91 117
ATOM    117  CB  VAL d   1      34.390  30.231  34.737  0.00  0.00    -0.033 C 
ATOM    118  H52 VAL d   1      34.181  30.453  35.794  0.00  0.00     0.042 H 
BRANCH 117 119
ATOM    119  CG1 VAL d   1      35.785  29.596  34.685  0.00  0.00    -0.071 C 
ATOM    120  H53 VAL d   1      36.533  30.326  35.028  0.00  0.00     0.028 H 
ATOM    121  H54 VAL d   1      36.013  29.296  33.652  0.00  0.00     0.028 H 
ATOM    122  H55 VAL d   1      35.810  28.711  35.338  0.00  0.00     0.028 H 
ENDBRANCH 117 119
BRANCH 117 123
ATOM    123  CG2 VAL d   1      34.345  31.553  33.999  0.00  0.00    -0.071 C 
ATOM    124  H56 VAL d   1      33.330  31.973  34.061  0.00  0.00     0.028 H 
ATOM    125  H57 VAL d   1      34.612  31.393  32.944  0.00  0.00     0.028 H 
ATOM    126  H58 VAL d   1      35.060  32.253  34.456  0.00  0.00     0.028 H 
ENDBRANCH 117 123
ENDBRANCH  91 117
ENDBRANCH  89  91
ENDBRANCH  85  87
BRANCH  85 127
ATOM    127  CB  SER d   1      32.933  25.046  35.795  0.00  0.00     0.044 C 
ATOM    128  H47 SER d   1      32.428  24.613  34.919  0.00  0.00     0.077 H 
ATOM    129  H48 SER d   1      32.968  24.301  36.604  0.00  0.00     0.077 H 
BRANCH 127 130
ATOM    130  OG  SER d   1      34.269  25.398  35.432  0.00  0.00    -0.398 OA
ATOM    131  H49 SER d   1      34.714  25.768  36.186  0.00  0.00     0.209 HD
ENDBRANCH 127 130
ENDBRANCH  85 127
ENDBRANCH  83  85
ENDBRANCH  78  81
ENDBRANCH  76  78
ENDBRANCH   4  74
TORSDOF 32
