REMARK  4 active torsions:
REMARK  status: ('A' for Active; 'I' for Inactive)
REMARK    1  A    between atoms: N_1  and  CA_2 
REMARK    2  A    between atoms: CA_2  and  C_3 
REMARK    3  A    between atoms: CA_2  and  CB_5 
REMARK    4  A    between atoms: CB_5  and  SG_6 
ROOT
ATOM      1  CA  CYS d   1      -7.963  81.746 -29.892  0.00  0.00     0.190 C 
ATOM      2  H4  CYS d   1      -6.890  81.808 -30.128  0.00  0.00     0.102 H 
ENDROOT
BRANCH   1   3
ATOM      3  N   CYS d   1      -8.732  82.312 -31.062  0.00  0.00    -0.065 N 
ATOM      4  H1  CYS d   1      -8.475  83.277 -31.198  0.00  0.00     0.275 HD
ATOM      5  H2  CYS d   1      -9.721  82.250 -30.876  0.00  0.00     0.275 HD
ATOM      6  H3  CYS d   1      -8.513  81.786 -31.894  0.00  0.00     0.275 HD
ENDBRANCH   1   3
BRANCH   1   7
ATOM      7  C   CYS d   1      -8.311  80.284 -29.638  0.00  0.00     0.205 C 
ATOM      8  O   CYS d   1      -7.946  79.708 -28.610  0.00  0.00    -0.646 OA
ATOM      9  OXT CYS d   1      -8.977  79.639 -30.456  0.00  0.00    -0.646 OA
ENDBRANCH   1   7
BRANCH   1  10
ATOM     10  CB  CYS d   1      -8.228  82.559 -28.633  0.00  0.00     0.010 C 
ATOM     11  H5  CYS d   1      -7.900  83.594 -28.812  0.00  0.00     0.052 H 
ATOM     12  H6  CYS d   1      -7.642  82.126 -27.809  0.00  0.00     0.052 H 
BRANCH  10  13
ATOM     13  SG  CYS d   1      -9.977  82.587 -28.141  0.00  0.00    -0.180 SA
ATOM     14  H7  CYS d   1     -10.081  83.140 -27.305  0.00  0.00     0.101 HD
ENDBRANCH  10  13
ENDBRANCH   1  10
TORSDOF 4
