REMARK  7 active torsions:
REMARK  status: ('A' for Active; 'I' for Inactive)
REMARK    1  A    between atoms: C1_1  and  C7_7 
REMARK    2  A    between atoms: C7_7  and  N1_8 
REMARK    3  A    between atoms: C7_7  and  N2_9 
REMARK    4  A    between atoms: C9_24  and  C8_12 
REMARK    5  A    between atoms: C1'_13  and  C7'_19 
REMARK    6  A    between atoms: C7'_19  and  N1'_20 
REMARK    7  A    between atoms: C9_24  and  C8'_23 
ROOT
ATOM      1  C9  BAB d   1      41.683  -1.713  32.009  0.00  0.00     0.045 C 
ATOM      2  H15 BAB d   1      41.337  -2.693  32.370  0.00  0.00     0.056 H 
ATOM      3  H16 BAB d   1      40.823  -1.034  31.910  0.00  0.00     0.056 H 
ENDROOT
BRANCH   1   4
ATOM      4  C8  BAB d   1      42.282  -1.939  30.524  0.00  0.00     0.112 A 
ATOM      5  N3  BAB d   1      43.025  -1.063  29.925  0.00  0.00    -0.233 NA
ATOM      6  C4  BAB d   1      43.359  -1.486  28.751  0.00  0.00     0.085 A 
ATOM      7  C3  BAB d   1      44.133  -0.857  27.813  0.00  0.00    -0.052 A 
ATOM      8  C5  BAB d   1      42.804  -2.687  28.592  0.00  0.00     0.063 A 
ATOM      9  C2  BAB d   1      44.331  -1.561  26.612  0.00  0.00    -0.067 A 
ATOM     10  H2  BAB d   1      44.566   0.122  27.985  0.00  0.00     0.087 H 
ATOM     11  C1  BAB d   1      43.757  -2.858  26.391  0.00  0.00     0.009 A 
ATOM     12  H1  BAB d   1      44.934  -1.112  25.831  0.00  0.00     0.085 H 
ATOM     13  C6  BAB d   1      42.968  -3.419  27.435  0.00  0.00    -0.041 A 
ATOM     14  H3  BAB d   1      42.509  -4.395  27.323  0.00  0.00     0.088 H 
ATOM     15  N4  BAB d   1      42.141  -2.956  29.696  0.00  0.00    -0.342 N 
ATOM     16  H8  BAB d   1      41.603  -3.815  29.882  0.00  0.00     0.167 HD
BRANCH  11  17
ATOM     17  C7  BAB d   1      43.963  -3.539  25.189  0.00  0.00     0.102 C 
BRANCH  17  18
ATOM     18  N1  BAB d   1      43.714  -4.823  25.128  0.00  0.00    -0.385 N 
ATOM     19  H4  BAB d   1      43.862  -5.335  24.247  0.00  0.00     0.157 HD
ATOM     20  H5  BAB d   1      43.370  -5.321  25.961  0.00  0.00     0.157 HD
ENDBRANCH  17  18
BRANCH  17  21
ATOM     21  N2  BAB d   1      44.390  -2.879  24.136  0.00  0.00    -0.385 N 
ATOM     22  H6  BAB d   1      44.581  -1.869  24.204  0.00  0.00     0.157 HD
ATOM     23  H7  BAB d   1      44.534  -3.372  23.243  0.00  0.00     0.157 HD
ENDBRANCH  17  21
ENDBRANCH  11  17
ENDBRANCH   1   4
BRANCH   1  24
ATOM     24  C8' BAB d   1      42.628  -1.108  33.134  0.00  0.00     0.112 A 
ATOM     25  N3' BAB d   1      43.417  -0.102  32.910  0.00  0.00    -0.233 NA
ATOM     26  C4' BAB d   1      44.059   0.171  33.999  0.00  0.00     0.085 A 
ATOM     27  C3' BAB d   1      44.999   1.155  34.202  0.00  0.00    -0.052 A 
ATOM     28  C5' BAB d   1      43.658  -0.698  34.950  0.00  0.00     0.063 A 
ATOM     29  C2' BAB d   1      45.552   1.228  35.488  0.00  0.00    -0.067 A 
ATOM     30  H10 BAB d   1      45.295   1.835  33.412  0.00  0.00     0.087 H 
ATOM     31  C1' BAB d   1      45.171   0.335  36.542  0.00  0.00     0.009 A 
ATOM     32  H9  BAB d   1      46.296   1.989  35.693  0.00  0.00     0.085 H 
ATOM     33  C6' BAB d   1      44.183  -0.659  36.242  0.00  0.00    -0.041 A 
ATOM     34  H11 BAB d   1      43.853  -1.361  36.998  0.00  0.00     0.088 H 
ATOM     35  N4' BAB d   1      42.763  -1.490  34.390  0.00  0.00    -0.342 N 
ATOM     36  H14 BAB d   1      42.262  -2.264  34.849  0.00  0.00     0.167 HD
BRANCH  31  37
ATOM     37  C7' BAB d   1      45.778   0.450  37.810  0.00  0.00     0.102 C 
ATOM     38  N2' BAB d   1      46.980   0.982  37.857  0.00  0.00    -0.385 N 
ATOM     39  H17 BAB d   1      47.435   1.304  36.991  0.00  0.00     0.157 HD
ATOM     40  H18 BAB d   1      47.467   1.076  38.760  0.00  0.00     0.157 HD
BRANCH  37  41
ATOM     41  N1' BAB d   1      45.176   0.031  38.902  0.00  0.00    -0.385 N 
ATOM     42  H12 BAB d   1      45.642   0.127  39.816  0.00  0.00     0.157 HD
ATOM     43  H13 BAB d   1      44.239  -0.393  38.843  0.00  0.00     0.157 HD
ENDBRANCH  37  41
ENDBRANCH  31  37
ENDBRANCH   1  24
TORSDOF 7
