REMARK  8 active torsions:
REMARK  status: ('A' for Active; 'I' for Inactive)
REMARK    1  A    between atoms: CBD_1  and  NBC_2 
REMARK    2  A    between atoms: NBC_2  and  CBE_3 
REMARK    3  A    between atoms: NBC_2  and  CBB_4 
REMARK    4  A    between atoms: CBB_4  and  CBA_5 
REMARK    5  A    between atoms: CBA_5  and  CAY_6 
REMARK    6  A    between atoms: CAY_6  and  NAH_7 
REMARK    7  A    between atoms: CAG_15  and  CAI_16 
REMARK    8  A    between atoms: CAJ_22  and  CAK_23 
ROOT
ATOM      1  NAH BI1 d   1     -16.511 -36.147  -0.040  0.00  0.00    -0.355 N 
ATOM      2  CAW BI1 d   1     -17.456 -37.127  -0.172  0.00  0.00    -0.012 A 
ATOM      3  CAE BI1 d   1     -16.462 -35.369  -1.130  0.00  0.00     0.045 A 
ATOM      4  CAF BI1 d   1     -15.668 -34.278  -1.493  0.00  0.00    -0.056 A 
ATOM      5  CAA BI1 d   1     -15.846 -33.662  -2.716  0.00  0.00    -0.081 A 
ATOM      6  CAB BI1 d   1     -16.813 -34.132  -3.621  0.00  0.00    -0.082 A 
ATOM      7  CAC BI1 d   1     -17.616 -35.224  -3.278  0.00  0.00    -0.070 A 
ATOM      8  CAD BI1 d   1     -17.403 -35.850  -2.045  0.00  0.00    -0.001 A 
ATOM      9  CAG BI1 d   1     -18.036 -36.900  -1.398  0.00  0.00    -0.016 A 
ATOM     10  H14 BI1 d   1     -17.697 -37.916   0.539  0.00  0.00     0.112 H 
ATOM     11  H15 BI1 d   1     -14.908 -33.913  -0.811  0.00  0.00     0.087 H 
ATOM     12  H16 BI1 d   1     -15.234 -32.807  -2.981  0.00  0.00     0.083 H 
ATOM     13  H17 BI1 d   1     -16.936 -33.649  -4.583  0.00  0.00     0.083 H 
ATOM     14  H18 BI1 d   1     -18.387 -35.578  -3.953  0.00  0.00     0.084 H 
ENDROOT
BRANCH   9  15
ATOM     15  CAI BI1 d   1     -19.080 -37.843  -1.936  0.00  0.00     0.067 A 
ATOM     16  CAT BI1 d   1     -19.142 -38.348  -3.335  0.00  0.00     0.234 A 
ATOM     17  OAZ BI1 d   1     -18.416 -37.897  -4.292  0.00  0.00    -0.272 OA
ATOM     18  NAU BI1 d   1     -20.106 -39.270  -3.549  0.00  0.00    -0.296 N 
ATOM     19  CAV BI1 d   1     -20.657 -39.495  -2.348  0.00  0.00     0.234 A 
ATOM     20  H20 BI1 d   1     -20.356 -39.695  -4.419  0.00  0.00     0.171 HD
ATOM     21  OAX BI1 d   1     -21.602 -40.340  -2.208  0.00  0.00    -0.272 OA
ATOM     22  CAJ BI1 d   1     -20.089 -38.674  -1.255  0.00  0.00     0.067 A 
ATOM     23  H21 BI1 d   1     -20.852 -37.891  -1.377  0.00  0.00     0.064 H 
ATOM     24  H19 BI1 d   1     -19.764 -36.997  -2.096  0.00  0.00     0.064 H 
BRANCH  22  25
ATOM     25  CAK BI1 d   1     -20.504 -38.750   0.183  0.00  0.00    -0.016 A 
ATOM     26  CAM BI1 d   1     -20.430 -37.731   1.154  0.00  0.00    -0.001 A 
ATOM     27  CAP BI1 d   1     -20.008 -36.396   1.120  0.00  0.00    -0.070 A 
ATOM     28  CAN BI1 d   1     -20.909 -38.347   2.311  0.00  0.00     0.042 A 
ATOM     29  CAQ BI1 d   1     -20.066 -35.647   2.290  0.00  0.00    -0.082 A 
ATOM     30  H22 BI1 d   1     -19.643 -35.955   0.199  0.00  0.00     0.084 H 
ATOM     31  CAR BI1 d   1     -20.550 -36.246   3.454  0.00  0.00    -0.081 A 
ATOM     32  H23 BI1 d   1     -19.740 -34.613   2.298  0.00  0.00     0.083 H 
ATOM     33  CAS BI1 d   1     -20.983 -37.583   3.491  0.00  0.00    -0.056 A 
ATOM     34  H24 BI1 d   1     -20.594 -35.658   4.364  0.00  0.00     0.083 H 
ATOM     35  H25 BI1 d   1     -21.366 -38.016   4.408  0.00  0.00     0.086 H 
ATOM     36  NAO BI1 d   1     -21.256 -39.643   2.019  0.00  0.00    -0.365 N 
ATOM     37  CAL BI1 d   1     -21.025 -39.931   0.709  0.00  0.00    -0.015 A 
ATOM     38  H26 BI1 d   1     -21.641 -40.310   2.703  0.00  0.00     0.165 HD
ATOM     39  H27 BI1 d   1     -21.206 -40.871   0.190  0.00  0.00     0.112 H 
ENDBRANCH  22  25
ENDBRANCH   9  15
BRANCH   1  40
ATOM     40  CAY BI1 d   1     -15.656 -36.015   1.124  0.00  0.00     0.001 C 
ATOM     41  H12 BI1 d   1     -14.930 -36.842   1.129  0.00  0.00     0.065 H 
ATOM     42  H13 BI1 d   1     -15.120 -35.056   1.066  0.00  0.00     0.065 H 
BRANCH  40  43
ATOM     43  CBA BI1 d   1     -16.452 -36.054   2.407  0.00  0.00    -0.027 C 
ATOM     44  H10 BI1 d   1     -17.165 -35.218   2.453  0.00  0.00     0.037 H 
ATOM     45  H11 BI1 d   1     -16.996 -37.005   2.504  0.00  0.00     0.037 H 
BRANCH  43  46
ATOM     46  CBB BI1 d   1     -15.389 -35.923   3.486  0.00  0.00     0.084 C 
ATOM     47  H8  BI1 d   1     -14.483 -36.461   3.169  0.00  0.00     0.076 H 
ATOM     48  H9  BI1 d   1     -15.151 -34.859   3.632  0.00  0.00     0.076 H 
BRANCH  46  49
ATOM     49  NBC BI1 d   1     -15.866 -36.487   4.747  0.00  0.00    -0.079 N 
ATOM     50  H4  BI1 d   1     -15.579 -37.409   4.458  0.00  0.00     0.278 HD
BRANCH  49  51
ATOM     51  CBD BI1 d   1     -14.903 -36.487   5.842  0.00  0.00     0.066 C 
ATOM     52  H1  BI1 d   1     -15.365 -36.931   6.736  0.00  0.00     0.068 H 
ATOM     53  H2  BI1 d   1     -14.598 -35.453   6.062  0.00  0.00     0.068 H 
ATOM     54  H3  BI1 d   1     -14.020 -37.077   5.554  0.00  0.00     0.068 H 
ENDBRANCH  49  51
BRANCH  49  55
ATOM     55  CBE BI1 d   1     -17.218 -36.979   4.963  0.00  0.00     0.066 C 
ATOM     56  H5  BI1 d   1     -17.791 -36.899   4.027  0.00  0.00     0.068 H 
ATOM     57  H6  BI1 d   1     -17.706 -36.378   5.744  0.00  0.00     0.068 H 
ATOM     58  H7  BI1 d   1     -17.179 -38.032   5.280  0.00  0.00     0.068 H 
ENDBRANCH  49  55
ENDBRANCH  46  49
ENDBRANCH  43  46
ENDBRANCH  40  43
ENDBRANCH   1  40
TORSDOF 8
