REMARK  8 active torsions:
REMARK  status: ('A' for Active; 'I' for Inactive)
REMARK    1  A    between atoms: N1_1  and  C13_13 
REMARK    2  A    between atoms: C2_2  and  N12_12 
REMARK    3  A    between atoms: C5_5  and  C10_10 
REMARK    4  A    between atoms: C6_6  and  C11_11 
REMARK    5  A    between atoms: C13_13  and  C14_14 
REMARK    6  A    between atoms: C14_14  and  C15_15 
REMARK    7  A    between atoms: C15_15  and  C16_16 
REMARK    8  A    between atoms: C16_16  and  C17_17 
ROOT
ATOM      1  N1  HAN d   1      19.517  87.801  41.910  0.00  0.00    -0.179 N 
ATOM      2  C2  HAN d   1      20.948  88.001  42.007  0.00  0.00     0.701 A 
ATOM      3  N3  HAN d   1      21.500  88.639  41.040  0.00  0.00    -0.063 NA
ATOM      4  C4  HAN d   1      20.517  89.643  38.894  0.00  0.00    -0.046 A 
ATOM      5  C5  HAN d   1      19.302  89.823  38.163  0.00  0.00    -0.054 A 
ATOM      6  C6  HAN d   1      18.044  89.308  38.700  0.00  0.00    -0.054 A 
ATOM      7  C7  HAN d   1      18.025  88.624  39.946  0.00  0.00    -0.048 A 
ATOM      8  C9  HAN d   1      20.476  88.944  40.158  0.00  0.00     0.103 A 
ATOM      9  C8  HAN d   1      19.252  88.445  40.671  0.00  0.00     0.081 A 
ATOM     10  H1  HAN d   1      21.454  90.025  38.506  0.00  0.00     0.088 H 
ATOM     11  H2  HAN d   1      17.093  88.241  40.345  0.00  0.00     0.087 H 
ENDROOT
BRANCH   1  12
ATOM     12  C13 HAN d   1      18.597  87.110  42.844  0.00  0.00     0.017 C 
ATOM     13  H11 HAN d   1      19.153  86.304  43.345  0.00  0.00     0.065 H 
ATOM     14  H12 HAN d   1      17.771  86.678  42.260  0.00  0.00     0.065 H 
BRANCH  12  15
ATOM     15  C14 HAN d   1      17.999  88.027  43.922  0.00  0.00    -0.049 C 
ATOM     16  H13 HAN d   1      16.902  88.000  43.838  0.00  0.00     0.035 H 
ATOM     17  H14 HAN d   1      18.355  89.053  43.749  0.00  0.00     0.035 H 
BRANCH  15  18
ATOM     18  C15 HAN d   1      18.394  87.603  45.344  0.00  0.00    -0.055 C 
ATOM     19  H15 HAN d   1      18.092  88.398  46.042  0.00  0.00     0.033 H 
ATOM     20  H16 HAN d   1      19.486  87.479  45.380  0.00  0.00     0.033 H 
BRANCH  18  21
ATOM     21  C16 HAN d   1      17.734  86.277  45.795  0.00  0.00     0.016 C 
ATOM     22  H17 HAN d   1      18.529  85.543  45.993  0.00  0.00     0.049 H 
ATOM     23  H18 HAN d   1      17.093  85.912  44.979  0.00  0.00     0.049 H 
BRANCH  21  24
ATOM     24  C17 HAN d   1      16.877  86.418  47.060  0.00  0.00     0.172 C 
ATOM     25  O18 HAN d   1      15.796  85.790  47.117  0.00  0.00    -0.648 OA
ATOM     26  O19 HAN d   1      17.278  87.151  48.005  0.00  0.00    -0.648 OA
ENDBRANCH  21  24
ENDBRANCH  18  21
ENDBRANCH  15  18
ENDBRANCH  12  15
ENDBRANCH   1  12
BRANCH   2  27
ATOM     27  N12 HAN d   1      21.710  87.522  43.095  0.00  0.00    -0.233 N 
ATOM     28  H9  HAN d   1      22.726  87.687  43.124  0.00  0.00     0.174 HD
ATOM     29  H10 HAN d   1      21.250  87.008  43.860  0.00  0.00     0.174 HD
ENDBRANCH   2  27
BRANCH   6  30
ATOM     30  C11 HAN d   1      16.687  89.457  37.979  0.00  0.00    -0.051 C 
ATOM     31  H6  HAN d   1      16.832  90.000  37.033  0.00  0.00     0.033 H 
ATOM     32  H7  HAN d   1      15.991  90.017  38.620  0.00  0.00     0.033 H 
ATOM     33  H8  HAN d   1      16.272  88.460  37.770  0.00  0.00     0.033 H 
ENDBRANCH   6  30
BRANCH   5  34
ATOM     34  C10 HAN d   1      19.401  90.571  36.817  0.00  0.00    -0.051 C 
ATOM     35  H3  HAN d   1      20.447  90.857  36.633  0.00  0.00     0.033 H 
ATOM     36  H4  HAN d   1      18.775  91.475  36.853  0.00  0.00     0.033 H 
ATOM     37  H5  HAN d   1      19.052  89.915  36.006  0.00  0.00     0.033 H 
ENDBRANCH   5  34
TORSDOF 8
