REMARK  2 active torsions:
REMARK  status: ('A' for Active; 'I' for Inactive)
REMARK    1  A    between atoms: CA_3  and  N_1 
REMARK    2  A    between atoms: CA_3  and  C_4 
ROOT
ATOM      1  CA  192 d   1      21.389  32.699   7.852  0.00  0.00     0.210 C 
ATOM      2  CB1 192 d   1      21.426  33.487   6.513  0.00  0.00    -0.024 C 
ATOM      3  CG  192 d   1      20.060  34.047   6.809  0.00  0.00    -0.059 C 
ATOM      4  CB2 192 d   1      20.143  33.541   8.256  0.00  0.00    -0.024 C 
ATOM      5  H4  192 d   1      21.466  32.850   5.617  0.00  0.00     0.037 H 
ATOM      6  H5  192 d   1      22.221  34.245   6.460  0.00  0.00     0.037 H 
ATOM      7  H6  192 d   1      19.252  33.587   6.221  0.00  0.00     0.033 H 
ATOM      8  H7  192 d   1      19.998  35.142   6.722  0.00  0.00     0.033 H 
ATOM      9  H8  192 d   1      20.346  34.325   9.000  0.00  0.00     0.037 H 
ATOM     10  H9  192 d   1      19.277  32.945   8.579  0.00  0.00     0.037 H 
ENDROOT
BRANCH   1  11
ATOM     11  N   192 d   1      21.177  31.264   7.648  0.00  0.00    -0.060 N 
ATOM     12  H1  192 d   1      20.350  31.123   7.089  0.00  0.00     0.275 HD
ATOM     13  H2  192 d   1      21.061  30.811   8.541  0.00  0.00     0.275 HD
ATOM     14  H3  192 d   1      21.974  30.871   7.173  0.00  0.00     0.275 HD
ENDBRANCH   1  11
BRANCH   1  15
ATOM     15  C   192 d   1      22.644  32.852   8.697  0.00  0.00     0.210 C 
ATOM     16  O   192 d   1      22.930  34.099   8.929  0.00  0.00    -0.646 OA
ATOM     17  OXT 192 d   1      23.263  31.925   9.101  0.00  0.00    -0.646 OA
ENDBRANCH   1  15
TORSDOF 2
