REMARK  2 active torsions:
REMARK  status: ('A' for Active; 'I' for Inactive)
REMARK    1  A    between atoms: C1_3  and  C2_4 
REMARK    2  A    between atoms: C1_3  and  N1_7 
ROOT
ATOM      1  C3  1AC d   1      20.805  33.479   6.970  0.00  0.00    -0.021 A 
ATOM      2  C4  1AC d   1      20.080  33.281   8.273  0.00  0.00    -0.021 A 
ATOM      3  C1  1AC d   1      21.313  32.501   8.002  0.00  0.00     0.210 A 
ATOM      4  H1  1AC d   1      21.352  34.414   6.778  0.00  0.00     0.037 H 
ATOM      5  H2  1AC d   1      20.364  33.113   6.031  0.00  0.00     0.037 H 
ATOM      6  H3  1AC d   1      19.103  32.775   8.285  0.00  0.00     0.037 H 
ATOM      7  H4  1AC d   1      20.091  34.077   9.033  0.00  0.00     0.037 H 
ENDROOT
BRANCH   3   8
ATOM      8  C2  1AC d   1      22.629  32.806   8.675  0.00  0.00     0.210 C 
ATOM      9  O2  1AC d   1      22.836  34.001   9.028  0.00  0.00    -0.646 OA
ATOM     10  O1  1AC d   1      23.342  31.824   8.945  0.00  0.00    -0.646 OA
ENDBRANCH   3   8
BRANCH   3  11
ATOM     11  N1  1AC d   1      21.181  31.094   7.552  0.00  0.00    -0.060 N 
ATOM     12  H5  1AC d   1      22.098  30.699   7.410  0.00  0.00     0.275 HD
ATOM     13  H6  1AC d   1      20.665  31.065   6.687  0.00  0.00     0.275 HD
ATOM     14  H7  1AC d   1      20.691  30.561   8.254  0.00  0.00     0.275 HD
ENDBRANCH   3  11
TORSDOF 2
