REMARK  9 active torsions:
REMARK  status: ('A' for Active; 'I' for Inactive)
REMARK    1  A    between atoms: O4_18  and  C1_1 
REMARK    2  A    between atoms: C2_2  and  O2_3 
REMARK    3  A    between atoms: C3_4  and  O3_5 
REMARK    4  A    between atoms: C5_7  and  C6_9 
REMARK    5  A    between atoms: C1_12  and  O1_24 
REMARK    6  A    between atoms: C2_13  and  O2_14 
REMARK    7  A    between atoms: C3_15  and  O3_16 
REMARK    8  A    between atoms: C4_17  and  O4_18 
REMARK    9  A    between atoms: C5_19  and  C6_21 
ROOT
ATOM      1  H7  BEM d   1     -19.751  -6.060  21.865  0.00  0.00     0.133 H 
ATOM      2  H8  BEM d   1     -19.522  -5.598  24.340  0.00  0.00     0.094 H 
ATOM      3  H10 BEM d   1     -17.132  -5.336  24.589  0.00  0.00     0.091 H 
ATOM      4  H12 BEM d   1     -16.863  -8.255  23.690  0.00  0.00     0.092 H 
ATOM      5  H13 BEM d   1     -16.191  -5.627  22.285  0.00  0.00     0.104 H 
ATOM      6  C1  MAV d   1     -18.770  -5.944  22.348  0.00  0.00     0.156 C 
ATOM      7  C2  MAV d   1     -18.890  -6.339  23.830  0.00  0.00     0.110 C 
ATOM      8  C3  MAV d   1     -17.516  -6.364  24.512  0.00  0.00     0.092 C 
ATOM      9  C4  MAV d   1     -16.536  -7.205  23.686  0.00  0.00     0.103 C 
ATOM     10  C5  MAV d   1     -16.493  -6.684  22.261  0.00  0.00     0.152 C 
ATOM     11  O5  MAV d   1     -17.805  -6.772  21.671  0.00  0.00    -0.340 OA
ENDROOT
BRANCH   9  12
ATOM     12  O4  MAV d   1     -15.214  -7.108  24.234  0.00  0.00    -0.347 OA
BRANCH  12  13
ATOM     13  C1  BEM d   1     -14.714  -8.186  24.943  0.00  0.00     0.165 C 
ATOM     14  C2  BEM d   1     -13.182  -8.083  24.912  0.00  0.00     0.111 C 
ATOM     15  C3  BEM d   1     -12.614  -9.090  25.869  0.00  0.00     0.084 C 
ATOM     16  H2  BEM d   1     -12.814  -8.281  23.895  0.00  0.00     0.095 H 
ATOM     17  C4  BEM d   1     -13.283  -9.204  27.190  0.00  0.00    -0.034 C 
ATOM     18  H4  BEM d   1     -12.873 -10.049  25.396  0.00  0.00     0.093 H 
ATOM     19  C5  BEM d   1     -14.687  -8.927  27.273  0.00  0.00     0.147 C 
ATOM     20  H6  BEM d   1     -12.719  -9.492  28.076  0.00  0.00     0.085 H 
ATOM     21  O5  BEM d   1     -15.229  -8.045  26.284  0.00  0.00    -0.311 OA
ATOM     22  H1  BEM d   1     -15.039  -9.141  24.504  0.00  0.00     0.134 H 
BRANCH  14  23
ATOM     23  O2  BEM d   1     -12.788  -6.786  25.321  0.00  0.00    -0.388 OA
ATOM     24  H3  BEM d   1     -13.161  -6.142  24.731  0.00  0.00     0.210 HD
ENDBRANCH  14  23
BRANCH  15  25
ATOM     25  O3  BEM d   1     -11.188  -9.113  25.868  0.00  0.00    -0.389 OA
ATOM     26  H5  BEM d   1     -10.883  -9.764  26.488  0.00  0.00     0.210 HD
ENDBRANCH  15  25
BRANCH  19  27
ATOM     27  C6  BEM d   1     -15.250  -8.751  28.580  0.00  0.00     0.233 C 
ATOM     28  O6A BEM d   1     -16.091  -7.833  28.720  0.00  0.00    -0.642 OA
ATOM     29  O6B BEM d   1     -14.860  -9.467  29.518  0.00  0.00    -0.642 OA
ENDBRANCH  19  27
ENDBRANCH  12  13
ENDBRANCH   9  12
BRANCH   8  30
ATOM     30  O3  MAV d   1     -17.646  -6.914  25.816  0.00  0.00    -0.390 OA
ATOM     31  H11 BEM d   1     -16.795  -6.929  26.238  0.00  0.00     0.210 HD
ENDBRANCH   8  30
BRANCH  10  32
ATOM     32  C6  MAV d   1     -15.476  -7.450  21.433  0.00  0.00     0.206 C 
ATOM     33  O6A MAV d   1     -14.269  -7.134  21.553  0.00  0.00    -0.646 OA
ATOM     34  O6B MAV d   1     -15.870  -8.376  20.693  0.00  0.00    -0.646 OA
ENDBRANCH  10  32
BRANCH   7  35
ATOM     35  O2  MAV d   1     -19.498  -7.615  23.940  0.00  0.00    -0.388 OA
ATOM     36  H9  BEM d   1     -19.569  -7.853  24.857  0.00  0.00     0.210 HD
ENDBRANCH   7  35
BRANCH   6  37
ATOM     37  O1  MAV d   1     -18.357  -4.625  22.250  0.00  0.00    -0.368 OA
ATOM     38  H14 BEM d   1     -18.984  -4.064  22.692  0.00  0.00     0.212 HD
ENDBRANCH   6  37
TORSDOF 9
