REMARK  19 active torsions:
REMARK  status: ('A' for Active; 'I' for Inactive)
REMARK    1  A    between atoms: O4_18  and  C1_1 
REMARK    2  A    between atoms: C2_2  and  O2_3 
REMARK    3  A    between atoms: C3_4  and  O3_5 
REMARK    4  A    between atoms: C5_7  and  C6_9 
REMARK    5  A    between atoms: O4_30  and  C1_12 
REMARK    6  A    between atoms: C2_13  and  O2_14 
REMARK    7  A    between atoms: C3_15  and  O3_16 
REMARK    8  A    between atoms: C4_17  and  O4_18 
REMARK    9  A    between atoms: C5_19  and  C6_21 
REMARK   10  A    between atoms: O4_42  and  C1_24 
REMARK   11  A    between atoms: C2_25  and  O2_26 
REMARK   12  A    between atoms: C3_27  and  O3_28 
REMARK   13  A    between atoms: C4_29  and  O4_30 
REMARK   14  A    between atoms: C5_31  and  C6_33 
REMARK   15  A    between atoms: C1_36  and  O1_48 
REMARK   16  A    between atoms: C2_37  and  O2_38 
REMARK   17  A    between atoms: C3_39  and  O3_40 
REMARK   18  A    between atoms: C4_41  and  O4_42 
REMARK   19  A    between atoms: C5_43  and  C6_45 
ROOT
ATOM      1  H14 BEM d   1     -20.031  -6.945 -12.597  0.00  0.00     0.133 H 
ATOM      2  H15 BEM d   1     -18.157  -8.130 -11.541  0.00  0.00     0.094 H 
ATOM      3  H17 BEM d   1     -15.860  -7.394 -11.749  0.00  0.00     0.091 H 
ATOM      4  H19 BEM d   1     -15.951  -5.146 -10.571  0.00  0.00     0.092 H 
ATOM      5  H20 BEM d   1     -17.907  -4.143 -11.542  0.00  0.00     0.104 H 
ATOM      6  C1  LGU d   1     -19.105  -6.390 -12.387  0.00  0.00     0.160 C 
ATOM      7  C2  LGU d   1     -17.938  -7.375 -12.311  0.00  0.00     0.110 C 
ATOM      8  C3  LGU d   1     -16.643  -6.646 -11.939  0.00  0.00     0.092 C 
ATOM      9  C4  LGU d   1     -16.831  -5.798 -10.676  0.00  0.00     0.103 C 
ATOM     10  C5  LGU d   1     -18.078  -4.907 -10.770  0.00  0.00     0.152 C 
ATOM     11  O5  LGU d   1     -19.244  -5.691 -11.136  0.00  0.00    -0.340 OA
ENDROOT
BRANCH   9  12
ATOM     12  O4  LGU d   1     -16.918  -6.636  -9.506  0.00  0.00    -0.347 OA
BRANCH  12  13
ATOM     13  C1  MAV d   1     -15.715  -6.822  -8.821  0.00  0.00     0.160 C 
ATOM     14  C2  MAV d   1     -15.984  -7.368  -7.412  0.00  0.00     0.110 C 
ATOM     15  C3  MAV d   1     -14.655  -7.576  -6.666  0.00  0.00     0.092 C 
ATOM     16  H8  BEM d   1     -16.596  -6.642  -6.857  0.00  0.00     0.094 H 
ATOM     17  C4  MAV d   1     -13.643  -8.375  -7.510  0.00  0.00     0.103 C 
ATOM     18  H10 BEM d   1     -14.223  -6.588  -6.449  0.00  0.00     0.091 H 
ATOM     19  C5  MAV d   1     -13.529  -7.773  -8.902  0.00  0.00     0.152 C 
ATOM     20  H12 BEM d   1     -13.968  -9.423  -7.580  0.00  0.00     0.092 H 
ATOM     21  O5  MAV d   1     -14.830  -7.700  -9.510  0.00  0.00    -0.340 OA
ATOM     22  H13 BEM d   1     -13.143  -6.749  -8.796  0.00  0.00     0.104 H 
ATOM     23  H7  BEM d   1     -15.222  -5.843  -8.729  0.00  0.00     0.133 H 
BRANCH  14  24
ATOM     24  O2  MAV d   1     -16.688  -8.597  -7.500  0.00  0.00    -0.388 OA
ATOM     25  H9  BEM d   1     -16.852  -8.930  -6.626  0.00  0.00     0.210 HD
ENDBRANCH  14  24
BRANCH  15  26
ATOM     26  O3  MAV d   1     -14.885  -8.253  -5.441  0.00  0.00    -0.390 OA
ATOM     27  H11 BEM d   1     -14.059  -8.376  -4.989  0.00  0.00     0.210 HD
ENDBRANCH  15  26
BRANCH  17  28
ATOM     28  O4  MAV d   1     -12.346  -8.301  -6.899  0.00  0.00    -0.347 OA
BRANCH  28  29
ATOM     29  C1  BEM d   1     -11.889  -9.379  -6.168  0.00  0.00     0.165 C 
ATOM     30  C2  BEM d   1     -10.348  -9.355  -6.228  0.00  0.00     0.111 C 
ATOM     31  C3  BEM d   1      -9.810 -10.336  -5.223  0.00  0.00     0.084 C 
ATOM     32  H2  BEM d   1     -10.005  -9.626  -7.237  0.00  0.00     0.095 H 
ATOM     33  C4  BEM d   1     -10.492 -10.413  -3.904  0.00  0.00    -0.034 C 
ATOM     34  H4  BEM d   1     -10.101 -11.298  -5.670  0.00  0.00     0.093 H 
ATOM     35  C5  BEM d   1     -11.889 -10.116  -3.852  0.00  0.00     0.147 C 
ATOM     36  H6  BEM d   1      -9.943 -10.688  -3.004  0.00  0.00     0.085 H 
ATOM     37  O5  BEM d   1     -12.363  -9.173  -4.820  0.00  0.00    -0.311 OA
ATOM     38  H1  BEM d   1     -12.272 -10.328  -6.572  0.00  0.00     0.134 H 
BRANCH  30  39
ATOM     39  O2  BEM d   1      -9.903  -8.054  -5.899  0.00  0.00    -0.388 OA
ATOM     40  H3  BEM d   1     -10.261  -7.431  -6.521  0.00  0.00     0.210 HD
ENDBRANCH  30  39
BRANCH  31  41
ATOM     41  O3  BEM d   1      -8.388 -10.431  -5.218  0.00  0.00    -0.389 OA
ATOM     42  H5  BEM d   1      -8.116 -11.064  -4.564  0.00  0.00     0.210 HD
ENDBRANCH  31  41
BRANCH  35  43
ATOM     43  C6  BEM d   1     -12.494 -10.004  -2.557  0.00  0.00     0.233 C 
ATOM     44  O6A BEM d   1     -13.382  -9.142  -2.408  0.00  0.00    -0.642 OA
ATOM     45  O6B BEM d   1     -12.111 -10.762  -1.645  0.00  0.00    -0.642 OA
ENDBRANCH  35  43
ENDBRANCH  28  29
ENDBRANCH  17  28
BRANCH  19  46
ATOM     46  C6  MAV d   1     -12.563  -8.540  -9.780  0.00  0.00     0.206 C 
ATOM     47  O6A MAV d   1     -13.014  -9.409 -10.557  0.00  0.00    -0.646 OA
ATOM     48  O6B MAV d   1     -11.346  -8.272  -9.673  0.00  0.00    -0.646 OA
ENDBRANCH  19  46
ENDBRANCH  12  13
ENDBRANCH   9  12
BRANCH   8  49
ATOM     49  O3  LGU d   1     -16.234  -5.811 -13.014  0.00  0.00    -0.390 OA
ATOM     50  H18 BEM d   1     -16.914  -5.172 -13.194  0.00  0.00     0.210 HD
ENDBRANCH   8  49
BRANCH  10  51
ATOM     51  C6  LGU d   1     -18.337  -4.216  -9.441  0.00  0.00     0.206 C 
ATOM     52  O6A LGU d   1     -19.496  -4.236  -8.975  0.00  0.00    -0.646 OA
ATOM     53  O6B LGU d   1     -17.373  -3.676  -8.854  0.00  0.00    -0.646 OA
ENDBRANCH  10  51
BRANCH   7  54
ATOM     54  O2  LGU d   1     -17.780  -8.021 -13.564  0.00  0.00    -0.388 OA
ATOM     55  H16 BEM d   1     -18.577  -8.491 -13.780  0.00  0.00     0.210 HD
ENDBRANCH   7  54
BRANCH   6  56
ATOM     56  O4  MAV d   1     -18.882  -5.468 -13.404  0.00  0.00    -0.347 OA
BRANCH  56  57
ATOM     57  C4  MAV d   1     -20.029  -4.766 -13.929  0.00  0.00     0.103 C 
ATOM     58  C3  MAV d   1     -19.694  -3.277 -14.038  0.00  0.00     0.092 C 
ATOM     59  C2  MAV d   1     -20.845  -2.542 -14.725  0.00  0.00     0.110 C 
ATOM     60  H24 BEM d   1     -18.780  -3.156 -14.639  0.00  0.00     0.091 H 
ATOM     61  C1  MAV d   1     -21.068  -3.161 -16.101  0.00  0.00     0.156 C 
ATOM     62  H22 BEM d   1     -20.601  -1.474 -14.826  0.00  0.00     0.094 H 
ATOM     63  O5  MAV d   1     -21.434  -4.535 -15.941  0.00  0.00    -0.340 OA
ATOM     64  H21 BEM d   1     -21.867  -2.617 -16.627  0.00  0.00     0.133 H 
ATOM     65  C5  MAV d   1     -20.392  -5.328 -15.320  0.00  0.00     0.152 C 
ATOM     66  H27 BEM d   1     -19.491  -5.280 -15.950  0.00  0.00     0.104 H 
ATOM     67  H26 BEM d   1     -20.883  -4.900 -13.249  0.00  0.00     0.092 H 
BRANCH  58  68
ATOM     68  O3  MAV d   1     -19.472  -2.737 -12.743  0.00  0.00    -0.390 OA
ATOM     69  H25 BEM d   1     -20.260  -2.834 -12.221  0.00  0.00     0.210 HD
ENDBRANCH  58  68
BRANCH  59  70
ATOM     70  O2  MAV d   1     -22.034  -2.698 -13.959  0.00  0.00    -0.388 OA
ATOM     71  H23 BEM d   1     -21.907  -2.316 -13.098  0.00  0.00     0.210 HD
ENDBRANCH  59  70
BRANCH  61  72
ATOM     72  O1  MAV d   1     -19.896  -3.108 -16.842  0.00  0.00    -0.368 OA
ATOM     73  H28 BEM d   1     -19.637  -2.201 -16.959  0.00  0.00     0.212 HD
ENDBRANCH  61  72
BRANCH  65  74
ATOM     74  C6  MAV d   1     -20.853  -6.768 -15.258  0.00  0.00     0.206 C 
ATOM     75  O6A MAV d   1     -22.084  -6.982 -15.207  0.00  0.00    -0.646 OA
ATOM     76  O6B MAV d   1     -19.992  -7.675 -15.274  0.00  0.00    -0.646 OA
ENDBRANCH  65  74
ENDBRANCH  56  57
ENDBRANCH   6  56
TORSDOF 19
