REMARK  6 active torsions:
REMARK  status: ('A' for Active; 'I' for Inactive)
REMARK    1  A    between atoms: C3_2  and  C4_3 
REMARK    2  A    between atoms: C3_2  and  N2_34 
REMARK    3  A    between atoms: C7_6  and  C10_7 
REMARK    4  A    between atoms: C17_15  and  C18_14 
REMARK    5  A    between atoms: N19_18  and  C23_22 
REMARK    6  A    between atoms: C23_22  and  C24_23 
ROOT
ATOM      1  C10 UIR d   1      -1.191   4.445  21.574  0.00  0.00     0.141 C 
ATOM      2  N11 UIR d   1      -2.176   3.305  21.564  0.00  0.00    -0.057 N 
ATOM      3  C12 UIR d   1      -2.446   2.826  20.166  0.00  0.00     0.085 C 
ATOM      4  C13 UIR d   1      -1.511   1.620  19.957  0.00  0.00    -0.040 C 
ATOM      5  C14 UIR d   1      -0.734   1.372  21.234  0.00  0.00    -0.036 C 
ATOM      6  C15 UIR d   1      -1.418   2.227  22.314  0.00  0.00     0.111 C 
ATOM      7  C16 UIR d   1      -0.309   2.928  23.168  0.00  0.00     0.008 C 
ATOM      8  C17 UIR d   1      -0.624   2.695  24.695  0.00  0.00     0.025 C 
ATOM      9  N19 UIR d   1      -1.644   3.660  24.997  0.00  0.00    -0.342 N 
ATOM     10  C20 UIR d   1      -1.700   4.695  24.087  0.00  0.00     0.227 C 
ATOM     11  O21 UIR d   1      -2.580   5.626  24.104  0.00  0.00    -0.273 OA
ATOM     12  C22 UIR d   1      -0.629   4.452  23.003  0.00  0.00     0.062 C 
ATOM     13  H5  UIR d   1      -0.352   4.227  20.897  0.00  0.00     0.093 H 
ATOM     14  H6  UIR d   1      -3.039   3.554  22.022  0.00  0.00     0.281 HD
ATOM     15  H7  UIR d   1      -2.220   3.619  19.438  0.00  0.00     0.076 H 
ATOM     16  H8  UIR d   1      -3.497   2.520  20.061  0.00  0.00     0.076 H 
ATOM     17  H9  UIR d   1      -0.812   1.833  19.135  0.00  0.00     0.035 H 
ATOM     18  H10 UIR d   1      -2.107   0.730  19.709  0.00  0.00     0.035 H 
ATOM     19  H11 UIR d   1       0.315   1.679  21.110  0.00  0.00     0.036 H 
ATOM     20  H12 UIR d   1      -0.774   0.307  21.506  0.00  0.00     0.036 H 
ATOM     21  H13 UIR d   1      -2.086   1.624  22.947  0.00  0.00     0.085 H 
ATOM     22  H14 UIR d   1       0.712   2.638  22.879  0.00  0.00     0.047 H 
ATOM     23  H16 UIR d   1      -1.061   1.689  24.776  0.00  0.00     0.074 H 
ATOM     24  H21 UIR d   1       0.234   5.124  23.116  0.00  0.00     0.059 H 
ENDROOT
BRANCH   1  25
ATOM     25  C7  UIR d   1      -1.909   5.649  21.004  0.00  0.00    -0.027 A 
ATOM     26  C8  UIR d   1      -3.292   5.855  21.151  0.00  0.00    -0.074 A 
ATOM     27  C9  UIR d   1      -3.892   7.054  20.706  0.00  0.00    -0.069 A 
ATOM     28  H4  UIR d   1      -3.904   5.087  21.610  0.00  0.00     0.084 H 
ATOM     29  C4  UIR d   1      -3.117   8.072  20.115  0.00  0.00     0.007 A 
ATOM     30  H3  UIR d   1      -4.961   7.193  20.820  0.00  0.00     0.085 H 
ATOM     31  C5  UIR d   1      -1.732   7.822  19.939  0.00  0.00    -0.069 A 
ATOM     32  C6  UIR d   1      -1.120   6.640  20.372  0.00  0.00    -0.074 A 
ATOM     33  H30 UIR d   1      -1.124   8.575  19.451  0.00  0.00     0.085 H 
ATOM     34  H29 UIR d   1      -0.057   6.486  20.226  0.00  0.00     0.084 H 
BRANCH  29  35
ATOM     35  C3  UIR d   1      -3.703   9.306  19.677  0.00  0.00     0.102 C 
ATOM     36  N1  UIR d   1      -5.005   9.576  19.765  0.00  0.00    -0.385 N 
ATOM     37  H1  UIR d   1      -5.367  10.481  19.433  0.00  0.00     0.157 HD
ATOM     38  H2  UIR d   1      -5.650   8.879  20.165  0.00  0.00     0.157 HD
BRANCH  35  39
ATOM     39  N2  UIR d   1      -2.987  10.348  19.114  0.00  0.00    -0.385 N 
ATOM     40  H31 UIR d   1      -1.968  10.265  18.990  0.00  0.00     0.157 HD
ATOM     41  H32 UIR d   1      -3.473  11.207  18.819  0.00  0.00     0.157 HD
ENDBRANCH  35  39
ENDBRANCH  29  35
ENDBRANCH   1  25
BRANCH   8  42
ATOM     42  C18 UIR d   1       0.494   2.730  25.720  0.00  0.00    -0.034 A 
ATOM     43  C42 UIR d   1       0.286   1.804  26.926  0.00  0.00    -0.059 A 
ATOM     44  C41 UIR d   1       1.296   1.409  25.816  0.00  0.00    -0.059 A 
ATOM     45  H17 UIR d   1      -0.656   1.247  27.035  0.00  0.00     0.033 H 
ATOM     46  H18 UIR d   1       0.651   2.105  27.919  0.00  0.00     0.033 H 
ATOM     47  H19 UIR d   1       2.377   1.433  26.019  0.00  0.00     0.033 H 
ATOM     48  H20 UIR d   1       1.069   0.575  25.135  0.00  0.00     0.033 H 
ATOM     49  H15 UIR d   1       0.964   3.721  25.808  0.00  0.00     0.043 H 
ENDBRANCH   8  42
BRANCH   9  50
ATOM     50  C23 UIR d   1      -2.719   3.693  26.081  0.00  0.00     0.022 C 
ATOM     51  H22 UIR d   1      -2.710   2.730  26.613  0.00  0.00     0.071 H 
ATOM     52  H23 UIR d   1      -3.698   3.836  25.600  0.00  0.00     0.071 H 
BRANCH  50  53
ATOM     53  C24 UIR d   1      -2.508   4.816  27.101  0.00  0.00    -0.037 A 
ATOM     54  C25 UIR d   1      -1.327   4.867  27.858  0.00  0.00    -0.040 A 
ATOM     55  C26 UIR d   1      -1.208   5.914  28.868  0.00  0.00     0.105 A 
ATOM     56  H24 UIR d   1      -0.529   4.152  27.698  0.00  0.00     0.088 H 
ATOM     57  O27 UIR d   1      -0.133   6.143  29.733  0.00  0.00    -0.323 OA
ATOM     58  C30 UIR d   1      -2.238   6.847  29.079  0.00  0.00     0.105 A 
ATOM     59  C28 UIR d   1      -0.543   7.306  30.508  0.00  0.00     0.115 A 
ATOM     60  O29 UIR d   1      -1.875   7.725  30.078  0.00  0.00    -0.323 OA
ATOM     61  H25 UIR d   1       0.171   8.127  30.346  0.00  0.00     0.118 H 
ATOM     62  H26 UIR d   1      -0.566   7.046  31.577  0.00  0.00     0.118 H 
ATOM     63  C31 UIR d   1      -3.420   6.787  28.333  0.00  0.00    -0.047 A 
ATOM     64  C32 UIR d   1      -3.540   5.781  27.344  0.00  0.00    -0.072 A 
ATOM     65  H27 UIR d   1      -4.224   7.493  28.508  0.00  0.00     0.087 H 
ATOM     66  H28 UIR d   1      -4.445   5.739  26.749  0.00  0.00     0.084 H 
ENDBRANCH  50  53
ENDBRANCH   9  50
TORSDOF 6
