REMARK  10 active torsions:
REMARK  status: ('A' for Active; 'I' for Inactive)
REMARK    1  A    between atoms: C3_2  and  N2_3 
REMARK    2  A    between atoms: C3_2  and  C4_4 
REMARK    3  A    between atoms: C7_7  and  C10_8 
REMARK    4  A    between atoms: C15_11  and  C13_12 
REMARK    5  A    between atoms: C15_11  and  C14_13 
REMARK    6  A    between atoms: N11_14  and  C12_15 
REMARK    7  A    between atoms: C17_16  and  C18_30 
REMARK    8  A    between atoms: N19_17  and  C23_18 
REMARK    9  A    between atoms: C23_18  and  C24_19 
REMARK   10  A    between atoms: C18_30  and  C41_31 
ROOT
ATOM      1  C10 UIB d   1      -1.337   4.450  21.484  0.00  0.00     0.141 C 
ATOM      2  C22 UIB d   1      -0.763   4.442  22.915  0.00  0.00     0.063 C 
ATOM      3  C16 UIB d   1      -0.436   2.935  23.129  0.00  0.00     0.011 C 
ATOM      4  C15 UIB d   1      -1.412   2.201  22.167  0.00  0.00     0.127 C 
ATOM      5  N11 UIB d   1      -2.227   3.253  21.418  0.00  0.00    -0.057 N 
ATOM      6  C17 UIB d   1      -0.749   2.733  24.645  0.00  0.00     0.021 C 
ATOM      7  N19 UIB d   1      -1.810   3.693  24.906  0.00  0.00    -0.342 N 
ATOM      8  C20 UIB d   1      -1.849   4.709  23.984  0.00  0.00     0.227 C 
ATOM      9  O21 UIB d   1      -2.630   5.699  24.018  0.00  0.00    -0.273 OA
ATOM     10  H7  UIB d   1      -0.486   4.276  20.809  0.00  0.00     0.093 H 
ATOM     11  H8  UIB d   1       0.101   5.114  23.023  0.00  0.00     0.059 H 
ATOM     12  H9  UIB d   1       0.609   2.677  22.901  0.00  0.00     0.048 H 
ATOM     13  H16 UIB d   1      -3.094   3.433  21.899  0.00  0.00     0.281 HD
ATOM     14  H20 UIB d   1      -1.139   1.716  24.798  0.00  0.00     0.073 H 
ENDROOT
BRANCH   1  15
ATOM     15  C7  UIB d   1      -2.009   5.688  20.952  0.00  0.00    -0.027 A 
ATOM     16  C6  UIB d   1      -1.216   6.656  20.293  0.00  0.00    -0.074 A 
ATOM     17  C5  UIB d   1      -1.768   7.857  19.858  0.00  0.00    -0.069 A 
ATOM     18  H6  UIB d   1      -0.163   6.460  20.124  0.00  0.00     0.084 H 
ATOM     19  C4  UIB d   1      -3.137   8.121  20.083  0.00  0.00     0.007 A 
ATOM     20  H5  UIB d   1      -1.150   8.587  19.348  0.00  0.00     0.085 H 
ATOM     21  C9  UIB d   1      -3.925   7.176  20.747  0.00  0.00    -0.069 A 
ATOM     22  C8  UIB d   1      -3.358   5.954  21.187  0.00  0.00    -0.074 A 
ATOM     23  H34 UIB d   1      -4.975   7.379  20.926  0.00  0.00     0.085 H 
ATOM     24  H33 UIB d   1      -3.972   5.227  21.706  0.00  0.00     0.084 H 
BRANCH  19  25
ATOM     25  C3  UIB d   1      -3.727   9.350  19.650  0.00  0.00     0.102 C 
ATOM     26  N1  UIB d   1      -5.017   9.577  19.837  0.00  0.00    -0.385 N 
ATOM     27  H1  UIB d   1      -5.603   8.867  20.298  0.00  0.00     0.157 HD
ATOM     28  H2  UIB d   1      -5.435  10.464  19.521  0.00  0.00     0.157 HD
BRANCH  25  29
ATOM     29  N2  UIB d   1      -3.041  10.356  19.029  0.00  0.00    -0.385 N 
ATOM     30  H3  UIB d   1      -2.032  10.255  18.847  0.00  0.00     0.157 HD
ATOM     31  H4  UIB d   1      -3.533  11.215  18.743  0.00  0.00     0.157 HD
ENDBRANCH  25  29
ENDBRANCH  19  25
ENDBRANCH   1  15
BRANCH   5  32
ATOM     32  C12 UIB d   1      -2.537   2.852  20.040  0.00  0.00     0.068 C 
ATOM     33  H17 UIB d   1      -3.123   3.644  19.551  0.00  0.00     0.068 H 
ATOM     34  H18 UIB d   1      -3.120   1.919  20.052  0.00  0.00     0.068 H 
ATOM     35  H19 UIB d   1      -1.601   2.692  19.485  0.00  0.00     0.068 H 
ENDBRANCH   5  32
BRANCH   4  36
ATOM     36  C13 UIB d   1      -2.133   1.134  23.016  0.00  0.00    -0.045 C 
ATOM     37  H10 UIB d   1      -2.841   0.579  22.383  0.00  0.00     0.030 H 
ATOM     38  H11 UIB d   1      -2.679   1.625  23.835  0.00  0.00     0.030 H 
ATOM     39  H12 UIB d   1      -1.392   0.437  23.435  0.00  0.00     0.030 H 
ENDBRANCH   4  36
BRANCH   4  40
ATOM     40  C14 UIB d   1      -0.511   1.540  21.102  0.00  0.00    -0.045 C 
ATOM     41  H13 UIB d   1      -0.009   2.320  20.511  0.00  0.00     0.030 H 
ATOM     42  H14 UIB d   1      -1.126   0.916  20.438  0.00  0.00     0.030 H 
ATOM     43  H15 UIB d   1       0.244   0.913  21.599  0.00  0.00     0.030 H 
ENDBRANCH   4  40
BRANCH   6  44
ATOM     44  C18 UIB d   1       0.476   2.891  25.570  0.00  0.00    -0.049 C 
ATOM     45  H28 UIB d   1       0.134   3.196  26.570  0.00  0.00     0.035 H 
ATOM     46  H29 UIB d   1       1.140   3.665  25.157  0.00  0.00     0.035 H 
BRANCH  44  47
ATOM     47  C41 UIB d   1       1.245   1.592  25.687  0.00  0.00    -0.075 C 
ATOM     48  H30 UIB d   1       2.110   1.736  26.351  0.00  0.00     0.027 H 
ATOM     49  H31 UIB d   1       1.595   1.282  24.691  0.00  0.00     0.027 H 
ATOM     50  H32 UIB d   1       0.589   0.814  26.104  0.00  0.00     0.027 H 
ENDBRANCH  44  47
ENDBRANCH   6  44
BRANCH   7  51
ATOM     51  C23 UIB d   1      -2.782   3.656  26.057  0.00  0.00     0.022 C 
ATOM     52  H21 UIB d   1      -2.660   2.700  26.587  0.00  0.00     0.071 H 
ATOM     53  H22 UIB d   1      -3.804   3.725  25.655  0.00  0.00     0.071 H 
BRANCH  51  54
ATOM     54  C24 UIB d   1      -2.573   4.796  27.054  0.00  0.00    -0.037 A 
ATOM     55  C32 UIB d   1      -3.564   5.811  27.226  0.00  0.00    -0.072 A 
ATOM     56  C31 UIB d   1      -3.470   6.805  28.220  0.00  0.00    -0.047 A 
ATOM     57  H23 UIB d   1      -4.423   5.816  26.565  0.00  0.00     0.084 H 
ATOM     58  C30 UIB d   1      -2.333   6.784  29.038  0.00  0.00     0.105 A 
ATOM     59  H24 UIB d   1      -4.244   7.553  28.346  0.00  0.00     0.087 H 
ATOM     60  C26 UIB d   1      -1.335   5.804  28.906  0.00  0.00     0.105 A 
ATOM     61  O29 UIB d   1      -2.008   7.634  30.067  0.00  0.00    -0.323 OA
ATOM     62  C25 UIB d   1      -1.427   4.803  27.924  0.00  0.00    -0.040 A 
ATOM     63  O27 UIB d   1      -0.307   5.978  29.844  0.00  0.00    -0.323 OA
ATOM     64  H25 UIB d   1      -0.651   4.052  27.824  0.00  0.00     0.088 H 
ATOM     65  C28 UIB d   1      -0.730   7.153  30.583  0.00  0.00     0.115 A 
ATOM     66  H26 UIB d   1       0.027   7.944  30.475  0.00  0.00     0.118 H 
ATOM     67  H27 UIB d   1      -0.841   6.894  31.646  0.00  0.00     0.118 H 
ENDBRANCH  51  54
ENDBRANCH   7  51
TORSDOF 10
