REMARK  7 active torsions:
REMARK  status: ('A' for Active; 'I' for Inactive)
REMARK    1  A    between atoms: S5_2  and  CS_1 
REMARK    2  A    between atoms: C5_3  and  S5_2 
REMARK    3  A    between atoms: C4_4  and  C5_3 
REMARK    4  A    between atoms: C2_6  and  O2_7 
REMARK    5  A    between atoms: C3_8  and  O3_9 
REMARK    6  A    between atoms: C1_10  and  C9_11 
REMARK    7  A    between atoms: C6_15  and  N6_16 
ROOT
ATOM      1  C4  MTM d   1      57.735  71.884  22.016  0.00  0.00     0.138 C 
ATOM      2  N4  MTM d   1      58.259  72.449  20.768  0.00  0.00    -0.057 N 
ATOM      3  C2  MTM d   1      57.641  74.271  22.126  0.00  0.00     0.093 C 
ATOM      4  C3  MTM d   1      57.838  72.988  23.055  0.00  0.00     0.090 C 
ATOM      5  C1  MTM d   1      57.936  73.866  20.633  0.00  0.00     0.158 C 
ATOM      6  H6  MTM d   1      58.342  71.026  22.341  0.00  0.00     0.089 H 
ATOM      7  H7  MTM d   1      57.858  71.948  19.990  0.00  0.00     0.278 HD
ATOM      8  H8  MTM d   1      59.261  72.341  20.757  0.00  0.00     0.278 HD
ATOM      9  H9  MTM d   1      56.599  74.613  22.205  0.00  0.00     0.090 H 
ATOM     10  H11 MTM d   1      57.061  72.911  23.830  0.00  0.00     0.090 H 
ATOM     11  H13 MTM d   1      58.786  74.446  20.244  0.00  0.00     0.096 H 
ENDROOT
BRANCH   5  12
ATOM     12  C9  MTM d   1      56.768  73.984  19.662  0.00  0.00     0.021 A 
ATOM     13  C8  MTM d   1      56.823  73.736  18.289  0.00  0.00    -0.012 A 
ATOM     14  N7  MTM d   1      55.652  73.903  17.648  0.00  0.00    -0.360 N 
ATOM     15  H14 MTM d   1      57.737  73.433  17.780  0.00  0.00     0.112 H 
ATOM     16  C5  MTM d   1      54.779  74.274  18.631  0.00  0.00     0.107 A 
ATOM     17  H15 MTM d   1      55.458  73.779  16.644  0.00  0.00     0.165 HD
ATOM     18  C6  MTM d   1      53.384  74.595  18.645  0.00  0.00     0.151 A 
ATOM     19  C4  MTM d   1      55.434  74.338  19.878  0.00  0.00     0.098 A 
ATOM     20  N1  MTM d   1      52.825  74.936  19.868  0.00  0.00    -0.223 NA
ATOM     21  C2  MTM d   1      53.574  74.960  20.994  0.00  0.00     0.089 A 
ATOM     22  N3  MTM d   1      54.891  74.674  21.096  0.00  0.00    -0.239 NA
ATOM     23  H18 MTM d   1      53.065  75.237  21.910  0.00  0.00     0.146 H 
BRANCH  18  24
ATOM     24  N6  MTM d   1      52.623  74.570  17.543  0.00  0.00    -0.382 N 
ATOM     25  H16 MTM d   1      51.623  74.809  17.602  0.00  0.00     0.157 HD
ATOM     26  H17 MTM d   1      53.038  74.312  16.636  0.00  0.00     0.157 HD
ENDBRANCH  18  24
ENDBRANCH   5  12
BRANCH   3  27
ATOM     27  O2  MTM d   1      58.520  75.356  22.547  0.00  0.00    -0.390 OA
ATOM     28  H10 MTM d   1      59.424  75.071  22.488  0.00  0.00     0.210 HD
ENDBRANCH   3  27
BRANCH   1  29
ATOM     29  C5  MTM d   1      56.314  71.403  21.723  0.00  0.00     0.005 C 
ATOM     30  H4  MTM d   1      55.693  72.286  21.511  0.00  0.00     0.052 H 
ATOM     31  H5  MTM d   1      56.350  70.758  20.833  0.00  0.00     0.052 H 
BRANCH  29  32
ATOM     32  S5  MTM d   1      55.529  70.475  23.053  0.00  0.00    -0.171 SA
BRANCH  32  33
ATOM     33  CS  MTM d   1      56.186  68.813  22.684  0.00  0.00    -0.035 C 
ATOM     34  H1  MTM d   1      55.798  68.094  23.420  0.00  0.00     0.041 H 
ATOM     35  H2  MTM d   1      57.285  68.833  22.735  0.00  0.00     0.041 H 
ATOM     36  H3  MTM d   1      55.871  68.510  21.675  0.00  0.00     0.041 H 
ENDBRANCH  32  33
ENDBRANCH  29  32
ENDBRANCH   1  29
BRANCH   4  37
ATOM     37  O3  MTM d   1      59.185  72.979  23.672  0.00  0.00    -0.391 OA
ATOM     38  H12 MTM d   1      59.294  73.759  24.203  0.00  0.00     0.210 HD
ENDBRANCH   4  37
TORSDOF 7
