REMARK  6 active torsions:
REMARK  status: ('A' for Active; 'I' for Inactive)
REMARK    1  A    between atoms: OAQ_1  and  CAF_2 
REMARK    2  A    between atoms: CAL_4  and  OAR_5 
REMARK    3  A    between atoms: CAM_6  and  CAS_7 
REMARK    4  A    between atoms: CAS_7  and  CAT_8 
REMARK    5  A    between atoms: CAC_10  and  CAB_11 
REMARK    6  A    between atoms: CAA_15  and  CAD_16 
ROOT
ATOM      1  CAF 43P d   1      33.930  32.124  -3.137  0.00  0.00     0.081 A 
ATOM      2  CAJ 43P d   1      33.862  31.706  -1.807  0.00  0.00    -0.018 A 
ATOM      3  CAL 43P d   1      35.032  31.529  -1.069  0.00  0.00     0.074 A 
ATOM      4  CAM 43P d   1      36.271  31.742  -1.672  0.00  0.00    -0.024 A 
ATOM      5  CAG 43P d   1      36.318  32.202  -2.989  0.00  0.00    -0.059 A 
ATOM      6  CAC 43P d   1      35.157  32.396  -3.736  0.00  0.00     0.027 A 
ATOM      7  H2  43P d   1      32.898  31.519  -1.347  0.00  0.00     0.092 H 
ATOM      8  H9  43P d   1      37.280  32.413  -3.442  0.00  0.00     0.086 H 
ENDROOT
BRANCH   6   9
ATOM      9  CAB 43P d   1      35.203  32.835  -5.063  0.00  0.00     0.077 A 
ATOM     10  NAE 43P d   1      34.865  32.124  -6.140  0.00  0.00    -0.277 N 
ATOM     11  NAI 43P d   1      35.022  32.787  -7.170  0.00  0.00    -0.186 NA
ATOM     12  H10 43P d   1      34.520  31.154  -6.116  0.00  0.00     0.189 HD
ATOM     13  CAK 43P d   1      35.493  33.994  -6.871  0.00  0.00     0.036 A 
ATOM     14  CAA 43P d   1      35.618  34.075  -5.549  0.00  0.00     0.042 A 
ATOM     15  H11 43P d   1      35.735  34.780  -7.585  0.00  0.00     0.118 H 
BRANCH  14  16
ATOM     16  CAD 43P d   1      35.981  35.212  -4.834  0.00  0.00     0.087 A 
ATOM     17  CAP 43P d   1      36.617  36.267  -5.339  0.00  0.00     0.007 A 
ATOM     18  NAN 43P d   1      36.748  37.185  -4.385  0.00  0.00    -0.358 N 
ATOM     19  H12 43P d   1      36.972  36.363  -6.364  0.00  0.00     0.115 H 
ATOM     20  CAO 43P d   1      36.199  36.703  -3.273  0.00  0.00     0.064 A 
ATOM     21  H13 43P d   1      37.196  38.107  -4.489  0.00  0.00     0.166 HD
ATOM     22  NAH 43P d   1      35.730  35.490  -3.557  0.00  0.00    -0.242 NA
ATOM     23  H14 43P d   1      36.144  37.207  -2.309  0.00  0.00     0.143 H 
ENDBRANCH  14  16
ENDBRANCH   6   9
BRANCH   1  24
ATOM     24  OAQ 43P d   1      32.769  32.239  -3.838  0.00  0.00    -0.360 OA
ATOM     25  H1  43P d   1      32.334  31.395  -3.869  0.00  0.00     0.217 HD
ENDBRANCH   1  24
BRANCH   4  26
ATOM     26  CAS 43P d   1      37.587  31.321  -1.005  0.00  0.00    -0.042 C 
ATOM     27  H4  43P d   1      37.577  31.646   0.046  0.00  0.00     0.039 H 
ATOM     28  H5  43P d   1      38.425  31.803  -1.530  0.00  0.00     0.039 H 
BRANCH  26  29
ATOM     29  CAT 43P d   1      37.773  29.800  -1.056  0.00  0.00    -0.073 C 
ATOM     30  H6  43P d   1      38.723  29.530  -0.571  0.00  0.00     0.028 H 
ATOM     31  H7  43P d   1      37.789  29.468  -2.104  0.00  0.00     0.028 H 
ATOM     32  H8  43P d   1      36.941  29.311  -0.529  0.00  0.00     0.028 H 
ENDBRANCH  26  29
ENDBRANCH   4  26
BRANCH   3  33
ATOM     33  OAR 43P d   1      34.946  31.241   0.262  0.00  0.00    -0.360 OA
ATOM     34  H3  43P d   1      34.468  30.428   0.379  0.00  0.00     0.217 HD
ENDBRANCH   3  33
TORSDOF 6
