REMARK  4 active torsions:
REMARK  status: ('A' for Active; 'I' for Inactive)
REMARK    1  A    between atoms: C1_1  and  S1_12 
REMARK    2  A    between atoms: C2_2  and  N4_8 
REMARK       I    between atoms: N4_8  and  C3_3 
REMARK    3  A    between atoms: C3_3  and  C4_4 
REMARK    4  A    between atoms: S1_12  and  N1_5 
ROOT
ATOM      1  C1  AZM d   1      -5.193   2.456  16.152  0.00  0.00     0.237 A 
ATOM      2  C2  AZM d   1      -4.639   4.357  15.041  0.00  0.00     0.197 A 
ATOM      3  N2  AZM d   1      -3.578   3.838  15.552  0.00  0.00    -0.122 NA
ATOM      4  N3  AZM d   1      -3.915   2.689  16.215  0.00  0.00    -0.126 NA
ATOM      5  S2  AZM d   1      -6.138   3.587  15.327  0.00  0.00    -0.015 SA
ENDROOT
BRANCH   2   6
ATOM      6  N4  AZM d   1      -4.421   5.394  14.273  0.00  0.00    -0.305 N 
ATOM      7  C3  AZM d   1      -5.452   6.000  13.643  0.00  0.00     0.219 C 
ATOM      8  O3  AZM d   1      -6.627   5.647  13.746  0.00  0.00    -0.274 OA
ATOM      9  H6  AZM d   1      -3.490   5.739  14.152  0.00  0.00     0.171 HD
BRANCH   7  10
ATOM     10  C4  AZM d   1      -5.142   7.188  12.735  0.00  0.00    -0.002 C 
ATOM     11  H1  AZM d   1      -6.077   7.569  12.298  0.00  0.00     0.040 H 
ATOM     12  H2  AZM d   1      -4.465   6.867  11.929  0.00  0.00     0.040 H 
ATOM     13  H3  AZM d   1      -4.661   7.983  13.323  0.00  0.00     0.040 H 
ENDBRANCH   7  10
ENDBRANCH   2   6
BRANCH   1  14
ATOM     14  S1  AZM d   1      -5.812   0.961  16.882  0.00  0.00     0.282 S 
ATOM     15  O1  AZM d   1      -5.872   1.376  18.283  0.00  0.00    -0.199 OA
ATOM     16  O2  AZM d   1      -7.233   0.516  16.802  0.00  0.00    -0.199 OA
BRANCH  14  17
ATOM     17  N1  AZM d   1      -4.635  -0.133  16.847  0.00  0.00    -0.323 N 
ATOM     18  H4  AZM d   1      -4.792  -1.049  17.217  0.00  0.00     0.169 HD
ATOM     19  H5  AZM d   1      -3.745   0.102  16.456  0.00  0.00     0.169 HD
ENDBRANCH  14  17
ENDBRANCH   1  14
TORSDOF 4
