REMARK  4 active torsions:
REMARK  status: ('A' for Active; 'I' for Inactive)
REMARK    1  A    between atoms: C1_1  and  S1_12 
REMARK    2  A    between atoms: C2_2  and  N4_8 
REMARK       I    between atoms: N4_8  and  C3_3 
REMARK    3  A    between atoms: C3_3  and  C4_4 
REMARK    4  A    between atoms: S1_12  and  N1_5 
ROOT
ATOM      1  C1  AZM d   1      -5.012   2.211  16.131  0.00  0.00     0.237 A 
ATOM      2  C2  AZM d   1      -4.416   4.018  14.944  0.00  0.00     0.197 A 
ATOM      3  N2  AZM d   1      -3.366   3.400  15.368  0.00  0.00    -0.122 NA
ATOM      4  N3  AZM d   1      -3.716   2.301  16.084  0.00  0.00    -0.126 NA
ATOM      5  S2  AZM d   1      -5.931   3.418  15.346  0.00  0.00    -0.015 SA
ENDROOT
BRANCH   2   6
ATOM      6  N4  AZM d   1      -4.158   5.062  14.179  0.00  0.00    -0.305 N 
ATOM      7  C3  AZM d   1      -5.168   5.764  13.641  0.00  0.00     0.219 C 
ATOM      8  O3  AZM d   1      -6.374   5.561  13.761  0.00  0.00    -0.274 OA
ATOM      9  H6  AZM d   1      -3.211   5.330  14.000  0.00  0.00     0.171 HD
BRANCH   7  10
ATOM     10  C4  AZM d   1      -4.667   6.910  12.787  0.00  0.00    -0.002 C 
ATOM     11  H1  AZM d   1      -5.524   7.457  12.367  0.00  0.00     0.040 H 
ATOM     12  H2  AZM d   1      -4.048   6.514  11.968  0.00  0.00     0.040 H 
ATOM     13  H3  AZM d   1      -4.064   7.592  13.405  0.00  0.00     0.040 H 
ENDBRANCH   7  10
ENDBRANCH   2   6
BRANCH   1  14
ATOM     14  S1  AZM d   1      -5.775   0.860  16.977  0.00  0.00     0.282 S 
ATOM     15  O1  AZM d   1      -5.443   0.918  18.403  0.00  0.00    -0.199 OA
ATOM     16  O2  AZM d   1      -7.249   0.993  16.839  0.00  0.00    -0.199 OA
BRANCH  14  17
ATOM     17  N1  AZM d   1      -5.098  -0.412  16.295  0.00  0.00    -0.323 N 
ATOM     18  H4  AZM d   1      -5.353  -1.333  16.591  0.00  0.00     0.169 HD
ATOM     19  H5  AZM d   1      -4.418  -0.289  15.572  0.00  0.00     0.169 HD
ENDBRANCH  14  17
ENDBRANCH   1  14
TORSDOF 4
