REMARK  4 active torsions:
REMARK  status: ('A' for Active; 'I' for Inactive)
REMARK    1  A    between atoms: C1_1  and  S1_12 
REMARK    2  A    between atoms: C2_2  and  N4_8 
REMARK       I    between atoms: N4_8  and  C3_3 
REMARK    3  A    between atoms: C3_3  and  C4_4 
REMARK    4  A    between atoms: S1_12  and  N1_5 
ROOT
ATOM      1  C1  AZM d   1      -5.457   2.085  15.541  0.00  0.00     0.237 A 
ATOM      2  C2  AZM d   1      -4.986   3.753  14.058  0.00  0.00     0.197 A 
ATOM      3  N2  AZM d   1      -4.247   2.752  13.846  0.00  0.00    -0.122 NA
ATOM      4  N3  AZM d   1      -4.486   1.751  14.764  0.00  0.00    -0.126 NA
ATOM      5  S2  AZM d   1      -6.128   3.670  15.329  0.00  0.00    -0.015 SA
ENDROOT
BRANCH   2   6
ATOM      6  N4  AZM d   1      -4.868   4.879  13.281  0.00  0.00    -0.305 N 
ATOM      7  C3  AZM d   1      -5.631   5.963  13.422  0.00  0.00     0.219 C 
ATOM      8  O3  AZM d   1      -6.468   6.005  14.340  0.00  0.00    -0.274 OA
ATOM      9  H6  AZM d   1      -4.168   4.886  12.567  0.00  0.00     0.171 HD
BRANCH   7  10
ATOM     10  C4  AZM d   1      -5.288   7.047  12.433  0.00  0.00    -0.002 C 
ATOM     11  H1  AZM d   1      -5.946   7.913  12.595  0.00  0.00     0.040 H 
ATOM     12  H2  AZM d   1      -5.427   6.667  11.410  0.00  0.00     0.040 H 
ATOM     13  H3  AZM d   1      -4.240   7.352  12.572  0.00  0.00     0.040 H 
ENDBRANCH   7  10
ENDBRANCH   2   6
BRANCH   1  14
ATOM     14  S1  AZM d   1      -6.002   0.959  16.813  0.00  0.00     0.282 S 
ATOM     15  O1  AZM d   1      -5.040   1.001  17.873  0.00  0.00    -0.199 OA
ATOM     16  O2  AZM d   1      -7.405   1.334  16.954  0.00  0.00    -0.199 OA
BRANCH  14  17
ATOM     17  N1  AZM d   1      -5.879  -0.459  16.177  0.00  0.00    -0.323 N 
ATOM     18  H4  AZM d   1      -6.132  -1.268  16.707  0.00  0.00     0.169 HD
ATOM     19  H5  AZM d   1      -5.547  -0.559  15.239  0.00  0.00     0.169 HD
ENDBRANCH  14  17
ENDBRANCH   1  14
TORSDOF 4
