REMARK  3 active torsions:
REMARK  status: ('A' for Active; 'I' for Inactive)
REMARK    1  A    between atoms: C1_1  and  S_11 
REMARK    2  A    between atoms: S_11  and  N1'_14 
REMARK    3  A    between atoms: C2'_15  and  CM2_16 
ROOT
ATOM      1  N1' IQP d   1       9.428   9.139   3.596  0.00  0.00    -0.199 NA
ATOM      2  C2' IQP d   1      10.784   9.794   3.767  0.00  0.00     0.029 C 
ATOM      3  C3' IQP d   1      11.838   9.021   2.930  0.00  0.00     0.097 C 
ATOM      4  N4' IQP d   1      11.698   7.531   3.190  0.00  0.00    -0.072 N 
ATOM      5  C5' IQP d   1      10.379   6.942   2.873  0.00  0.00     0.093 C 
ATOM      6  C6' IQP d   1       9.393   7.654   3.806  0.00  0.00     0.016 C 
ATOM      7  H7  IQP d   1      10.733  10.851   3.465  0.00  0.00     0.067 H 
ATOM      8  H11 IQP d   1      12.848   9.350   3.218  0.00  0.00     0.078 H 
ATOM      9  H12 IQP d   1      11.677   9.223   1.861  0.00  0.00     0.078 H 
ATOM     10  H13 IQP d   1      11.882   7.369   4.168  0.00  0.00     0.277 HD
ATOM     11  H14 IQP d   1      12.391   7.054   2.635  0.00  0.00     0.277 HD
ATOM     12  H15 IQP d   1      10.382   5.859   3.067  0.00  0.00     0.077 H 
ATOM     13  H16 IQP d   1      10.117   7.125   1.821  0.00  0.00     0.077 H 
ATOM     14  H17 IQP d   1       8.377   7.286   3.603  0.00  0.00     0.059 H 
ATOM     15  H18 IQP d   1       9.662   7.432   4.849  0.00  0.00     0.059 H 
ENDROOT
BRANCH   1  16
ATOM     16  S   IQP d   1       8.256   9.840   4.431  0.00  0.00     0.244 S 
ATOM     17  O2  IQP d   1       8.487  11.227   4.736  0.00  0.00    -0.206 OA
ATOM     18  O1  IQP d   1       7.868   8.911   5.494  0.00  0.00    -0.206 OA
BRANCH  16  19
ATOM     19  C1  IQP d   1       6.922   9.907   3.259  0.00  0.00     0.086 A 
ATOM     20  C10 IQP d   1       5.544   9.902   3.681  0.00  0.00    -0.000 A 
ATOM     21  C5  IQP d   1       4.510   9.957   2.683  0.00  0.00    -0.007 A 
ATOM     22  C9  IQP d   1       5.150   9.842   5.060  0.00  0.00    -0.054 A 
ATOM     23  C4  IQP d   1       4.849  10.017   1.299  0.00  0.00    -0.071 A 
ATOM     24  C6  IQP d   1       3.166   9.949   3.107  0.00  0.00     0.013 A 
ATOM     25  C3  IQP d   1       6.206  10.025   0.877  0.00  0.00    -0.081 A 
ATOM     26  H3  IQP d   1       4.059  10.057   0.557  0.00  0.00     0.084 H 
ATOM     27  C2  IQP d   1       7.223   9.971   1.862  0.00  0.00    -0.060 A 
ATOM     28  H2  IQP d   1       6.458  10.071  -0.176  0.00  0.00     0.083 H 
ATOM     29  H1  IQP d   1       8.260   9.978   1.548  0.00  0.00     0.085 H 
ATOM     30  N7  IQP d   1       2.885   9.890   4.424  0.00  0.00    -0.272 NA
ATOM     31  H4  IQP d   1       2.364   9.990   2.379  0.00  0.00     0.116 H 
ATOM     32  C8  IQP d   1       3.810   9.837   5.406  0.00  0.00     0.003 A 
ATOM     33  H5  IQP d   1       3.509   9.791   6.446  0.00  0.00     0.114 H 
ATOM     34  H6  IQP d   1       5.907   9.800   5.835  0.00  0.00     0.087 H 
ENDBRANCH  16  19
ENDBRANCH   1  16
BRANCH   2  35
ATOM     35  CM2 IQP d   1      11.273   9.659   5.229  0.00  0.00    -0.059 C 
ATOM     36  H8  IQP d   1      12.257  10.140   5.332  0.00  0.00     0.029 H 
ATOM     37  H9  IQP d   1      11.356   8.594   5.491  0.00  0.00     0.029 H 
ATOM     38  H10 IQP d   1      10.554  10.147   5.903  0.00  0.00     0.029 H 
ENDBRANCH   2  35
TORSDOF 3
