REMARK  8 active torsions:
REMARK  status: ('A' for Active; 'I' for Inactive)
REMARK    1  A    between atoms: C1_1  and  S_11 
REMARK    2  A    between atoms: S_11  and  N1'_14 
REMARK    3  A    between atoms: N1'_14  and  C2'_15 
REMARK    4  A    between atoms: C2'_15  and  C3'_16 
REMARK    5  A    between atoms: C3'_16  and  N4'_17 
REMARK    6  A    between atoms: N4'_17  and  C5'_18 
REMARK    7  A    between atoms: C5'_18  and  C6'_19 
REMARK    8  A    between atoms: C7'_20  and  C1'_21 
ROOT
ATOM      1  C2' IQB d   1       8.874   7.706   3.596  0.00  0.00     0.025 C 
ATOM      2  H8  IQB d   1       8.108   7.471   2.842  0.00  0.00     0.067 H 
ATOM      3  H9  IQB d   1       9.031   6.832   4.245  0.00  0.00     0.067 H 
ENDROOT
BRANCH   1   4
ATOM      4  N1' IQB d   1       8.422   8.825   4.403  0.00  0.00    -0.314 N 
ATOM      5  H7  IQB d   1       8.129   8.664   5.345  0.00  0.00     0.172 HD
BRANCH   4   6
ATOM      6  S   IQB d   1       8.385  10.320   3.807  0.00  0.00     0.259 S 
ATOM      7  O2  IQB d   1       9.515  10.533   2.926  0.00  0.00    -0.201 OA
ATOM      8  O1  IQB d   1       8.168  11.239   4.898  0.00  0.00    -0.201 OA
BRANCH   6   9
ATOM      9  C1  IQB d   1       6.904  10.245   2.828  0.00  0.00     0.090 A 
ATOM     10  C10 IQB d   1       5.628  10.148   3.414  0.00  0.00     0.000 A 
ATOM     11  C5  IQB d   1       4.481  10.096   2.598  0.00  0.00    -0.007 A 
ATOM     12  C9  IQB d   1       5.467  10.098   4.807  0.00  0.00    -0.054 A 
ATOM     13  C4  IQB d   1       4.600  10.142   1.205  0.00  0.00    -0.071 A 
ATOM     14  C6  IQB d   1       3.220  10.000   3.192  0.00  0.00     0.013 A 
ATOM     15  C3  IQB d   1       5.871  10.238   0.626  0.00  0.00    -0.081 A 
ATOM     16  H3  IQB d   1       3.716  10.104   0.579  0.00  0.00     0.084 H 
ATOM     17  C2  IQB d   1       7.015  10.291   1.430  0.00  0.00    -0.059 A 
ATOM     18  H2  IQB d   1       5.970  10.271  -0.453  0.00  0.00     0.083 H 
ATOM     19  H1  IQB d   1       7.993  10.368   0.970  0.00  0.00     0.085 H 
ATOM     20  N7  IQB d   1       3.100   9.954   4.542  0.00  0.00    -0.272 NA
ATOM     21  H4  IQB d   1       2.333   9.962   2.570  0.00  0.00     0.116 H 
ATOM     22  C8  IQB d   1       4.182  10.000   5.355  0.00  0.00     0.003 A 
ATOM     23  H5  IQB d   1       4.053   9.961   6.431  0.00  0.00     0.114 H 
ATOM     24  H6  IQB d   1       6.334  10.135   5.457  0.00  0.00     0.087 H 
ENDBRANCH   6   9
ENDBRANCH   4   6
ENDBRANCH   1   4
BRANCH   1  25
ATOM     25  C3' IQB d   1      10.193   8.052   2.886  0.00  0.00     0.097 C 
ATOM     26  H10 IQB d   1      10.454   9.100   3.097  0.00  0.00     0.078 H 
ATOM     27  H11 IQB d   1      10.067   7.917   1.802  0.00  0.00     0.078 H 
BRANCH  25  28
ATOM     28  N4' IQB d   1      11.274   7.179   3.360  0.00  0.00    -0.070 N 
ATOM     29  H12 IQB d   1      11.563   6.568   2.612  0.00  0.00     0.277 HD
ATOM     30  H13 IQB d   1      10.943   6.627   4.136  0.00  0.00     0.277 HD
BRANCH  28  31
ATOM     31  C5' IQB d   1      12.422   7.996   3.796  0.00  0.00     0.097 C 
ATOM     32  H14 IQB d   1      13.269   7.334   4.029  0.00  0.00     0.081 H 
ATOM     33  H15 IQB d   1      12.141   8.563   4.696  0.00  0.00     0.081 H 
BRANCH  31  34
ATOM     34  C6' IQB d   1      12.832   8.959   2.714  0.00  0.00    -0.078 C 
ATOM     35  C7' IQB d   1      12.831  10.281   2.932  0.00  0.00    -0.075 C 
ATOM     36  H17 IQB d   1      12.529  10.657   3.909  0.00  0.00     0.084 H 
ATOM     37  H16 IQB d   1      13.134   8.576   1.740  0.00  0.00     0.079 H 
BRANCH  35  38
ATOM     38  C1' IQB d   1      13.236  11.261   1.863  0.00  0.00    -0.036 A 
ATOM     39  C6' IQB d   1      12.772  12.576   1.932  0.00  0.00    -0.072 A 
ATOM     40  C5' IQB d   1      13.128  13.511   0.956  0.00  0.00    -0.065 A 
ATOM     41  H21 IQB d   1      12.129  12.875   2.752  0.00  0.00     0.084 H 
ATOM     42  C4' IQB d   1      13.954  13.131  -0.100  0.00  0.00     0.011 A 
ATOM     43  H20 IQB d   1      12.762  14.530   1.020  0.00  0.00     0.085 H 
ATOM     44  C3' IQB d   1      14.427  11.815  -0.183  0.00  0.00    -0.065 A 
ATOM     45 BR4' IQB d   1      14.422  14.388  -1.388  0.00  0.00    -0.051 Br
ATOM     46  C2' IQB d   1      14.068  10.882   0.799  0.00  0.00    -0.072 A 
ATOM     47  H19 IQB d   1      15.069  11.519  -1.005  0.00  0.00     0.085 H 
ATOM     48  H18 IQB d   1      14.434   9.864   0.736  0.00  0.00     0.084 H 
ENDBRANCH  35  38
ENDBRANCH  31  34
ENDBRANCH  28  31
ENDBRANCH  25  28
ENDBRANCH   1  25
TORSDOF 8
