REMARK  13 active torsions:
REMARK  status: ('A' for Active; 'I' for Inactive)
REMARK    1  A    between atoms: C1_1  and  O1_8 
REMARK    2  A    between atoms: C4_4  and  N1_25 
REMARK    3  A    between atoms: O1_8  and  P1_7 
REMARK    4  A    between atoms: P1_7  and  C8_11 
REMARK    5  A    between atoms: C8_11  and  C9_12 
REMARK    6  A    between atoms: C9_12  and  C10_13 
REMARK    7  A    between atoms: C10_13  and  C11_14 
REMARK       I    between atoms: C11_14  and  N2_15 
REMARK    8  A    between atoms: N2_15  and  C12_17 
REMARK    9  A    between atoms: C12_17  and  C13_18 
REMARK   10  A    between atoms: C13_18  and  C14_19 
REMARK   11  A    between atoms: C14_19  and  C15_20 
REMARK   12  A    between atoms: C15_20  and  C16_21 
REMARK   13  A    between atoms: C16_21  and  C17_22 
ROOT
ATOM      1  C10 PNF d   1      17.270  36.154  60.214  0.00  0.00     0.010 C 
ATOM      2  H9  PNF d   1      17.045  35.140  60.576  0.00  0.00     0.047 H 
ATOM      3  H10 PNF d   1      18.133  36.557  60.765  0.00  0.00     0.047 H 
ENDROOT
BRANCH   1   4
ATOM      4  C9  PNF d   1      16.065  37.044  60.476  0.00  0.00    -0.046 C 
ATOM      5  H7  PNF d   1      16.373  38.097  60.550  0.00  0.00     0.034 H 
ATOM      6  H8  PNF d   1      15.323  36.934  59.672  0.00  0.00     0.034 H 
BRANCH   4   7
ATOM      7  C8  PNF d   1      15.510  36.579  61.756  0.00  0.00     0.033 C 
ATOM      8  H5  PNF d   1      15.147  35.550  61.619  0.00  0.00     0.052 H 
ATOM      9  H6  PNF d   1      16.318  36.587  62.503  0.00  0.00     0.052 H 
BRANCH   7  10
ATOM     10  P1  PNF d   1      14.213  37.527  62.361  0.00  0.00     0.254 P 
ATOM     11  O2  PNF d   1      14.446  38.926  62.111  0.00  0.00    -0.646 OA
ATOM     12  O3  PNF d   1      13.965  37.092  63.747  0.00  0.00    -0.646 OA
BRANCH  10  13
ATOM     13  O1  PNF d   1      12.946  37.045  61.446  0.00  0.00    -0.270 OA
BRANCH  13  14
ATOM     14  C1  PNF d   1      11.724  37.652  61.592  0.00  0.00     0.079 A 
ATOM     15  C6  PNF d   1      10.722  36.936  62.221  0.00  0.00    -0.048 A 
ATOM     16  C5  PNF d   1       9.494  37.601  62.356  0.00  0.00    -0.048 A 
ATOM     17  H4  PNF d   1      10.875  35.927  62.586  0.00  0.00     0.087 H 
ATOM     18  C4  PNF d   1       9.323  38.924  61.867  0.00  0.00     0.103 A 
ATOM     19  H3  PNF d   1       8.664  37.099  62.840  0.00  0.00     0.087 H 
ATOM     20  C3  PNF d   1      10.383  39.581  61.241  0.00  0.00    -0.048 A 
ATOM     21  C2  PNF d   1      11.595  38.944  61.099  0.00  0.00    -0.048 A 
ATOM     22  H2  PNF d   1      10.252  40.590  60.867  0.00  0.00     0.087 H 
ATOM     23  H1  PNF d   1      12.429  39.439  60.614  0.00  0.00     0.087 H 
BRANCH  18  24
ATOM     24  N1  PNF d   1       8.013  39.606  62.026  0.00  0.00    -0.116 N 
ATOM     25  O5  PNF d   1       7.062  38.983  62.494  0.00  0.00    -0.532 OA
ATOM     26  O4  PNF d   1       7.850  40.794  61.711  0.00  0.00    -0.532 OA
ENDBRANCH  18  24
ENDBRANCH  13  14
ENDBRANCH  10  13
ENDBRANCH   7  10
ENDBRANCH   4   7
ENDBRANCH   1   4
BRANCH   1  27
ATOM     27  C11 PNF d   1      17.624  36.077  58.752  0.00  0.00     0.217 C 
ATOM     28  O6  PNF d   1      18.167  37.095  58.246  0.00  0.00    -0.274 OA
ATOM     29  N2  PNF d   1      17.329  34.903  58.052  0.00  0.00    -0.361 N 
ATOM     30  H11 PNF d   1      16.895  34.160  58.561  0.00  0.00     0.162 HD
BRANCH  29  31
ATOM     31  C12 PNF d   1      17.590  34.690  56.712  0.00  0.00    -0.005 C 
ATOM     32  H12 PNF d   1      18.598  34.259  56.618  0.00  0.00     0.064 H 
ATOM     33  H13 PNF d   1      17.555  35.659  56.192  0.00  0.00     0.064 H 
BRANCH  31  34
ATOM     34  C13 PNF d   1      16.589  33.739  56.035  0.00  0.00    -0.050 C 
ATOM     35  H14 PNF d   1      15.756  34.333  55.632  0.00  0.00     0.035 H 
ATOM     36  H15 PNF d   1      16.206  33.035  56.789  0.00  0.00     0.035 H 
BRANCH  34  37
ATOM     37  C14 PNF d   1      17.231  32.921  54.867  0.00  0.00    -0.063 C 
ATOM     38  H16 PNF d   1      18.309  33.137  54.848  0.00  0.00     0.033 H 
ATOM     39  H17 PNF d   1      16.774  33.253  53.923  0.00  0.00     0.033 H 
BRANCH  37  40
ATOM     40  C15 PNF d   1      17.047  31.385  54.981  0.00  0.00    -0.056 C 
ATOM     41  H18 PNF d   1      16.206  31.197  55.665  0.00  0.00     0.033 H 
ATOM     42  H19 PNF d   1      17.969  30.967  55.410  0.00  0.00     0.033 H 
BRANCH  40  43
ATOM     43  C16 PNF d   1      16.760  30.638  53.667  0.00  0.00     0.016 C 
ATOM     44  H20 PNF d   1      17.715  30.251  53.284  0.00  0.00     0.049 H 
ATOM     45  H21 PNF d   1      16.344  31.362  52.951  0.00  0.00     0.049 H 
BRANCH  43  46
ATOM     46  C17 PNF d   1      15.774  29.452  53.768  0.00  0.00     0.172 C 
ATOM     47  O8  PNF d   1      15.099  29.045  52.837  0.00  0.00    -0.648 OA
ATOM     48  O7  PNF d   1      15.646  28.879  54.789  0.00  0.00    -0.648 OA
ENDBRANCH  43  46
ENDBRANCH  40  43
ENDBRANCH  37  40
ENDBRANCH  34  37
ENDBRANCH  31  34
ENDBRANCH  29  31
ENDBRANCH   1  27
TORSDOF 13
