REMARK  13 active torsions:
REMARK  status: ('A' for Active; 'I' for Inactive)
REMARK    1  A    between atoms: C6_17  and  O2_2 
REMARK    2  A    between atoms: O2_2  and  C23_34 
REMARK    3  A    between atoms: C7_18  and  O3_3 
REMARK    4  A    between atoms: O3_3  and  C24_35 
REMARK    5  A    between atoms: C11_22  and  O5_5 
REMARK    6  A    between atoms: C12_23  and  O6_6 
REMARK    7  A    between atoms: O6_6  and  C27_38 
REMARK    8  A    between atoms: C17_28  and  O7_7 
REMARK    9  A    between atoms: O7_7  and  C29_40 
REMARK       I    between atoms: C24_35  and  N2_11 
REMARK   10  A    between atoms: C2_13  and  C22_33 
REMARK   11  A    between atoms: C8_19  and  C25_36 
REMARK   12  A    between atoms: C10_21  and  C26_37 
REMARK   13  A    between atoms: C14_25  and  C28_39 
ROOT
ATOM      1  O1  GDM d   1      38.435 -50.989  68.147  0.00  0.00    -0.268 OA
ATOM      2  O8  GDM d   1      40.642 -44.516  69.253  0.00  0.00    -0.285 OA
ATOM      3  O9  GDM d   1      42.112 -49.448  68.120  0.00  0.00    -0.285 OA
ATOM      4  N1  GDM d   1      39.589 -49.161  68.817  0.00  0.00    -0.320 N 
ATOM      5  C1  GDM d   1      39.217 -50.118  67.848  0.00  0.00     0.251 C 
ATOM      6  C2  GDM d   1      39.878 -50.073  66.504  0.00  0.00     0.006 C 
ATOM      7  C3  GDM d   1      39.713 -48.980  65.714  0.00  0.00    -0.072 C 
ATOM      8  C4  GDM d   1      40.293 -48.799  64.387  0.00  0.00    -0.083 C 
ATOM      9  C5  GDM d   1      39.856 -47.939  63.444  0.00  0.00    -0.073 C 
ATOM     10  C6  GDM d   1      38.709 -46.995  63.529  0.00  0.00     0.083 C 
ATOM     11  C7  GDM d   1      39.111 -45.501  63.147  0.00  0.00     0.099 C 
ATOM     12  C8  GDM d   1      40.274 -44.880  64.112  0.00  0.00    -0.055 C 
ATOM     13  C9  GDM d   1      41.406 -44.432  63.592  0.00  0.00    -0.092 C 
ATOM     14  C10 GDM d   1      42.567 -43.787  64.288  0.00  0.00    -0.014 C 
ATOM     15  C11 GDM d   1      43.932 -44.337  63.843  0.00  0.00     0.067 C 
ATOM     16  C12 GDM d   1      44.143 -45.789  64.274  0.00  0.00     0.063 C 
ATOM     17  C13 GDM d   1      44.198 -45.976  65.787  0.00  0.00    -0.035 C 
ATOM     18  C14 GDM d   1      44.363 -47.432  66.283  0.00  0.00    -0.051 C 
ATOM     19  C15 GDM d   1      44.162 -47.582  67.831  0.00  0.00    -0.031 C 
ATOM     20  C16 GDM d   1      42.782 -47.190  68.272  0.00  0.00     0.032 A 
ATOM     21  C17 GDM d   1      42.359 -45.958  68.576  0.00  0.00     0.128 A 
ATOM     22  C18 GDM d   1      40.973 -45.667  68.987  0.00  0.00     0.208 A 
ATOM     23  C19 GDM d   1      40.001 -46.762  69.066  0.00  0.00    -0.002 A 
ATOM     24  C20 GDM d   1      40.371 -48.009  68.782  0.00  0.00     0.090 A 
ATOM     25  C21 GDM d   1      41.783 -48.291  68.373  0.00  0.00     0.207 A 
ATOM     26  H2  GDM d   1      39.210 -49.351  69.723  0.00  0.00     0.169 HD
ATOM     27  H5  GDM d   1      39.096 -48.171  66.103  0.00  0.00     0.084 H 
ATOM     28  H6  GDM d   1      41.156 -49.413  64.135  0.00  0.00     0.083 H 
ATOM     29  H7  GDM d   1      40.410 -47.935  62.507  0.00  0.00     0.081 H 
ATOM     30  H8  GDM d   1      38.350 -47.005  64.569  0.00  0.00     0.094 H 
ATOM     31  H9  GDM d   1      39.476 -45.488  62.109  0.00  0.00     0.096 H 
ATOM     32  H10 GDM d   1      41.508 -44.547  62.514  0.00  0.00     0.078 H 
ATOM     33  H11 GDM d   1      42.468 -43.948  65.371  0.00  0.00     0.049 H 
ATOM     34  H12 GDM d   1      43.997 -44.290  62.746  0.00  0.00     0.087 H 
ATOM     35  H13 GDM d   1      43.320 -46.395  63.868  0.00  0.00     0.087 H 
ATOM     36  H14 GDM d   1      43.263 -45.580  66.210  0.00  0.00     0.037 H 
ATOM     37  H15 GDM d   1      45.049 -45.392  66.168  0.00  0.00     0.037 H 
ATOM     38  H16 GDM d   1      45.397 -47.736  66.064  0.00  0.00     0.040 H 
ATOM     39  H17 GDM d   1      44.892 -46.940  68.345  0.00  0.00     0.041 H 
ATOM     40  H18 GDM d   1      44.336 -48.632  68.109  0.00  0.00     0.041 H 
ATOM     41  H19 GDM d   1      38.973 -46.554  69.358  0.00  0.00     0.093 H 
ENDROOT
BRANCH  11  42
ATOM     42  O3  GDM d   1      37.968 -44.717  63.248  0.00  0.00    -0.291 OA
BRANCH  42  43
ATOM     43  C24 GDM d   1      37.970 -43.672  62.356  0.00  0.00     0.359 C 
ATOM     44  O4  GDM d   1      38.937 -43.256  61.763  0.00  0.00    -0.239 OA
ATOM     45  N2  GDM d   1      36.729 -43.186  62.247  0.00  0.00    -0.346 N 
ATOM     46  H3  GDM d   1      36.545 -42.416  61.636  0.00  0.00     0.161 HD
ATOM     47  H4  GDM d   1      35.985 -43.592  62.777  0.00  0.00     0.161 HD
ENDBRANCH  42  43
ENDBRANCH  11  42
BRANCH  10  48
ATOM     48  O2  GDM d   1      37.589 -47.387  62.638  0.00  0.00    -0.384 OA
BRANCH  48  49
ATOM     49  C23 GDM d   1      37.854 -48.536  61.758  0.00  0.00     0.005 C 
ATOM     50  H23 GDM d   1      36.964 -48.740  61.144  0.00  0.00     0.066 H 
ATOM     51  H24 GDM d   1      38.089 -49.420  62.370  0.00  0.00     0.066 H 
ATOM     52  H25 GDM d   1      38.707 -48.307  61.102  0.00  0.00     0.066 H 
ENDBRANCH  48  49
ENDBRANCH  10  48
BRANCH  12  53
ATOM     53  C25 GDM d   1      39.940 -44.815  65.604  0.00  0.00    -0.052 C 
ATOM     54  H26 GDM d   1      40.790 -44.383  66.152  0.00  0.00     0.033 H 
ATOM     55  H27 GDM d   1      39.740 -45.829  65.980  0.00  0.00     0.033 H 
ATOM     56  H28 GDM d   1      39.050 -44.186  65.754  0.00  0.00     0.033 H 
ENDBRANCH  12  53
BRANCH  14  57
ATOM     57  C26 GDM d   1      42.479 -42.276  63.978  0.00  0.00    -0.067 C 
ATOM     58  H29 GDM d   1      41.500 -41.892  64.300  0.00  0.00     0.028 H 
ATOM     59  H30 GDM d   1      42.598 -42.116  62.896  0.00  0.00     0.028 H 
ATOM     60  H31 GDM d   1      43.276 -41.744  64.517  0.00  0.00     0.028 H 
ENDBRANCH  14  57
BRANCH  15  61
ATOM     61  O5  GDM d   1      44.943 -43.478  64.421  0.00  0.00    -0.392 OA
ATOM     62  H1  GDM d   1      45.804 -43.788  64.166  0.00  0.00     0.210 HD
ENDBRANCH  15  61
BRANCH   6  63
ATOM     63  C22 GDM d   1      40.664 -51.289  66.124  0.00  0.00    -0.046 C 
ATOM     64  H20 GDM d   1      40.632 -52.018  66.947  0.00  0.00     0.033 H 
ATOM     65  H21 GDM d   1      41.708 -51.004  65.927  0.00  0.00     0.033 H 
ATOM     66  H22 GDM d   1      40.229 -51.739  65.219  0.00  0.00     0.033 H 
ENDBRANCH   6  63
BRANCH  16  67
ATOM     67  O6  GDM d   1      45.405 -46.265  63.758  0.00  0.00    -0.388 OA
BRANCH  67  68
ATOM     68  C27 GDM d   1      45.400 -46.454  62.308  0.00  0.00     0.005 C 
ATOM     69  H32 GDM d   1      46.386 -46.816  61.982  0.00  0.00     0.066 H 
ATOM     70  H33 GDM d   1      45.179 -45.496  61.814  0.00  0.00     0.066 H 
ATOM     71  H34 GDM d   1      44.631 -47.192  62.037  0.00  0.00     0.066 H 
ENDBRANCH  67  68
ENDBRANCH  16  67
BRANCH  18  72
ATOM     72  C28 GDM d   1      43.452 -48.342  65.511  0.00  0.00    -0.073 C 
ATOM     73  H35 GDM d   1      43.625 -48.206  64.433  0.00  0.00     0.028 H 
ATOM     74  H36 GDM d   1      42.405 -48.100  65.748  0.00  0.00     0.028 H 
ATOM     75  H37 GDM d   1      43.658 -49.387  65.786  0.00  0.00     0.028 H 
ENDBRANCH  18  72
BRANCH  21  76
ATOM     76  O7  GDM d   1      43.245 -44.819  68.520  0.00  0.00    -0.351 OA
BRANCH  76  77
ATOM     77  C29 GDM d   1      44.622 -44.825  68.924  0.00  0.00     0.011 C 
ATOM     78  H38 GDM d   1      45.053 -43.824  68.773  0.00  0.00     0.067 H 
ATOM     79  H39 GDM d   1      45.178 -45.558  68.321  0.00  0.00     0.067 H 
ATOM     80  H40 GDM d   1      44.691 -45.097  69.987  0.00  0.00     0.067 H 
ENDBRANCH  76  77
ENDBRANCH  21  76
TORSDOF 13
