REMARK  6 active torsions:
REMARK  status: ('A' for Active; 'I' for Inactive)
REMARK    1  A    between atoms: P_1  and  O5_5 
REMARK    2  A    between atoms: O5_5  and  C5_6 
REMARK    3  A    between atoms: C5_6  and  C4_7 
REMARK    4  A    between atoms: C3_9  and  O3_10 
REMARK    5  A    between atoms: C2_11  and  O2_12 
REMARK    6  A    between atoms: C1_13  and  N9_14 
ROOT
ATOM      1  C4  IMP d   1      43.395  35.596  62.770  0.00  0.00     0.089 C 
ATOM      2  O4  IMP d   1      43.847  36.823  62.061  0.00  0.00    -0.353 OA
ATOM      3  C3  IMP d   1      44.633  34.654  62.766  0.00  0.00     0.091 C 
ATOM      4  C2  IMP d   1      45.721  35.390  62.007  0.00  0.00     0.105 C 
ATOM      5  C1  IMP d   1      44.894  36.387  61.212  0.00  0.00     0.139 C 
ATOM      6  H3  IMP d   1      42.574  35.095  62.237  0.00  0.00     0.090 H 
ATOM      7  H4  IMP d   1      44.960  34.488  63.803  0.00  0.00     0.091 H 
ATOM      8  H6  IMP d   1      46.374  35.926  62.712  0.00  0.00     0.093 H 
ATOM      9  H8  IMP d   1      44.476  35.891  60.323  0.00  0.00     0.122 H 
ENDROOT
BRANCH   5  10
ATOM     10  N9  IMP d   1      45.714  37.580  60.771  0.00  0.00    -0.294 N 
ATOM     11  C8  IMP d   1      46.052  37.969  59.499  0.00  0.00     0.071 A 
ATOM     12  N7  IMP d   1      46.773  39.049  59.464  0.00  0.00    -0.234 NA
ATOM     13  H9  IMP d   1      45.746  37.425  58.606  0.00  0.00     0.144 H 
ATOM     14  C5  IMP d   1      46.944  39.426  60.763  0.00  0.00     0.172 A 
ATOM     15  C6  IMP d   1      47.649  40.544  61.339  0.00  0.00     0.279 A 
ATOM     16  C4  IMP d   1      46.294  38.534  61.615  0.00  0.00     0.169 A 
ATOM     17  O6  IMP d   1      48.274  41.423  60.738  0.00  0.00    -0.265 OA
ATOM     18  N1  IMP d   1      47.588  40.584  62.774  0.00  0.00    -0.316 N 
ATOM     19  C2  IMP d   1      46.902  39.625  63.530  0.00  0.00     0.069 A 
ATOM     20  H10 IMP d   1      48.055  41.328  63.253  0.00  0.00     0.170 HD
ATOM     21  N3  IMP d   1      46.240  38.575  62.967  0.00  0.00    -0.223 NA
ATOM     22  H11 IMP d   1      46.897  39.722  64.615  0.00  0.00     0.143 H 
ENDBRANCH   5  10
BRANCH   4  23
ATOM     23  O2  IMP d   1      46.546  34.548  61.229  0.00  0.00    -0.388 OA
ATOM     24  H7  IMP d   1      46.015  34.091  60.587  0.00  0.00     0.210 HD
ENDBRANCH   4  23
BRANCH   1  25
ATOM     25  C5  IMP d   1      42.868  36.130  64.090  0.00  0.00     0.059 C 
ATOM     26  H1  IMP d   1      43.504  36.978  64.383  0.00  0.00     0.079 H 
ATOM     27  H2  IMP d   1      41.840  36.483  63.919  0.00  0.00     0.079 H 
BRANCH  25  28
ATOM     28  O5  IMP d   1      42.833  35.199  65.209  0.00  0.00    -0.280 OA
BRANCH  28  29
ATOM     29  P   IMP d   1      42.272  35.804  66.601  0.00  0.00     0.422 P 
ATOM     30  O1P IMP d   1      41.028  36.605  66.407  0.00  0.00    -0.617 OA
ATOM     31  O2P IMP d   1      43.334  36.684  67.181  0.00  0.00    -0.617 OA
ATOM     32  O3P IMP d   1      42.026  34.582  67.502  0.00  0.00    -0.617 OA
ENDBRANCH  28  29
ENDBRANCH  25  28
ENDBRANCH   1  25
BRANCH   3  33
ATOM     33  O3  IMP d   1      44.364  33.381  62.179  0.00  0.00    -0.390 OA
ATOM     34  H5  IMP d   1      45.151  32.850  62.203  0.00  0.00     0.210 HD
ENDBRANCH   3  33
TORSDOF 6
