REMARK  5 active torsions:
REMARK  status: ('A' for Active; 'I' for Inactive)
REMARK    1  A    between atoms: N1_1  and  C3_2 
REMARK    2  A    between atoms: C3_2  and  C4_4 
REMARK    3  A    between atoms: C7_7  and  C10_8 
REMARK    4  A    between atoms: N19_12  and  C23_13 
REMARK    5  A    between atoms: C23_13  and  C24_14 
ROOT
ATOM      1  C10 UIZ d   1      13.975  68.811  12.235  0.00  0.00     0.141 C 
ATOM      2  C22 UIZ d   1      14.512  70.248  12.289  0.00  0.00     0.062 C 
ATOM      3  C20 UIZ d   1      13.469  71.362  12.089  0.00  0.00     0.227 C 
ATOM      4  O21 UIZ d   1      12.411  71.328  11.420  0.00  0.00    -0.273 OA
ATOM      5  N19 UIZ d   1      13.806  72.391  12.946  0.00  0.00    -0.347 N 
ATOM      6  C17 UIZ d   1      14.694  71.939  14.007  0.00  0.00     0.004 C 
ATOM      7  C16 UIZ d   1      14.806  70.397  13.809  0.00  0.00     0.003 C 
ATOM      8  C15 UIZ d   1      13.654  69.585  14.471  0.00  0.00     0.110 C 
ATOM      9  C14 UIZ d   1      14.271  68.649  15.537  0.00  0.00    -0.036 C 
ATOM     10  C13 UIZ d   1      13.314  67.473  15.516  0.00  0.00    -0.040 C 
ATOM     11  C12 UIZ d   1      13.006  67.282  14.003  0.00  0.00     0.085 C 
ATOM     12  N11 UIZ d   1      13.080  68.652  13.424  0.00  0.00    -0.057 N 
ATOM     13  H7  UIZ d   1      14.841  68.149  12.384  0.00  0.00     0.093 H 
ATOM     14  H8  UIZ d   1      15.384  70.382  11.632  0.00  0.00     0.059 H 
ATOM     15  H16 UIZ d   1      14.268  72.172  14.994  0.00  0.00     0.065 H 
ATOM     16  H17 UIZ d   1      15.682  72.414  13.913  0.00  0.00     0.065 H 
ATOM     17  H18 UIZ d   1      15.793  70.018  14.114  0.00  0.00     0.047 H 
ATOM     18  H19 UIZ d   1      12.888  70.249  14.898  0.00  0.00     0.085 H 
ATOM     19  H20 UIZ d   1      14.292  69.129  16.526  0.00  0.00     0.036 H 
ATOM     20  H21 UIZ d   1      15.289  68.341  15.257  0.00  0.00     0.036 H 
ATOM     21  H22 UIZ d   1      12.397  67.703  16.078  0.00  0.00     0.035 H 
ATOM     22  H23 UIZ d   1      13.787  66.574  15.938  0.00  0.00     0.035 H 
ATOM     23  H24 UIZ d   1      12.002  66.856  13.863  0.00  0.00     0.076 H 
ATOM     24  H25 UIZ d   1      13.753  66.623  13.536  0.00  0.00     0.076 H 
ATOM     25  H26 UIZ d   1      12.147  68.938  13.171  0.00  0.00     0.281 HD
ENDROOT
BRANCH   1  26
ATOM     26  C7  UIZ d   1      13.342  68.348  10.954  0.00  0.00    -0.027 A 
ATOM     27  C6  UIZ d   1      14.084  67.597  10.022  0.00  0.00    -0.074 A 
ATOM     28  C5  UIZ d   1      13.491  67.187   8.833  0.00  0.00    -0.069 A 
ATOM     29  H6  UIZ d   1      15.116  67.339  10.231  0.00  0.00     0.084 H 
ATOM     30  C4  UIZ d   1      12.150  67.516   8.558  0.00  0.00     0.007 A 
ATOM     31  H5  UIZ d   1      14.064  66.612   8.115  0.00  0.00     0.085 H 
ATOM     32  C9  UIZ d   1      11.408  68.255   9.485  0.00  0.00    -0.069 A 
ATOM     33  C8  UIZ d   1      12.007  68.662  10.685  0.00  0.00    -0.074 A 
ATOM     34  H28 UIZ d   1      10.376  68.511   9.277  0.00  0.00     0.085 H 
ATOM     35  H27 UIZ d   1      11.430  69.225  11.410  0.00  0.00     0.084 H 
BRANCH  30  36
ATOM     36  C3  UIZ d   1      11.534  67.088   7.344  0.00  0.00     0.102 C 
ATOM     37  N2  UIZ d   1      12.245  66.372   6.432  0.00  0.00    -0.385 N 
ATOM     38  H3  UIZ d   1      13.229  66.134   6.619  0.00  0.00     0.157 HD
ATOM     39  H4  UIZ d   1      11.799  66.068   5.555  0.00  0.00     0.157 HD
BRANCH  36  40
ATOM     40  N1  UIZ d   1      10.266  67.352   7.021  0.00  0.00    -0.385 N 
ATOM     41  H1  UIZ d   1       9.671  67.890   7.667  0.00  0.00     0.157 HD
ATOM     42  H2  UIZ d   1       9.882  67.017   6.126  0.00  0.00     0.157 HD
ENDBRANCH  36  40
ENDBRANCH  30  36
ENDBRANCH   1  26
BRANCH   5  43
ATOM     43  C23 UIZ d   1      12.855  73.557  13.054  0.00  0.00     0.021 C 
ATOM     44  H9  UIZ d   1      13.035  74.048  14.022  0.00  0.00     0.071 H 
ATOM     45  H10 UIZ d   1      11.830  73.157  13.030  0.00  0.00     0.071 H 
BRANCH  43  46
ATOM     46  C24 UIZ d   1      12.964  74.617  11.969  0.00  0.00    -0.037 A 
ATOM     47  C32 UIZ d   1      11.809  75.046  11.238  0.00  0.00    -0.072 A 
ATOM     48  C31 UIZ d   1      11.899  76.036  10.237  0.00  0.00    -0.047 A 
ATOM     49  H11 UIZ d   1      10.846  74.601  11.459  0.00  0.00     0.084 H 
ATOM     50  C30 UIZ d   1      13.167  76.572   9.976  0.00  0.00     0.105 A 
ATOM     51  H12 UIZ d   1      11.023  76.368   9.692  0.00  0.00     0.087 H 
ATOM     52  O29 UIZ d   1      13.514  77.535   9.058  0.00  0.00    -0.323 OA
ATOM     53  C26 UIZ d   1      14.311  76.159  10.677  0.00  0.00     0.105 A 
ATOM     54  C28 UIZ d   1      14.959  77.710   9.204  0.00  0.00     0.115 A 
ATOM     55  O27 UIZ d   1      15.459  76.831  10.246  0.00  0.00    -0.323 OA
ATOM     56  H13 UIZ d   1      15.175  78.754   9.473  0.00  0.00     0.118 H 
ATOM     57  H14 UIZ d   1      15.454  77.466   8.252  0.00  0.00     0.118 H 
ATOM     58  C25 UIZ d   1      14.218  75.177  11.682  0.00  0.00    -0.040 A 
ATOM     59  H15 UIZ d   1      15.101  74.859  12.225  0.00  0.00     0.088 H 
ENDBRANCH  43  46
ENDBRANCH   5  43
TORSDOF 5
