REMARK  7 active torsions:
REMARK  status: ('A' for Active; 'I' for Inactive)
REMARK    1  A    between atoms: N1_1  and  C3_2 
REMARK    2  A    between atoms: C3_2  and  C4_4 
REMARK    3  A    between atoms: C7_7  and  C10_10 
REMARK    4  A    between atoms: C17_17  and  C18_32 
REMARK    5  A    between atoms: N19_18  and  C23_22 
REMARK    6  A    between atoms: C23_22  and  C24_23 
REMARK    7  A    between atoms: C18_32  and  C42_33 
ROOT
ATOM      1  C10 UIP d   1      15.540 -11.324  19.999  0.00  0.00     0.141 C 
ATOM      2  N11 UIP d   1      15.384 -12.539  19.131  0.00  0.00    -0.057 N 
ATOM      3  C12 UIP d   1      14.378 -12.405  18.040  0.00  0.00     0.085 C 
ATOM      4  C13 UIP d   1      15.181 -12.483  16.717  0.00  0.00    -0.040 C 
ATOM      5  C14 UIP d   1      16.585 -12.044  17.090  0.00  0.00    -0.036 C 
ATOM      6  C15 UIP d   1      16.741 -12.705  18.477  0.00  0.00     0.111 C 
ATOM      7  C16 UIP d   1      17.772 -11.860  19.298  0.00  0.00     0.007 C 
ATOM      8  C17 UIP d   1      18.875 -12.805  19.875  0.00  0.00     0.021 C 
ATOM      9  N19 UIP d   1      18.359 -13.241  21.142  0.00  0.00    -0.342 N 
ATOM     10  C20 UIP d   1      17.170 -12.642  21.489  0.00  0.00     0.227 C 
ATOM     11  O21 UIP d   1      16.600 -12.776  22.603  0.00  0.00    -0.273 OA
ATOM     12  C22 UIP d   1      16.966 -11.419  20.560  0.00  0.00     0.062 C 
ATOM     13  H9  UIP d   1      15.496 -10.428  19.362  0.00  0.00     0.093 H 
ATOM     14  H10 UIP d   1      15.151 -13.338  19.700  0.00  0.00     0.281 HD
ATOM     15  H11 UIP d   1      13.857 -11.439  18.116  0.00  0.00     0.076 H 
ATOM     16  H12 UIP d   1      13.645 -13.223  18.092  0.00  0.00     0.076 H 
ATOM     17  H13 UIP d   1      14.751 -11.808  15.962  0.00  0.00     0.035 H 
ATOM     18  H14 UIP d   1      15.187 -13.512  16.327  0.00  0.00     0.035 H 
ATOM     19  H15 UIP d   1      16.662 -10.949  17.154  0.00  0.00     0.036 H 
ATOM     20  H16 UIP d   1      17.330 -12.424  16.375  0.00  0.00     0.036 H 
ATOM     21  H17 UIP d   1      17.045 -13.760  18.406  0.00  0.00     0.085 H 
ATOM     22  H18 UIP d   1      18.190 -11.022  18.721  0.00  0.00     0.047 H 
ATOM     23  H19 UIP d   1      18.974 -13.678  19.213  0.00  0.00     0.073 H 
ATOM     24  H20 UIP d   1      17.301 -10.478  21.021  0.00  0.00     0.059 H 
ENDROOT
BRANCH   1  25
ATOM     25  C7  UIP d   1      14.408 -11.194  20.980  0.00  0.00    -0.027 A 
ATOM     26  C8  UIP d   1      13.658 -12.305  21.375  0.00  0.00    -0.074 A 
ATOM     27  C9  UIP d   1      12.595 -12.166  22.284  0.00  0.00    -0.069 A 
ATOM     28  H6  UIP d   1      13.899 -13.284  20.976  0.00  0.00     0.084 H 
ATOM     29  C4  UIP d   1      12.276 -10.907  22.815  0.00  0.00     0.007 A 
ATOM     30  H5  UIP d   1      12.018 -13.036  22.576  0.00  0.00     0.085 H 
ATOM     31  C5  UIP d   1      13.034  -9.790  22.422  0.00  0.00    -0.069 A 
ATOM     32  C6  UIP d   1      14.064  -9.939  21.512  0.00  0.00    -0.074 A 
ATOM     33  H8  UIP d   1      12.811  -8.812  22.833  0.00  0.00     0.085 H 
ATOM     34  H7  UIP d   1      14.622  -9.064  21.200  0.00  0.00     0.084 H 
BRANCH  29  35
ATOM     35  C3  UIP d   1      11.201 -10.807  23.738  0.00  0.00     0.102 C 
ATOM     36  N2  UIP d   1      10.816  -9.640  24.319  0.00  0.00    -0.385 N 
ATOM     37  H3  UIP d   1      11.314  -8.766  24.098  0.00  0.00     0.157 HD
ATOM     38  H4  UIP d   1      10.026  -9.630  24.980  0.00  0.00     0.157 HD
BRANCH  35  39
ATOM     39  N1  UIP d   1      10.478 -11.879  24.102  0.00  0.00    -0.385 N 
ATOM     40  H1  UIP d   1      10.699 -12.806  23.711  0.00  0.00     0.157 HD
ATOM     41  H2  UIP d   1       9.703 -11.774  24.772  0.00  0.00     0.157 HD
ENDBRANCH  35  39
ENDBRANCH  29  35
ENDBRANCH   1  25
BRANCH   8  42
ATOM     42  C18 UIP d   1      20.276 -12.147  19.973  0.00  0.00    -0.049 C 
ATOM     43  H28 UIP d   1      20.924 -12.765  20.612  0.00  0.00     0.035 H 
ATOM     44  H29 UIP d   1      20.177 -11.143  20.413  0.00  0.00     0.035 H 
BRANCH  42  45
ATOM     45  C42 UIP d   1      20.902 -12.030  18.577  0.00  0.00    -0.075 C 
ATOM     46  H30 UIP d   1      21.894 -11.562  18.658  0.00  0.00     0.027 H 
ATOM     47  H31 UIP d   1      20.256 -11.411  17.936  0.00  0.00     0.027 H 
ATOM     48  H32 UIP d   1      21.004 -13.032  18.136  0.00  0.00     0.027 H 
ENDBRANCH  42  45
ENDBRANCH   8  42
BRANCH   9  49
ATOM     49  C23 UIP d   1      18.859 -14.425  21.928  0.00  0.00     0.022 C 
ATOM     50  H21 UIP d   1      19.307 -15.135  21.218  0.00  0.00     0.071 H 
ATOM     51  H22 UIP d   1      17.993 -14.894  22.418  0.00  0.00     0.071 H 
BRANCH  49  52
ATOM     52  C24 UIP d   1      19.890 -14.126  22.997  0.00  0.00    -0.037 A 
ATOM     53  C32 UIP d   1      19.492 -13.694  24.304  0.00  0.00    -0.072 A 
ATOM     54  C31 UIP d   1      20.382 -13.370  25.350  0.00  0.00    -0.047 A 
ATOM     55  H23 UIP d   1      18.430 -13.610  24.504  0.00  0.00     0.084 H 
ATOM     56  C30 UIP d   1      21.734 -13.458  25.011  0.00  0.00     0.105 A 
ATOM     57  H24 UIP d   1      20.044 -13.076  26.337  0.00  0.00     0.087 H 
ATOM     58  O29 UIP d   1      22.827 -13.062  25.758  0.00  0.00    -0.323 OA
ATOM     59  C26 UIP d   1      22.166 -13.889  23.740  0.00  0.00     0.105 A 
ATOM     60  C28 UIP d   1      23.954 -13.711  25.073  0.00  0.00     0.115 C 
ATOM     61  O27 UIP d   1      23.552 -14.102  23.734  0.00  0.00    -0.323 OA
ATOM     62  H25 UIP d   1      24.261 -14.604  25.638  0.00  0.00     0.118 H 
ATOM     63  H26 UIP d   1      24.798 -13.008  25.011  0.00  0.00     0.118 H 
ATOM     64  C25 UIP d   1      21.262 -14.225  22.705  0.00  0.00    -0.040 A 
ATOM     65  H27 UIP d   1      21.611 -14.545  21.730  0.00  0.00     0.088 H 
ENDBRANCH  49  52
ENDBRANCH   9  49
TORSDOF 7
