REMARK  6 active torsions:
REMARK  status: ('A' for Active; 'I' for Inactive)
REMARK    1  A    between atoms: N1_1  and  C3_2 
REMARK    2  A    between atoms: C3_2  and  C4_3 
REMARK    3  A    between atoms: C7_6  and  C10_7 
REMARK    4  A    between atoms: C17_15  and  C18_14 
REMARK    5  A    between atoms: N19_18  and  C23_22 
REMARK    6  A    between atoms: C23_22  and  C24_23 
ROOT
ATOM      1  C10 UIR d   1      15.467 -11.317  20.035  0.00  0.00     0.141 C 
ATOM      2  N11 UIR d   1      15.340 -12.524  19.157  0.00  0.00    -0.057 N 
ATOM      3  C12 UIR d   1      14.384 -12.360  18.019  0.00  0.00     0.085 C 
ATOM      4  C13 UIR d   1      15.247 -12.459  16.732  0.00  0.00    -0.040 C 
ATOM      5  C14 UIR d   1      16.618 -11.989  17.184  0.00  0.00    -0.036 C 
ATOM      6  C15 UIR d   1      16.724 -12.692  18.565  0.00  0.00     0.111 C 
ATOM      7  C16 UIR d   1      17.720 -11.857  19.421  0.00  0.00     0.008 C 
ATOM      8  C17 UIR d   1      18.829 -12.763  20.055  0.00  0.00     0.025 C 
ATOM      9  N19 UIR d   1      18.228 -13.268  21.259  0.00  0.00    -0.342 N 
ATOM     10  C20 UIR d   1      17.032 -12.662  21.576  0.00  0.00     0.227 C 
ATOM     11  O21 UIR d   1      16.433 -12.795  22.674  0.00  0.00    -0.273 OA
ATOM     12  C22 UIR d   1      16.880 -11.428  20.660  0.00  0.00     0.062 C 
ATOM     13  H5  UIR d   1      15.454 -10.418  19.401  0.00  0.00     0.093 H 
ATOM     14  H6  UIR d   1      15.073 -13.326  19.707  0.00  0.00     0.281 HD
ATOM     15  H7  UIR d   1      13.886 -11.380  18.073  0.00  0.00     0.076 H 
ATOM     16  H8  UIR d   1      13.627 -13.157  18.036  0.00  0.00     0.076 H 
ATOM     17  H9  UIR d   1      14.849 -11.806  15.941  0.00  0.00     0.035 H 
ATOM     18  H10 UIR d   1      15.288 -13.495  16.366  0.00  0.00     0.035 H 
ATOM     19  H11 UIR d   1      16.659 -10.894  17.283  0.00  0.00     0.036 H 
ATOM     20  H12 UIR d   1      17.408 -12.325  16.497  0.00  0.00     0.036 H 
ATOM     21  H13 UIR d   1      17.028 -13.746  18.488  0.00  0.00     0.085 H 
ATOM     22  H14 UIR d   1      18.143 -11.013  18.856  0.00  0.00     0.047 H 
ATOM     23  H16 UIR d   1      18.636 -13.626  19.401  0.00  0.00     0.074 H 
ATOM     24  H21 UIR d   1      17.205 -10.496  21.146  0.00  0.00     0.059 H 
ENDROOT
BRANCH   1  25
ATOM     25  C7  UIR d   1      14.311 -11.180  20.978  0.00  0.00    -0.027 A 
ATOM     26  C8  UIR d   1      13.586 -12.305  21.383  0.00  0.00    -0.074 A 
ATOM     27  C9  UIR d   1      12.548 -12.199  22.309  0.00  0.00    -0.069 A 
ATOM     28  H4  UIR d   1      13.835 -13.276  20.970  0.00  0.00     0.084 H 
ATOM     29  C4  UIR d   1      12.224 -10.946  22.852  0.00  0.00     0.007 A 
ATOM     30  H3  UIR d   1      11.994 -13.081  22.608  0.00  0.00     0.085 H 
ATOM     31  C5  UIR d   1      12.950  -9.817  22.448  0.00  0.00    -0.069 A 
ATOM     32  C6  UIR d   1      13.980  -9.934  21.530  0.00  0.00    -0.074 A 
ATOM     33  H30 UIR d   1      12.703  -8.844  22.858  0.00  0.00     0.085 H 
ATOM     34  H29 UIR d   1      14.537  -9.052  21.235  0.00  0.00     0.084 H 
BRANCH  29  35
ATOM     35  C3  UIR d   1      11.155 -10.842  23.792  0.00  0.00     0.102 C 
ATOM     36  N2  UIR d   1      10.824  -9.640  24.334  0.00  0.00    -0.385 N 
ATOM     37  H31 UIR d   1      11.344  -8.793  24.064  0.00  0.00     0.157 HD
ATOM     38  H32 UIR d   1      10.053  -9.576  25.014  0.00  0.00     0.157 HD
BRANCH  35  39
ATOM     39  N1  UIR d   1      10.392 -11.842  24.239  0.00  0.00    -0.385 N 
ATOM     40  H1  UIR d   1       9.644 -11.653  24.921  0.00  0.00     0.157 HD
ATOM     41  H2  UIR d   1      10.552 -12.802  23.902  0.00  0.00     0.157 HD
ENDBRANCH  35  39
ENDBRANCH  29  35
ENDBRANCH   1  25
BRANCH   8  42
ATOM     42  C18 UIR d   1      20.341 -12.890  19.891  0.00  0.00    -0.034 A 
ATOM     43  C42 UIR d   1      21.164 -12.339  20.380  0.00  0.00    -0.059 A 
ATOM     44  C41 UIR d   1      20.836 -12.019  18.764  0.00  0.00    -0.059 A 
ATOM     45  H17 UIR d   1      22.088 -12.869  20.655  0.00  0.00     0.033 H 
ATOM     46  H18 UIR d   1      20.935 -11.581  21.144  0.00  0.00     0.033 H 
ATOM     47  H19 UIR d   1      20.305 -11.115  18.431  0.00  0.00     0.033 H 
ATOM     48  H20 UIR d   1      21.457 -12.403  17.942  0.00  0.00     0.033 H 
ATOM     49  H15 UIR d   1      20.557 -13.966  19.818  0.00  0.00     0.043 H 
ENDBRANCH   8  42
BRANCH   9  50
ATOM     50  C23 UIR d   1      18.719 -14.417  22.085  0.00  0.00     0.022 C 
ATOM     51  H22 UIR d   1      19.250 -15.110  21.415  0.00  0.00     0.071 H 
ATOM     52  H23 UIR d   1      17.841 -14.922  22.514  0.00  0.00     0.071 H 
BRANCH  50  53
ATOM     53  C24 UIR d   1      19.659 -14.067  23.231  0.00  0.00    -0.037 A 
ATOM     54  C25 UIR d   1      21.038 -14.284  23.027  0.00  0.00    -0.040 A 
ATOM     55  C26 UIR d   1      21.916 -13.962  24.082  0.00  0.00     0.105 A 
ATOM     56  H24 UIR d   1      21.410 -14.685  22.091  0.00  0.00     0.088 H 
ATOM     57  O27 UIR d   1      23.312 -14.114  24.069  0.00  0.00    -0.323 OA
ATOM     58  C30 UIR d   1      21.441 -13.438  25.302  0.00  0.00     0.105 A 
ATOM     59  C28 UIR d   1      23.686 -13.645  25.388  0.00  0.00     0.115 A 
ATOM     60  O29 UIR d   1      22.501 -13.221  26.148  0.00  0.00    -0.323 OA
ATOM     61  H25 UIR d   1      24.373 -12.792  25.286  0.00  0.00     0.118 H 
ATOM     62  H26 UIR d   1      24.190 -14.459  25.930  0.00  0.00     0.118 H 
ATOM     63  C31 UIR d   1      20.081 -13.223  25.557  0.00  0.00    -0.047 A 
ATOM     64  C32 UIR d   1      19.214 -13.537  24.483  0.00  0.00    -0.072 A 
ATOM     65  H27 UIR d   1      19.719 -12.844  26.506  0.00  0.00     0.087 H 
ATOM     66  H28 UIR d   1      18.152 -13.366  24.617  0.00  0.00     0.084 H 
ENDBRANCH  50  53
ENDBRANCH   9  50
TORSDOF 6
