REMARK  10 active torsions:
REMARK  status: ('A' for Active; 'I' for Inactive)
REMARK    1  A    between atoms: N1_1  and  C3_2 
REMARK    2  A    between atoms: C3_2  and  C4_4 
REMARK    3  A    between atoms: C7_7  and  C10_8 
REMARK    4  A    between atoms: C15_11  and  C13_12 
REMARK    5  A    between atoms: C15_11  and  C14_13 
REMARK    6  A    between atoms: N11_14  and  C12_15 
REMARK    7  A    between atoms: C17_16  and  C18_30 
REMARK    8  A    between atoms: N19_17  and  C23_18 
REMARK    9  A    between atoms: C23_18  and  C24_19 
REMARK   10  A    between atoms: C18_30  and  C41_31 
ROOT
ATOM      1  C10 UIB d   1      15.699 -11.380  19.956  0.00  0.00     0.141 C 
ATOM      2  C22 UIB d   1      17.183 -11.528  20.358  0.00  0.00     0.063 C 
ATOM      3  C16 UIB d   1      17.884 -12.038  19.083  0.00  0.00     0.011 C 
ATOM      4  C15 UIB d   1      16.730 -12.632  18.239  0.00  0.00     0.127 C 
ATOM      5  N11 UIB d   1      15.493 -12.494  19.023  0.00  0.00    -0.057 N 
ATOM      6  C17 UIB d   1      18.936 -13.057  19.592  0.00  0.00     0.021 C 
ATOM      7  N19 UIB d   1      18.519 -13.372  20.951  0.00  0.00    -0.342 N 
ATOM      8  C20 UIB d   1      17.435 -12.654  21.373  0.00  0.00     0.227 C 
ATOM      9  O21 UIB d   1      16.870 -12.762  22.493  0.00  0.00    -0.273 OA
ATOM     10  H7  UIB d   1      15.635 -10.448  19.375  0.00  0.00     0.093 H 
ATOM     11  H8  UIB d   1      17.589 -10.571  20.718  0.00  0.00     0.059 H 
ATOM     12  H9  UIB d   1      18.382 -11.230  18.527  0.00  0.00     0.048 H 
ATOM     13  H16 UIB d   1      15.382 -13.334  19.569  0.00  0.00     0.281 HD
ATOM     14  H20 UIB d   1      18.959 -13.954  18.956  0.00  0.00     0.073 H 
ENDROOT
BRANCH   1  15
ATOM     15  C7  UIB d   1      14.619 -11.234  20.992  0.00  0.00    -0.027 A 
ATOM     16  C6  UIB d   1      14.289  -9.968  21.529  0.00  0.00    -0.074 A 
ATOM     17  C5  UIB d   1      13.272  -9.817  22.453  0.00  0.00    -0.069 A 
ATOM     18  H6  UIB d   1      14.847  -9.095  21.209  0.00  0.00     0.084 H 
ATOM     19  C4  UIB d   1      12.510 -10.909  22.915  0.00  0.00     0.007 A 
ATOM     20  H5  UIB d   1      13.053  -8.826  22.835  0.00  0.00     0.085 H 
ATOM     21  C9  UIB d   1      12.840 -12.164  22.388  0.00  0.00    -0.069 A 
ATOM     22  C8  UIB d   1      13.889 -12.329  21.471  0.00  0.00    -0.074 A 
ATOM     23  H34 UIB d   1      12.269 -13.032  22.697  0.00  0.00     0.085 H 
ATOM     24  H33 UIB d   1      14.140 -13.325  21.126  0.00  0.00     0.084 H 
BRANCH  19  25
ATOM     25  C3  UIB d   1      11.462 -10.770  23.882  0.00  0.00     0.102 C 
ATOM     26  N2  UIB d   1      11.072  -9.597  24.462  0.00  0.00    -0.385 N 
ATOM     27  H3  UIB d   1      11.549  -8.718  24.216  0.00  0.00     0.157 HD
ATOM     28  H4  UIB d   1      10.301  -9.592  25.145  0.00  0.00     0.157 HD
BRANCH  25  29
ATOM     29  N1  UIB d   1      10.729 -11.801  24.324  0.00  0.00    -0.385 N 
ATOM     30  H1  UIB d   1      10.912 -12.751  23.972  0.00  0.00     0.157 HD
ATOM     31  H2  UIB d   1       9.983 -11.643  25.016  0.00  0.00     0.157 HD
ENDBRANCH  25  29
ENDBRANCH  19  25
ENDBRANCH   1  15
BRANCH   5  32
ATOM     32  C12 UIB d   1      14.270 -12.366  18.202  0.00  0.00     0.068 C 
ATOM     33  H17 UIB d   1      13.395 -12.268  18.861  0.00  0.00     0.068 H 
ATOM     34  H18 UIB d   1      14.156 -13.260  17.572  0.00  0.00     0.068 H 
ATOM     35  H19 UIB d   1      14.349 -11.475  17.562  0.00  0.00     0.068 H 
ENDBRANCH   5  32
BRANCH   4  36
ATOM     36  C13 UIB d   1      16.938 -14.114  17.835  0.00  0.00    -0.045 C 
ATOM     37  H10 UIB d   1      16.078 -14.456  17.241  0.00  0.00     0.030 H 
ATOM     38  H11 UIB d   1      17.027 -14.732  18.741  0.00  0.00     0.030 H 
ATOM     39  H12 UIB d   1      17.856 -14.206  17.237  0.00  0.00     0.030 H 
ENDBRANCH   4  36
BRANCH   4  40
ATOM     40  C14 UIB d   1      16.721 -11.793  16.943  0.00  0.00    -0.045 C 
ATOM     41  H13 UIB d   1      16.575 -10.732  17.194  0.00  0.00     0.030 H 
ATOM     42  H14 UIB d   1      15.901 -12.132  16.292  0.00  0.00     0.030 H 
ATOM     43  H15 UIB d   1      17.680 -11.917  16.419  0.00  0.00     0.030 H 
ENDBRANCH   4  40
BRANCH   6  44
ATOM     44  C18 UIB d   1      20.333 -12.411  19.663  0.00  0.00    -0.049 C 
ATOM     45  H28 UIB d   1      21.009 -13.054  20.245  0.00  0.00     0.035 H 
ATOM     46  H29 UIB d   1      20.261 -11.424  20.143  0.00  0.00     0.035 H 
BRANCH  44  47
ATOM     47  C41 UIB d   1      20.875 -12.252  18.229  0.00  0.00    -0.075 C 
ATOM     48  H30 UIB d   1      21.873 -11.791  18.263  0.00  0.00     0.027 H 
ATOM     49  H31 UIB d   1      20.195 -11.611  17.649  0.00  0.00     0.027 H 
ATOM     50  H32 UIB d   1      20.944 -13.240  17.751  0.00  0.00     0.027 H 
ENDBRANCH  44  47
ENDBRANCH   6  44
BRANCH   7  51
ATOM     51  C23 UIB d   1      19.041 -14.506  21.787  0.00  0.00     0.022 C 
ATOM     52  H21 UIB d   1      19.533 -15.230  21.121  0.00  0.00     0.071 H 
ATOM     53  H22 UIB d   1      18.189 -14.989  22.287  0.00  0.00     0.071 H 
BRANCH  51  54
ATOM     54  C24 UIB d   1      20.043 -14.077  22.853  0.00  0.00    -0.037 A 
ATOM     55  C32 UIB d   1      19.599 -13.636  24.138  0.00  0.00    -0.072 A 
ATOM     56  C31 UIB d   1      20.493 -13.327  25.187  0.00  0.00    -0.047 A 
ATOM     57  H23 UIB d   1      18.534 -13.535  24.314  0.00  0.00     0.084 H 
ATOM     58  C30 UIB d   1      21.855 -13.477  24.871  0.00  0.00     0.105 A 
ATOM     59  H24 UIB d   1      20.154 -12.999  26.163  0.00  0.00     0.087 H 
ATOM     60  C26 UIB d   1      22.308 -13.903  23.610  0.00  0.00     0.105 A 
ATOM     61  O29 UIB d   1      22.930 -13.235  25.695  0.00  0.00    -0.323 OA
ATOM     62  C25 UIB d   1      21.412 -14.216  22.568  0.00  0.00    -0.040 A 
ATOM     63  O27 UIB d   1      23.700 -13.973  23.535  0.00  0.00    -0.323 OA
ATOM     64  H25 UIB d   1      21.761 -14.547  21.597  0.00  0.00     0.088 H 
ATOM     65  C28 UIB d   1      24.103 -13.550  24.869  0.00  0.00     0.115 A 
ATOM     66  H26 UIB d   1      24.737 -12.655  24.787  0.00  0.00     0.118 H 
ATOM     67  H27 UIB d   1      24.673 -14.360  25.347  0.00  0.00     0.118 H 
ENDBRANCH  51  54
ENDBRANCH   7  51
TORSDOF 10
