REMARK  5 active torsions:
REMARK  status: ('A' for Active; 'I' for Inactive)
REMARK    1  A    between atoms: P9_2  and  C8_5 
REMARK    2  A    between atoms: C8_5  and  O13_6 
REMARK    3  A    between atoms: C8_5  and  P14_7 
REMARK    4  A    between atoms: C8_5  and  C7_11 
REMARK    5  A    between atoms: C7_11  and  C2_12 
ROOT
ATOM      1  C7  RIS d   1      15.178  33.105  -7.475  0.00  0.00     0.015 C 
ATOM      2  H2  RIS d   1      14.320  33.283  -6.810  0.00  0.00     0.046 H 
ATOM      3  H3  RIS d   1      16.108  33.131  -6.889  0.00  0.00     0.046 H 
ENDROOT
BRANCH   1   4
ATOM      4  C8  RIS d   1      15.230  34.251  -8.500  0.00  0.00     0.289 C 
BRANCH   4   5
ATOM      5  P9  RIS d   1      15.622  35.751  -7.544  0.00  0.00     0.310 P 
ATOM      6  O12 RIS d   1      17.113  35.648  -7.173  0.00  0.00    -0.637 OA
ATOM      7  O11 RIS d   1      15.241  36.868  -8.470  0.00  0.00    -0.637 OA
ATOM      8  O10 RIS d   1      14.653  35.708  -6.438  0.00  0.00    -0.637 OA
ENDBRANCH   4   5
BRANCH   4   9
ATOM      9  O13 RIS d   1      13.955  34.413  -9.088  0.00  0.00    -0.365 OA
ATOM     10  H1  RIS d   1      13.966  35.170  -9.662  0.00  0.00     0.212 HD
ENDBRANCH   4   9
BRANCH   4  11
ATOM     11  P14 RIS d   1      16.439  34.086  -9.835  0.00  0.00     0.310 P 
ATOM     12  O16 RIS d   1      16.573  35.455 -10.377  0.00  0.00    -0.637 OA
ATOM     13  O15 RIS d   1      17.632  33.737  -9.097  0.00  0.00    -0.637 OA
ATOM     14  O17 RIS d   1      16.243  33.140 -11.018  0.00  0.00    -0.637 OA
ENDBRANCH   4  11
ENDBRANCH   1   4
BRANCH   1  15
ATOM     15  C2  RIS d   1      15.033  31.707  -8.064  0.00  0.00    -0.036 A 
ATOM     16  C1  RIS d   1      15.635  30.660  -7.381  0.00  0.00    -0.074 A 
ATOM     17  C6  RIS d   1      15.521  29.372  -7.883  0.00  0.00    -0.066 A 
ATOM     18  H4  RIS d   1      16.187  30.846  -6.467  0.00  0.00     0.084 H 
ATOM     19  C5  RIS d   1      14.775  29.144  -8.999  0.00  0.00     0.002 A 
ATOM     20  H5  RIS d   1      16.024  28.549  -7.388  0.00  0.00     0.085 H 
ATOM     21  N4  RIS d   1      14.190  30.147  -9.642  0.00  0.00    -0.273 NA
ATOM     22  H6  RIS d   1      14.657  28.131  -9.367  0.00  0.00     0.114 H 
ATOM     23  C3  RIS d   1      14.286  31.404  -9.191  0.00  0.00     0.008 A 
ATOM     24  H7  RIS d   1      13.770  32.199  -9.717  0.00  0.00     0.115 H 
ENDBRANCH   1  15
TORSDOF 5
