REMARK  5 active torsions:
REMARK  status: ('A' for Active; 'I' for Inactive)
REMARK    1  A    between atoms: N4_32  and  C1_1 
REMARK    2  A    between atoms: C2_4  and  C17_20 
REMARK    3  A    between atoms: C3_5  and  C5_6 
REMARK    4  A    between atoms: C10_13  and  C16_19 
REMARK    5  A    between atoms: C27_30  and  C10_13 
ROOT
ATOM      1  C1  6NP d   1      23.643  14.929  32.101  0.00  0.00     0.148 A 
ATOM      2  N1  6NP d   1      22.471  15.633  32.196  0.00  0.00    -0.132 NA
ATOM      3  N2  6NP d   1      21.314  14.948  32.296  0.00  0.00    -0.147 NA
ATOM      4  C2  6NP d   1      21.182  13.571  32.315  0.00  0.00     0.100 A 
ATOM      5  C3  6NP d   1      22.479  12.769  32.212  0.00  0.00     0.009 A 
ATOM      6  C4  6NP d   1      23.657  13.507  32.108  0.00  0.00    -0.024 A 
ATOM      7  H5  6NP d   1      24.604  12.986  32.031  0.00  0.00     0.090 H 
ENDROOT
BRANCH   1   8
ATOM      8  N4  6NP d   1      24.832  15.681  31.989  0.00  0.00    -0.361 N 
ATOM      9  C28 6NP d   1      26.172  15.050  32.023  0.00  0.00     0.023 C 
ATOM     10  C27 6NP d   1      26.602  14.818  30.559  0.00  0.00     0.121 C 
ATOM     11  H21 6NP d   1      26.889  15.715  32.526  0.00  0.00     0.067 H 
ATOM     12  H22 6NP d   1      26.124  14.090  32.559  0.00  0.00     0.067 H 
ATOM     13  N5  6NP d   1      26.705  16.130  29.882  0.00  0.00    -0.068 N 
ATOM     14  H20 6NP d   1      25.792  14.258  30.068  0.00  0.00     0.087 H 
ATOM     15  C30 6NP d   1      25.425  16.889  29.889  0.00  0.00     0.097 C 
ATOM     16  H27 6NP d   1      26.983  15.977  28.925  0.00  0.00     0.277 HD
ATOM     17  H28 6NP d   1      27.407  16.680  30.352  0.00  0.00     0.277 HD
ATOM     18  C29 6NP d   1      24.796  17.003  31.304  0.00  0.00     0.019 C 
ATOM     19  H25 6NP d   1      25.616  17.903  29.508  0.00  0.00     0.078 H 
ATOM     20  H26 6NP d   1      24.710  16.377  29.228  0.00  0.00     0.078 H 
ATOM     21  H23 6NP d   1      25.364  17.735  31.896  0.00  0.00     0.066 H 
ATOM     22  H24 6NP d   1      23.752  17.337  31.212  0.00  0.00     0.066 H 
BRANCH  10  23
ATOM     23  C10 6NP d   1      27.870  13.963  30.408  0.00  0.00    -0.013 C 
ATOM     24  H6  6NP d   1      28.259  14.080  29.386  0.00  0.00     0.043 H 
ATOM     25  H7  6NP d   1      28.623  14.312  31.129  0.00  0.00     0.043 H 
BRANCH  23  26
ATOM     26  C16 6NP d   1      27.591  12.493  30.662  0.00  0.00    -0.056 A 
ATOM     27  C11 6NP d   1      26.824  11.731  29.729  0.00  0.00    -0.077 A 
ATOM     28  C12 6NP d   1      26.555  10.360  29.957  0.00  0.00    -0.082 A 
ATOM     29  H8  6NP d   1      26.443  12.209  28.834  0.00  0.00     0.084 H 
ATOM     30  C13 6NP d   1      27.048   9.734  31.122  0.00  0.00    -0.083 A 
ATOM     31  H9  6NP d   1      25.973   9.793  29.240  0.00  0.00     0.083 H 
ATOM     32  C14 6NP d   1      27.814  10.480  32.057  0.00  0.00    -0.082 A 
ATOM     33  H10 6NP d   1      26.842   8.685  31.303  0.00  0.00     0.083 H 
ATOM     34  C15 6NP d   1      28.083  11.851  31.827  0.00  0.00    -0.077 A 
ATOM     35  H11 6NP d   1      28.194   9.998  32.950  0.00  0.00     0.083 H 
ATOM     36  H12 6NP d   1      28.668  12.413  32.546  0.00  0.00     0.084 H 
ENDBRANCH  23  26
ENDBRANCH  10  23
ENDBRANCH   1   8
BRANCH   5  37
ATOM     37  C5  6NP d   1      22.531  11.251  32.218  0.00  0.00    -0.021 A 
ATOM     38  C6  6NP d   1      23.223  10.561  33.237  0.00  0.00    -0.055 A 
ATOM     39  C7  6NP d   1      23.249   9.152  33.226  0.00  0.00     0.003 A 
ATOM     40  H1  6NP d   1      23.730  11.111  34.022  0.00  0.00     0.087 H 
ATOM     41  N3  6NP d   1      22.627   8.409  32.265  0.00  0.00    -0.273 NA
ATOM     42  H2  6NP d   1      23.786   8.637  34.014  0.00  0.00     0.114 H 
ATOM     43  C8  6NP d   1      21.956   9.069  31.275  0.00  0.00     0.003 A 
ATOM     44  C9  6NP d   1      21.888  10.473  31.218  0.00  0.00    -0.055 A 
ATOM     45  H3  6NP d   1      21.458   8.490  30.506  0.00  0.00     0.114 H 
ATOM     46  H4  6NP d   1      21.347  10.959  30.414  0.00  0.00     0.087 H 
ENDBRANCH   5  37
BRANCH   4  47
ATOM     47  C17 6NP d   1      19.810  12.961  32.427  0.00  0.00    -0.004 A 
ATOM     48  C18 6NP d   1      18.884  13.141  31.370  0.00  0.00    -0.060 A 
ATOM     49  C19 6NP d   1      17.585  12.541  31.454  0.00  0.00    -0.025 A 
ATOM     50  H13 6NP d   1      19.157  13.730  30.502  0.00  0.00     0.086 H 
ATOM     51  C20 6NP d   1      17.210  11.748  32.614  0.00  0.00    -0.026 A 
ATOM     52  C23 6NP d   1      16.648  12.713  30.386  0.00  0.00    -0.072 A 
ATOM     53  C21 6NP d   1      18.148  11.583  33.666  0.00  0.00    -0.071 A 
ATOM     54  C26 6NP d   1      15.917  11.143  32.688  0.00  0.00    -0.072 A 
ATOM     55  C22 6NP d   1      19.429  12.185  33.564  0.00  0.00    -0.070 A 
ATOM     56  H14 6NP d   1      17.887  11.001  34.542  0.00  0.00     0.084 H 
ATOM     57  H15 6NP d   1      20.139  12.052  34.372  0.00  0.00     0.084 H 
ATOM     58  C25 6NP d   1      15.003  11.325  31.611  0.00  0.00    -0.082 A 
ATOM     59  H19 6NP d   1      15.636  10.553  33.553  0.00  0.00     0.084 H 
ATOM     60  C24 6NP d   1      15.362  12.102  30.471  0.00  0.00    -0.082 A 
ATOM     61  H18 6NP d   1      14.022  10.867  31.659  0.00  0.00     0.083 H 
ATOM     62  H17 6NP d   1      14.652  12.229  29.662  0.00  0.00     0.083 H 
ATOM     63  H16 6NP d   1      16.914  13.304  29.517  0.00  0.00     0.084 H 
ENDBRANCH   4  47
TORSDOF 5
