REMARK  7 active torsions:
REMARK  status: ('A' for Active; 'I' for Inactive)
REMARK    1  A    between atoms: C1_1  and  S15_9 
REMARK    2  A    between atoms: C3_3  and  C11_8 
REMARK    3  A    between atoms: S15_9  and  N16_10 
REMARK    4  A    between atoms: N16_10  and  C17_11 
REMARK    5  A    between atoms: C17_11  and  C18_12 
REMARK    6  A    between atoms: C17_11  and  C27_18 
REMARK       I    between atoms: C18_12  and  N19_13 
REMARK    7  A    between atoms: N19_13  and  O20_14 
ROOT
ATOM      1  C17 915 d   1      11.899  17.924  26.507  0.00  0.00     0.102 C 
ATOM      2  H8  915 d   1      12.142  18.657  25.723  0.00  0.00     0.089 H 
ENDROOT
BRANCH   1   3
ATOM      3  N16 915 d   1      10.439  17.790  26.514  0.00  0.00    -0.301 N 
ATOM      4  H7  915 d   1      10.010  16.903  26.685  0.00  0.00     0.173 HD
BRANCH   3   5
ATOM      5  S15 915 d   1       9.470  19.196  26.221  0.00  0.00     0.259 S 
ATOM      6  O22 915 d   1      10.362  19.962  25.420  0.00  0.00    -0.201 OA
ATOM      7  O23 915 d   1       8.179  18.742  25.731  0.00  0.00    -0.201 OA
BRANCH   5   8
ATOM      8  C1  915 d   1       9.227  20.017  27.768  0.00  0.00     0.080 A 
ATOM      9  C2  915 d   1       8.293  19.475  28.707  0.00  0.00    -0.052 A 
ATOM     10  C3  915 d   1       8.050  20.167  29.921  0.00  0.00    -0.022 A 
ATOM     11  H1  915 d   1       7.777  18.546  28.493  0.00  0.00     0.086 H 
ATOM     12  C4  915 d   1       8.762  21.371  30.150  0.00  0.00     0.122 A 
ATOM     13  C5  915 d   1       9.737  21.895  29.231  0.00  0.00    -0.044 A 
ATOM     14  F10 915 d   1       8.523  22.066  31.274  0.00  0.00    -0.206 F 
ATOM     15  C6  915 d   1       9.947  21.215  28.039  0.00  0.00    -0.057 A 
ATOM     16  H2  915 d   1      10.293  22.796  29.463  0.00  0.00     0.088 H 
ATOM     17  H3  915 d   1      10.659  21.596  27.315  0.00  0.00     0.086 H 
BRANCH  10  18
ATOM     18  C11 915 d   1       7.032  19.658  30.907  0.00  0.00    -0.048 C 
ATOM     19  H4  915 d   1       6.602  18.716  30.536  0.00  0.00     0.033 H 
ATOM     20  H5  915 d   1       6.233  20.404  31.027  0.00  0.00     0.033 H 
ATOM     21  H6  915 d   1       7.518  19.482  31.878  0.00  0.00     0.033 H 
ENDBRANCH  10  18
ENDBRANCH   5   8
ENDBRANCH   3   5
ENDBRANCH   1   3
BRANCH   1  22
ATOM     22  C18 915 d   1      12.469  18.438  27.846  0.00  0.00     0.264 C 
ATOM     23  N19 915 d   1      13.390  19.438  27.723  0.00  0.00    -0.236 N 
ATOM     24  H9  915 d   1      13.642  19.792  26.822  0.00  0.00     0.197 HD
ATOM     25  O21 915 d   1      12.160  17.999  28.917  0.00  0.00    -0.269 OA
BRANCH  23  26
ATOM     26  O20 915 d   1      13.969  19.952  28.873  0.00  0.00    -0.287 OA
ATOM     27  H10 915 d   1      14.585  20.636  28.638  0.00  0.00     0.244 HD
ENDBRANCH  23  26
ENDBRANCH   1  22
BRANCH   1  28
ATOM     28  C27 915 d   1      12.671  16.626  26.200  0.00  0.00    -0.022 C 
ATOM     29  C29 915 d   1      12.371  15.942  24.822  0.00  0.00    -0.040 C 
ATOM     30  C30 915 d   1      13.160  14.664  24.562  0.00  0.00     0.020 C 
ATOM     31  H12 915 d   1      12.609  16.660  24.024  0.00  0.00     0.036 H 
ATOM     32  H13 915 d   1      11.299  15.697  24.787  0.00  0.00     0.036 H 
ATOM     33  O31 915 d   1      14.542  14.927  24.700  0.00  0.00    -0.391 OA
ATOM     34  H14 915 d   1      12.955  14.307  23.542  0.00  0.00     0.074 H 
ATOM     35  H15 915 d   1      12.859  13.893  25.287  0.00  0.00     0.074 H 
ATOM     36  C32 915 d   1      14.942  15.430  25.993  0.00  0.00     0.020 C 
ATOM     37  C33 915 d   1      14.210  16.748  26.305  0.00  0.00    -0.040 C 
ATOM     38  H16 915 d   1      16.027  15.609  25.992  0.00  0.00     0.074 H 
ATOM     39  H17 915 d   1      14.694  14.686  26.764  0.00  0.00     0.074 H 
ATOM     40  H18 915 d   1      14.468  17.058  27.328  0.00  0.00     0.036 H 
ATOM     41  H19 915 d   1      14.550  17.515  25.593  0.00  0.00     0.036 H 
ATOM     42  H11 915 d   1      12.353  15.916  26.977  0.00  0.00     0.044 H 
ENDBRANCH   1  28
TORSDOF 7
