REMARK  1 active torsions:
REMARK  status: ('A' for Active; 'I' for Inactive)
REMARK    1  A    between atoms: C9_3  and  C10_4 
ROOT
ATOM      1  C2  TMG d   1      24.347 -13.385   8.308  0.00  0.00     0.086 C 
ATOM      2  N7  TMG d   1      23.439 -12.544   7.785  0.00  0.00    -0.227 NA
ATOM      3  C9  TMG d   1      23.806 -12.177   6.606  0.00  0.00     0.158 C 
ATOM      4  N8  TMG d   1      25.073 -12.530   6.306  0.00  0.00    -0.337 N 
ATOM      5  C6  TMG d   1      25.360 -13.429   7.362  0.00  0.00     0.062 C 
ATOM      6  C5  TMG d   1      26.559 -14.080   7.627  0.00  0.00    -0.055 C 
ATOM      7  C4  TMG d   1      26.557 -14.864   8.787  0.00  0.00    -0.081 C 
ATOM      8  C3  TMG d   1      25.501 -14.870   9.714  0.00  0.00    -0.081 C 
ATOM      9  C1  TMG d   1      24.347 -14.114   9.490  0.00  0.00    -0.053 C 
ATOM     10  H3  TMG d   1      25.669 -12.228   5.522  0.00  0.00     0.167 HD
ATOM     11  H4  TMG d   1      27.428 -13.988   6.986  0.00  0.00     0.087 H 
ATOM     12  H5  TMG d   1      27.414 -15.499   8.980  0.00  0.00     0.083 H 
ATOM     13  H6  TMG d   1      25.582 -15.469  10.614  0.00  0.00     0.083 H 
ATOM     14  H7  TMG d   1      23.516 -14.098  10.186  0.00  0.00     0.087 H 
ENDROOT
BRANCH   3  15
ATOM     15  C10 TMG d   1      23.028 -11.142   5.925  0.00  0.00     0.109 C 
ATOM     16  C14 TMG d   1      23.239 -10.582   4.734  0.00  0.00    -0.012 C 
ATOM     17  S13 TMG d   1      21.855  -9.547   4.235  0.00  0.00    -0.092 SA
ATOM     18  H1  TMG d   1      24.137 -10.732   4.137  0.00  0.00     0.098 H 
ATOM     19  C12 TMG d   1      21.043  -9.982   5.759  0.00  0.00     0.040 C 
ATOM     20  N11 TMG d   1      21.711 -10.824   6.416  0.00  0.00    -0.250 NA
ATOM     21  H2  TMG d   1      20.088  -9.571   6.083  0.00  0.00     0.126 H 
ENDBRANCH   3  15
TORSDOF 1
