REMARK  14 active torsions:
REMARK  status: ('A' for Active; 'I' for Inactive)
REMARK    1  A    between atoms: C23_28  and  C1_1 
REMARK    2  A    between atoms: C16_10  and  C17_24 
REMARK    3  A    between atoms: C17_24  and  C19_11 
REMARK    4  A    between atoms: C27_14  and  N26_13 
REMARK    5  A    between atoms: N26_13  and  C25_30 
REMARK    6  A    between atoms: N26_13  and  S32_33 
REMARK    7  A    between atoms: C28_31  and  C27_14 
REMARK    8  A    between atoms: C29_32  and  C30_15 
REMARK    9  A    between atoms: C29_32  and  C31_16 
REMARK   10  A    between atoms: S32_33  and  C35_17 
REMARK   11  A    between atoms: C17_24  and  C18_25 
REMARK   12  A    between atoms: C23_28  and  O24_29 
REMARK   13  A    between atoms: C25_30  and  C23_28 
REMARK   14  A    between atoms: C28_31  and  C29_32 
ROOT
ATOM      1  C1  HBB d   1       5.669  -0.238  14.342  0.00  0.00     0.042 C 
ATOM      2  C2  HBB d   1       7.083   0.374  14.255  0.00  0.00    -0.020 C 
ATOM      3  C3  HBB d   1       7.348   1.086  12.945  0.00  0.00    -0.056 A 
ATOM      4  C7  HBB d   1       7.741   1.022  10.554  0.00  0.00    -0.050 A 
ATOM      5  C8  HBB d   1       7.606   0.370  11.768  0.00  0.00    -0.074 A 
ATOM      6  C10 HBB d   1       6.325   3.084   8.776  0.00  0.00     0.026 C 
ATOM      7  C11 HBB d   1       5.498   4.253   9.360  0.00  0.00    -0.037 C 
ATOM      8  C12 HBB d   1       4.001   3.961   9.469  0.00  0.00     0.011 C 
ATOM      9  C13 HBB d   1       3.562   3.424  10.820  0.00  0.00     0.218 C 
ATOM     10  C16 HBB d   1       2.973   1.464  12.181  0.00  0.00     0.092 C 
ATOM     11  C20 HBB d   1       3.926   0.366  12.694  0.00  0.00     0.241 C 
ATOM     12  C4  HBB d   1       7.245   2.474  12.864  0.00  0.00    -0.074 A 
ATOM     13  C5  HBB d   1       7.379   3.127  11.658  0.00  0.00    -0.050 A 
ATOM     14  C6  HBB d   1       7.618   2.399  10.504  0.00  0.00     0.068 A 
ATOM     15  O9  HBB d   1       7.663   3.055   9.291  0.00  0.00    -0.351 OA
ATOM     16  O14 HBB d   1       3.435   4.187  11.785  0.00  0.00    -0.274 OA
ATOM     17  N15 HBB d   1       3.397   2.103  10.910  0.00  0.00    -0.347 N 
ATOM     18  O21 HBB d   1       3.957  -0.755  12.155  0.00  0.00    -0.271 OA
ATOM     19  N22 HBB d   1       4.682   0.698  13.747  0.00  0.00    -0.352 N 
ATOM     20  H1  HBB d   1       5.653  -1.178  13.771  0.00  0.00     0.077 H 
ATOM     21  H2  HBB d   1       7.821  -0.434  14.369  0.00  0.00     0.043 H 
ATOM     22  H3  HBB d   1       7.202   1.097  15.075  0.00  0.00     0.043 H 
ATOM     23  H4  HBB d   1       7.941   0.458   9.650  0.00  0.00     0.087 H 
ATOM     24  H5  HBB d   1       7.701  -0.709  11.809  0.00  0.00     0.084 H 
ATOM     25  H6  HBB d   1       6.369   3.193   7.682  0.00  0.00     0.075 H 
ATOM     26  H7  HBB d   1       5.827   2.137   9.030  0.00  0.00     0.075 H 
ATOM     27  H8  HBB d   1       5.633   5.131   8.711  0.00  0.00     0.036 H 
ATOM     28  H9  HBB d   1       5.881   4.479  10.366  0.00  0.00     0.036 H 
ATOM     29  H10 HBB d   1       3.739   3.217   8.702  0.00  0.00     0.047 H 
ATOM     30  H11 HBB d   1       3.454   4.895   9.276  0.00  0.00     0.047 H 
ATOM     31  H12 HBB d   1       2.968   2.257  12.943  0.00  0.00     0.088 H 
ATOM     32  H24 HBB d   1       7.057   3.049  13.764  0.00  0.00     0.084 H 
ATOM     33  H25 HBB d   1       7.298   4.207  11.613  0.00  0.00     0.087 H 
ATOM     34  H26 HBB d   1       3.562   1.532  10.106  0.00  0.00     0.163 HD
ATOM     35  H31 HBB d   1       4.579   1.609  14.147  0.00  0.00     0.163 HD
ENDROOT
BRANCH   1  36
ATOM     36  C23 HBB d   1       5.312  -0.548  15.809  0.00  0.00     0.071 C 
ATOM     37  H32 HBB d   1       4.325  -1.033  15.836  0.00  0.00     0.088 H 
BRANCH  36  38
ATOM     38  O24 HBB d   1       5.257   0.665  16.562  0.00  0.00    -0.392 OA
ATOM     39  H33 HBB d   1       5.037   0.466  17.465  0.00  0.00     0.210 HD
ENDBRANCH  36  38
BRANCH  36  40
ATOM     40  C25 HBB d   1       6.343  -1.491  16.448  0.00  0.00     0.031 C 
ATOM     41  H34 HBB d   1       7.340  -1.037  16.354  0.00  0.00     0.069 H 
ATOM     42  H35 HBB d   1       6.095  -1.613  17.513  0.00  0.00     0.069 H 
BRANCH  40  43
ATOM     43  N26 HBB d   1       6.370  -2.818  15.817  0.00  0.00    -0.304 N 
BRANCH  43  44
ATOM     44  C27 HBB d   1       5.707  -3.595  16.892  0.00  0.00     0.006 C 
ATOM     45  H16 HBB d   1       5.125  -2.938  17.555  0.00  0.00     0.065 H 
ATOM     46  H17 HBB d   1       6.443  -4.156  17.487  0.00  0.00     0.065 H 
BRANCH  44  47
ATOM     47  C28 HBB d   1       4.798  -4.535  16.118  0.00  0.00    -0.047 C 
ATOM     48  H36 HBB d   1       5.043  -5.566  16.413  0.00  0.00     0.035 H 
ATOM     49  H37 HBB d   1       5.003  -4.402  15.046  0.00  0.00     0.035 H 
BRANCH  47  50
ATOM     50  C29 HBB d   1       3.301  -4.320  16.345  0.00  0.00    -0.060 C 
ATOM     51  H38 HBB d   1       3.014  -4.746  17.318  0.00  0.00     0.038 H 
BRANCH  50  52
ATOM     52  C30 HBB d   1       2.935  -2.844  16.327  0.00  0.00    -0.073 C 
ATOM     53  H18 HBB d   1       1.853  -2.732  16.493  0.00  0.00     0.028 H 
ATOM     54  H19 HBB d   1       3.203  -2.412  15.351  0.00  0.00     0.028 H 
ATOM     55  H20 HBB d   1       3.484  -2.320  17.123  0.00  0.00     0.028 H 
ENDBRANCH  50  52
BRANCH  50  56
ATOM     56  C31 HBB d   1       2.569  -5.046  15.230  0.00  0.00    -0.073 C 
ATOM     57  H21 HBB d   1       2.838  -6.112  15.248  0.00  0.00     0.028 H 
ATOM     58  H22 HBB d   1       2.855  -4.612  14.260  0.00  0.00     0.028 H 
ATOM     59  H23 HBB d   1       1.484  -4.939  15.373  0.00  0.00     0.028 H 
ENDBRANCH  50  56
ENDBRANCH  47  50
ENDBRANCH  44  47
ENDBRANCH  43  44
BRANCH  43  60
ATOM     60  S32 HBB d   1       7.524  -3.543  14.884  0.00  0.00     0.260 S 
ATOM     61  O33 HBB d   1       8.344  -2.509  14.248  0.00  0.00    -0.200 OA
ATOM     62  O34 HBB d   1       6.869  -4.328  13.848  0.00  0.00    -0.200 OA
BRANCH  60  63
ATOM     63  C35 HBB d   1       8.529  -4.504  15.796  0.00  0.00     0.079 A 
ATOM     64  C36 HBB d   1       9.666  -3.961  16.406  0.00  0.00    -0.060 A 
ATOM     65  C37 HBB d   1      10.515  -4.758  17.172  0.00  0.00    -0.082 A 
ATOM     66  H39 HBB d   1       9.889  -2.908  16.281  0.00  0.00     0.085 H 
ATOM     67  C38 HBB d   1      10.240  -6.112  17.328  0.00  0.00    -0.083 A 
ATOM     68  H40 HBB d   1      11.388  -4.323  17.645  0.00  0.00     0.083 H 
ATOM     69  C39 HBB d   1       9.112  -6.668  16.723  0.00  0.00    -0.082 A 
ATOM     70  H41 HBB d   1      10.901  -6.735  17.919  0.00  0.00     0.083 H 
ATOM     71  C40 HBB d   1       8.266  -5.863  15.960  0.00  0.00    -0.060 A 
ATOM     72  H42 HBB d   1       8.894  -7.723  16.846  0.00  0.00     0.083 H 
ATOM     73  H43 HBB d   1       7.393  -6.300  15.489  0.00  0.00     0.085 H 
ENDBRANCH  60  63
ENDBRANCH  43  60
ENDBRANCH  40  43
ENDBRANCH  36  40
ENDBRANCH   1  36
BRANCH  10  74
ATOM     74  C17 HBB d   1       1.528   0.920  12.073  0.00  0.00    -0.033 C 
ATOM     75  H27 HBB d   1       1.470   0.254  11.200  0.00  0.00     0.042 H 
BRANCH  74  76
ATOM     76  C19 HBB d   1       0.544   2.078  11.876  0.00  0.00    -0.071 C 
ATOM     77  H13 HBB d   1      -0.479   1.681  11.800  0.00  0.00     0.028 H 
ATOM     78  H14 HBB d   1       0.796   2.620  10.953  0.00  0.00     0.028 H 
ATOM     79  H15 HBB d   1       0.609   2.764  12.733  0.00  0.00     0.028 H 
ENDBRANCH  74  76
BRANCH  74  80
ATOM     80  C18 HBB d   1       1.147   0.132  13.306  0.00  0.00    -0.071 C 
ATOM     81  H28 HBB d   1       1.855  -0.698  13.444  0.00  0.00     0.028 H 
ATOM     82  H29 HBB d   1       0.130  -0.270  13.185  0.00  0.00     0.028 H 
ATOM     83  H30 HBB d   1       1.178   0.791  14.186  0.00  0.00     0.028 H 
ENDBRANCH  74  80
ENDBRANCH  10  74
TORSDOF 14
