REMARK  7 active torsions:
REMARK  status: ('A' for Active; 'I' for Inactive)
REMARK    1  A    between atoms: C1_1  and  O1_7 
REMARK    2  A    between atoms: C2_2  and  O2_8 
REMARK    3  A    between atoms: C3_3  and  O3_9 
REMARK    4  A    between atoms: C4_4  and  O4_10 
REMARK    5  A    between atoms: C5_5  and  C6_6 
REMARK    6  A    between atoms: C6_6  and  O6_12 
REMARK    7  A    between atoms: O1_7  and  P_13 
ROOT
ATOM      1  C1  GL1 d   1       4.863  -3.834  13.102  0.00  0.00     0.171 C 
ATOM      2  C2  GL1 d   1       3.710  -2.825  13.043  0.00  0.00     0.110 C 
ATOM      3  C3  GL1 d   1       3.959  -1.779  11.965  0.00  0.00     0.092 C 
ATOM      4  C4  GL1 d   1       5.355  -1.056  12.200  0.00  0.00     0.090 C 
ATOM      5  C5  GL1 d   1       6.445  -2.161  12.292  0.00  0.00     0.089 C 
ATOM      6  O5  GL1 d   1       6.103  -3.109  13.326  0.00  0.00    -0.348 OA
ATOM      7  H1  GL1 d   1       4.682  -4.562  13.907  0.00  0.00     0.134 H 
ATOM      8  H2  GL1 d   1       3.645  -2.313  14.014  0.00  0.00     0.094 H 
ATOM      9  H3  GL1 d   1       3.990  -2.285  10.989  0.00  0.00     0.091 H 
ATOM     10  H4  GL1 d   1       5.583  -0.414  11.336  0.00  0.00     0.091 H 
ATOM     11  H5  GL1 d   1       6.521  -2.677  11.323  0.00  0.00     0.090 H 
ENDROOT
BRANCH   1  12
ATOM     12  O1  GL1 d   1       5.027  -4.499  11.861  0.00  0.00    -0.249 OA
BRANCH  12  13
ATOM     13  P   GL1 d   1       4.367  -5.967  11.546  0.00  0.00     0.424 P 
ATOM     14  O1P GL1 d   1       4.814  -6.488  10.139  0.00  0.00    -0.617 OA
ATOM     15  O2P GL1 d   1       4.919  -6.873  12.679  0.00  0.00    -0.617 OA
ATOM     16  O3P GL1 d   1       2.802  -5.912  11.651  0.00  0.00    -0.617 OA
ENDBRANCH  12  13
ENDBRANCH   1  12
BRANCH   2  17
ATOM     17  O2  GL1 d   1       2.450  -3.519  12.800  0.00  0.00    -0.388 OA
ATOM     18  H8  GL1 d   1       2.485  -3.949  11.954  0.00  0.00     0.210 HD
ENDBRANCH   2  17
BRANCH   3  19
ATOM     19  O3  GL1 d   1       2.897  -0.831  11.948  0.00  0.00    -0.390 OA
ATOM     20  H9  GL1 d   1       2.870  -0.373  12.780  0.00  0.00     0.210 HD
ENDBRANCH   3  19
BRANCH   5  21
ATOM     21  C6  GL1 d   1       7.826  -1.537  12.667  0.00  0.00     0.043 C 
ATOM     22  H6  GL1 d   1       8.601  -2.317  12.698  0.00  0.00     0.078 H 
ATOM     23  H7  GL1 d   1       7.767  -1.040  13.646  0.00  0.00     0.078 H 
BRANCH  21  24
ATOM     24  O6  GL1 d   1       8.112  -0.617  11.680  0.00  0.00    -0.398 OA
ATOM     25  H11 GL1 d   1       8.949  -0.207  11.864  0.00  0.00     0.209 HD
ENDBRANCH  21  24
ENDBRANCH   5  21
BRANCH   4  26
ATOM     26  O4  GL1 d   1       5.270  -0.213  13.376  0.00  0.00    -0.390 OA
ATOM     27  H10 GL1 d   1       5.065  -0.748  14.134  0.00  0.00     0.210 HD
ENDBRANCH   4  26
TORSDOF 7
