REMARK  10 active torsions:
REMARK  status: ('A' for Active; 'I' for Inactive)
REMARK    1  A    between atoms: C2_13  and  N1_7 
REMARK    2  A    between atoms: N2_8  and  C5_16 
REMARK       I    between atoms: C13_22  and  N4_10 
REMARK    3  A    between atoms: N4_10  and  C14_23 
REMARK    4  A    between atoms: C7_18  and  C10_21 
REMARK    5  A    between atoms: C9_20  and  C13_22 
REMARK    6  A    between atoms: C17_26  and  N5_29 
REMARK    7  A    between atoms: C25_33  and  C11_35 
REMARK    8  A    between atoms: C11_35  and  N7_36 
REMARK    9  A    between atoms: N7_36  and  C20_37 
REMARK   10  A    between atoms: N7_36  and  C23_38 
ROOT
ATOM      1  C14 IK8 d   1       6.799  31.339  57.713  0.00  0.00     0.074 A 
ATOM      2  C15 IK8 d   1       7.587  31.005  58.889  0.00  0.00     0.145 A 
ATOM      3  C16 IK8 d   1       8.198  31.980  59.748  0.00  0.00    -0.017 A 
ATOM      4  C17 IK8 d   1       8.010  33.379  59.409  0.00  0.00     0.043 A 
ATOM      5  C18 IK8 d   1       7.234  33.741  58.207  0.00  0.00    -0.054 A 
ATOM      6  C19 IK8 d   1       6.611  32.737  57.345  0.00  0.00    -0.052 A 
ATOM      7  F3  IK8 d   1       7.773  29.718  59.168  0.00  0.00    -0.204 F 
ATOM      8  H8  IK8 d   1       8.777  31.683  60.615  0.00  0.00     0.091 H 
ATOM      9  H9  IK8 d   1       7.122  34.789  57.954  0.00  0.00     0.087 H 
ATOM     10  H10 IK8 d   1       6.035  33.020  56.471  0.00  0.00     0.087 H 
ENDROOT
BRANCH   1  11
ATOM     11  N4  IK8 d   1       6.245  30.347  56.936  0.00  0.00    -0.319 N 
ATOM     12  C13 IK8 d   1       6.976  29.434  56.241  0.00  0.00     0.275 C 
ATOM     13  O1  IK8 d   1       8.202  29.360  56.358  0.00  0.00    -0.266 OA
ATOM     14  H3  IK8 d   1       5.248  30.294  56.879  0.00  0.00     0.169 HD
BRANCH  12  15
ATOM     15  C9  IK8 d   1       6.313  28.558  55.352  0.00  0.00     0.129 A 
ATOM     16  N2  IK8 d   1       6.881  27.795  54.352  0.00  0.00    -0.228 N 
ATOM     17  N3  IK8 d   1       5.898  27.147  53.657  0.00  0.00    -0.162 NA
ATOM     18  C7  IK8 d   1       4.711  27.485  54.183  0.00  0.00     0.163 A 
ATOM     19  C8  IK8 d   1       4.912  28.378  55.272  0.00  0.00    -0.015 A 
ATOM     20  H7  IK8 d   1       4.151  28.827  55.908  0.00  0.00     0.091 H 
BRANCH  16  21
ATOM     21  C5  IK8 d   1       8.210  27.726  53.954  0.00  0.00     0.060 A 
ATOM     22  C4  IK8 d   1       9.170  26.874  54.709  0.00  0.00    -0.052 A 
ATOM     23  C3  IK8 d   1      10.574  26.793  54.241  0.00  0.00    -0.045 A 
ATOM     24  H5  IK8 d   1       8.848  26.323  55.585  0.00  0.00     0.087 H 
ATOM     25  C   IK8 d   1      11.034  27.559  53.042  0.00  0.00     0.115 A 
ATOM     26  H4  IK8 d   1      11.279  26.168  54.777  0.00  0.00     0.088 H 
ATOM     27  OT1 IK8 d   1      12.217  27.685  52.443  0.00  0.00    -0.211 OA
ATOM     28  C1  IK8 d   1      10.080  28.400  52.335  0.00  0.00     0.050 A 
ATOM     29  N   IK8 d   1      12.139  28.539  51.406  0.00  0.00    -0.109 NA
ATOM     30  C2  IK8 d   1      10.857  28.998  51.315  0.00  0.00     0.162 A 
ATOM     31  C6  IK8 d   1       8.676  28.502  52.761  0.00  0.00    -0.039 A 
ATOM     32  H6  IK8 d   1       7.984  29.134  52.216  0.00  0.00     0.088 H 
BRANCH  30  33
ATOM     33  N1  IK8 d   1      10.314  29.937  50.483  0.00  0.00    -0.381 N 
ATOM     34  H1  IK8 d   1       9.312  30.166  50.550  0.00  0.00     0.157 HD
ATOM     35  H2  IK8 d   1      10.907  30.415  49.789  0.00  0.00     0.157 HD
ENDBRANCH  30  33
ENDBRANCH  16  21
BRANCH  18  36
ATOM     36  C10 IK8 d   1       3.345  26.995  53.681  0.00  0.00     0.436 C 
ATOM     37  F   IK8 d   1       2.646  27.955  53.186  0.00  0.00    -0.165 F 
ATOM     38  F1  IK8 d   1       2.682  26.456  54.672  0.00  0.00    -0.165 F 
ATOM     39  F2  IK8 d   1       3.512  26.106  52.718  0.00  0.00    -0.165 F 
ENDBRANCH  18  36
ENDBRANCH  12  15
ENDBRANCH   1  11
BRANCH   4  40
ATOM     40  N5  IK8 d   1       8.467  34.342  60.339  0.00  0.00    -0.307 N 
ATOM     41  C21 IK8 d   1       9.712  34.904  60.364  0.00  0.00     0.004 A 
ATOM     42  C22 IK8 d   1       9.759  35.816  61.425  0.00  0.00     0.019 A 
ATOM     43  H11 IK8 d   1      10.527  34.681  59.677  0.00  0.00     0.114 H 
ATOM     44  N6  IK8 d   1       8.537  35.801  62.045  0.00  0.00    -0.244 NA
ATOM     45  H12 IK8 d   1      10.614  36.428  61.707  0.00  0.00     0.117 H 
ATOM     46  C25 IK8 d   1       7.765  34.894  61.383  0.00  0.00     0.136 A 
BRANCH  46  47
ATOM     47  C11 IK8 d   1       6.306  34.581  61.777  0.00  0.00     0.137 C 
ATOM     48  H13 IK8 d   1       5.945  33.758  61.144  0.00  0.00     0.088 H 
ATOM     49  H14 IK8 d   1       5.697  35.479  61.594  0.00  0.00     0.088 H 
BRANCH  47  50
ATOM     50  N7  IK8 d   1       6.139  34.182  63.210  0.00  0.00    -0.072 N 
ATOM     51  H15 IK8 d   1       5.136  34.251  63.275  0.00  0.00     0.279 HD
BRANCH  50  52
ATOM     52  C20 IK8 d   1       6.533  35.104  64.301  0.00  0.00     0.066 C 
ATOM     53  H16 IK8 d   1       6.333  34.629  65.273  0.00  0.00     0.068 H 
ATOM     54  H17 IK8 d   1       5.953  36.035  64.222  0.00  0.00     0.068 H 
ATOM     55  H18 IK8 d   1       7.606  35.332  64.219  0.00  0.00     0.068 H 
ENDBRANCH  50  52
BRANCH  50  56
ATOM     56  C23 IK8 d   1       6.333  32.774  63.573  0.00  0.00     0.066 C 
ATOM     57  H19 IK8 d   1       6.027  32.133  62.733  0.00  0.00     0.068 H 
ATOM     58  H20 IK8 d   1       5.723  32.536  64.457  0.00  0.00     0.068 H 
ATOM     59  H21 IK8 d   1       7.394  32.597  63.801  0.00  0.00     0.068 H 
ENDBRANCH  50  56
ENDBRANCH  47  50
ENDBRANCH  46  47
ENDBRANCH   4  40
TORSDOF 10
