REMARK  6 active torsions:
REMARK  status: ('A' for Active; 'I' for Inactive)
REMARK    1  A    between atoms: P_1  and  O5_5 
REMARK    2  A    between atoms: O5_5  and  C5_6 
REMARK    3  A    between atoms: C5_6  and  C4_7 
REMARK    4  A    between atoms: C3_9  and  O3_10 
REMARK    5  A    between atoms: C2_11  and  O2_12 
REMARK    6  A    between atoms: C1_13  and  N9_14 
ROOT
ATOM      1  C4  AMP d   1      38.104   5.572  16.211  0.00  0.00     0.089 C 
ATOM      2  O4  AMP d   1      37.574   5.431  17.540  0.00  0.00    -0.353 OA
ATOM      3  C3  AMP d   1      39.266   4.579  16.095  0.00  0.00     0.091 C 
ATOM      4  C2  AMP d   1      39.257   3.788  17.397  0.00  0.00     0.105 C 
ATOM      5  C1  AMP d   1      38.533   4.734  18.347  0.00  0.00     0.139 C 
ATOM      6  H3  AMP d   1      38.472   6.597  16.057  0.00  0.00     0.090 H 
ATOM      7  H4  AMP d   1      39.111   3.906  15.239  0.00  0.00     0.091 H 
ATOM      8  H6  AMP d   1      38.696   2.849  17.280  0.00  0.00     0.093 H 
ATOM      9  H8  AMP d   1      39.258   5.456  18.750  0.00  0.00     0.122 H 
ENDROOT
BRANCH   5  10
ATOM     10  N9  AMP d   1      37.897   4.044  19.501  0.00  0.00    -0.294 N 
ATOM     11  C8  AMP d   1      38.149   2.782  19.934  0.00  0.00     0.071 A 
ATOM     12  N7  AMP d   1      37.405   2.475  21.010  0.00  0.00    -0.236 NA
ATOM     13  H9  AMP d   1      38.863   2.105  19.468  0.00  0.00     0.144 H 
ATOM     14  C5  AMP d   1      36.671   3.559  21.282  0.00  0.00     0.149 A 
ATOM     15  C6  AMP d   1      35.680   3.893  22.295  0.00  0.00     0.155 A 
ATOM     16  C4  AMP d   1      36.990   4.593  20.293  0.00  0.00     0.167 A 
ATOM     17  N6  AMP d   1      35.373   2.946  23.229  0.00  0.00    -0.382 N 
ATOM     18  N1  AMP d   1      35.125   5.149  22.245  0.00  0.00    -0.222 NA
ATOM     19  H10 AMP d   1      34.676   3.150  23.959  0.00  0.00     0.157 HD
ATOM     20  H11 AMP d   1      35.838   2.027  23.203  0.00  0.00     0.157 HD
ATOM     21  C2  AMP d   1      35.460   6.058  21.307  0.00  0.00     0.091 A 
ATOM     22  N3  AMP d   1      36.369   5.807  20.338  0.00  0.00    -0.222 NA
ATOM     23  H12 AMP d   1      34.981   7.030  21.331  0.00  0.00     0.146 H 
ENDBRANCH   5  10
BRANCH   4  24
ATOM     24  O2  AMP d   1      40.589   3.481  17.843  0.00  0.00    -0.388 OA
ATOM     25  H7  AMP d   1      40.544   2.989  18.654  0.00  0.00     0.210 HD
ENDBRANCH   4  24
BRANCH   1  26
ATOM     26  C5  AMP d   1      37.018   5.273  15.193  0.00  0.00     0.059 C 
ATOM     27  H1  AMP d   1      36.032   5.530  15.608  0.00  0.00     0.079 H 
ATOM     28  H2  AMP d   1      37.192   5.853  14.275  0.00  0.00     0.079 H 
BRANCH  26  29
ATOM     29  O5  AMP d   1      37.079   3.879  14.908  0.00  0.00    -0.280 OA
BRANCH  29  30
ATOM     30  P   AMP d   1      36.564   3.277  13.517  0.00  0.00     0.422 P 
ATOM     31  O1P AMP d   1      35.057   3.401  13.643  0.00  0.00    -0.617 OA
ATOM     32  O2P AMP d   1      37.220   4.152  12.481  0.00  0.00    -0.617 OA
ATOM     33  O3P AMP d   1      37.124   1.871  13.603  0.00  0.00    -0.617 OA
ENDBRANCH  29  30
ENDBRANCH  26  29
ENDBRANCH   1  26
BRANCH   3  34
ATOM     34  O3  AMP d   1      40.509   5.276  15.932  0.00  0.00    -0.390 OA
ATOM     35  H5  AMP d   1      41.217   4.646  15.862  0.00  0.00     0.210 HD
ENDBRANCH   3  34
TORSDOF 6
