REMARK  11 active torsions:
REMARK  status: ('A' for Active; 'I' for Inactive)
REMARK    1  A    between atoms: C2_2  and  C11_7 
REMARK    2  A    between atoms: N1_3  and  O1_32 
REMARK    3  A    between atoms: C11_7  and  C1_8 
REMARK    4  A    between atoms: C1_8  and  N18_9 
REMARK    5  A    between atoms: N18_9  and  C21_10 
REMARK    6  A    between atoms: N2_11  and  O28_16 
REMARK    7  A    between atoms: C10_12  and  C33_18 
REMARK    8  A    between atoms: C33_18  and  C34_19 
REMARK       I    between atoms: C34_19  and  N37_20 
REMARK    9  A    between atoms: N37_20  and  C39_22 
REMARK   10  A    between atoms: C39_22  and  C40_23 
REMARK   11  A    between atoms: C39_22  and  C7_33 
ROOT
ATOM      1  C21 L17 d   1      18.256 -15.223  22.670  0.00  0.00     0.129 A 
ATOM      2  N2  L17 d   1      17.635 -14.123  22.138  0.00  0.00    -0.210 N 
ATOM      3  C10 L17 d   1      18.238 -13.414  21.162  0.00  0.00     0.072 A 
ATOM      4  C24 L17 d   1      19.523 -13.811  20.690  0.00  0.00     0.059 A 
ATOM      5  C25 L17 d   1      20.193 -14.953  21.211  0.00  0.00    -0.056 A 
ATOM      6  C3  L17 d   1      19.547 -15.685  22.232  0.00  0.00    -0.037 A 
ATOM      7 CL2  L17 d   1      20.283 -12.906  19.456  0.00  0.00    -0.082 Cl
ATOM      8  H8  L17 d   1      21.166 -15.251  20.837  0.00  0.00     0.086 H 
ATOM      9  H9  L17 d   1      20.007 -16.563  22.670  0.00  0.00     0.089 H 
ENDROOT
BRANCH   3  10
ATOM     10  C33 L17 d   1      17.518 -12.195  20.602  0.00  0.00     0.051 C 
ATOM     11  H11 L17 d   1      18.030 -11.862  19.687  0.00  0.00     0.056 H 
ATOM     12  H12 L17 d   1      17.540 -11.388  21.349  0.00  0.00     0.056 H 
BRANCH  10  13
ATOM     13  C34 L17 d   1      16.064 -12.532  20.269  0.00  0.00     0.223 C 
ATOM     14  N37 L17 d   1      15.188 -11.591  20.632  0.00  0.00    -0.352 N 
ATOM     15  H13 L17 d   1      15.500 -10.718  21.007  0.00  0.00     0.163 HD
ATOM     16  O38 L17 d   1      15.771 -13.573  19.687  0.00  0.00    -0.273 OA
BRANCH  14  17
ATOM     17  C39 L17 d   1      13.757 -11.868  20.467  0.00  0.00     0.034 C 
ATOM     18  H14 L17 d   1      13.650 -12.934  20.216  0.00  0.00     0.079 H 
BRANCH  17  19
ATOM     19  C40 L17 d   1      12.956 -11.596  21.678  0.00  0.00    -0.034 A 
ATOM     20  C43 L17 d   1      13.150 -10.394  22.451  0.00  0.00    -0.054 A 
ATOM     21  C44 L17 d   1      12.264 -10.181  23.572  0.00  0.00     0.034 A 
ATOM     22  H15 L17 d   1      13.927  -9.681  22.201  0.00  0.00     0.087 H 
ATOM     23  C45 L17 d   1      11.227 -11.141  23.924  0.00  0.00    -0.062 A 
ATOM     24 CL1  L17 d   1      12.423  -8.735  24.495  0.00  0.00    -0.084 Cl
ATOM     25  C9  L17 d   1      11.018 -12.330  23.143  0.00  0.00    -0.081 A 
ATOM     26  H16 L17 d   1      10.602 -10.956  24.790  0.00  0.00     0.086 H 
ATOM     27  C50 L17 d   1      11.904 -12.533  22.022  0.00  0.00    -0.075 A 
ATOM     28  H18 L17 d   1      10.234 -13.039  23.384  0.00  0.00     0.083 H 
ATOM     29  H17 L17 d   1      11.778 -13.421  21.413  0.00  0.00     0.084 H 
ENDBRANCH  17  19
BRANCH  17  30
ATOM     30  C7  L17 d   1      13.174 -11.033  19.331  0.00  0.00    -0.053 C 
ATOM     31  H20 L17 d   1      12.102 -11.256  19.225  0.00  0.00     0.030 H 
ATOM     32  H21 L17 d   1      13.694 -11.277  18.393  0.00  0.00     0.030 H 
ATOM     33  H22 L17 d   1      13.306  -9.964  19.556  0.00  0.00     0.030 H 
ENDBRANCH  17  30
ENDBRANCH  14  17
ENDBRANCH  10  13
ENDBRANCH   3  10
BRANCH   2  34
ATOM     34  O28 L17 d   1      16.394 -13.788  22.631  0.00  0.00    -0.281 OA
ATOM     35  H10 L17 d   1      15.757 -13.816  21.927  0.00  0.00     0.245 HD
ENDBRANCH   2  34
BRANCH   1  36
ATOM     36  N18 L17 d   1      17.560 -15.821  23.749  0.00  0.00    -0.368 N 
ATOM     37  H7  L17 d   1      16.659 -15.408  24.029  0.00  0.00     0.161 HD
BRANCH  36  38
ATOM     38  C1  L17 d   1      18.048 -17.012  24.506  0.00  0.00     0.060 C 
ATOM     39  H5  L17 d   1      17.185 -17.660  24.719  0.00  0.00     0.073 H 
ATOM     40  H6  L17 d   1      18.764 -17.553  23.869  0.00  0.00     0.073 H 
BRANCH  38  41
ATOM     41  C11 L17 d   1      18.732 -16.692  25.817  0.00  0.00     0.303 C 
ATOM     42  F1  L17 d   1      19.044 -17.900  26.334  0.00  0.00    -0.197 F 
ATOM     43  F2  L17 d   1      17.805 -16.093  26.600  0.00  0.00    -0.197 F 
BRANCH  41  44
ATOM     44  C2  L17 d   1      20.008 -15.863  25.667  0.00  0.00     0.112 A 
ATOM     45  C8  L17 d   1      20.015 -14.452  25.980  0.00  0.00    -0.053 A 
ATOM     46  C6  L17 d   1      21.223 -13.728  25.678  0.00  0.00    -0.080 A 
ATOM     47  H1  L17 d   1      19.154 -13.963  26.420  0.00  0.00     0.086 H 
ATOM     48  C5  L17 d   1      22.375 -14.366  25.073  0.00  0.00    -0.066 A 
ATOM     49  H4  L17 d   1      21.272 -12.671  25.911  0.00  0.00     0.083 H 
ATOM     50  C4  L17 d   1      22.327 -15.773  24.783  0.00  0.00     0.008 A 
ATOM     51  H3  L17 d   1      23.263 -13.789  24.842  0.00  0.00     0.085 H 
ATOM     52  N1  L17 d   1      21.159 -16.450  25.096  0.00  0.00    -0.234 N 
ATOM     53  H2  L17 d   1      23.172 -16.285  24.337  0.00  0.00     0.115 H 
BRANCH  52  54
ATOM     54  O1  L17 d   1      21.114 -17.771  24.787  0.00  0.00    -0.283 OA
ATOM     55  H19 L17 d   1      20.272 -18.127  25.045  0.00  0.00     0.245 HD
ENDBRANCH  52  54
ENDBRANCH  41  44
ENDBRANCH  38  41
ENDBRANCH  36  38
ENDBRANCH   1  36
TORSDOF 11
