REMARK  7 active torsions:
REMARK  status: ('A' for Active; 'I' for Inactive)
REMARK    1  A    between atoms: CB2_2  and  SG_1 
REMARK    2  A    between atoms: CA1_3  and  CB2_2 
REMARK    3  A    between atoms: CA1_3  and  CB1_4 
REMARK    4  A    between atoms: N_13  and  CA1_3 
REMARK    5  A    between atoms: CB1_4  and  CG_5 
REMARK       I    between atoms: C1_11  and  N_13 
REMARK    6  A    between atoms: C1_11  and  CA2_14 
REMARK    7  A    between atoms: CA2_14  and  C2_15 
ROOT
ATOM      1  CA1 RRT d   1      36.233  42.366  -4.128  0.00  0.00     0.024 C 
ATOM      2  H4  RRT d   1      36.966  43.147  -4.378  0.00  0.00     0.074 H 
ENDROOT
BRANCH   1   3
ATOM      3  CB2 RRT d   1      35.154  42.344  -5.199  0.00  0.00    -0.007 C 
ATOM      4  H2  RRT d   1      34.673  41.355  -5.233  0.00  0.00     0.051 H 
ATOM      5  H3  RRT d   1      34.396  43.113  -4.989  0.00  0.00     0.051 H 
BRANCH   3   6
ATOM      6  SG  RRT d   1      35.965  42.687  -6.751  0.00  0.00    -0.180 SA
ATOM      7  H1  RRT d   1      36.661  41.980  -6.928  0.00  0.00     0.101 HD
ENDBRANCH   3   6
ENDBRANCH   1   3
BRANCH   1   8
ATOM      8  CB1 RRT d   1      35.551  42.663  -2.807  0.00  0.00    -0.021 C 
ATOM      9  H5  RRT d   1      34.898  41.815  -2.553  0.00  0.00     0.043 H 
ATOM     10  H6  RRT d   1      34.943  43.572  -2.925  0.00  0.00     0.043 H 
BRANCH   8  11
ATOM     11  CG  RRT d   1      36.511  42.877  -1.682  0.00  0.00    -0.056 A 
ATOM     12  CD1 RRT d   1      37.278  44.046  -1.700  0.00  0.00    -0.077 A 
ATOM     13  CE1 RRT d   1      38.167  44.367  -0.683  0.00  0.00    -0.082 A 
ATOM     14  H7  RRT d   1      37.175  44.726  -2.538  0.00  0.00     0.084 H 
ATOM     15  CZ  RRT d   1      38.279  43.444   0.357  0.00  0.00    -0.083 A 
ATOM     16  H9  RRT d   1      38.743  45.285  -0.696  0.00  0.00     0.083 H 
ATOM     17  CE2 RRT d   1      37.524  42.267   0.396  0.00  0.00    -0.082 A 
ATOM     18  H11 RRT d   1      38.975  43.646   1.163  0.00  0.00     0.083 H 
ATOM     19  CD2 RRT d   1      36.602  41.987  -0.612  0.00  0.00    -0.077 A 
ATOM     20  H10 RRT d   1      37.656  41.569   1.214  0.00  0.00     0.083 H 
ATOM     21  H8  RRT d   1      35.975  41.104  -0.565  0.00  0.00     0.084 H 
ENDBRANCH   8  11
ENDBRANCH   1   8
BRANCH   1  22
ATOM     22  N   RRT d   1      36.928  41.107  -3.911  0.00  0.00    -0.355 N 
ATOM     23  C1  RRT d   1      38.227  40.969  -3.658  0.00  0.00     0.228 C 
ATOM     24  O1  RRT d   1      39.017  41.941  -3.671  0.00  0.00    -0.273 OA
ATOM     25  H12 RRT d   1      36.381  40.271  -3.956  0.00  0.00     0.162 HD
BRANCH  23  26
ATOM     26  CA2 RRT d   1      38.718  39.492  -3.420  0.00  0.00     0.089 C 
ATOM     27  H13 RRT d   1      38.072  39.032  -2.658  0.00  0.00     0.063 H 
ATOM     28  H14 RRT d   1      39.753  39.527  -3.050  0.00  0.00     0.063 H 
BRANCH  26  29
ATOM     29  C2  RRT d   1      38.684  38.603  -4.689  0.00  0.00     0.181 C 
ATOM     30  O2  RRT d   1      37.645  38.536  -5.473  0.00  0.00    -0.648 OA
ATOM     31  O3  RRT d   1      39.728  37.951  -4.920  0.00  0.00    -0.648 OA
ENDBRANCH  26  29
ENDBRANCH  23  26
ENDBRANCH   1  22
TORSDOF 7
