REMARK  7 active torsions:
REMARK  status: ('A' for Active; 'I' for Inactive)
REMARK    1  A    between atoms: C2_2  and  C2A_3 
REMARK    2  A    between atoms: C3_4  and  O3_5 
REMARK    3  A    between atoms: C4_6  and  C4A_7 
REMARK    4  A    between atoms: C4A_7  and  N4A_8 
REMARK    5  A    between atoms: C5_9  and  C5A_11 
REMARK    6  A    between atoms: C5A_11  and  O4P_12 
REMARK    7  A    between atoms: O4P_12  and  P_13 
ROOT
ATOM      1  N1  PMP d   1      17.124  52.918  13.780  0.00  0.00    -0.262 NA
ATOM      2  C2  PMP d   1      16.001  53.189  14.547  0.00  0.00     0.064 A 
ATOM      3  C3  PMP d   1      15.956  52.558  15.833  0.00  0.00     0.098 A 
ATOM      4  C4  PMP d   1      16.993  51.719  16.285  0.00  0.00     0.012 A 
ATOM      5  C5  PMP d   1      18.110  51.505  15.398  0.00  0.00    -0.006 A 
ATOM      6  C6  PMP d   1      18.177  52.093  14.157  0.00  0.00     0.011 A 
ATOM      7  H10 PMP d   1      19.020  51.920  13.497  0.00  0.00     0.115 H 
ENDROOT
BRANCH   5   8
ATOM      8  C5A PMP d   1      19.313  50.577  15.799  0.00  0.00     0.058 C 
ATOM      9  H11 PMP d   1      19.561  50.759  16.855  0.00  0.00     0.082 H 
ATOM     10  H12 PMP d   1      20.178  50.831  15.170  0.00  0.00     0.082 H 
BRANCH   8  11
ATOM     11  O4P PMP d   1      19.022  49.206  15.634  0.00  0.00    -0.278 OA
BRANCH  11  12
ATOM     12  P   PMP d   1      19.946  48.154  16.400  0.00  0.00     0.422 P 
ATOM     13  O1P PMP d   1      19.397  46.846  16.015  0.00  0.00    -0.617 OA
ATOM     14  O2P PMP d   1      21.384  48.249  15.930  0.00  0.00    -0.617 OA
ATOM     15  O3P PMP d   1      19.824  48.407  17.806  0.00  0.00    -0.617 OA
ENDBRANCH  11  12
ENDBRANCH   8  11
ENDBRANCH   5   8
BRANCH   4  16
ATOM     16  C4A PMP d   1      16.892  51.113  17.613  0.00  0.00     0.106 C 
ATOM     17  H5  PMP d   1      16.742  51.916  18.350  0.00  0.00     0.082 H 
ATOM     18  H6  PMP d   1      17.835  50.590  17.828  0.00  0.00     0.082 H 
BRANCH  16  19
ATOM     19  N4A PMP d   1      15.901  50.249  17.733  0.00  0.00    -0.075 N 
ATOM     20  H7  PMP d   1      15.893  49.874  18.669  0.00  0.00     0.274 HD
ATOM     21  H8  PMP d   1      16.027  49.499  17.072  0.00  0.00     0.274 HD
ATOM     22  H9  PMP d   1      15.026  50.714  17.550  0.00  0.00     0.274 HD
ENDBRANCH  16  19
ENDBRANCH   4  16
BRANCH   3  23
ATOM     23  O3  PMP d   1      14.871  52.817  16.589  0.00  0.00    -0.358 OA
ATOM     24  H4  PMP d   1      14.817  53.751  16.754  0.00  0.00     0.217 HD
ENDBRANCH   3  23
BRANCH   2  25
ATOM     25  C2A PMP d   1      14.927  54.131  13.973  0.00  0.00    -0.033 C 
ATOM     26  H1  PMP d   1      14.109  54.240  14.700  0.00  0.00     0.035 H 
ATOM     27  H2  PMP d   1      14.532  53.709  13.037  0.00  0.00     0.035 H 
ATOM     28  H3  PMP d   1      15.373  55.116  13.772  0.00  0.00     0.035 H 
ENDBRANCH   2  25
TORSDOF 7
