REMARK  7 active torsions:
REMARK  status: ('A' for Active; 'I' for Inactive)
REMARK    1  A    between atoms: SG1_1  and  CB1_2 
REMARK    2  A    between atoms: CB1_2  and  CA1_3 
REMARK    3  A    between atoms: CA1_3  and  C_4 
REMARK    4  A    between atoms: CA1_3  and  CB2_6 
REMARK       I    between atoms: C_4  and  N_13 
REMARK    5  A    between atoms: CB2_6  and  CG2_7 
REMARK    6  A    between atoms: N_13  and  CA2_14 
REMARK    7  A    between atoms: CA2_14  and  C1_15 
ROOT
ATOM      1  CA1 TIO d   1      36.547  42.369  -4.024  0.00  0.00     0.035 C 
ATOM      2  H4  TIO d   1      36.770  43.433  -4.190  0.00  0.00     0.056 H 
ENDROOT
BRANCH   1   3
ATOM      3  CB1 TIO d   1      35.508  41.909  -5.062  0.00  0.00    -0.014 C 
ATOM      4  H2  TIO d   1      35.494  40.810  -5.112  0.00  0.00     0.049 H 
ATOM      5  H3  TIO d   1      34.511  42.276  -4.777  0.00  0.00     0.049 H 
BRANCH   3   6
ATOM      6  SG1 TIO d   1      35.978  42.596  -6.694  0.00  0.00    -0.181 SA
ATOM      7  H1  TIO d   1      36.893  42.259  -6.948  0.00  0.00     0.101 HD
ENDBRANCH   3   6
ENDBRANCH   1   3
BRANCH   1   8
ATOM      8  C   TIO d   1      37.933  41.636  -3.881  0.00  0.00     0.223 C 
ATOM      9  O   TIO d   1      39.079  42.202  -3.806  0.00  0.00    -0.273 OA
ATOM     10  N   TIO d   1      37.782  40.314  -3.840  0.00  0.00    -0.351 N 
ATOM     11  H12 TIO d   1      36.842  39.974  -3.857  0.00  0.00     0.163 HD
BRANCH  10  12
ATOM     12  CA2 TIO d   1      38.853  39.287  -3.772  0.00  0.00     0.075 C 
ATOM     13  H13 TIO d   1      38.791  38.731  -2.825  0.00  0.00     0.080 H 
ATOM     14  H14 TIO d   1      39.843  39.760  -3.855  0.00  0.00     0.080 H 
BRANCH  12  15
ATOM     15  C1  TIO d   1      38.603  38.327  -4.987  0.00  0.00     0.191 C 
ATOM     16  O1  TIO d   1      37.444  38.260  -5.523  0.00  0.00    -0.647 OA
ATOM     17  OH  TIO d   1      39.547  37.607  -5.440  0.00  0.00    -0.647 OA
ENDBRANCH  12  15
ENDBRANCH  10  12
ENDBRANCH   1   8
BRANCH   1  18
ATOM     18  CB2 TIO d   1      35.721  42.176  -2.797  0.00  0.00    -0.029 C 
ATOM     19  H5  TIO d   1      35.501  41.111  -2.629  0.00  0.00     0.041 H 
ATOM     20  H6  TIO d   1      34.779  42.740  -2.859  0.00  0.00     0.041 H 
BRANCH  18  21
ATOM     21  CG2 TIO d   1      36.599  42.715  -1.736  0.00  0.00    -0.057 A 
ATOM     22  CD1 TIO d   1      37.195  43.966  -1.931  0.00  0.00    -0.077 A 
ATOM     23  CE1 TIO d   1      38.020  44.497  -0.944  0.00  0.00    -0.082 A 
ATOM     24  H7  TIO d   1      37.015  44.519  -2.846  0.00  0.00     0.084 H 
ATOM     25  CZ  TIO d   1      38.213  43.731   0.211  0.00  0.00    -0.083 A 
ATOM     26  H9  TIO d   1      38.494  45.465  -1.065  0.00  0.00     0.083 H 
ATOM     27  CE2 TIO d   1      37.644  42.463   0.387  0.00  0.00    -0.082 A 
ATOM     28  H11 TIO d   1      38.830  44.137   1.005  0.00  0.00     0.083 H 
ATOM     29  CD2 TIO d   1      36.796  41.944  -0.591  0.00  0.00    -0.077 A 
ATOM     30  H10 TIO d   1      37.862  41.888   1.280  0.00  0.00     0.083 H 
ATOM     31  H8  TIO d   1      36.311  40.983  -0.466  0.00  0.00     0.084 H 
ENDBRANCH  18  21
ENDBRANCH   1  18
TORSDOF 7
