REMARK  7 active torsions:
REMARK  status: ('A' for Active; 'I' for Inactive)
REMARK    1  A    between atoms: C4_4  and  C15_7 
REMARK    2  A    between atoms: C15_7  and  C19_10 
REMARK    3  A    between atoms: C19_10  and  N20_11 
REMARK    4  A    between atoms: N20_11  and  C23_12 
REMARK    5  A    between atoms: C32_19  and  C34_21 
REMARK    6  A    between atoms: C34_21  and  C36_22 
REMARK    7  A    between atoms: C43_27  and  N48_28 
ROOT
ATOM      1  C23 382 d   1      17.861 -14.805  22.280  0.00  0.00     0.154 A 
ATOM      2  C24 382 d   1      17.005 -13.838  21.654  0.00  0.00     0.133 A 
ATOM      3  C25 382 d   1      17.473 -13.105  20.527  0.00  0.00     0.106 A 
ATOM      4  C26 382 d   1      18.844 -13.381  20.034  0.00  0.00    -0.031 A 
ATOM      5  C27 382 d   1      19.716 -14.378  20.687  0.00  0.00     0.007 A 
ATOM      6  N28 382 d   1      19.171 -15.047  21.800  0.00  0.00    -0.241 NA
ATOM      7  N31 382 d   1      15.710 -13.397  21.890  0.00  0.00    -0.239 NA
ATOM      8  C32 382 d   1      15.458 -12.432  20.919  0.00  0.00     0.217 A 
ATOM      9  O33 382 d   1      16.544 -12.211  20.076  0.00  0.00    -0.310 OA
ATOM     10  H15 382 d   1      19.215 -12.837  19.173  0.00  0.00     0.090 H 
ATOM     11  H16 382 d   1      20.719 -14.583  20.330  0.00  0.00     0.115 H 
ENDROOT
BRANCH   1  12
ATOM     12  N20 382 d   1      17.415 -15.546  23.403  0.00  0.00    -0.367 N 
ATOM     13  H14 382 d   1      16.645 -15.161  23.968  0.00  0.00     0.161 HD
BRANCH  12  14
ATOM     14  C19 382 d   1      18.001 -16.849  23.807  0.00  0.00     0.057 C 
ATOM     15  H12 382 d   1      17.191 -17.591  23.867  0.00  0.00     0.073 H 
ATOM     16  H13 382 d   1      18.726 -17.158  23.039  0.00  0.00     0.073 H 
BRANCH  14  17
ATOM     17  C15 382 d   1      18.719 -16.804  25.162  0.00  0.00     0.287 C 
ATOM     18  F17 382 d   1      19.267 -18.034  25.341  0.00  0.00    -0.202 F 
ATOM     19  F18 382 d   1      17.805 -16.599  26.148  0.00  0.00    -0.202 F 
BRANCH  17  20
ATOM     20  C4  382 d   1      19.768 -15.661  25.135  0.00  0.00     0.165 C 
ATOM     21  N3  382 d   1      21.048 -16.102  24.508  0.00  0.00    -0.065 N 
ATOM     22  C2  382 d   1      22.011 -14.986  24.284  0.00  0.00     0.082 C 
ATOM     23  H5  382 d   1      21.482 -16.783  25.112  0.00  0.00     0.277 HD
ATOM     24  H6  382 d   1      20.838 -16.527  23.618  0.00  0.00     0.277 HD
ATOM     25  C1  382 d   1      22.323 -14.291  25.619  0.00  0.00    -0.042 C 
ATOM     26  H3  382 d   1      22.941 -15.387  23.855  0.00  0.00     0.075 H 
ATOM     27  H4  382 d   1      21.570 -14.258  23.587  0.00  0.00     0.075 H 
ATOM     28  C6  382 d   1      21.024 -13.828  26.305  0.00  0.00    -0.061 C 
ATOM     29  H1  382 d   1      22.964 -13.417  25.431  0.00  0.00     0.035 H 
ATOM     30  H2  382 d   1      22.849 -14.996  26.279  0.00  0.00     0.035 H 
ATOM     31  C5  382 d   1      20.060 -15.024  26.498  0.00  0.00    -0.033 C 
ATOM     32  H10 382 d   1      20.536 -13.066  25.680  0.00  0.00     0.033 H 
ATOM     33  H11 382 d   1      21.267 -13.396  27.287  0.00  0.00     0.033 H 
ATOM     34  H8  382 d   1      20.526 -15.769  27.160  0.00  0.00     0.036 H 
ATOM     35  H9  382 d   1      19.120 -14.670  26.948  0.00  0.00     0.036 H 
ATOM     36  H7  382 d   1      19.346 -14.869  24.499  0.00  0.00     0.093 H 
ENDBRANCH  17  20
ENDBRANCH  14  17
ENDBRANCH  12  14
ENDBRANCH   1  12
BRANCH   8  37
ATOM     37  C34 382 d   1      14.135 -11.676  20.715  0.00  0.00     0.015 C 
ATOM     38  H17 382 d   1      13.697 -12.060  19.782  0.00  0.00     0.047 H 
ATOM     39  H18 382 d   1      14.398 -10.616  20.587  0.00  0.00     0.047 H 
BRANCH  37  40
ATOM     40  C36 382 d   1      13.024 -11.724  21.770  0.00  0.00    -0.024 A 
ATOM     41  C39 382 d   1      12.916 -10.486  22.564  0.00  0.00    -0.074 A 
ATOM     42  C40 382 d   1      11.877 -10.387  23.596  0.00  0.00    -0.082 A 
ATOM     43  H19 382 d   1      13.595  -9.660  22.388  0.00  0.00     0.084 H 
ATOM     44  C41 382 d   1      10.966 -11.537  23.764  0.00  0.00    -0.081 A 
ATOM     45  H20 382 d   1      11.782  -9.501  24.213  0.00  0.00     0.083 H 
ATOM     46  C42 382 d   1      11.088 -12.773  22.961  0.00  0.00    -0.055 A 
ATOM     47  H21 382 d   1      10.177 -11.473  24.505  0.00  0.00     0.083 H 
ATOM     48  C43 382 d   1      12.147 -12.895  21.949  0.00  0.00     0.066 A 
ATOM     49  H22 382 d   1      10.395 -13.591  23.119  0.00  0.00     0.087 H 
BRANCH  48  50
ATOM     50  N48 382 d   1      12.334 -14.154  21.284  0.00  0.00    -0.226 N 
ATOM     51  N49 382 d   1      12.616 -15.338  21.906  0.00  0.00    -0.160 NA
ATOM     52  C50 382 d   1      12.691 -16.325  20.957  0.00  0.00     0.107 A 
ATOM     53  N51 382 d   1      12.448 -15.745  19.745  0.00  0.00    -0.233 NA
ATOM     54  H23 382 d   1      12.905 -17.378  21.137  0.00  0.00     0.149 H 
ATOM     55  C52 382 d   1      12.227 -14.405  19.949  0.00  0.00     0.090 A 
ATOM     56  H24 382 d   1      12.005 -13.670  19.177  0.00  0.00     0.146 H 
ENDBRANCH  48  50
ENDBRANCH  37  40
ENDBRANCH   8  37
TORSDOF 7
