REMARK  11 active torsions:
REMARK  status: ('A' for Active; 'I' for Inactive)
REMARK    1  A    between atoms: C3_3  and  O1_28 
REMARK    2  A    between atoms: C10_10  and  C19_19 
REMARK    3  A    between atoms: C13_13  and  C18_18 
REMARK    4  A    between atoms: C17_17  and  C20_20 
REMARK    5  A    between atoms: C20_20  and  C21_21 
REMARK    6  A    between atoms: C20_20  and  C22_22 
REMARK    7  A    between atoms: C22_22  and  C23_23 
REMARK    8  A    between atoms: C23_23  and  C24_24 
REMARK    9  A    between atoms: C24_24  and  C25_25 
REMARK   10  A    between atoms: C25_25  and  C26_26 
REMARK   11  A    between atoms: C25_25  and  C27_27 
ROOT
ATOM      1  C1  CLR d   1      57.740  36.054  33.427  0.00  0.00    -0.052 C 
ATOM      2  C2  CLR d   1      57.782  36.153  34.956  0.00  0.00    -0.040 C 
ATOM      3  C3  CLR d   1      56.376  36.020  35.547  0.00  0.00     0.039 C 
ATOM      4  C4  CLR d   1      55.796  34.654  35.173  0.00  0.00    -0.020 C 
ATOM      5  C5  CLR d   1      55.860  34.441  33.658  0.00  0.00    -0.072 C 
ATOM      6  C6  CLR d   1      54.723  34.010  32.984  0.00  0.00    -0.099 C 
ATOM      7  C7  CLR d   1      54.606  33.801  31.615  0.00  0.00    -0.045 C 
ATOM      8  C8  CLR d   1      55.962  33.742  30.902  0.00  0.00    -0.043 C 
ATOM      9  C9  CLR d   1      56.907  34.845  31.398  0.00  0.00    -0.039 C 
ATOM     10  C10 CLR d   1      57.166  34.731  32.907  0.00  0.00    -0.017 C 
ATOM     11  C11 CLR d   1      58.200  34.891  30.572  0.00  0.00    -0.060 C 
ATOM     12  C12 CLR d   1      57.948  34.952  29.059  0.00  0.00    -0.057 C 
ATOM     13  C13 CLR d   1      57.063  33.785  28.611  0.00  0.00    -0.036 C 
ATOM     14  C14 CLR d   1      55.753  33.896  29.393  0.00  0.00    -0.043 C 
ATOM     15  C15 CLR d   1      54.893  32.832  28.713  0.00  0.00    -0.060 C 
ATOM     16  C16 CLR d   1      55.127  33.190  27.242  0.00  0.00    -0.060 C 
ATOM     17  C17 CLR d   1      56.472  33.926  27.204  0.00  0.00    -0.044 C 
ATOM     18  H1  CLR d   1      58.766  36.161  33.044  0.00  0.00     0.034 H 
ATOM     19  H2  CLR d   1      57.118  36.876  33.043  0.00  0.00     0.034 H 
ATOM     20  H3  CLR d   1      58.203  37.128  35.243  0.00  0.00     0.036 H 
ATOM     21  H4  CLR d   1      58.418  35.348  35.352  0.00  0.00     0.036 H 
ATOM     22  H5  CLR d   1      55.732  36.815  35.143  0.00  0.00     0.083 H 
ATOM     23  H6  CLR d   1      54.748  34.604  35.502  0.00  0.00     0.043 H 
ATOM     24  H7  CLR d   1      56.376  33.865  35.674  0.00  0.00     0.043 H 
ATOM     25  H8  CLR d   1      53.837  33.817  33.588  0.00  0.00     0.077 H 
ATOM     26  H9  CLR d   1      54.018  34.624  31.183  0.00  0.00     0.039 H 
ATOM     27  H10 CLR d   1      54.081  32.849  31.449  0.00  0.00     0.039 H 
ATOM     28  H11 CLR d   1      56.424  32.764  31.104  0.00  0.00     0.041 H 
ATOM     29  H12 CLR d   1      56.394  35.804  31.237  0.00  0.00     0.042 H 
ATOM     30  H13 CLR d   1      58.788  33.988  30.793  0.00  0.00     0.033 H 
ATOM     31  H14 CLR d   1      58.772  35.783  30.867  0.00  0.00     0.033 H 
ATOM     32  H15 CLR d   1      58.911  34.899  28.530  0.00  0.00     0.034 H 
ATOM     33  H16 CLR d   1      57.447  35.900  28.814  0.00  0.00     0.034 H 
ATOM     34  H17 CLR d   1      55.300  34.885  29.228  0.00  0.00     0.041 H 
ATOM     35  H18 CLR d   1      53.833  32.927  28.991  0.00  0.00     0.033 H 
ATOM     36  H19 CLR d   1      55.244  31.816  28.945  0.00  0.00     0.033 H 
ATOM     37  H20 CLR d   1      54.322  33.843  26.873  0.00  0.00     0.033 H 
ATOM     38  H21 CLR d   1      55.171  32.279  26.628  0.00  0.00     0.033 H 
ATOM     39  H22 CLR d   1      56.279  34.995  27.030  0.00  0.00     0.041 H 
ENDROOT
BRANCH  17  40
ATOM     40  C20 CLR d   1      57.359  33.452  26.046  0.00  0.00    -0.053 C 
ATOM     41  H29 CLR d   1      57.660  32.411  26.234  0.00  0.00     0.040 H 
BRANCH  40  42
ATOM     42  C21 CLR d   1      58.616  34.319  25.951  0.00  0.00    -0.072 C 
ATOM     43  H30 CLR d   1      59.242  33.968  25.117  0.00  0.00     0.028 H 
ATOM     44  H31 CLR d   1      59.183  34.247  26.891  0.00  0.00     0.028 H 
ATOM     45  H32 CLR d   1      58.327  35.366  25.777  0.00  0.00     0.028 H 
ENDBRANCH  40  42
BRANCH  40  46
ATOM     46  C22 CLR d   1      56.581  33.511  24.727  0.00  0.00    -0.062 C 
ATOM     47  H33 CLR d   1      56.392  34.566  24.480  0.00  0.00     0.033 H 
ATOM     48  H34 CLR d   1      55.623  32.988  24.863  0.00  0.00     0.033 H 
BRANCH  46  49
ATOM     49  C23 CLR d   1      57.325  32.864  23.555  0.00  0.00    -0.064 C 
ATOM     50  H35 CLR d   1      57.522  31.810  23.799  0.00  0.00     0.033 H 
ATOM     51  H36 CLR d   1      58.279  33.391  23.407  0.00  0.00     0.033 H 
BRANCH  49  52
ATOM     52  C24 CLR d   1      56.520  32.927  22.253  0.00  0.00    -0.062 C 
ATOM     53  H37 CLR d   1      57.175  32.627  21.422  0.00  0.00     0.033 H 
ATOM     54  H38 CLR d   1      56.184  33.963  22.099  0.00  0.00     0.033 H 
BRANCH  52  55
ATOM     55  C25 CLR d   1      55.291  32.011  22.262  0.00  0.00    -0.061 C 
ATOM     56  H39 CLR d   1      55.630  31.003  22.542  0.00  0.00     0.038 H 
BRANCH  55  57
ATOM     57  C26 CLR d   1      54.648  31.921  20.876  0.00  0.00    -0.073 C 
ATOM     58  H40 CLR d   1      53.772  31.257  20.921  0.00  0.00     0.028 H 
ATOM     59  H41 CLR d   1      55.378  31.517  20.159  0.00  0.00     0.028 H 
ATOM     60  H42 CLR d   1      54.332  32.924  20.552  0.00  0.00     0.028 H 
ENDBRANCH  55  57
BRANCH  55  61
ATOM     61  C27 CLR d   1      54.258  32.462  23.297  0.00  0.00    -0.073 C 
ATOM     62  H43 CLR d   1      54.733  32.522  24.287  0.00  0.00     0.028 H 
ATOM     63  H44 CLR d   1      53.432  31.737  23.331  0.00  0.00     0.028 H 
ATOM     64  H45 CLR d   1      53.867  33.451  23.017  0.00  0.00     0.028 H 
ENDBRANCH  55  61
ENDBRANCH  52  55
ENDBRANCH  49  52
ENDBRANCH  46  49
ENDBRANCH  40  46
ENDBRANCH  17  40
BRANCH  13  65
ATOM     65  C18 CLR d   1      57.754  32.431  28.824  0.00  0.00    -0.068 C 
ATOM     66  H23 CLR d   1      58.159  32.383  29.846  0.00  0.00     0.028 H 
ATOM     67  H24 CLR d   1      58.574  32.320  28.099  0.00  0.00     0.028 H 
ATOM     68  H25 CLR d   1      57.025  31.620  28.680  0.00  0.00     0.028 H 
ENDBRANCH  13  65
BRANCH  10  69
ATOM     69  C19 CLR d   1      58.137  33.584  33.205  0.00  0.00    -0.065 C 
ATOM     70  H26 CLR d   1      58.308  33.521  34.290  0.00  0.00     0.028 H 
ATOM     71  H27 CLR d   1      59.093  33.770  32.694  0.00  0.00     0.028 H 
ATOM     72  H28 CLR d   1      57.708  32.637  32.846  0.00  0.00     0.028 H 
ENDBRANCH  10  69
BRANCH   3  73
ATOM     73  O1  CLR d   1      56.438  36.137  36.971  0.00  0.00    -0.395 OA
ATOM     74  H46 CLR d   1      56.993  35.450  37.320  0.00  0.00     0.210 HD
ENDBRANCH   3  73
TORSDOF 11
