REMARK  3 active torsions:
REMARK  status: ('A' for Active; 'I' for Inactive)
REMARK    1  A    between atoms: C13_8  and  N15_10 
REMARK    2  A    between atoms: N15_10  and  C16_11 
REMARK    3  A    between atoms: N15_10  and  C17_12 
ROOT
ATOM      1  C2  K25 d   1      21.523   8.754  19.104  0.00  0.00     0.049 A 
ATOM      2  C3  K25 d   1      21.285   8.259  20.405  0.00  0.00     0.049 A 
ATOM      3  C4  K25 d   1      21.977   7.127  20.856  0.00  0.00     0.059 A 
ATOM      4  C5  K25 d   1      22.415   8.109  18.235  0.00  0.00     0.061 A 
ATOM      5  N6  K25 d   1      23.704   5.413  20.185  0.00  0.00    -0.186 N 
ATOM      6  C7  K25 d   1      23.151   6.984  18.700  0.00  0.00     0.123 A 
ATOM      7  C8  K25 d   1      22.890   6.518  19.986  0.00  0.00     0.099 A 
ATOM      8  C13 K25 d   1      24.347   5.196  19.014  0.00  0.00     0.703 C 
ATOM      9  N14 K25 d   1      24.109   6.216  18.167  0.00  0.00    -0.061 NA
ATOM     10 BR1  K25 d   1      20.467  10.203  18.473  0.00  0.00    -0.048 Br
ATOM     11 BR9  K25 d   1      19.981   9.058  21.558  0.00  0.00    -0.048 Br
ATOM     12 BR10 K25 d   1      21.852   6.412  22.621  0.00  0.00    -0.047 Br
ATOM     13 BR11 K25 d   1      22.925   8.869  16.574  0.00  0.00    -0.047 Br
ATOM     14  H1  K25 d   1      23.800   4.866  21.052  0.00  0.00     0.184 HD
ENDROOT
BRANCH   8  15
ATOM     15  N15 K25 d   1      25.279   4.162  18.904  0.00  0.00    -0.225 N 
BRANCH  15  16
ATOM     16  C16 K25 d   1      25.488   3.267  20.007  0.00  0.00    -0.003 C 
ATOM     17  H2  K25 d   1      26.253   2.524  19.737  0.00  0.00     0.057 H 
ATOM     18  H3  K25 d   1      24.546   2.752  20.245  0.00  0.00     0.057 H 
ATOM     19  H4  K25 d   1      25.826   3.838  20.884  0.00  0.00     0.057 H 
ENDBRANCH  15  16
BRANCH  15  20
ATOM     20  C17 K25 d   1      25.989   3.959  17.671  0.00  0.00    -0.003 C 
ATOM     21  H5  K25 d   1      25.701   4.738  16.950  0.00  0.00     0.057 H 
ATOM     22  H6  K25 d   1      25.738   2.969  17.262  0.00  0.00     0.057 H 
ATOM     23  H7  K25 d   1      27.072   4.015  17.858  0.00  0.00     0.057 H 
ENDBRANCH  15  20
ENDBRANCH   8  15
TORSDOF 3
