REMARK  2 active torsions:
REMARK  status: ('A' for Active; 'I' for Inactive)
REMARK    1  A    between atoms: C9_9  and  S_10 
REMARK    2  A    between atoms: S_10  and  C11_11 
ROOT
ATOM      1  C1  K37 d   1      20.960   9.193  18.501  0.00  0.00     0.049 A 
ATOM      2  C2  K37 d   1      21.931   8.556  17.726  0.00  0.00     0.049 A 
ATOM      3  C3  K37 d   1      22.608   7.425  18.193  0.00  0.00     0.060 A 
ATOM      4  C4  K37 d   1      20.644   8.696  19.767  0.00  0.00     0.059 A 
ATOM      5  N5  K37 d   1      21.198   6.950  21.368  0.00  0.00    -0.332 N 
ATOM      6  C6  K37 d   1      21.306   7.562  20.205  0.00  0.00     0.083 A 
ATOM      7  C7  K37 d   1      22.266   6.945  19.451  0.00  0.00     0.106 A 
ATOM      8  N8  K37 d   1      22.771   5.946  20.157  0.00  0.00    -0.221 NA
ATOM      9  C9  K37 d   1      22.099   5.962  21.312  0.00  0.00     0.167 A 
ATOM     10 BR10 K37 d   1      19.386   9.576  20.875  0.00  0.00    -0.047 Br
ATOM     11 BR11 K37 d   1      19.987  10.694  17.853  0.00  0.00    -0.048 Br
ATOM     12 BR12 K37 d   1      22.378   9.252  16.017  0.00  0.00    -0.048 Br
ATOM     13 BR13 K37 d   1      23.926   6.567  17.128  0.00  0.00    -0.047 Br
ATOM     14  H1  K37 d   1      20.563   7.181  22.145  0.00  0.00     0.168 HD
ENDROOT
BRANCH   9  15
ATOM     15  S   K37 d   1      22.258   4.778  22.614  0.00  0.00    -0.096 SA
BRANCH  15  16
ATOM     16  C11 K37 d   1      22.619   3.151  21.902  0.00  0.00    -0.027 C 
ATOM     17  H2  K37 d   1      22.719   2.411  22.710  0.00  0.00     0.042 H 
ATOM     18  H3  K37 d   1      23.559   3.200  21.332  0.00  0.00     0.042 H 
ATOM     19  H4  K37 d   1      21.799   2.854  21.232  0.00  0.00     0.042 H 
ENDBRANCH  15  16
ENDBRANCH   9  15
TORSDOF 2
