REMARK  1 active torsions:
REMARK  status: ('A' for Active; 'I' for Inactive)
REMARK    1  A    between atoms: N10_10  and  C11_11 
ROOT
ATOM      1  C1  K44 d   1      22.709   8.055  18.103  0.00  0.00     0.049 A 
ATOM      2  C2  K44 d   1      21.685   8.671  18.836  0.00  0.00     0.049 A 
ATOM      3  C3  K44 d   1      21.385   8.185  20.101  0.00  0.00     0.059 A 
ATOM      4  C4  K44 d   1      23.412   6.993  18.633  0.00  0.00     0.061 A 
ATOM      5  N5  K44 d   1      23.651   5.483  20.531  0.00  0.00    -0.061 NA
ATOM      6  C6  K44 d   1      23.091   6.516  19.887  0.00  0.00     0.123 A 
ATOM      7  C7  K44 d   1      22.116   7.129  20.635  0.00  0.00     0.101 A 
ATOM      8  N8  K44 d   1      22.099   6.445  21.764  0.00  0.00    -0.176 N 
ATOM      9  C9  K44 d   1      22.974   5.485  21.670  0.00  0.00     0.705 A 
ATOM     10  N10 K44 d   1      23.049   4.718  22.777  0.00  0.00    -0.218 N 
ATOM     11  C12 K44 d   1      21.367   6.473  22.994  0.00  0.00     0.032 C 
ATOM     12  C14 K44 d   1      21.895   5.066  23.641  0.00  0.00     0.027 C 
ATOM     13 BR10 K44 d   1      24.784   6.134  17.655  0.00  0.00    -0.047 Br
ATOM     14 BR11 K44 d   1      23.167   8.741  16.407  0.00  0.00    -0.048 Br
ATOM     15 BR12 K44 d   1      20.744  10.106  18.018  0.00  0.00    -0.048 Br
ATOM     16 BR13 K44 d   1      20.034   9.039  21.112  0.00  0.00    -0.047 Br
ATOM     17  H4  K44 d   1      20.280   6.467  22.827  0.00  0.00     0.068 H 
ATOM     18  H5  K44 d   1      21.638   7.340  23.615  0.00  0.00     0.068 H 
ATOM     19  H6  K44 d   1      22.210   5.204  24.686  0.00  0.00     0.067 H 
ATOM     20  H7  K44 d   1      21.116   4.291  23.592  0.00  0.00     0.067 H 
ENDROOT
BRANCH  10  21
ATOM     21  C11 K44 d   1      23.613   3.382  22.705  0.00  0.00    -0.002 C 
ATOM     22  H1  K44 d   1      23.587   2.919  23.702  0.00  0.00     0.057 H 
ATOM     23  H2  K44 d   1      24.654   3.442  22.356  0.00  0.00     0.057 H 
ATOM     24  H3  K44 d   1      23.025   2.773  22.003  0.00  0.00     0.057 H 
ENDBRANCH  10  21
TORSDOF 1
