REMARK  20 active torsions:
REMARK  status: ('A' for Active; 'I' for Inactive)
REMARK    1  A    between atoms: C1_1  and  O1_2 
REMARK    2  A    between atoms: O1_2  and  C2_3 
REMARK    3  A    between atoms: C5_6  and  S1_9 
REMARK    4  A    between atoms: S1_9  and  N1_12 
REMARK    5  A    between atoms: N1_12  and  C8_13 
REMARK    6  A    between atoms: N1_12  and  C12_17 
REMARK    7  A    between atoms: C8_13  and  C9_14 
REMARK    8  A    between atoms: C9_14  and  C10_15 
REMARK    9  A    between atoms: C9_14  and  C11_16 
REMARK   10  A    between atoms: C12_17  and  C13_18 
REMARK   11  A    between atoms: C13_18  and  O4_19 
REMARK   12  A    between atoms: C13_18  and  C14_20 
REMARK   13  A    between atoms: C14_20  and  C15_21 
REMARK   14  A    between atoms: C14_20  and  N2_28 
REMARK   15  A    between atoms: C15_21  and  C16_22 
REMARK   16  A    between atoms: C23_30  and  C24_31 
REMARK   17  A    between atoms: C24_31  and  O5_32 
REMARK   18  A    between atoms: O5_32  and  C25_33 
REMARK       I    between atoms: C25_33  and  N3_35 
REMARK   19  A    between atoms: N3_35  and  C26_36 
REMARK   20  A    between atoms: C27_37  and  O7_38 
ROOT
ATOM      1  C14 AB2 d   1     -10.492  16.391  27.745  0.00  0.00     0.065 C 
ATOM      2  H21 AB2 d   1      -9.983  15.744  27.016  0.00  0.00     0.080 H 
ENDROOT
BRANCH   1   3
ATOM      3  C13 AB2 d   1     -10.164  17.875  27.344  0.00  0.00     0.073 C 
ATOM      4  H19 AB2 d   1      -9.222  18.158  27.836  0.00  0.00     0.088 H 
BRANCH   3   5
ATOM      5  C12 AB2 d   1      -9.959  17.973  25.798  0.00  0.00     0.031 C 
ATOM      6  H17 AB2 d   1     -10.792  17.438  25.318  0.00  0.00     0.069 H 
ATOM      7  H18 AB2 d   1     -10.000  19.038  25.524  0.00  0.00     0.069 H 
BRANCH   5   8
ATOM      8  N1  AB2 d   1      -8.707  17.423  25.258  0.00  0.00    -0.304 N 
BRANCH   8   9
ATOM      9  S1  AB2 d   1      -8.806  15.902  24.431  0.00  0.00     0.260 S 
ATOM     10  O2  AB2 d   1     -10.013  15.157  24.362  0.00  0.00    -0.200 OA
ATOM     11  O3  AB2 d   1      -7.779  15.005  24.874  0.00  0.00    -0.200 OA
BRANCH   9  12
ATOM     12  C5  AB2 d   1      -8.499  16.218  22.720  0.00  0.00     0.079 A 
ATOM     13  C4  AB2 d   1      -9.541  16.605  21.912  0.00  0.00    -0.058 A 
ATOM     14  C3  AB2 d   1      -9.278  16.893  20.562  0.00  0.00    -0.049 A 
ATOM     15  H5  AB2 d   1     -10.547  16.686  22.308  0.00  0.00     0.086 H 
ATOM     16  C2  AB2 d   1      -7.986  16.702  20.079  0.00  0.00     0.068 A 
ATOM     17  H4  AB2 d   1     -10.064  17.256  19.910  0.00  0.00     0.087 H 
ATOM     18  C7  AB2 d   1      -6.932  16.313  20.898  0.00  0.00    -0.049 A 
ATOM     19  C6  AB2 d   1      -7.190  16.085  22.257  0.00  0.00    -0.058 A 
ATOM     20  H7  AB2 d   1      -5.933  16.189  20.495  0.00  0.00     0.087 H 
ATOM     21  H6  AB2 d   1      -6.389  15.811  22.934  0.00  0.00     0.086 H 
BRANCH  16  22
ATOM     22  O1  AB2 d   1      -7.726  16.906  18.755  0.00  0.00    -0.356 OA
BRANCH  22  23
ATOM     23  C1  AB2 d   1      -6.618  16.243  18.149  0.00  0.00     0.010 C 
ATOM     24  H1  AB2 d   1      -6.560  16.522  17.087  0.00  0.00     0.066 H 
ATOM     25  H2  AB2 d   1      -6.750  15.154  18.235  0.00  0.00     0.066 H 
ATOM     26  H3  AB2 d   1      -5.689  16.541  18.657  0.00  0.00     0.066 H 
ENDBRANCH  22  23
ENDBRANCH  16  22
ENDBRANCH   9  12
ENDBRANCH   8   9
BRANCH   8  27
ATOM     27  C8  AB2 d   1      -7.503  18.078  25.723  0.00  0.00     0.008 C 
ATOM     28  H8  AB2 d   1      -7.810  19.083  26.049  0.00  0.00     0.066 H 
ATOM     29  H9  AB2 d   1      -6.845  18.162  24.846  0.00  0.00     0.066 H 
BRANCH  27  30
ATOM     30  C9  AB2 d   1      -6.632  17.513  26.854  0.00  0.00    -0.045 C 
ATOM     31  H10 AB2 d   1      -7.375  16.924  27.412  0.00  0.00     0.041 H 
BRANCH  30  32
ATOM     32  C10 AB2 d   1      -5.647  16.409  26.439  0.00  0.00    -0.072 C 
ATOM     33  H11 AB2 d   1      -5.076  16.077  27.319  0.00  0.00     0.028 H 
ATOM     34  H12 AB2 d   1      -4.955  16.802  25.680  0.00  0.00     0.028 H 
ATOM     35  H13 AB2 d   1      -6.205  15.558  26.021  0.00  0.00     0.028 H 
ENDBRANCH  30  32
BRANCH  30  36
ATOM     36  C11 AB2 d   1      -6.187  18.491  27.938  0.00  0.00    -0.072 C 
ATOM     37  H14 AB2 d   1      -6.990  19.218  28.128  0.00  0.00     0.028 H 
ATOM     38  H15 AB2 d   1      -5.283  19.022  27.605  0.00  0.00     0.028 H 
ATOM     39  H16 AB2 d   1      -5.967  17.938  28.863  0.00  0.00     0.028 H 
ENDBRANCH  30  36
ENDBRANCH  27  30
ENDBRANCH   8  27
ENDBRANCH   5   8
ENDBRANCH   3   5
BRANCH   3  40
ATOM     40  O4  AB2 d   1     -11.150  18.772  27.764  0.00  0.00    -0.392 OA
ATOM     41  H20 AB2 d   1     -10.886  19.657  27.542  0.00  0.00     0.210 HD
ENDBRANCH   3  40
ENDBRANCH   1   3
BRANCH   1  42
ATOM     42  C15 AB2 d   1     -12.024  16.051  27.622  0.00  0.00    -0.018 C 
ATOM     43  H22 AB2 d   1     -12.384  16.321  26.618  0.00  0.00     0.043 H 
ATOM     44  H23 AB2 d   1     -12.590  16.614  28.378  0.00  0.00     0.043 H 
BRANCH  42  45
ATOM     45  C16 AB2 d   1     -12.211  14.549  27.850  0.00  0.00    -0.056 A 
ATOM     46  C17 AB2 d   1     -12.022  13.672  26.781  0.00  0.00    -0.077 A 
ATOM     47  C18 AB2 d   1     -12.138  12.310  27.034  0.00  0.00    -0.082 A 
ATOM     48  H24 AB2 d   1     -11.793  14.040  25.788  0.00  0.00     0.084 H 
ATOM     49  C19 AB2 d   1     -12.532  11.907  28.300  0.00  0.00    -0.083 A 
ATOM     50  H25 AB2 d   1     -11.925  11.581  26.260  0.00  0.00     0.083 H 
ATOM     51  C20 AB2 d   1     -12.767  12.766  29.363  0.00  0.00    -0.082 A 
ATOM     52  H26 AB2 d   1     -12.666  10.845  28.471  0.00  0.00     0.083 H 
ATOM     53  C21 AB2 d   1     -12.596  14.133  29.113  0.00  0.00    -0.077 A 
ATOM     54  H27 AB2 d   1     -13.068  12.398  30.337  0.00  0.00     0.083 H 
ATOM     55  H28 AB2 d   1     -12.764  14.859  29.901  0.00  0.00     0.084 H 
ENDBRANCH  42  45
ENDBRANCH   1  42
BRANCH   1  56
ATOM     56  N2  AB2 d   1      -9.894  16.096  29.047  0.00  0.00    -0.253 N 
ATOM     57  C22 AB2 d   1     -10.387  16.298  30.309  0.00  0.00     0.028 A 
ATOM     58  C23 AB2 d   1      -9.417  15.880  31.197  0.00  0.00     0.099 A 
ATOM     59  H29 AB2 d   1     -11.362  16.711  30.564  0.00  0.00     0.117 H 
ATOM     60  N4  AB2 d   1      -8.391  15.364  30.470  0.00  0.00    -0.133 NA
ATOM     61  N5  AB2 d   1      -8.666  15.549  29.218  0.00  0.00    -0.066 NA
BRANCH  58  62
ATOM     62  C24 AB2 d   1      -9.535  15.877  32.690  0.00  0.00     0.073 C 
ATOM     63  H30 AB2 d   1      -9.415  16.898  33.080  0.00  0.00     0.085 H 
ATOM     64  H31 AB2 d   1      -8.766  15.224  33.128  0.00  0.00     0.085 H 
BRANCH  62  65
ATOM     65  O5  AB2 d   1     -10.831  15.383  33.004  0.00  0.00    -0.298 OA
BRANCH  65  66
ATOM     66  C25 AB2 d   1     -11.387  15.369  34.231  0.00  0.00     0.361 C 
ATOM     67  O6  AB2 d   1     -11.467  16.404  34.858  0.00  0.00    -0.238 OA
ATOM     68  N3  AB2 d   1     -11.816  14.165  34.674  0.00  0.00    -0.326 N 
ATOM     69  H32 AB2 d   1     -11.248  13.712  35.362  0.00  0.00     0.165 HD
BRANCH  68  70
ATOM     70  C26 AB2 d   1     -13.049  13.442  34.243  0.00  0.00     0.065 C 
ATOM     71  C27 AB2 d   1     -13.445  13.640  32.752  0.00  0.00     0.063 C 
ATOM     72  C28 AB2 d   1     -13.890  12.251  32.317  0.00  0.00    -0.014 C 
ATOM     73  H34 AB2 d   1     -12.518  13.869  32.206  0.00  0.00     0.087 H 
ATOM     74  C29 AB2 d   1     -13.172  11.274  33.255  0.00  0.00    -0.047 A 
ATOM     75  H36 AB2 d   1     -13.599  12.064  31.273  0.00  0.00     0.044 H 
ATOM     76  H37 AB2 d   1     -14.980  12.148  32.418  0.00  0.00     0.044 H 
ATOM     77  C30 AB2 d   1     -12.954   9.903  33.156  0.00  0.00    -0.076 A 
ATOM     78  C34 AB2 d   1     -12.689  11.976  34.352  0.00  0.00    -0.026 A 
ATOM     79  C31 AB2 d   1     -12.261   9.224  34.164  0.00  0.00    -0.082 A 
ATOM     80  H38 AB2 d   1     -13.323   9.359  32.294  0.00  0.00     0.084 H 
ATOM     81  C32 AB2 d   1     -11.783   9.936  35.252  0.00  0.00    -0.082 A 
ATOM     82  H39 AB2 d   1     -12.100   8.154  34.094  0.00  0.00     0.083 H 
ATOM     83  C33 AB2 d   1     -11.958  11.303  35.321  0.00  0.00    -0.074 A 
ATOM     84  H40 AB2 d   1     -11.269   9.417  36.053  0.00  0.00     0.083 H 
ATOM     85  H41 AB2 d   1     -11.519  11.858  36.142  0.00  0.00     0.084 H 
ATOM     86  H33 AB2 d   1     -13.892  13.713  34.896  0.00  0.00     0.084 H 
BRANCH  71  87
ATOM     87  O7  AB2 d   1     -14.320  14.716  32.426  0.00  0.00    -0.393 OA
ATOM     88  H35 AB2 d   1     -14.478  14.722  31.489  0.00  0.00     0.210 HD
ENDBRANCH  71  87
ENDBRANCH  68  70
ENDBRANCH  65  66
ENDBRANCH  62  65
ENDBRANCH  58  62
ENDBRANCH   1  56
TORSDOF 20
