REMARK  25 active torsions:
REMARK  status: ('A' for Active; 'I' for Inactive)
REMARK       I    between atoms: C_1  and  N_3 
REMARK    1  A    between atoms: C_1  and  C25_37 
REMARK    2  A    between atoms: N_3  and  C1_4 
REMARK    3  A    between atoms: C1_4  and  C2_5 
REMARK    4  A    between atoms: N1_7  and  C4_10 
REMARK    5  A    between atoms: C4_10  and  C5_11 
REMARK    6  A    between atoms: C4_10  and  C18_29 
REMARK    7  A    between atoms: C5_11  and  C6_12 
REMARK    8  A    between atoms: C5_11  and  O4_30 
REMARK    9  A    between atoms: C6_12  and  N4_13 
REMARK   10  A    between atoms: N4_13  and  C7_14 
REMARK   11  A    between atoms: N4_13  and  S_18 
REMARK   12  A    between atoms: C7_14  and  C8_15 
REMARK   13  A    between atoms: C8_15  and  C9_16 
REMARK   14  A    between atoms: C8_15  and  C10_17 
REMARK   15  A    between atoms: S_18  and  C11_21 
REMARK   16  A    between atoms: C14_24  and  O3_27 
REMARK   17  A    between atoms: O3_27  and  C17_28 
REMARK   18  A    between atoms: C18_29  and  C19_31 
REMARK   19  A    between atoms: C28_40  and  C31_43 
REMARK   20  A    between atoms: C31_43  and  N5_44 
REMARK       I    between atoms: N5_44  and  C45_45 
REMARK   21  A    between atoms: C45_45  and  O47_47 
REMARK   22  A    between atoms: O47_47  and  C48_48 
REMARK   23  A    between atoms: C48_48  and  C49_49 
REMARK   24  A    between atoms: C48_48  and  C50_50 
REMARK   25  A    between atoms: C48_48  and  C51_51 
ROOT
ATOM      1  C4  A83 d   1     -10.253  16.194  27.326  0.00  0.00     0.065 C 
ATOM      2  H5  A83 d   1      -9.693  15.610  26.581  0.00  0.00     0.080 H 
ENDROOT
BRANCH   1   3
ATOM      3  N1  A83 d   1      -9.679  15.911  28.651  0.00  0.00    -0.253 N 
ATOM      4  C3  A83 d   1     -10.011  16.339  29.900  0.00  0.00     0.028 A 
ATOM      5  C2  A83 d   1      -9.149  15.733  30.782  0.00  0.00     0.093 A 
ATOM      6  H4  A83 d   1     -10.811  17.033  30.153  0.00  0.00     0.117 H 
ATOM      7  N3  A83 d   1      -8.321  14.925  30.056  0.00  0.00    -0.134 NA
ATOM      8  N2  A83 d   1      -8.637  15.036  28.810  0.00  0.00    -0.066 NA
BRANCH   5   9
ATOM      9  C1  A83 d   1      -9.146  15.935  32.287  0.00  0.00     0.038 C 
ATOM     10  H2  A83 d   1      -8.119  15.843  32.669  0.00  0.00     0.073 H 
ATOM     11  H3  A83 d   1      -9.537  16.935  32.525  0.00  0.00     0.073 H 
BRANCH   9  12
ATOM     12  N   A83 d   1      -9.993  14.917  32.908  0.00  0.00    -0.351 N 
ATOM     13  C   A83 d   1     -11.311  15.008  33.107  0.00  0.00     0.251 C 
ATOM     14  O   A83 d   1     -11.910  16.056  32.928  0.00  0.00    -0.268 OA
ATOM     15  H1  A83 d   1      -9.545  14.076  33.211  0.00  0.00     0.163 HD
BRANCH  13  16
ATOM     16  C25 A83 d   1     -12.076  13.856  33.552  0.00  0.00     0.032 A 
ATOM     17  C26 A83 d   1     -13.458  13.967  33.705  0.00  0.00    -0.067 A 
ATOM     18  C27 A83 d   1     -14.192  12.866  34.133  0.00  0.00    -0.074 A 
ATOM     19  H33 A83 d   1     -13.957  14.905  33.492  0.00  0.00     0.085 H 
ATOM     20  C28 A83 d   1     -13.556  11.665  34.407  0.00  0.00    -0.040 A 
ATOM     21  H34 A83 d   1     -15.266  12.947  34.253  0.00  0.00     0.084 H 
ATOM     22  C29 A83 d   1     -12.175  11.558  34.254  0.00  0.00    -0.074 A 
ATOM     23  C30 A83 d   1     -11.441  12.655  33.810  0.00  0.00    -0.067 A 
ATOM     24  H35 A83 d   1     -11.674  10.624  34.480  0.00  0.00     0.084 H 
ATOM     25  H36 A83 d   1     -10.370  12.567  33.666  0.00  0.00     0.085 H 
BRANCH  20  26
ATOM     26  C31 A83 d   1     -14.330  10.453  34.870  0.00  0.00     0.021 C 
ATOM     27  H37 A83 d   1     -13.738   9.910  35.621  0.00  0.00     0.071 H 
ATOM     28  H38 A83 d   1     -14.522   9.795  34.009  0.00  0.00     0.071 H 
BRANCH  26  29
ATOM     29  N5  A83 d   1     -15.613  10.858  35.465  0.00  0.00    -0.333 N 
ATOM     30  C45 A83 d   1     -16.727  10.130  35.207  0.00  0.00     0.361 C 
ATOM     31  O46 A83 d   1     -17.398   9.717  36.132  0.00  0.00    -0.238 OA
ATOM     32  H39 A83 d   1     -15.663  11.664  36.055  0.00  0.00     0.165 HD
BRANCH  30  33
ATOM     33  O47 A83 d   1     -17.087   9.865  33.950  0.00  0.00    -0.294 OA
BRANCH  33  34
ATOM     34  C48 A83 d   1     -16.516  10.260  32.706  0.00  0.00     0.061 C 
BRANCH  34  35
ATOM     35  C49 A83 d   1     -17.760  10.463  31.758  0.00  0.00    -0.048 C 
ATOM     36  H40 A83 d   1     -17.414  10.773  30.761  0.00  0.00     0.031 H 
ATOM     37  H41 A83 d   1     -18.417  11.240  32.176  0.00  0.00     0.031 H 
ATOM     38  H42 A83 d   1     -18.316   9.518  31.676  0.00  0.00     0.031 H 
ENDBRANCH  34  35
BRANCH  34  39
ATOM     39  C50 A83 d   1     -15.749  11.593  32.865  0.00  0.00    -0.048 C 
ATOM     40  H43 A83 d   1     -15.315  11.884  31.897  0.00  0.00     0.031 H 
ATOM     41  H44 A83 d   1     -14.945  11.467  33.605  0.00  0.00     0.031 H 
ATOM     42  H45 A83 d   1     -16.442  12.376  33.206  0.00  0.00     0.031 H 
ENDBRANCH  34  39
BRANCH  34  43
ATOM     43  C51 A83 d   1     -15.611   9.130  32.157  0.00  0.00    -0.048 C 
ATOM     44  H46 A83 d   1     -15.175   9.443  31.197  0.00  0.00     0.031 H 
ATOM     45  H47 A83 d   1     -16.211   8.220  32.008  0.00  0.00     0.031 H 
ATOM     46  H48 A83 d   1     -14.805   8.924  32.876  0.00  0.00     0.031 H 
ENDBRANCH  34  43
ENDBRANCH  33  34
ENDBRANCH  30  33
ENDBRANCH  26  29
ENDBRANCH  20  26
ENDBRANCH  13  16
ENDBRANCH   9  12
ENDBRANCH   5   9
ENDBRANCH   1   3
BRANCH   1  47
ATOM     47  C5  A83 d   1     -10.074  17.705  26.927  0.00  0.00     0.073 C 
ATOM     48  H6  A83 d   1      -9.283  18.113  27.573  0.00  0.00     0.088 H 
BRANCH  47  49
ATOM     49  C6  A83 d   1      -9.640  17.914  25.441  0.00  0.00     0.031 C 
ATOM     50  H7  A83 d   1      -9.412  18.978  25.281  0.00  0.00     0.069 H 
ATOM     51  H8  A83 d   1     -10.467  17.613  24.781  0.00  0.00     0.069 H 
BRANCH  49  52
ATOM     52  N4  A83 d   1      -8.472  17.130  25.116  0.00  0.00    -0.304 N 
BRANCH  52  53
ATOM     53  C7  A83 d   1      -7.161  17.647  25.438  0.00  0.00     0.008 C 
ATOM     54  H9  A83 d   1      -7.295  18.602  25.967  0.00  0.00     0.066 H 
ATOM     55  H10 A83 d   1      -6.625  17.823  24.494  0.00  0.00     0.066 H 
BRANCH  53  56
ATOM     56  C8  A83 d   1      -6.277  16.730  26.324  0.00  0.00    -0.045 C 
ATOM     57  H11 A83 d   1      -6.738  15.733  26.261  0.00  0.00     0.041 H 
BRANCH  56  58
ATOM     58  C9  A83 d   1      -4.843  16.555  25.779  0.00  0.00    -0.072 C 
ATOM     59  H12 A83 d   1      -4.273  15.897  26.451  0.00  0.00     0.028 H 
ATOM     60  H13 A83 d   1      -4.350  17.537  25.722  0.00  0.00     0.028 H 
ATOM     61  H14 A83 d   1      -4.884  16.107  24.775  0.00  0.00     0.028 H 
ENDBRANCH  56  58
BRANCH  56  62
ATOM     62  C10 A83 d   1      -6.308  17.102  27.830  0.00  0.00    -0.072 C 
ATOM     63  H15 A83 d   1      -7.352  17.213  28.159  0.00  0.00     0.028 H 
ATOM     64  H16 A83 d   1      -5.772  18.050  27.985  0.00  0.00     0.028 H 
ATOM     65  H17 A83 d   1      -5.822  16.307  28.414  0.00  0.00     0.028 H 
ENDBRANCH  56  62
ENDBRANCH  53  56
ENDBRANCH  52  53
BRANCH  52  66
ATOM     66  S   A83 d   1      -8.628  15.726  24.107  0.00  0.00     0.260 S 
ATOM     67  O1  A83 d   1      -9.952  15.169  24.252  0.00  0.00    -0.200 OA
ATOM     68  O2  A83 d   1      -7.686  14.701  24.453  0.00  0.00    -0.200 OA
BRANCH  66  69
ATOM     69  C11 A83 d   1      -8.407  16.139  22.436  0.00  0.00     0.079 A 
ATOM     70  C12 A83 d   1      -7.164  15.978  21.839  0.00  0.00    -0.058 A 
ATOM     71  C13 A83 d   1      -6.981  16.312  20.488  0.00  0.00    -0.049 A 
ATOM     72  H18 A83 d   1      -6.332  15.593  22.418  0.00  0.00     0.086 H 
ATOM     73  C14 A83 d   1      -8.052  16.822  19.780  0.00  0.00     0.068 A 
ATOM     74  H19 A83 d   1      -6.018  16.172  20.010  0.00  0.00     0.087 H 
ATOM     75  C15 A83 d   1      -9.306  16.963  20.369  0.00  0.00    -0.049 A 
ATOM     76  C16 A83 d   1      -9.481  16.619  21.698  0.00  0.00    -0.058 A 
ATOM     77  H20 A83 d   1     -10.141  17.340  19.790  0.00  0.00     0.087 H 
ATOM     78  H21 A83 d   1     -10.455  16.724  22.162  0.00  0.00     0.086 H 
BRANCH  73  79
ATOM     79  O3  A83 d   1      -7.904  17.131  18.483  0.00  0.00    -0.356 OA
BRANCH  79  80
ATOM     80  C17 A83 d   1      -6.714  16.993  17.738  0.00  0.00     0.010 C 
ATOM     81  H22 A83 d   1      -6.889  17.323  16.703  0.00  0.00     0.066 H 
ATOM     82  H23 A83 d   1      -6.401  15.938  17.738  0.00  0.00     0.066 H 
ATOM     83  H24 A83 d   1      -5.924  17.610  18.191  0.00  0.00     0.066 H 
ENDBRANCH  79  80
ENDBRANCH  73  79
ENDBRANCH  66  69
ENDBRANCH  52  66
ENDBRANCH  49  52
ENDBRANCH  47  49
BRANCH  47  84
ATOM     84  O4  A83 d   1     -11.245  18.474  27.127  0.00  0.00    -0.392 OA
ATOM     85  H27 A83 d   1     -11.924  18.176  26.533  0.00  0.00     0.210 HD
ENDBRANCH  47  84
ENDBRANCH   1  47
BRANCH   1  86
ATOM     86  C18 A83 d   1     -11.716  15.653  27.328  0.00  0.00    -0.018 C 
ATOM     87  H25 A83 d   1     -12.105  15.781  26.307  0.00  0.00     0.043 H 
ATOM     88  H26 A83 d   1     -12.290  16.286  28.021  0.00  0.00     0.043 H 
BRANCH  86  89
ATOM     89  C19 A83 d   1     -11.979  14.223  27.721  0.00  0.00    -0.056 A 
ATOM     90  C20 A83 d   1     -11.459  13.177  26.947  0.00  0.00    -0.077 A 
ATOM     91  C21 A83 d   1     -11.697  11.854  27.291  0.00  0.00    -0.082 A 
ATOM     92  H28 A83 d   1     -10.864  13.404  26.070  0.00  0.00     0.084 H 
ATOM     93  C22 A83 d   1     -12.444  11.557  28.427  0.00  0.00    -0.083 A 
ATOM     94  H29 A83 d   1     -11.302  11.053  26.676  0.00  0.00     0.083 H 
ATOM     95  C23 A83 d   1     -12.961  12.587  29.206  0.00  0.00    -0.082 A 
ATOM     96  H30 A83 d   1     -12.623  10.524  28.704  0.00  0.00     0.083 H 
ATOM     97  C24 A83 d   1     -12.747  13.911  28.842  0.00  0.00    -0.077 A 
ATOM     98  H31 A83 d   1     -13.532  12.357  30.098  0.00  0.00     0.083 H 
ATOM     99  H32 A83 d   1     -13.181  14.708  29.435  0.00  0.00     0.084 H 
ENDBRANCH  86  89
ENDBRANCH   1  86
TORSDOF 25
