REMARK  10 active torsions:
REMARK  status: ('A' for Active; 'I' for Inactive)
REMARK    1  A    between atoms: C14_1  and  C4_9 
REMARK    2  A    between atoms: C17_4  and  O1_7 
REMARK    3  A    between atoms: O1_7  and  C3_8 
REMARK    4  A    between atoms: C7_12  and  S1_15 
REMARK    5  A    between atoms: S1_15  and  N1_18 
REMARK    6  A    between atoms: N1_18  and  C10_19 
REMARK    7  A    between atoms: C10_19  and  C11_20 
REMARK    8  A    between atoms: C10_19  and  P1_23 
REMARK    9  A    between atoms: C11_20  and  C12_21 
REMARK   10  A    between atoms: C11_20  and  C13_22 
ROOT
ATOM      1  C4  EIN d   1      10.073  21.384  12.849  0.00  0.00    -0.026 A 
ATOM      2  C5  EIN d   1      11.534  21.373  13.019  0.00  0.00    -0.071 A 
ATOM      3  C6  EIN d   1      12.216  22.497  13.586  0.00  0.00    -0.059 A 
ATOM      4  C7  EIN d   1      11.483  23.671  13.995  0.00  0.00     0.079 A 
ATOM      5  C8  EIN d   1      10.024  23.724  13.842  0.00  0.00    -0.059 A 
ATOM      6  C9  EIN d   1       9.322  22.591  13.270  0.00  0.00    -0.071 A 
ATOM      7  H8  EIN d   1      12.102  20.503  12.711  0.00  0.00     0.084 H 
ATOM      8  H9  EIN d   1      13.293  22.466  13.709  0.00  0.00     0.085 H 
ATOM      9  H10 EIN d   1       9.475  24.605  14.155  0.00  0.00     0.085 H 
ATOM     10  H11 EIN d   1       8.245  22.627  13.150  0.00  0.00     0.084 H 
ENDROOT
BRANCH   4  11
ATOM     11  S1  EIN d   1      12.361  25.031  14.679  0.00  0.00     0.259 S 
ATOM     12  O2  EIN d   1      11.734  26.339  14.218  0.00  0.00    -0.201 OA
ATOM     13  O3  EIN d   1      13.848  24.963  14.227  0.00  0.00    -0.201 OA
BRANCH  11  14
ATOM     14  N1  EIN d   1      12.263  24.907  16.399  0.00  0.00    -0.297 N 
ATOM     15  H12 EIN d   1      12.984  24.389  16.859  0.00  0.00     0.173 HD
BRANCH  14  16
ATOM     16  C10 EIN d   1      11.224  25.489  17.243  0.00  0.00     0.130 C 
ATOM     17  H13 EIN d   1      10.625  26.194  16.648  0.00  0.00     0.096 H 
BRANCH  16  18
ATOM     18  C11 EIN d   1      11.860  26.251  18.486  0.00  0.00    -0.028 C 
ATOM     19  H14 EIN d   1      12.272  25.513  19.191  0.00  0.00     0.043 H 
BRANCH  18  20
ATOM     20  C12 EIN d   1      10.897  27.237  19.202  0.00  0.00    -0.071 C 
ATOM     21  H15 EIN d   1      11.420  27.715  20.043  0.00  0.00     0.028 H 
ATOM     22  H16 EIN d   1      10.022  26.687  19.579  0.00  0.00     0.028 H 
ATOM     23  H17 EIN d   1      10.566  28.008  18.491  0.00  0.00     0.028 H 
ENDBRANCH  18  20
BRANCH  18  24
ATOM     24  C13 EIN d   1      12.909  27.237  18.008  0.00  0.00    -0.071 C 
ATOM     25  H18 EIN d   1      13.697  26.698  17.462  0.00  0.00     0.028 H 
ATOM     26  H19 EIN d   1      13.350  27.752  18.874  0.00  0.00     0.028 H 
ATOM     27  H20 EIN d   1      12.441  27.976  17.342  0.00  0.00     0.028 H 
ENDBRANCH  18  24
ENDBRANCH  16  18
BRANCH  16  28
ATOM     28  P1  EIN d   1      10.171  24.175  17.876  0.00  0.00     0.284 P 
ATOM     29  O4  EIN d   1       8.515  24.516  17.760  0.00  0.00    -0.638 OA
ATOM     30  O5  EIN d   1      10.331  23.722  19.526  0.00  0.00    -0.638 OA
ATOM     31  O6  EIN d   1      10.249  22.786  17.003  0.00  0.00    -0.638 OA
ENDBRANCH  16  28
ENDBRANCH  14  16
ENDBRANCH  11  14
ENDBRANCH   4  11
BRANCH   1  32
ATOM     32  C14 EIN d   1       9.381  20.204  12.252  0.00  0.00    -0.026 A 
ATOM     33  C15 EIN d   1       9.832  18.831  12.571  0.00  0.00    -0.070 A 
ATOM     34  C16 EIN d   1       9.175  17.694  11.993  0.00  0.00    -0.050 A 
ATOM     35  H1  EIN d   1      10.666  18.683  13.247  0.00  0.00     0.085 H 
ATOM     36  C17 EIN d   1       8.019  17.893  11.056  0.00  0.00     0.068 A 
ATOM     37  H2  EIN d   1       9.513  16.692  12.233  0.00  0.00     0.087 H 
ATOM     38  C1  EIN d   1       7.575  19.246  10.749  0.00  0.00    -0.050 A 
ATOM     39  C2  EIN d   1       8.247  20.386  11.338  0.00  0.00    -0.070 A 
ATOM     40  H3  EIN d   1       6.738  19.400  10.077  0.00  0.00     0.087 H 
ATOM     41  H4  EIN d   1       7.908  21.388  11.100  0.00  0.00     0.085 H 
BRANCH  36  42
ATOM     42  O1  EIN d   1       7.309  16.759  10.431  0.00  0.00    -0.356 OA
BRANCH  42  43
ATOM     43  C3  EIN d   1       7.901  15.478  10.712  0.00  0.00     0.010 C 
ATOM     44  H5  EIN d   1       7.319  14.688  10.215  0.00  0.00     0.066 H 
ATOM     45  H6  EIN d   1       7.901  15.305  11.798  0.00  0.00     0.066 H 
ATOM     46  H7  EIN d   1       8.935  15.462  10.338  0.00  0.00     0.066 H 
ENDBRANCH  42  43
ENDBRANCH  36  42
ENDBRANCH   1  32
TORSDOF 10
