REMARK  25 active torsions:
REMARK  status: ('A' for Active; 'I' for Inactive)
REMARK    1  A    between atoms: C_2  and  O2_3 
REMARK       I    between atoms: C_2  and  N_8 
REMARK    2  A    between atoms: O2_3  and  CT_4 
REMARK    3  A    between atoms: CT_4  and  C1_5 
REMARK    4  A    between atoms: CT_4  and  C2_6 
REMARK    5  A    between atoms: CT_4  and  C3_7 
REMARK    6  A    between atoms: N_8  and  CA_9 
REMARK    7  A    between atoms: CA_9  and  C_10 
REMARK    8  A    between atoms: CA_9  and  CB_12 
REMARK    9  A    between atoms: C_10  and  OR_11 
REMARK   10  A    between atoms: C_10  and  CM_19 
REMARK   11  A    between atoms: CB_12  and  CG_13 
REMARK   12  A    between atoms: CM_19  and  N_20 
REMARK   13  A    between atoms: N_20  and  CA_21 
REMARK   14  A    between atoms: CA_21  and  C_22 
REMARK   15  A    between atoms: CA_21  and  CB_24 
REMARK       I    between atoms: C_22  and  N_31 
REMARK   16  A    between atoms: CB_24  and  CG_25 
REMARK   17  A    between atoms: N_31  and  CA_32 
REMARK   18  A    between atoms: CA_32  and  C_33 
REMARK   19  A    between atoms: CA_32  and  CB_35 
REMARK       I    between atoms: C_33  and  N_40 
REMARK   20  A    between atoms: CB_35  and  CG_36 
REMARK   21  A    between atoms: CG_36  and  CD_37 
REMARK   22  A    between atoms: N_40  and  CA_41 
REMARK   23  A    between atoms: CA_41  and  C_42 
REMARK   24  A    between atoms: CA_41  and  CB_44 
REMARK       I    between atoms: C_42  and  N_51 
REMARK   25  A    between atoms: CB_44  and  CG_45 
ROOT
ATOM      1  CA  0ZS d   1     -23.294  36.200  26.877  0.00  0.00     0.181 C 
ATOM      2  H25 0ZS d   1     -23.536  35.175  26.561  0.00  0.00     0.100 H 
ENDROOT
BRANCH   1   3
ATOM      3  N   0ZS d   1     -21.888  36.229  27.225  0.00  0.00    -0.060 N 
ATOM      4  H23 0ZS d   1     -21.653  35.342  27.642  0.00  0.00     0.278 HD
ATOM      5  H24 0ZS d   1     -21.360  36.351  26.375  0.00  0.00     0.278 HD
BRANCH   3   6
ATOM      6  CM  0ZS d   1     -21.490  37.286  28.159  0.00  0.00     0.108 C 
ATOM      7  H21 0ZS d   1     -22.266  38.066  28.162  0.00  0.00     0.079 H 
ATOM      8  H22 0ZS d   1     -21.401  36.853  29.166  0.00  0.00     0.079 H 
BRANCH   6   9
ATOM      9  C   0ZS d   1     -20.144  37.928  27.775  0.00  0.00     0.078 C 
ATOM     10  H12 0ZS d   1     -19.351  37.169  27.846  0.00  0.00     0.088 H 
BRANCH   9  11
ATOM     11  CA  0ZS d   1     -19.807  39.106  28.709  0.00  0.00     0.044 C 
ATOM     12  H11 0ZS d   1     -20.445  39.956  28.425  0.00  0.00     0.077 H 
BRANCH  11  13
ATOM     13  N   0ZS d   1     -20.065  38.796  30.108  0.00  0.00    -0.329 N 
ATOM     14  C   0ZS d   1     -21.087  39.332  30.821  0.00  0.00     0.361 C 
ATOM     15  O1  0ZS d   1     -21.902  40.152  30.445  0.00  0.00    -0.238 OA
ATOM     16  H10 0ZS d   1     -19.455  38.152  30.569  0.00  0.00     0.165 HD
BRANCH  14  17
ATOM     17  O2  0ZS d   1     -20.995  38.892  32.102  0.00  0.00    -0.294 OA
BRANCH  17  18
ATOM     18  CT  0ZS d   1     -22.180  39.016  32.965  0.00  0.00     0.061 C 
BRANCH  18  19
ATOM     19  C1  0ZS d   1     -21.843  38.373  34.298  0.00  0.00    -0.048 C 
ATOM     20  H1  0ZS d   1     -22.710  38.448  34.971  0.00  0.00     0.031 H 
ATOM     21  H2  0ZS d   1     -20.984  38.891  34.748  0.00  0.00     0.031 H 
ATOM     22  H3  0ZS d   1     -21.591  37.314  34.141  0.00  0.00     0.031 H 
ENDBRANCH  18  19
BRANCH  18  23
ATOM     23  C2  0ZS d   1     -23.320  38.287  32.265  0.00  0.00    -0.048 C 
ATOM     24  H4  0ZS d   1     -24.230  38.355  32.879  0.00  0.00     0.031 H 
ATOM     25  H5  0ZS d   1     -23.049  37.230  32.127  0.00  0.00     0.031 H 
ATOM     26  H6  0ZS d   1     -23.504  38.750  31.284  0.00  0.00     0.031 H 
ENDBRANCH  18  23
BRANCH  18  27
ATOM     27  C3  0ZS d   1     -22.451  40.507  33.100  0.00  0.00    -0.048 C 
ATOM     28  H7  0ZS d   1     -23.332  40.663  33.739  0.00  0.00     0.031 H 
ATOM     29  H8  0ZS d   1     -22.639  40.937  32.105  0.00  0.00     0.031 H 
ATOM     30  H9  0ZS d   1     -21.578  40.999  33.553  0.00  0.00     0.031 H 
ENDBRANCH  18  27
ENDBRANCH  17  18
ENDBRANCH  14  17
ENDBRANCH  11  13
BRANCH  11  31
ATOM     31  CB  0ZS d   1     -18.341  39.520  28.537  0.00  0.00    -0.020 C 
ATOM     32  H14 0ZS d   1     -18.042  39.317  27.498  0.00  0.00     0.043 H 
ATOM     33  H15 0ZS d   1     -17.727  38.915  29.220  0.00  0.00     0.043 H 
BRANCH  31  34
ATOM     34  CG  0ZS d   1     -18.085  40.985  28.832  0.00  0.00    -0.056 A 
ATOM     35  CD1 0ZS d   1     -19.097  41.920  28.719  0.00  0.00    -0.077 A 
ATOM     36  CE1 0ZS d   1     -18.856  43.257  28.976  0.00  0.00    -0.082 A 
ATOM     37  H16 0ZS d   1     -20.091  41.601  28.426  0.00  0.00     0.084 H 
ATOM     38  CZ  0ZS d   1     -17.592  43.671  29.351  0.00  0.00    -0.083 A 
ATOM     39  H18 0ZS d   1     -19.658  43.980  28.883  0.00  0.00     0.083 H 
ATOM     40  CE2 0ZS d   1     -16.568  42.746  29.467  0.00  0.00    -0.082 A 
ATOM     41  H20 0ZS d   1     -17.402  44.719  29.554  0.00  0.00     0.083 H 
ATOM     42  CD2 0ZS d   1     -16.821  41.409  29.215  0.00  0.00    -0.077 A 
ATOM     43  H19 0ZS d   1     -15.573  43.068  29.754  0.00  0.00     0.083 H 
ATOM     44  H17 0ZS d   1     -16.022  40.684  29.318  0.00  0.00     0.084 H 
ENDBRANCH  31  34
ENDBRANCH  11  31
ENDBRANCH   9  11
BRANCH   9  45
ATOM     45  OR  0ZS d   1     -20.214  38.423  26.440  0.00  0.00    -0.392 OA
ATOM     46  H13 0ZS d   1     -20.421  37.709  25.849  0.00  0.00     0.210 HD
ENDBRANCH   9  45
ENDBRANCH   6   9
ENDBRANCH   3   6
ENDBRANCH   1   3
BRANCH   1  47
ATOM     47  C   0ZS d   1     -23.624  37.152  25.725  0.00  0.00     0.249 C 
ATOM     48  O   0ZS d   1     -23.978  38.313  25.935  0.00  0.00    -0.271 OA
ATOM     49  N   0ZS d   1     -23.627  36.624  24.505  0.00  0.00    -0.346 N 
ATOM     50  H33 0ZS d   1     -23.470  35.644  24.382  0.00  0.00     0.163 HD
BRANCH  49  51
ATOM     51  CA  0ZS d   1     -23.860  37.479  23.345  0.00  0.00     0.090 C 
ATOM     52  H34 0ZS d   1     -24.384  38.382  23.692  0.00  0.00     0.087 H 
BRANCH  51  53
ATOM     53  C   0ZS d   1     -24.749  36.814  22.312  0.00  0.00     0.241 C 
ATOM     54  O   0ZS d   1     -24.548  35.674  21.924  0.00  0.00    -0.271 OA
ATOM     55  N   0ZS d   1     -25.754  37.542  21.836  0.00  0.00    -0.346 N 
ATOM     56  H39 0ZS d   1     -25.935  38.461  22.188  0.00  0.00     0.163 HD
BRANCH  55  57
ATOM     57  CA  0ZS d   1     -26.592  36.960  20.779  0.00  0.00     0.093 C 
ATOM     58  H40 0ZS d   1     -26.044  36.118  20.330  0.00  0.00     0.088 H 
BRANCH  57  59
ATOM     59  C   0ZS d   1     -26.845  38.000  19.692  0.00  0.00     0.238 C 
ATOM     60  O   0ZS d   1     -27.201  39.141  19.974  0.00  0.00    -0.271 OA
ATOM     61  N   0ZS d   1     -26.632  37.598  18.432  0.00  0.00    -0.368 N 
ATOM     62  H48 0ZS d   1     -26.780  38.232  17.673  0.00  0.00     0.159 HD
ATOM     63  H49 0ZS d   1     -26.325  36.664  18.250  0.00  0.00     0.159 HD
ENDBRANCH  57  59
BRANCH  57  64
ATOM     64  CB  0ZS d   1     -27.901  36.421  21.339  0.00  0.00    -0.014 C 
ATOM     65  H41 0ZS d   1     -27.658  35.758  22.183  0.00  0.00     0.043 H 
ATOM     66  H42 0ZS d   1     -28.392  35.839  20.545  0.00  0.00     0.043 H 
BRANCH  64  67
ATOM     67  CG  0ZS d   1     -28.894  37.459  21.835  0.00  0.00    -0.056 A 
ATOM     68  CD1 0ZS d   1     -29.695  38.176  20.968  0.00  0.00    -0.077 A 
ATOM     69  CE1 0ZS d   1     -30.581  39.120  21.431  0.00  0.00    -0.082 A 
ATOM     70  H43 0ZS d   1     -29.624  37.991  19.902  0.00  0.00     0.084 H 
ATOM     71  CZ  0ZS d   1     -30.702  39.364  22.790  0.00  0.00    -0.083 A 
ATOM     72  H45 0ZS d   1     -31.189  39.678  20.728  0.00  0.00     0.083 H 
ATOM     73  CE2 0ZS d   1     -29.906  38.655  23.667  0.00  0.00    -0.082 A 
ATOM     74  H47 0ZS d   1     -31.409  40.099  23.158  0.00  0.00     0.083 H 
ATOM     75  CD2 0ZS d   1     -29.010  37.711  23.195  0.00  0.00    -0.077 A 
ATOM     76  H46 0ZS d   1     -29.983  38.839  24.733  0.00  0.00     0.083 H 
ATOM     77  H44 0ZS d   1     -28.392  37.162  23.896  0.00  0.00     0.084 H 
ENDBRANCH  64  67
ENDBRANCH  57  64
ENDBRANCH  55  57
ENDBRANCH  51  53
BRANCH  51  78
ATOM     78  CB  0ZS d   1     -22.517  37.915  22.761  0.00  0.00    -0.029 C 
ATOM     79  H35 0ZS d   1     -22.027  37.031  22.327  0.00  0.00     0.037 H 
ATOM     80  H36 0ZS d   1     -21.898  38.313  23.579  0.00  0.00     0.037 H 
BRANCH  78  81
ATOM     81  CG  0ZS d   1     -22.621  38.980  21.681  0.00  0.00     0.018 C 
ATOM     82  H37 0ZS d   1     -21.676  39.540  21.632  0.00  0.00     0.049 H 
ATOM     83  H38 0ZS d   1     -23.443  39.668  21.928  0.00  0.00     0.049 H 
BRANCH  81  84
ATOM     84  CD  0ZS d   1     -22.894  38.337  20.330  0.00  0.00     0.172 C 
ATOM     85  OE1 0ZS d   1     -22.839  39.031  19.294  0.00  0.00    -0.648 OA
ATOM     86  OE2 0ZS d   1     -23.046  37.097  20.292  0.00  0.00    -0.648 OA
ENDBRANCH  81  84
ENDBRANCH  78  81
ENDBRANCH  51  78
ENDBRANCH  49  51
ENDBRANCH   1  47
BRANCH   1  87
ATOM     87  CB  0ZS d   1     -24.197  36.566  28.064  0.00  0.00    -0.006 C 
ATOM     88  H26 0ZS d   1     -23.935  37.572  28.424  0.00  0.00     0.043 H 
ATOM     89  H27 0ZS d   1     -24.047  35.836  28.873  0.00  0.00     0.043 H 
BRANCH  87  90
ATOM     90  CG  0ZS d   1     -25.662  36.550  27.634  0.00  0.00    -0.056 A 
ATOM     91  CD1 0ZS d   1     -26.147  35.476  26.904  0.00  0.00    -0.077 A 
ATOM     92  CE1 0ZS d   1     -27.464  35.435  26.488  0.00  0.00    -0.082 A 
ATOM     93  H28 0ZS d   1     -25.483  34.656  26.656  0.00  0.00     0.084 H 
ATOM     94  CZ  0ZS d   1     -28.304  36.488  26.804  0.00  0.00    -0.083 A 
ATOM     95  H30 0ZS d   1     -27.834  34.589  25.921  0.00  0.00     0.083 H 
ATOM     96  CE2 0ZS d   1     -27.833  37.561  27.541  0.00  0.00    -0.082 A 
ATOM     97  H32 0ZS d   1     -29.336  36.473  26.473  0.00  0.00     0.083 H 
ATOM     98  CD2 0ZS d   1     -26.514  37.593  27.941  0.00  0.00    -0.077 A 
ATOM     99  H31 0ZS d   1     -28.500  38.374  27.803  0.00  0.00     0.083 H 
ATOM    100  H29 0ZS d   1     -26.142  38.444  28.501  0.00  0.00     0.084 H 
ENDBRANCH  87  90
ENDBRANCH   1  87
TORSDOF 25
