REMARK  10 active torsions:
REMARK  status: ('A' for Active; 'I' for Inactive)
REMARK    1  A    between atoms: C14_1  and  C4_9 
REMARK    2  A    between atoms: C17_4  and  O1_7 
REMARK    3  A    between atoms: O1_7  and  C3_8 
REMARK    4  A    between atoms: C7_12  and  S1_15 
REMARK    5  A    between atoms: S1_15  and  N1_18 
REMARK    6  A    between atoms: N1_18  and  C10_19 
REMARK    7  A    between atoms: C10_19  and  C11_20 
REMARK    8  A    between atoms: C10_19  and  P1_23 
REMARK    9  A    between atoms: C11_20  and  C12_21 
REMARK   10  A    between atoms: C11_20  and  C13_22 
ROOT
ATOM      1  C4  FIN d   1      -1.631  22.941   6.897  0.00  0.00    -0.026 A 
ATOM      2  C5  FIN d   1      -0.814  22.756   8.106  0.00  0.00    -0.071 A 
ATOM      3  C6  FIN d   1      -1.277  23.282   9.378  0.00  0.00    -0.059 A 
ATOM      4  C7  FIN d   1      -2.574  24.007   9.455  0.00  0.00     0.079 A 
ATOM      5  C8  FIN d   1      -3.368  24.205   8.263  0.00  0.00    -0.059 A 
ATOM      6  C9  FIN d   1      -2.918  23.681   6.995  0.00  0.00    -0.071 A 
ATOM      7  H8  FIN d   1       0.131  22.229   8.048  0.00  0.00     0.084 H 
ATOM      8  H9  FIN d   1      -0.678  23.146  10.271  0.00  0.00     0.085 H 
ATOM      9  H10 FIN d   1      -4.304  24.748   8.321  0.00  0.00     0.085 H 
ATOM     10  H11 FIN d   1      -3.523  23.828   6.107  0.00  0.00     0.084 H 
ENDROOT
BRANCH   4  11
ATOM     11  S1  FIN d   1      -3.145  24.622  11.000  0.00  0.00     0.259 S 
ATOM     12  O2  FIN d   1      -4.585  24.693  10.885  0.00  0.00    -0.201 OA
ATOM     13  O3  FIN d   1      -2.649  23.695  11.974  0.00  0.00    -0.201 OA
BRANCH  11  14
ATOM     14  N1  FIN d   1      -2.612  26.129  11.396  0.00  0.00    -0.297 N 
ATOM     15  H12 FIN d   1      -1.864  26.208  12.055  0.00  0.00     0.173 HD
BRANCH  14  16
ATOM     16  C10 FIN d   1      -3.134  27.271  10.875  0.00  0.00     0.130 C 
ATOM     17  H13 FIN d   1      -3.930  27.040  10.151  0.00  0.00     0.096 H 
BRANCH  16  18
ATOM     18  C11 FIN d   1      -3.719  28.130  12.050  0.00  0.00    -0.028 C 
ATOM     19  H14 FIN d   1      -4.011  29.090  11.599  0.00  0.00     0.043 H 
BRANCH  18  20
ATOM     20  C12 FIN d   1      -4.937  27.537  12.677  0.00  0.00    -0.071 C 
ATOM     21  H15 FIN d   1      -5.288  28.192  13.488  0.00  0.00     0.028 H 
ATOM     22  H16 FIN d   1      -4.693  26.545  13.086  0.00  0.00     0.028 H 
ATOM     23  H17 FIN d   1      -5.728  27.437  11.919  0.00  0.00     0.028 H 
ENDBRANCH  18  20
BRANCH  18  24
ATOM     24  C13 FIN d   1      -2.751  28.451  13.210  0.00  0.00    -0.071 C 
ATOM     25  H18 FIN d   1      -1.829  28.894  12.806  0.00  0.00     0.028 H 
ATOM     26  H19 FIN d   1      -2.507  27.525  13.751  0.00  0.00     0.028 H 
ATOM     27  H20 FIN d   1      -3.228  29.163  13.899  0.00  0.00     0.028 H 
ENDBRANCH  18  24
ENDBRANCH  16  18
BRANCH  16  28
ATOM     28  P1  FIN d   1      -1.822  28.097  10.080  0.00  0.00     0.284 P 
ATOM     29  O4  FIN d   1      -2.131  29.568   9.904  0.00  0.00    -0.638 OA
ATOM     30  O5  FIN d   1      -0.565  27.958  10.870  0.00  0.00    -0.638 OA
ATOM     31  O6  FIN d   1      -1.654  27.467   8.822  0.00  0.00    -0.638 OA
ENDBRANCH  16  28
ENDBRANCH  14  16
ENDBRANCH  11  14
ENDBRANCH   4  11
BRANCH   1  32
ATOM     32  C14 FIN d   1      -1.190  22.376   5.578  0.00  0.00    -0.026 A 
ATOM     33  C15 FIN d   1      -0.220  21.284   5.537  0.00  0.00    -0.070 A 
ATOM     34  C16 FIN d   1       0.198  20.706   4.236  0.00  0.00    -0.050 A 
ATOM     35  H1  FIN d   1       0.195  20.895   6.460  0.00  0.00     0.085 H 
ATOM     36  C17 FIN d   1      -0.369  21.230   2.985  0.00  0.00     0.068 A 
ATOM     37  H2  FIN d   1       0.920  19.898   4.208  0.00  0.00     0.087 H 
ATOM     38  C1  FIN d   1      -1.330  22.314   3.030  0.00  0.00    -0.050 A 
ATOM     39  C2  FIN d   1      -1.747  22.892   4.324  0.00  0.00    -0.070 A 
ATOM     40  H3  FIN d   1      -1.746  22.703   2.108  0.00  0.00     0.087 H 
ATOM     41  H4  FIN d   1      -2.468  23.701   4.346  0.00  0.00     0.085 H 
BRANCH  36  42
ATOM     42  O1  FIN d   1       0.016  20.680   1.688  0.00  0.00    -0.356 OA
BRANCH  42  43
ATOM     43  C3  FIN d   1       0.693  19.420   1.569  0.00  0.00     0.010 C 
ATOM     44  H5  FIN d   1       0.883  19.205   0.507  0.00  0.00     0.066 H 
ATOM     45  H6  FIN d   1       0.065  18.625   1.997  0.00  0.00     0.066 H 
ATOM     46  H7  FIN d   1       1.649  19.465   2.111  0.00  0.00     0.066 H 
ENDBRANCH  42  43
ENDBRANCH  36  42
ENDBRANCH   1  32
TORSDOF 10
