REMARK  11 active torsions:
REMARK  status: ('A' for Active; 'I' for Inactive)
REMARK    1  A    between atoms: N_1  and  CA_2 
REMARK    2  A    between atoms: CA_2  and  CB_3 
REMARK    3  A    between atoms: CA_2  and  C_6 
REMARK    4  A    between atoms: CB_3  and  CG_4 
REMARK    5  A    between atoms: CG_4  and  SD_5 
REMARK    6  A    between atoms: SD_5  and  C5'_9 
REMARK    7  A    between atoms: C5'_9  and  C4'_10 
REMARK    8  A    between atoms: C3'_12  and  O3'_13 
REMARK    9  A    between atoms: C2'_14  and  O2'_15 
REMARK   10  A    between atoms: C1'_16  and  N9_17 
REMARK   11  A    between atoms: C6_21  and  N6_22 
ROOT
ATOM      1  C4' SAH d   1      22.303  44.379   8.035  0.00  0.00     0.076 C 
ATOM      2  O4' SAH d   1      22.028  45.760   7.824  0.00  0.00    -0.355 OA
ATOM      3  C3' SAH d   1      23.662  44.104   7.373  0.00  0.00     0.090 C 
ATOM      4  C2' SAH d   1      24.072  45.450   6.781  0.00  0.00     0.105 C 
ATOM      5  C1' SAH d   1      22.697  46.097   6.624  0.00  0.00     0.139 C 
ATOM      6  H11 SAH d   1      21.538  43.759   7.545  0.00  0.00     0.088 H 
ATOM      7  H12 SAH d   1      24.404  43.761   8.110  0.00  0.00     0.091 H 
ATOM      8  H14 SAH d   1      24.690  46.008   7.500  0.00  0.00     0.093 H 
ATOM      9  H16 SAH d   1      22.179  45.646   5.765  0.00  0.00     0.122 H 
ENDROOT
BRANCH   1  10
ATOM     10  C5' SAH d   1      22.251  44.115   9.537  0.00  0.00     0.003 C 
ATOM     11  H9  SAH d   1      23.047  44.703  10.017  0.00  0.00     0.052 H 
ATOM     12  H10 SAH d   1      21.272  44.449   9.911  0.00  0.00     0.052 H 
BRANCH  10  13
ATOM     13  SD  SAH d   1      22.472  42.373  10.002  0.00  0.00    -0.166 SA
BRANCH  13  14
ATOM     14  CG  SAH d   1      20.866  41.672   9.529  0.00  0.00    -0.021 C 
ATOM     15  H7  SAH d   1      20.405  41.197  10.408  0.00  0.00     0.049 H 
ATOM     16  H8  SAH d   1      20.213  42.477   9.162  0.00  0.00     0.049 H 
BRANCH  14  17
ATOM     17  CB  SAH d   1      21.047  40.620   8.420  0.00  0.00    -0.021 C 
ATOM     18  H5  SAH d   1      21.282  41.159   7.490  0.00  0.00     0.037 H 
ATOM     19  H6  SAH d   1      21.901  39.987   8.703  0.00  0.00     0.037 H 
BRANCH  17  20
ATOM     20  CA  SAH d   1      19.860  39.685   8.123  0.00  0.00     0.183 C 
ATOM     21  H4  SAH d   1      20.203  39.012   7.323  0.00  0.00     0.101 H 
BRANCH  20  22
ATOM     22  N   SAH d   1      18.665  40.408   7.585  0.00  0.00    -0.065 N 
ATOM     23  H1  SAH d   1      18.946  40.995   6.815  0.00  0.00     0.275 HD
ATOM     24  H2  SAH d   1      18.262  40.978   8.312  0.00  0.00     0.275 HD
ATOM     25  H3  SAH d   1      17.983  39.738   7.266  0.00  0.00     0.275 HD
ENDBRANCH  20  22
BRANCH  20  26
ATOM     26  C   SAH d   1      19.458  38.781   9.302  0.00  0.00     0.204 C 
ATOM     27  O   SAH d   1      18.258  38.500   9.455  0.00  0.00    -0.646 OA
ATOM     28  OXT SAH d   1      20.301  38.309  10.077  0.00  0.00    -0.646 OA
ENDBRANCH  20  26
ENDBRANCH  17  20
ENDBRANCH  14  17
ENDBRANCH  13  14
ENDBRANCH  10  13
ENDBRANCH   1  10
BRANCH   3  29
ATOM     29  O3' SAH d   1      23.490  43.118   6.371  0.00  0.00    -0.390 OA
ATOM     30  H13 SAH d   1      22.872  43.433   5.721  0.00  0.00     0.210 HD
ENDBRANCH   3  29
BRANCH   5  31
ATOM     31  N9  SAH d   1      22.721  47.547   6.422  0.00  0.00    -0.294 N 
ATOM     32  C8  SAH d   1      23.511  48.494   7.018  0.00  0.00     0.071 A 
ATOM     33  N7  SAH d   1      23.179  49.703   6.512  0.00  0.00    -0.236 NA
ATOM     34  H17 SAH d   1      24.275  48.305   7.770  0.00  0.00     0.144 H 
ATOM     35  C5  SAH d   1      22.177  49.552   5.615  0.00  0.00     0.149 A 
ATOM     36  C6  SAH d   1      21.463  50.450   4.818  0.00  0.00     0.155 A 
ATOM     37  C4  SAH d   1      21.877  48.191   5.554  0.00  0.00     0.167 A 
ATOM     38  N1  SAH d   1      20.474  49.956   4.002  0.00  0.00    -0.222 NA
ATOM     39  C2  SAH d   1      20.193  48.600   3.946  0.00  0.00     0.091 A 
ATOM     40  N3  SAH d   1      20.905  47.719   4.735  0.00  0.00    -0.222 NA
ATOM     41  H20 SAH d   1      19.417  48.232   3.285  0.00  0.00     0.146 H 
BRANCH  36  42
ATOM     42  N6  SAH d   1      21.714  51.771   4.846  0.00  0.00    -0.382 N 
ATOM     43  H18 SAH d   1      21.172  52.411   4.248  0.00  0.00     0.157 HD
ATOM     44  H19 SAH d   1      22.448  52.143   5.466  0.00  0.00     0.157 HD
ENDBRANCH  36  42
ENDBRANCH   5  31
BRANCH   4  45
ATOM     45  O2' SAH d   1      24.776  45.398   5.551  0.00  0.00    -0.388 OA
ATOM     46  H15 SAH d   1      24.235  44.974   4.895  0.00  0.00     0.210 HD
ENDBRANCH   4  45
TORSDOF 11
