REMARK  4 active torsions:
REMARK  status: ('A' for Active; 'I' for Inactive)
REMARK    1  A    between atoms: N_1  and  CA_2 
REMARK    2  A    between atoms: CA_2  and  C_3 
REMARK    3  A    between atoms: CA_2  and  CB_5 
REMARK    4  A    between atoms: CB_5  and  CG_6 
ROOT
ATOM      1  CG  TRP d   1      49.647  11.391  21.786  0.00  0.00    -0.028 A 
ATOM      2  CD1 TRP d   1      50.891  10.819  21.896  0.00  0.00    -0.015 A 
ATOM      3  CD2 TRP d   1      48.705  10.321  21.934  0.00  0.00    -0.002 A 
ATOM      4  NE1 TRP d   1      50.781   9.471  22.081  0.00  0.00    -0.365 N 
ATOM      5  CE2 TRP d   1      49.453   9.134  22.126  0.00  0.00     0.042 A 
ATOM      6  CE3 TRP d   1      47.306  10.241  21.905  0.00  0.00    -0.070 A 
ATOM      7  CZ2 TRP d   1      48.836   7.872  22.265  0.00  0.00    -0.056 A 
ATOM      8  CZ3 TRP d   1      46.710   8.990  22.053  0.00  0.00    -0.082 A 
ATOM      9  CH2 TRP d   1      47.468   7.836  22.239  0.00  0.00    -0.081 A 
ATOM     10  H7  TRP d   1      51.832  11.364  21.843  0.00  0.00     0.112 H 
ATOM     11  H8  TRP d   1      51.569   8.813  22.172  0.00  0.00     0.165 HD
ATOM     12  H9  TRP d   1      46.702  11.131  21.771  0.00  0.00     0.084 H 
ATOM     13  H10 TRP d   1      49.422   6.968  22.387  0.00  0.00     0.086 H 
ATOM     14  H11 TRP d   1      45.629   8.913  22.023  0.00  0.00     0.083 H 
ATOM     15  H12 TRP d   1      46.962   6.886  22.366  0.00  0.00     0.083 H 
ENDROOT
BRANCH   1  16
ATOM     16  CB  TRP d   1      49.342  12.836  21.557  0.00  0.00    -0.003 C 
ATOM     17  H5  TRP d   1      48.249  12.947  21.510  0.00  0.00     0.044 H 
ATOM     18  H6  TRP d   1      49.731  13.403  22.415  0.00  0.00     0.044 H 
BRANCH  16  19
ATOM     19  CA  TRP d   1      49.938  13.453  20.270  0.00  0.00     0.186 C 
ATOM     20  H4  TRP d   1      51.035  13.449  20.347  0.00  0.00     0.101 H 
BRANCH  19  21
ATOM     21  N   TRP d   1      49.488  14.827  20.110  0.00  0.00    -0.065 N 
ATOM     22  H1  TRP d   1      49.770  15.369  20.912  0.00  0.00     0.275 HD
ATOM     23  H2  TRP d   1      48.483  14.844  20.030  0.00  0.00     0.275 HD
ATOM     24  H3  TRP d   1      49.898  15.220  19.278  0.00  0.00     0.275 HD
ENDBRANCH  19  21
BRANCH  19  25
ATOM     25  C   TRP d   1      49.524  12.606  19.068  0.00  0.00     0.204 C 
ATOM     26  O   TRP d   1      49.377  13.145  17.955  0.00  0.00    -0.646 OA
ATOM     27  OXT TRP d   1      49.377  11.369  19.246  0.00  0.00    -0.646 OA
ENDBRANCH  19  25
ENDBRANCH  16  19
ENDBRANCH   1  16
TORSDOF 4
