REMARK  5 active torsions:
REMARK  status: ('A' for Active; 'I' for Inactive)
REMARK    1  A    between atoms: C2_4  and  N2_5 
REMARK    2  A    between atoms: N9_12  and  C1_13 
REMARK    3  A    between atoms: C3_16  and  O3_17 
REMARK    4  A    between atoms: C4_18  and  C5_19 
REMARK    5  A    between atoms: C5_19  and  O5_20 
ROOT
ATOM      1  C1  8HG d   1       2.544  28.502  -5.243  0.00  0.00     0.119 C 
ATOM      2  O4  8HG d   1       3.733  29.284  -4.976  0.00  0.00    -0.356 OA
ATOM      3  C2  8HG d   1       1.744  29.349  -6.227  0.00  0.00     0.003 C 
ATOM      4  C3  8HG d   1       2.782  30.211  -6.916  0.00  0.00     0.066 C 
ATOM      5  C4  8HG d   1       4.100  29.761  -6.281  0.00  0.00     0.086 C 
ATOM      6  H5  8HG d   1       2.865  27.570  -5.732  0.00  0.00     0.119 H 
ATOM      7  H6  8HG d   1       1.010  29.973  -5.696  0.00  0.00     0.043 H 
ATOM      8  H7  8HG d   1       1.223  28.711  -6.956  0.00  0.00     0.043 H 
ATOM      9  H8  8HG d   1       2.615  31.287  -6.758  0.00  0.00     0.087 H 
ATOM     10  H10 8HG d   1       4.488  28.908  -6.857  0.00  0.00     0.090 H 
ENDROOT
BRANCH   1  11
ATOM     11  N9  8HG d   1       1.647  28.105  -4.110  0.00  0.00    -0.253 N 
ATOM     12  C4  8HG d   1       1.667  28.563  -2.859  0.00  0.00     0.187 A 
ATOM     13  N3  8HG d   1       2.471  29.477  -2.276  0.00  0.00    -0.044 NA
ATOM     14  C5  8HG d   1       0.654  27.937  -2.104  0.00  0.00     0.153 A 
ATOM     15  C2  8HG d   1       2.287  29.772  -0.991  0.00  0.00     0.703 A 
ATOM     16  N1  8HG d   1       1.344  29.215  -0.230  0.00  0.00    -0.153 N 
ATOM     17  C6  8HG d   1       0.521  28.301  -0.750  0.00  0.00     0.290 A 
ATOM     18  H1  8HG d   1       1.253  29.482   0.730  0.00  0.00     0.187 HD
ATOM     19  O6  8HG d   1      -0.345  27.796   0.004  0.00  0.00    -0.265 OA
ATOM     20  N7  8HG d   1       0.008  27.075  -2.935  0.00  0.00    -0.300 N 
ATOM     21  C8  8HG d   1       0.635  27.219  -4.113  0.00  0.00     0.331 A 
ATOM     22  H4  8HG d   1      -0.759  26.472  -2.718  0.00  0.00     0.171 HD
ATOM     23  O20 8HG d   1       0.288  26.566  -5.164  0.00  0.00    -0.246 OA
BRANCH  15  24
ATOM     24  N2  8HG d   1       3.117  30.671  -0.513  0.00  0.00    -0.233 N 
ATOM     25  H2  8HG d   1       3.836  31.085  -1.124  0.00  0.00     0.174 HD
ATOM     26  H3  8HG d   1       3.049  30.962   0.473  0.00  0.00     0.174 HD
ENDBRANCH  15  24
ENDBRANCH   1  11
BRANCH   5  27
ATOM     27  C5  8HG d   1       5.185  30.818  -6.307  0.00  0.00     0.043 C 
ATOM     28  H11 8HG d   1       6.114  30.384  -6.705  0.00  0.00     0.078 H 
ATOM     29  H12 8HG d   1       5.362  31.192  -5.288  0.00  0.00     0.078 H 
BRANCH  27  30
ATOM     30  O5  8HG d   1       4.756  31.900  -7.152  0.00  0.00    -0.398 OA
ATOM     31  H13 8HG d   1       4.603  31.573  -8.031  0.00  0.00     0.209 HD
ENDBRANCH  27  30
ENDBRANCH   5  27
BRANCH   4  32
ATOM     32  O3  8HG d   1       2.675  29.882  -8.303  0.00  0.00    -0.393 OA
ATOM     33  H9  8HG d   1       1.797  30.079  -8.607  0.00  0.00     0.210 HD
ENDBRANCH   4  32
TORSDOF 5
