REMARK  4 active torsions:
REMARK  status: ('A' for Active; 'I' for Inactive)
REMARK    1  A    between atoms: O19_1  and  C5_2 
REMARK    2  A    between atoms: C5_2  and  C4_3 
REMARK    3  A    between atoms: C3_4  and  O3_5 
REMARK    4  A    between atoms: C1_7  and  N9_9 
ROOT
ATOM      1  C4  8DA d   1       1.209  11.604  21.870  0.00  0.00     0.086 C 
ATOM      2  C3  8DA d   1      -0.265  11.670  21.941  0.00  0.00     0.066 C 
ATOM      3  O4  8DA d   1       1.631  12.242  23.074  0.00  0.00    -0.356 OA
ATOM      4  C1  8DA d   1       0.566  12.600  23.959  0.00  0.00     0.119 C 
ATOM      5  C2  8DA d   1      -0.706  12.165  23.285  0.00  0.00     0.003 C 
ATOM      6  H4  8DA d   1       1.610  12.122  20.986  0.00  0.00     0.090 H 
ATOM      7  H5  8DA d   1      -0.811  10.799  21.549  0.00  0.00     0.087 H 
ATOM      8  H7  8DA d   1       0.548  13.698  24.018  0.00  0.00     0.119 H 
ATOM      9  H8  8DA d   1      -1.193  11.361  23.855  0.00  0.00     0.043 H 
ATOM     10  H9  8DA d   1      -1.400  13.012  23.180  0.00  0.00     0.043 H 
ENDROOT
BRANCH   4  11
ATOM     11  N9  8DA d   1       0.711  12.126  25.364  0.00  0.00    -0.254 N 
ATOM     12  C4  8DA d   1       1.630  11.352  25.941  0.00  0.00     0.168 A 
ATOM     13  N3  8DA d   1       2.773  10.707  25.352  0.00  0.00    -0.221 NA
ATOM     14  C5  8DA d   1       1.353  11.209  27.389  0.00  0.00     0.129 A 
ATOM     15  C2  8DA d   1       3.574   9.973  26.162  0.00  0.00     0.091 A 
ATOM     16  N1  8DA d   1       3.336   9.807  27.489  0.00  0.00    -0.222 NA
ATOM     17  H13 8DA d   1       4.446   9.496  25.730  0.00  0.00     0.146 H 
ATOM     18  C6  8DA d   1       2.262  10.401  28.111  0.00  0.00     0.153 A 
ATOM     19  N6  8DA d   1       2.049  10.230  29.443  0.00  0.00    -0.382 N 
ATOM     20  H11 8DA d   1       2.693   9.647  29.997  0.00  0.00     0.157 HD
ATOM     21  H12 8DA d   1       1.244  10.683  29.898  0.00  0.00     0.157 HD
ATOM     22  N7  8DA d   1       0.222  11.922  27.641  0.00  0.00    -0.302 N 
ATOM     23  C8  8DA d   1      -0.083  12.437  26.411  0.00  0.00     0.331 A 
ATOM     24  H10 8DA d   1      -0.264  12.040  28.507  0.00  0.00     0.171 HD
ATOM     25  O18 8DA d   1      -1.121  13.186  26.247  0.00  0.00    -0.246 OA
ENDBRANCH   4  11
BRANCH   1  26
ATOM     26  C5  8DA d   1       1.574  10.107  21.832  0.00  0.00     0.043 C 
ATOM     27  H2  8DA d   1       0.842   9.548  22.433  0.00  0.00     0.078 H 
ATOM     28  H3  8DA d   1       1.535   9.758  20.789  0.00  0.00     0.078 H 
BRANCH  26  29
ATOM     29  O19 8DA d   1       2.879   9.862  22.351  0.00  0.00    -0.398 OA
ATOM     30  H1  8DA d   1       2.920  10.155  23.254  0.00  0.00     0.209 HD
ENDBRANCH  26  29
ENDBRANCH   1  26
BRANCH   2  31
ATOM     31  O3  8DA d   1      -0.355  12.911  21.260  0.00  0.00    -0.393 OA
ATOM     32  H6  8DA d   1       0.022  12.823  20.392  0.00  0.00     0.210 HD
ENDBRANCH   2  31
TORSDOF 4
