REMARK  5 active torsions:
REMARK  status: ('A' for Active; 'I' for Inactive)
REMARK    1  A    between atoms: N_1  and  CA_2 
REMARK    2  A    between atoms: CA_2  and  C_3 
REMARK    3  A    between atoms: CA_2  and  CB_5 
REMARK    4  A    between atoms: CB_5  and  CG_6 
REMARK    5  A    between atoms: CG_6  and  CD_7 
ROOT
ATOM      1  CA  GLU d   1      15.935  25.137  37.867  0.00  0.00     0.183 C 
ATOM      2  H4  GLU d   1      16.867  25.705  38.001  0.00  0.00     0.101 H 
ENDROOT
BRANCH   1   3
ATOM      3  N   GLU d   1      15.829  24.138  38.981  0.00  0.00    -0.065 N 
ATOM      4  H1  GLU d   1      16.614  23.507  38.942  0.00  0.00     0.275 HD
ATOM      5  H2  GLU d   1      14.972  23.616  38.884  0.00  0.00     0.275 HD
ATOM      6  H3  GLU d   1      15.830  24.620  39.866  0.00  0.00     0.275 HD
ENDBRANCH   1   3
BRANCH   1   7
ATOM      7  C   GLU d   1      14.768  26.119  37.881  0.00  0.00     0.204 C 
ATOM      8  O   GLU d   1      14.740  27.004  37.002  0.00  0.00    -0.646 OA
ATOM      9  OXT GLU d   1      13.899  25.988  38.770  0.00  0.00    -0.646 OA
ENDBRANCH   1   7
BRANCH   1  10
ATOM     10  CB  GLU d   1      15.989  24.416  36.513  0.00  0.00    -0.020 C 
ATOM     11  H5  GLU d   1      15.637  25.115  35.740  0.00  0.00     0.037 H 
ATOM     12  H6  GLU d   1      15.312  23.551  36.561  0.00  0.00     0.037 H 
BRANCH  10  13
ATOM     13  CG  GLU d   1      17.386  23.907  36.096  0.00  0.00     0.018 C 
ATOM     14  H7  GLU d   1      17.280  23.335  35.162  0.00  0.00     0.049 H 
ATOM     15  H8  GLU d   1      17.764  23.246  36.890  0.00  0.00     0.049 H 
BRANCH  13  16
ATOM     16  CD  GLU d   1      18.417  25.020  35.865  0.00  0.00     0.172 C 
ATOM     17  OE1 GLU d   1      19.547  24.904  36.395  0.00  0.00    -0.648 OA
ATOM     18  OE2 GLU d   1      18.111  26.004  35.150  0.00  0.00    -0.648 OA
ENDBRANCH  13  16
ENDBRANCH  10  13
ENDBRANCH   1  10
TORSDOF 5
