REMARK  5 active torsions:
REMARK  status: ('A' for Active; 'I' for Inactive)
REMARK    1  A    between atoms: O5_1  and  C5_2 
REMARK    2  A    between atoms: C5_2  and  C4_3 
REMARK    3  A    between atoms: C1_5  and  N9_6 
REMARK    4  A    between atoms: C2_12  and  N2_16 
REMARK    5  A    between atoms: C3_18  and  O3_19 
ROOT
ATOM      1  C4  GNG d   1      10.909   2.155   1.264  0.00  0.00     0.086 C 
ATOM      2  O4  GNG d   1      10.399   1.872   2.563  0.00  0.00    -0.356 OA
ATOM      3  C1  GNG d   1      11.444   1.212   3.268  0.00  0.00     0.115 C 
ATOM      4  C2  GNG d   1      11.982   0.223   2.255  0.00  0.00     0.002 C 
ATOM      5  C3  GNG d   1      11.953   1.083   1.006  0.00  0.00     0.066 C 
ATOM      6  H4  GNG d   1      11.390   3.144   1.246  0.00  0.00     0.090 H 
ATOM      7  H5  GNG d   1      12.232   1.940   3.509  0.00  0.00     0.118 H 
ATOM      8  H10 GNG d   1      11.331  -0.658   2.159  0.00  0.00     0.043 H 
ATOM      9  H11 GNG d   1      13.003  -0.101   2.504  0.00  0.00     0.043 H 
ATOM     10  H12 GNG d   1      11.738   0.503   0.097  0.00  0.00     0.087 H 
ENDROOT
BRANCH   3  11
ATOM     11  N9  GNG d   1      11.005   0.607   4.551  0.00  0.00    -0.296 N 
ATOM     12  C8  GNG d   1       9.889   0.935   5.225  0.00  0.00     0.070 A 
ATOM     13  N7  GNG d   1       9.840   0.169   6.325  0.00  0.00    -0.234 NA
ATOM     14  H6  GNG d   1       9.158   1.686   4.931  0.00  0.00     0.144 H 
ATOM     15  C5  GNG d   1      10.941  -0.609   6.343  0.00  0.00     0.173 A 
ATOM     16  C4  GNG d   1      11.688  -0.336   5.223  0.00  0.00     0.186 A 
ATOM     17  C6  GNG d   1      11.409  -1.569   7.207  0.00  0.00     0.292 A 
ATOM     18  N3  GNG d   1      12.863  -1.010   5.009  0.00  0.00    -0.044 NA
ATOM     19  C2  GNG d   1      13.293  -1.941   5.912  0.00  0.00     0.703 A 
ATOM     20  N1  GNG d   1      12.557  -2.215   6.999  0.00  0.00    -0.152 N 
ATOM     21  H7  GNG d   1      12.869  -2.904   7.654  0.00  0.00     0.187 HD
ATOM     22  O6  GNG d   1      10.772  -1.849   8.217  0.00  0.00    -0.265 OA
BRANCH  19  23
ATOM     23  N2  GNG d   1      14.439  -2.640   5.771  0.00  0.00    -0.233 N 
ATOM     24  H8  GNG d   1      15.047  -2.474   4.956  0.00  0.00     0.174 HD
ATOM     25  H9  GNG d   1      14.706  -3.340   6.478  0.00  0.00     0.174 HD
ENDBRANCH  19  23
ENDBRANCH   3  11
BRANCH   1  26
ATOM     26  C5  GNG d   1       9.761   2.156   0.279  0.00  0.00     0.043 C 
ATOM     27  H2  GNG d   1      10.082   1.760  -0.696  0.00  0.00     0.078 H 
ATOM     28  H3  GNG d   1       8.920   1.558   0.659  0.00  0.00     0.078 H 
BRANCH  26  29
ATOM     29  O5  GNG d   1       9.398   3.529   0.172  0.00  0.00    -0.398 OA
ATOM     30  H1  GNG d   1       8.674   3.617  -0.436  0.00  0.00     0.209 HD
ENDBRANCH  26  29
ENDBRANCH   1  26
BRANCH   5  31
ATOM     31  O3  GNG d   1      13.221   1.722   0.951  0.00  0.00    -0.393 OA
ATOM     32  H13 GNG d   1      13.261   2.279   0.182  0.00  0.00     0.210 HD
ENDBRANCH   5  31
TORSDOF 5
