REMARK  5 active torsions:
REMARK  status: ('A' for Active; 'I' for Inactive)
REMARK    1  A    between atoms: C1_1  and  O1_7 
REMARK    2  A    between atoms: C2_2  and  O2_8 
REMARK    3  A    between atoms: C3_3  and  O3_9 
REMARK    4  A    between atoms: C4_4  and  O4_10 
REMARK    5  A    between atoms: C5_5  and  C6_6 
ROOT
ATOM      1  C1  FCB d   1      39.774   2.503  42.519  0.00  0.00     0.156 C 
ATOM      2  C2  FCB d   1      39.658   2.007  41.083  0.00  0.00     0.110 C 
ATOM      3  C3  FCB d   1      38.464   2.654  40.386  0.00  0.00     0.092 C 
ATOM      4  C4  FCB d   1      37.199   2.519  41.215  0.00  0.00     0.087 C 
ATOM      5  C5  FCB d   1      37.457   3.051  42.621  0.00  0.00     0.065 C 
ATOM      6  O5  FCB d   1      38.550   2.304  43.217  0.00  0.00    -0.351 OA
ATOM      7  H1  FCB d   1      40.028   3.573  42.517  0.00  0.00     0.133 H 
ATOM      8  H2  FCB d   1      39.523   0.915  41.089  0.00  0.00     0.094 H 
ATOM      9  H3  FCB d   1      38.676   3.723  40.239  0.00  0.00     0.091 H 
ATOM     10  H4  FCB d   1      36.389   3.096  40.746  0.00  0.00     0.091 H 
ATOM     11  H5  FCB d   1      37.731   4.114  42.553  0.00  0.00     0.086 H 
ENDROOT
BRANCH   5  12
ATOM     12  C6  FCB d   1      36.244   2.912  43.518  0.00  0.00    -0.050 C 
ATOM     13  H6  FCB d   1      36.479   3.308  44.517  0.00  0.00     0.031 H 
ATOM     14  H7  FCB d   1      35.968   1.850  43.600  0.00  0.00     0.031 H 
ATOM     15  H8  FCB d   1      35.404   3.477  43.088  0.00  0.00     0.031 H 
ENDBRANCH   5  12
BRANCH   4  16
ATOM     16  O4  FCB d   1      36.824   1.146  41.292  0.00  0.00    -0.390 OA
ATOM     17  H12 FCB d   1      36.666   0.812  40.417  0.00  0.00     0.210 HD
ENDBRANCH   4  16
BRANCH   3  18
ATOM     18  O3  FCB d   1      38.275   2.040  39.120  0.00  0.00    -0.390 OA
ATOM     19  H11 FCB d   1      39.056   2.158  38.592  0.00  0.00     0.210 HD
ENDBRANCH   3  18
BRANCH   1  20
ATOM     20  O1  FCB d   1      40.757   1.791  43.164  0.00  0.00    -0.369 OA
ATOM     21  H9  FCB d   1      40.836   2.102  44.058  0.00  0.00     0.212 HD
ENDBRANCH   1  20
BRANCH   2  22
ATOM     22  O2  FCB d   1      40.841   2.329  40.379  0.00  0.00    -0.388 OA
ATOM     23  H10 FCB d   1      41.583   1.911  40.801  0.00  0.00     0.210 HD
ENDBRANCH   2  22
TORSDOF 5
