REMARK  2 active torsions:
REMARK  status: ('A' for Active; 'I' for Inactive)
REMARK    1  A    between atoms: N1_3  and  C4_6 
REMARK    2  A    between atoms: C4_6  and  C5_7 
ROOT
ATOM      1  C5  1BN d   1     -12.869   3.884  22.822  0.00  0.00    -0.040 A 
ATOM      2  C6  1BN d   1     -12.736   4.507  21.583  0.00  0.00    -0.075 A 
ATOM      3  C7  1BN d   1     -12.034   4.274  23.862  0.00  0.00    -0.075 A 
ATOM      4  C8  1BN d   1     -11.786   5.521  21.384  0.00  0.00    -0.082 A 
ATOM      5  C9  1BN d   1     -11.085   5.284  23.676  0.00  0.00    -0.082 A 
ATOM      6  C10 1BN d   1     -10.968   5.908  22.427  0.00  0.00    -0.083 A 
ATOM      7  H6  1BN d   1     -13.375   4.205  20.761  0.00  0.00     0.084 H 
ATOM      8  H7  1BN d   1     -12.119   3.790  24.828  0.00  0.00     0.084 H 
ATOM      9  H8  1BN d   1     -11.695   5.998  20.415  0.00  0.00     0.083 H 
ATOM     10  H9  1BN d   1     -10.442   5.583  24.496  0.00  0.00     0.083 H 
ATOM     11  H10 1BN d   1     -10.236   6.694  22.280  0.00  0.00     0.083 H 
ENDROOT
BRANCH   1  12
ATOM     12  C4  1BN d   1     -13.938   2.880  23.059  0.00  0.00     0.024 C 
ATOM     13  H4  1BN d   1     -13.569   1.907  22.704  0.00  0.00     0.072 H 
ATOM     14  H5  1BN d   1     -14.117   2.831  24.143  0.00  0.00     0.072 H 
BRANCH  12  15
ATOM     15  N1  1BN d   1     -15.219   3.134  22.408  0.00  0.00    -0.346 N 
ATOM     16  C1  1BN d   1     -15.925   2.188  21.700  0.00  0.00    -0.002 A 
ATOM     17  C2  1BN d   1     -17.160   2.706  21.498  0.00  0.00     0.018 A 
ATOM     18  H1  1BN d   1     -15.563   1.216  21.368  0.00  0.00     0.113 H 
ATOM     19  N2  1BN d   1     -17.185   3.941  22.090  0.00  0.00    -0.255 NA
ATOM     20  H2  1BN d   1     -17.981   2.229  20.964  0.00  0.00     0.117 H 
ATOM     21  C3  1BN d   1     -15.998   4.179  22.634  0.00  0.00     0.065 A 
ATOM     22  H3  1BN d   1     -15.714   5.081  23.174  0.00  0.00     0.143 H 
ENDBRANCH  12  15
ENDBRANCH   1  12
TORSDOF 2
