REMARK  5 active torsions:
REMARK  status: ('A' for Active; 'I' for Inactive)
REMARK    1  A    between atoms: N1_1  and  C24_24 
REMARK    2  A    between atoms: N3_3  and  C26_26 
REMARK    3  A    between atoms: N7_7  and  C16_16 
REMARK    4  A    between atoms: C8_8  and  N10_10 
REMARK    5  A    between atoms: C16_16  and  C17_17 
ROOT
ATOM      1  N1  SC3 d   1      -6.240  22.010  -0.699  0.00  0.00    -0.269 N 
ATOM      2  C2  SC3 d   1      -5.273  22.953  -0.465  0.00  0.00     0.332 A 
ATOM      3  N3  SC3 d   1      -4.974  23.279   0.852  0.00  0.00    -0.286 N 
ATOM      4  C4  SC3 d   1      -5.662  22.643   1.855  0.00  0.00     0.169 A 
ATOM      5  C5  SC3 d   1      -6.617  21.727   1.678  0.00  0.00     0.153 A 
ATOM      6  C6  SC3 d   1      -6.936  21.369   0.288  0.00  0.00     0.282 A 
ATOM      7  N7  SC3 d   1      -7.088  21.326   2.857  0.00  0.00    -0.310 N 
ATOM      8  C8  SC3 d   1      -6.425  21.961   3.826  0.00  0.00     0.187 A 
ATOM      9  N9  SC3 d   1      -5.573  22.762   3.288  0.00  0.00    -0.199 NA
ATOM     10  O23 SC3 d   1      -7.785  20.536   0.080  0.00  0.00    -0.265 OA
ATOM     11  O25 SC3 d   1      -4.687  23.491  -1.405  0.00  0.00    -0.246 OA
ENDROOT
BRANCH   8  12
ATOM     12  N10 SC3 d   1      -6.658  21.763   5.181  0.00  0.00    -0.250 NA
ATOM     13  C11 SC3 d   1      -6.086  22.851   6.047  0.00  0.00     0.009 C 
ATOM     14  C12 SC3 d   1      -4.618  22.544   6.411  0.00  0.00     0.093 C 
ATOM     15  H1  SC3 d   1      -6.679  22.926   6.971  0.00  0.00     0.059 H 
ATOM     16  H2  SC3 d   1      -6.131  23.806   5.503  0.00  0.00     0.059 H 
ATOM     17  N13 SC3 d   1      -4.494  21.263   7.164  0.00  0.00    -0.073 N 
ATOM     18  H3  SC3 d   1      -4.226  23.363   7.033  0.00  0.00     0.077 H 
ATOM     19  H4  SC3 d   1      -4.029  22.472   5.485  0.00  0.00     0.077 H 
ATOM     20  C14 SC3 d   1      -5.573  20.260   6.949  0.00  0.00     0.093 C 
ATOM     21  H5  SC3 d   1      -4.474  21.486   8.147  0.00  0.00     0.277 HD
ATOM     22  H6  SC3 d   1      -3.621  20.835   6.899  0.00  0.00     0.277 HD
ATOM     23  C15 SC3 d   1      -6.207  20.362   5.572  0.00  0.00     0.009 C 
ATOM     24  H7  SC3 d   1      -6.354  20.416   7.708  0.00  0.00     0.077 H 
ATOM     25  H8  SC3 d   1      -5.145  19.253   7.065  0.00  0.00     0.077 H 
ATOM     26  H9  SC3 d   1      -5.471  20.019   4.830  0.00  0.00     0.059 H 
ATOM     27  H10 SC3 d   1      -7.086  19.701   5.550  0.00  0.00     0.059 H 
ENDBRANCH   8  12
BRANCH   7  28
ATOM     28  C16 SC3 d   1      -8.298  20.501   3.046  0.00  0.00     0.026 C 
ATOM     29  H11 SC3 d   1      -8.988  20.730   2.221  0.00  0.00     0.072 H 
ATOM     30  H12 SC3 d   1      -8.757  20.798   4.001  0.00  0.00     0.072 H 
BRANCH  28  31
ATOM     31  C17 SC3 d   1      -8.107  18.995   3.079  0.00  0.00    -0.040 A 
ATOM     32  C18 SC3 d   1      -9.197  18.182   3.429  0.00  0.00    -0.075 A 
ATOM     33  C19 SC3 d   1      -9.040  16.780   3.463  0.00  0.00    -0.082 A 
ATOM     34  H13 SC3 d   1     -10.154  18.629   3.672  0.00  0.00     0.084 H 
ATOM     35  C20 SC3 d   1      -7.781  16.195   3.147  0.00  0.00    -0.083 A 
ATOM     36  H14 SC3 d   1      -9.879  16.148   3.730  0.00  0.00     0.083 H 
ATOM     37  C21 SC3 d   1      -6.680  17.013   2.794  0.00  0.00    -0.082 A 
ATOM     38  H15 SC3 d   1      -7.665  15.118   3.177  0.00  0.00     0.083 H 
ATOM     39  C22 SC3 d   1      -6.835  18.413   2.757  0.00  0.00    -0.075 A 
ATOM     40  H16 SC3 d   1      -5.723  16.564   2.554  0.00  0.00     0.083 H 
ATOM     41  H17 SC3 d   1      -5.998  19.047   2.487  0.00  0.00     0.084 H 
ENDBRANCH  28  31
ENDBRANCH   7  28
BRANCH   3  42
ATOM     42  C26 SC3 d   1      -3.943  24.278   1.181  0.00  0.00    -0.008 C 
ATOM     43  H21 SC3 d   1      -3.507  24.674   0.252  0.00  0.00     0.057 H 
ATOM     44  H22 SC3 d   1      -3.154  23.806   1.784  0.00  0.00     0.057 H 
ATOM     45  H23 SC3 d   1      -4.398  25.101   1.752  0.00  0.00     0.057 H 
ENDBRANCH   3  42
BRANCH   1  46
ATOM     46  C24 SC3 d   1      -6.555  21.666  -2.093  0.00  0.00    -0.007 C 
ATOM     47  H18 SC3 d   1      -5.920  22.257  -2.769  0.00  0.00     0.057 H 
ATOM     48  H19 SC3 d   1      -7.613  21.889  -2.296  0.00  0.00     0.057 H 
ATOM     49  H20 SC3 d   1      -6.368  20.595  -2.258  0.00  0.00     0.057 H 
ENDBRANCH   1  46
TORSDOF 5
