REMARK  4 active torsions:
REMARK  status: ('A' for Active; 'I' for Inactive)
REMARK    1  A    between atoms: N1_1  and  C7_10 
REMARK    2  A    between atoms: C7_10  and  C8_11 
REMARK    3  A    between atoms: C8_11  and  N8_12 
REMARK    4  A    between atoms: C8_11  and  C9_13 
ROOT
ATOM      1  C7  FWD d   1      19.174  61.948  28.937  0.00  0.00     0.040 C 
ATOM      2  H3  FWD d   1      18.949  61.909  30.013  0.00  0.00     0.069 H 
ATOM      3  H4  FWD d   1      18.666  61.117  28.425  0.00  0.00     0.069 H 
ENDROOT
BRANCH   1   4
ATOM      4  N1  FWD d   1      20.620  61.774  28.766  0.00  0.00    -0.304 N 
ATOM      5  C2  FWD d   1      21.139  61.600  27.463  0.00  0.00     0.329 A 
ATOM      6  O2  FWD d   1      20.463  61.527  26.469  0.00  0.00    -0.246 OA
ATOM      7  N3  FWD d   1      22.548  61.509  27.420  0.00  0.00    -0.273 N 
ATOM      8  C4  FWD d   1      23.437  61.578  28.475  0.00  0.00     0.289 A 
ATOM      9  H1  FWD d   1      22.951  61.379  26.514  0.00  0.00     0.173 HD
ATOM     10  O4  FWD d   1      24.642  61.471  28.345  0.00  0.00    -0.265 OA
ATOM     11  C5  FWD d   1      22.772  61.762  29.809  0.00  0.00     0.199 A 
ATOM     12  F5  FWD d   1      23.557  61.863  30.902  0.00  0.00    -0.199 F 
ATOM     13  C6  FWD d   1      21.421  61.875  29.860  0.00  0.00     0.027 A 
ATOM     14  H2  FWD d   1      20.954  62.056  30.827  0.00  0.00     0.116 H 
ENDBRANCH   1   4
BRANCH   1  15
ATOM     15  C8  FWD d   1      18.621  63.255  28.384  0.00  0.00     0.198 C 
ATOM     16  H5  FWD d   1      19.149  63.452  27.440  0.00  0.00     0.103 H 
BRANCH  15  17
ATOM     17  N8  FWD d   1      18.927  64.389  29.320  0.00  0.00    -0.064 N 
ATOM     18  H6  FWD d   1      18.556  65.246  28.942  0.00  0.00     0.275 HD
ATOM     19  H7  FWD d   1      19.925  64.475  29.429  0.00  0.00     0.275 HD
ATOM     20  H8  FWD d   1      18.505  64.207  30.217  0.00  0.00     0.275 HD
ENDBRANCH  15  17
BRANCH  15  21
ATOM     21  C9  FWD d   1      17.131  63.210  28.056  0.00  0.00     0.206 C 
ATOM     22  O91 FWD d   1      16.407  64.056  28.529  0.00  0.00    -0.646 OA
ATOM     23  O92 FWD d   1      16.779  62.214  27.326  0.00  0.00    -0.646 OA
ENDBRANCH  15  21
ENDBRANCH   1  15
TORSDOF 4
