REMARK  14 active torsions:
REMARK  status: ('A' for Active; 'I' for Inactive)
REMARK    1  A    between atoms: C1_1  and  O1_2 
REMARK    2  A    between atoms: O1_2  and  PB_3 
REMARK    3  A    between atoms: PB_3  and  O3A_6 
REMARK    4  A    between atoms: O3A_6  and  PA_7 
REMARK    5  A    between atoms: PA_7  and  O5'_10 
REMARK    6  A    between atoms: O5'_10  and  C5'_11 
REMARK    7  A    between atoms: C5'_11  and  C4'_12 
REMARK    8  A    between atoms: C1'_14  and  N1_19 
REMARK    9  A    between atoms: C2'_15  and  O2'_18 
REMARK   10  A    between atoms: C3'_16  and  O3'_17 
REMARK   11  A    between atoms: C3_29  and  O3_30 
REMARK   12  A    between atoms: C4_31  and  O4_32 
REMARK   13  A    between atoms: C5_33  and  C6_34 
REMARK   14  A    between atoms: C6_34  and  O6_35 
ROOT
ATOM      1  PA  U2F d   1       3.720  18.524   9.762  0.00  0.00     0.417 P 
ATOM      2  O1A U2F d   1       4.047  17.203  10.186  0.00  0.00    -0.624 OA
ATOM      3  O2A U2F d   1       4.505  19.063   8.595  0.00  0.00    -0.624 OA
ENDROOT
BRANCH   1   4
ATOM      4  O3A U2F d   1       4.035  19.539  10.904  0.00  0.00    -0.180 OA
BRANCH   4   5
ATOM      5  PB  U2F d   1       4.854  19.460  12.240  0.00  0.00     0.420 P 
ATOM      6  O1B U2F d   1       6.236  19.990  11.973  0.00  0.00    -0.624 OA
ATOM      7  O2B U2F d   1       4.973  18.079  12.766  0.00  0.00    -0.624 OA
BRANCH   5   8
ATOM      8  O1  U2F d   1       4.339  20.193  13.444  0.00  0.00    -0.255 OA
BRANCH   8   9
ATOM      9  C1  U2F d   1       2.857  20.562  13.392  0.00  0.00     0.175 C 
ATOM     10  C2  U2F d   1       2.213  21.722  13.941  0.00  0.00     0.153 C 
ATOM     11  F1  U2F d   1       2.827  22.855  13.352  0.00  0.00    -0.241 F 
ATOM     12  C3  U2F d   1       2.480  21.892  15.503  0.00  0.00     0.097 C 
ATOM     13  H13 U2F d   1       1.133  21.689  13.734  0.00  0.00     0.103 H 
ATOM     14  C4  U2F d   1       1.868  20.631  16.241  0.00  0.00     0.090 C 
ATOM     15  H14 U2F d   1       3.572  21.866  15.631  0.00  0.00     0.091 H 
ATOM     16  C5  U2F d   1       2.373  19.227  15.463  0.00  0.00     0.089 C 
ATOM     17  H16 U2F d   1       0.769  20.682  16.248  0.00  0.00     0.091 H 
ATOM     18  O5  U2F d   1       2.069  19.444  14.066  0.00  0.00    -0.348 OA
ATOM     19  H18 U2F d   1       3.453  19.065  15.597  0.00  0.00     0.090 H 
ATOM     20  H1  U2F d   1       2.623  20.581  12.317  0.00  0.00     0.134 H 
BRANCH  12  21
ATOM     21  O3  U2F d   1       2.001  23.181  16.212  0.00  0.00    -0.390 OA
ATOM     22  H15 U2F d   1       2.229  23.138  17.133  0.00  0.00     0.210 HD
ENDBRANCH  12  21
BRANCH  14  23
ATOM     23  O4  U2F d   1       2.413  20.652  17.662  0.00  0.00    -0.390 OA
ATOM     24  H17 U2F d   1       3.361  20.603  17.637  0.00  0.00     0.210 HD
ENDBRANCH  14  23
BRANCH  16  25
ATOM     25  C6  U2F d   1       1.583  18.025  16.067  0.00  0.00     0.043 C 
ATOM     26  H19 U2F d   1       0.509  18.187  15.895  0.00  0.00     0.078 H 
ATOM     27  H20 U2F d   1       1.779  17.983  17.149  0.00  0.00     0.078 H 
BRANCH  25  28
ATOM     28  O6  U2F d   1       1.956  16.772  15.485  0.00  0.00    -0.398 OA
ATOM     29  H21 U2F d   1       1.784  16.794  14.551  0.00  0.00     0.209 HD
ENDBRANCH  25  28
ENDBRANCH  16  25
ENDBRANCH   8   9
ENDBRANCH   5   8
ENDBRANCH   4   5
ENDBRANCH   1   4
BRANCH   1  30
ATOM     30  O5' U2F d   1       2.148  18.623   9.524  0.00  0.00    -0.287 OA
BRANCH  30  31
ATOM     31  C5' U2F d   1       1.280  18.147  10.536  0.00  0.00     0.058 C 
ATOM     32  H2  U2F d   1       0.986  18.961  11.214  0.00  0.00     0.079 H 
ATOM     33  H3  U2F d   1       1.757  17.342  11.114  0.00  0.00     0.079 H 
BRANCH  31  34
ATOM     34  C4' U2F d   1       0.047  17.608   9.749  0.00  0.00     0.089 C 
ATOM     35  O4' U2F d   1      -0.653  18.640   9.029  0.00  0.00    -0.353 OA
ATOM     36  C1' U2F d   1      -0.760  18.244   7.661  0.00  0.00     0.141 C 
ATOM     37  C2' U2F d   1       0.377  17.304   7.372  0.00  0.00     0.105 C 
ATOM     38  H5  U2F d   1      -1.708  17.715   7.487  0.00  0.00     0.123 H 
ATOM     39  C3' U2F d   1       0.425  16.547   8.703  0.00  0.00     0.091 C 
ATOM     40  H6  U2F d   1       1.322  17.831   7.173  0.00  0.00     0.093 H 
ATOM     41  H7  U2F d   1       1.435  16.154   8.890  0.00  0.00     0.091 H 
ATOM     42  H4  U2F d   1      -0.640  17.157  10.480  0.00  0.00     0.090 H 
BRANCH  36  43
ATOM     43  N1  U2F d   1      -0.754  19.488   6.868  0.00  0.00    -0.280 N 
ATOM     44  C6' U2F d   1      -1.979  19.927   6.295  0.00  0.00     0.331 A 
ATOM     45  O6' U2F d   1      -3.016  19.322   6.444  0.00  0.00    -0.246 OA
ATOM     46  N3  U2F d   1      -1.989  21.110   5.529  0.00  0.00    -0.275 N 
ATOM     47  C7' U2F d   1      -0.827  21.856   5.323  0.00  0.00     0.250 A 
ATOM     48  H10 U2F d   1      -2.848  21.422   5.124  0.00  0.00     0.173 HD
ATOM     49  O7' U2F d   1      -0.889  22.804   4.692  0.00  0.00    -0.268 OA
ATOM     50  C8' U2F d   1       0.382  21.421   5.895  0.00  0.00    -0.002 A 
ATOM     51  C9' U2F d   1       0.426  20.238   6.666  0.00  0.00    -0.008 A 
ATOM     52  H11 U2F d   1       1.291  22.001   5.742  0.00  0.00     0.094 H 
ATOM     53  H12 U2F d   1       1.366  19.905   7.103  0.00  0.00     0.112 H 
ENDBRANCH  36  43
BRANCH  37  54
ATOM     54  O2' U2F d   1       0.044  16.512   6.282  0.00  0.00    -0.388 OA
ATOM     55  H9  U2F d   1       0.687  15.819   6.187  0.00  0.00     0.210 HD
ENDBRANCH  37  54
BRANCH  39  56
ATOM     56  O3' U2F d   1      -0.511  15.474   8.722  0.00  0.00    -0.390 OA
ATOM     57  H8  U2F d   1      -0.308  14.866   8.021  0.00  0.00     0.210 HD
ENDBRANCH  39  56
ENDBRANCH  31  34
ENDBRANCH  30  31
ENDBRANCH   1  30
TORSDOF 14
