REMARK  15 active torsions:
REMARK  status: ('A' for Active; 'I' for Inactive)
REMARK    1  A    between atoms: N2_8  and  C2_9 
REMARK    2  A    between atoms: C3_11  and  O4_12 
REMARK    3  A    between atoms: C4_13  and  O3_14 
REMARK    4  A    between atoms: C5_15  and  C6_16 
REMARK    5  A    between atoms: C6_16  and  O2_17 
REMARK    6  A    between atoms: O2_17  and  P1_18 
REMARK    7  A    between atoms: P1_18  and  O3_21 
REMARK    8  A    between atoms: O3_21  and  P2_22 
REMARK    9  A    between atoms: P2_22  and  O4_25 
REMARK   10  A    between atoms: O4_25  and  C7_26 
REMARK   11  A    between atoms: C7_26  and  C8_27 
REMARK   12  A    between atoms: C8_27  and  O5_28 
REMARK   13  A    between atoms: O5_28  and  C9_29 
REMARK   14  A    between atoms: C9_29  and  C1_31 
REMARK   15  A    between atoms: C6_36  and  N1_37 
ROOT
ATOM      1  P1  1AA d   1      -0.388   7.815  10.267  0.00  0.00     0.417 P 
ATOM      2  O1  1AA d   1       0.125   9.048   9.629  0.00  0.00    -0.624 OA
ATOM      3  O9  1AA d   1      -1.344   7.917  11.388  0.00  0.00    -0.624 OA
ENDROOT
BRANCH   1   4
ATOM      4  O2  1AA d   1       0.874   6.935  10.738  0.00  0.00    -0.287 OA
BRANCH   4   5
ATOM      5  C6  1AA d   1       1.578   6.085   9.813  0.00  0.00     0.058 C 
ATOM      6  H11 1AA d   1       0.850   5.609   9.139  0.00  0.00     0.079 H 
ATOM      7  H12 1AA d   1       2.277   6.698   9.225  0.00  0.00     0.079 H 
BRANCH   5   8
ATOM      8  C5  1AA d   1       2.365   4.996  10.545  0.00  0.00     0.089 C 
ATOM      9  O2  1AA d   1       3.236   5.657  11.491  0.00  0.00    -0.353 OA
ATOM     10  C2  1AA d   1       3.306   4.853  12.709  0.00  0.00     0.141 C 
ATOM     11  C3  1AA d   1       2.342   3.672  12.519  0.00  0.00     0.105 C 
ATOM     12  H5  1AA d   1       4.327   4.463  12.834  0.00  0.00     0.123 H 
ATOM     13  C4  1AA d   1       1.428   4.135  11.391  0.00  0.00     0.091 C 
ATOM     14  H6  1AA d   1       1.772   3.464  13.437  0.00  0.00     0.093 H 
ATOM     15  H8  1AA d   1       0.577   4.718  11.774  0.00  0.00     0.091 H 
ATOM     16  H10 1AA d   1       2.932   4.380   9.831  0.00  0.00     0.090 H 
BRANCH  10  17
ATOM     17  N2  1AA d   1       2.976   5.697  13.903  0.00  0.00    -0.278 N 
ATOM     18  C1  1AA d   1       3.762   5.621  15.073  0.00  0.00     0.352 A 
ATOM     19  O1  1AA d   1       4.727   4.863  15.143  0.00  0.00    -0.244 OA
ATOM     20  N4  1AA d   1       3.447   6.420  16.182  0.00  0.00    -0.177 NA
ATOM     21  C9  1AA d   1       2.354   7.294  16.137  0.00  0.00     0.128 A 
ATOM     22  N3  1AA d   1       2.066   8.044  17.196  0.00  0.00    -0.384 N 
ATOM     23  C8  1AA d   1       1.575   7.374  14.987  0.00  0.00    -0.024 A 
ATOM     24  H1  1AA d   1       1.263   8.688  17.168  0.00  0.00     0.157 HD
ATOM     25  H2  1AA d   1       2.646   7.981  18.045  0.00  0.00     0.157 HD
ATOM     26  C7  1AA d   1       1.880   6.588  13.878  0.00  0.00    -0.009 A 
ATOM     27  H3  1AA d   1       0.724   8.053  14.954  0.00  0.00     0.091 H 
ATOM     28  H4  1AA d   1       1.266   6.661  12.981  0.00  0.00     0.112 H 
ENDBRANCH  10  17
BRANCH  11  29
ATOM     29  O4  1AA d   1       3.080   2.509  12.122  0.00  0.00    -0.388 OA
ATOM     30  H7  1AA d   1       2.482   1.780  12.005  0.00  0.00     0.210 HD
ENDBRANCH  11  29
BRANCH  13  31
ATOM     31  O3  1AA d   1       0.952   3.017  10.633  0.00  0.00    -0.390 OA
ATOM     32  H9  1AA d   1       1.691   2.552  10.259  0.00  0.00     0.210 HD
ENDBRANCH  13  31
ENDBRANCH   5   8
ENDBRANCH   4   5
ENDBRANCH   1   4
BRANCH   1  33
ATOM     33  O3  1AA d   1      -1.055   6.846   9.153  0.00  0.00    -0.180 OA
BRANCH  33  34
ATOM     34  P2  1AA d   1      -1.689   7.355   7.750  0.00  0.00     0.417 P 
ATOM     35  O8  1AA d   1      -1.187   8.703   7.393  0.00  0.00    -0.624 OA
ATOM     36  O7  1AA d   1      -3.152   7.115   7.790  0.00  0.00    -0.624 OA
BRANCH  34  37
ATOM     37  O4  1AA d   1      -1.037   6.312   6.697  0.00  0.00    -0.287 OA
BRANCH  37  38
ATOM     38  C7  1AA d   1      -1.244   4.895   6.814  0.00  0.00     0.052 C 
ATOM     39  H13 1AA d   1      -1.883   4.553   5.986  0.00  0.00     0.078 H 
ATOM     40  H14 1AA d   1      -1.739   4.680   7.772  0.00  0.00     0.078 H 
BRANCH  38  41
ATOM     41  C8  1AA d   1       0.091   4.150   6.759  0.00  0.00     0.049 C 
ATOM     42  H15 1AA d   1       0.092   3.354   7.518  0.00  0.00     0.078 H 
ATOM     43  H16 1AA d   1       0.908   4.856   6.967  0.00  0.00     0.078 H 
BRANCH  41  44
ATOM     44  O5  1AA d   1       0.291   3.562   5.452  0.00  0.00    -0.315 OA
BRANCH  44  45
ATOM     45  C9  1AA d   1       1.357   4.090   4.773  0.00  0.00     0.295 C 
ATOM     46  O6  1AA d   1       2.266   4.659   5.382  0.00  0.00    -0.259 OA
BRANCH  45  47
ATOM     47  C1  1AA d   1       1.412   3.961   3.240  0.00  0.00     0.065 A 
ATOM     48  C2  1AA d   1       0.229   3.771   2.523  0.00  0.00    -0.065 A 
ATOM     49  C3  1AA d   1       0.265   3.653   1.133  0.00  0.00    -0.082 A 
ATOM     50  H17 1AA d   1      -0.718   3.715   3.047  0.00  0.00     0.085 H 
ATOM     51  C4  1AA d   1       1.479   3.721   0.451  0.00  0.00    -0.081 A 
ATOM     52  H18 1AA d   1      -0.656   3.508   0.580  0.00  0.00     0.083 H 
ATOM     53  C5  1AA d   1       2.663   3.911   1.162  0.00  0.00    -0.057 A 
ATOM     54  H19 1AA d   1       1.502   3.626  -0.629  0.00  0.00     0.083 H 
ATOM     55  C6  1AA d   1       2.631   4.032   2.552  0.00  0.00     0.042 A 
ATOM     56  H20 1AA d   1       3.609   3.965   0.635  0.00  0.00     0.086 H 
BRANCH  55  57
ATOM     57  N1  1AA d   1       3.775   4.214   3.206  0.00  0.00    -0.398 N 
ATOM     58  H21 1AA d   1       3.773   4.306   4.232  0.00  0.00     0.156 HD
ATOM     59  H22 1AA d   1       4.663   4.263   2.687  0.00  0.00     0.156 HD
ENDBRANCH  55  57
ENDBRANCH  45  47
ENDBRANCH  44  45
ENDBRANCH  41  44
ENDBRANCH  38  41
ENDBRANCH  37  38
ENDBRANCH  34  37
ENDBRANCH  33  34
ENDBRANCH   1  33
TORSDOF 15
