REMARK  3 active torsions:
REMARK  status: ('A' for Active; 'I' for Inactive)
REMARK    1  A    between atoms: C1_1  and  N_9 
REMARK    2  A    between atoms: N_9  and  C11_13 
REMARK    3  A    between atoms: C9_11  and  S_10 
ROOT
ATOM      1  C1  2AN d   1       6.894  30.983  17.795  0.00  0.00     0.045 A 
ATOM      2  C2  2AN d   1       6.493  32.301  18.009  0.00  0.00    -0.056 A 
ATOM      3  C3  2AN d   1       5.444  32.907  17.311  0.00  0.00    -0.080 A 
ATOM      4  C4  2AN d   1       4.765  32.206  16.373  0.00  0.00    -0.072 A 
ATOM      5  C5  2AN d   1       5.097  30.856  16.081  0.00  0.00    -0.022 A 
ATOM      6  C6  2AN d   1       4.346  30.176  15.085  0.00  0.00    -0.072 A 
ATOM      7  C7  2AN d   1       4.598  28.892  14.749  0.00  0.00    -0.081 A 
ATOM      8  C8  2AN d   1       5.629  28.195  15.393  0.00  0.00    -0.058 A 
ATOM      9  C9  2AN d   1       6.426  28.756  16.380  0.00  0.00     0.094 A 
ATOM     10  C10 2AN d   1       6.191  30.172  16.787  0.00  0.00     0.025 A 
ATOM     11  H1  2AN d   1       7.021  32.885  18.754  0.00  0.00     0.086 H 
ATOM     12  H2  2AN d   1       5.175  33.936  17.520  0.00  0.00     0.083 H 
ATOM     13  H3  2AN d   1       3.954  32.683  15.835  0.00  0.00     0.084 H 
ATOM     14  H4  2AN d   1       3.546  30.704  14.579  0.00  0.00     0.084 H 
ATOM     15  H5  2AN d   1       4.005  28.403  13.985  0.00  0.00     0.083 H 
ATOM     16  H6  2AN d   1       5.813  27.166  15.105  0.00  0.00     0.086 H 
ENDROOT
BRANCH   1  17
ATOM     17  N   2AN d   1       7.966  30.503  18.568  0.00  0.00    -0.355 N 
ATOM     18  H7  2AN d   1       8.851  30.333  18.069  0.00  0.00     0.166 HD
BRANCH  17  19
ATOM     19  C11 2AN d   1       7.964  30.230  19.944  0.00  0.00     0.032 A 
ATOM     20  C16 2AN d   1       7.031  30.786  20.861  0.00  0.00    -0.057 A 
ATOM     21  C15 2AN d   1       7.108  30.451  22.216  0.00  0.00    -0.081 A 
ATOM     22  H12 2AN d   1       6.263  31.467  20.511  0.00  0.00     0.086 H 
ATOM     23  C14 2AN d   1       8.088  29.579  22.679  0.00  0.00    -0.083 A 
ATOM     24  H11 2AN d   1       6.396  30.876  22.914  0.00  0.00     0.083 H 
ATOM     25  C13 2AN d   1       8.989  29.042  21.799  0.00  0.00    -0.081 A 
ATOM     26  H10 2AN d   1       8.138  29.326  23.732  0.00  0.00     0.083 H 
ATOM     27  C12 2AN d   1       8.944  29.349  20.456  0.00  0.00    -0.057 A 
ATOM     28  H9  2AN d   1       9.751  28.363  22.165  0.00  0.00     0.083 H 
ATOM     29  H8  2AN d   1       9.671  28.909  19.783  0.00  0.00     0.086 H 
ENDBRANCH  17  19
ENDBRANCH   1  17
BRANCH   9  30
ATOM     30  S   2AN d   1       7.666  27.580  17.011  0.00  0.00     0.138 S 
ATOM     31  O1  2AN d   1       8.994  28.123  16.768  0.00  0.00    -0.591 OA
ATOM     32  O2  2AN d   1       7.375  27.374  18.418  0.00  0.00    -0.591 OA
ATOM     33  O3  2AN d   1       7.466  26.335  16.277  0.00  0.00    -0.591 OA
ENDBRANCH   9  30
TORSDOF 3
