REMARK WARNING: 32 MAX_TORS EXCEEDED!!!
REMARK  37 active torsions:
REMARK  status: ('A' for Active; 'I' for Inactive)
REMARK    1  A    between atoms: C_1  and  CH3_3 
REMARK       I    between atoms: C_1  and  N_4 
REMARK    2  A    between atoms: N_4  and  CA_5 
REMARK    3  A    between atoms: CA_5  and  C_6 
REMARK    4  A    between atoms: CA_5  and  CB_8 
REMARK       I    between atoms: C_6  and  N_12 
REMARK    5  A    between atoms: CB_8  and  OG1_9 
REMARK    6  A    between atoms: CB_8  and  CG2_10 
REMARK    7  A    between atoms: OG1_9  and  CD1_11 
REMARK    8  A    between atoms: N_12  and  CA_13 
REMARK    9  A    between atoms: CA_13  and  C_14 
REMARK   10  A    between atoms: CA_13  and  CB_16 
REMARK       I    between atoms: C_14  and  N_20 
REMARK   11  A    between atoms: CB_16  and  CG1_17 
REMARK   12  A    between atoms: CB_16  and  CG2_18 
REMARK   13  A    between atoms: CG1_17  and  CD1_19 
REMARK   14  A    between atoms: N_20  and  CA_21 
REMARK   15  A    between atoms: CA_21  and  C_22 
REMARK   16  A    between atoms: CA_21  and  CB_23 
REMARK   17  A    between atoms: C_22  and  N_27 
REMARK   18  A    between atoms: CB_23  and  CG_24 
REMARK   19  A    between atoms: CG_24  and  CD_25 
REMARK   20  A    between atoms: CD_25  and  CE_26 
REMARK   21  A    between atoms: N_27  and  CA_28 
REMARK   22  A    between atoms: CA_28  and  C_29 
REMARK   23  A    between atoms: CA_28  and  CB_31 
REMARK       I    between atoms: C_29  and  N_35 
REMARK   24  A    between atoms: CB_31  and  CG_32 
REMARK   25  A    between atoms: CG_32  and  CD_33 
REMARK   26  A    between atoms: CD_33  and  CE_34 
REMARK   27  A    between atoms: N_35  and  CA_36 
REMARK   28  A    between atoms: CA_36  and  C_37 
REMARK   29  A    between atoms: CA_36  and  CB_39 
REMARK       I    between atoms: C_37  and  N_44 
REMARK   30  A    between atoms: CB_39  and  CG_40 
REMARK   31  A    between atoms: CG_40  and  CD_41 
REMARK       I    between atoms: CD_41  and  NE2_43 
REMARK   32  A    between atoms: N_44  and  CA_45 
REMARK   33  A    between atoms: CA_45  and  C_46 
REMARK   34  A    between atoms: CA_45  and  CB_48 
REMARK       I    between atoms: C_46  and  N_55 
REMARK   35  A    between atoms: CB_48  and  CG_49 
REMARK   36  A    between atoms: CG_49  and  CD_50 
REMARK   37  A    between atoms: CD_50  and  NE_51 
REMARK       I    between atoms: NE_51  and  CZ_52 
REMARK       I    between atoms: CZ_52  and  NH1_53 
ROOT
ATOM      1  N   2NC d   1      15.434  23.760  17.478  0.00  0.00    -0.060 N 
ATOM      2  H37 2NC d   1      16.157  23.243  17.002  0.00  0.00     0.278 HD
ATOM      3  H38 2NC d   1      15.382  24.692  17.098  0.00  0.00     0.278 HD
ENDROOT
BRANCH   1   4
ATOM      4  C   2NC d   1      15.811  23.870  18.857  0.00  0.00     0.101 C 
ATOM      5  H26 2NC d   1      15.424  24.821  19.251  0.00  0.00     0.078 H 
ATOM      6  H27 2NC d   1      15.360  23.033  19.411  0.00  0.00     0.078 H 
BRANCH   4   7
ATOM      7  CA  2NC d   1      17.308  23.836  19.069  0.00  0.00     0.035 C 
ATOM      8  H25 2NC d   1      17.663  22.838  18.774  0.00  0.00     0.075 H 
BRANCH   7   9
ATOM      9  N   2NC d   1      18.041  24.827  18.265  0.00  0.00    -0.353 N 
ATOM     10  C   2NC d   1      18.629  24.479  17.152  0.00  0.00     0.241 C 
ATOM     11  O   2NC d   1      18.527  23.353  16.668  0.00  0.00    -0.271 OA
ATOM     12  H24 2NC d   1      18.089  25.777  18.574  0.00  0.00     0.163 HD
BRANCH  10  13
ATOM     13  CA  2NC d   1      19.534  25.515  16.537  0.00  0.00     0.092 C 
ATOM     14  H14 2NC d   1      19.101  26.509  16.724  0.00  0.00     0.088 H 
BRANCH  13  15
ATOM     15  N   2NC d   1      20.870  25.469  17.172  0.00  0.00    -0.346 N 
ATOM     16  C   2NC d   1      21.392  26.476  17.821  0.00  0.00     0.243 C 
ATOM     17  O   2NC d   1      20.760  27.556  17.950  0.00  0.00    -0.271 OA
ATOM     18  H13 2NC d   1      21.400  24.624  17.101  0.00  0.00     0.163 HD
BRANCH  16  19
ATOM     19  CA  2NC d   1      22.760  26.374  18.513  0.00  0.00     0.114 C 
ATOM     20  H5  2NC d   1      22.635  26.678  19.563  0.00  0.00     0.091 H 
BRANCH  19  21
ATOM     21  N   2NC d   1      23.325  25.052  18.510  0.00  0.00    -0.346 N 
ATOM     22  C   2NC d   1      23.557  24.313  19.608  0.00  0.00     0.214 C 
ATOM     23  O   2NC d   1      23.275  24.725  20.740  0.00  0.00    -0.274 OA
ATOM     24  H4  2NC d   1      23.563  24.653  17.625  0.00  0.00     0.163 HD
BRANCH  22  25
ATOM     25  CH3 2NC d   1      24.231  22.967  19.426  0.00  0.00    -0.003 C 
ATOM     26  H1  2NC d   1      24.397  22.782  18.355  0.00  0.00     0.040 H 
ATOM     27  H2  2NC d   1      23.588  22.176  19.839  0.00  0.00     0.040 H 
ATOM     28  H3  2NC d   1      25.197  22.966  19.952  0.00  0.00     0.040 H 
ENDBRANCH  22  25
ENDBRANCH  19  21
BRANCH  19  29
ATOM     29  CB  2NC d   1      23.708  27.372  17.816  0.00  0.00     0.062 C 
ATOM     30  H6  2NC d   1      23.287  28.386  17.877  0.00  0.00     0.086 H 
BRANCH  29  31
ATOM     31  OG1 2NC d   1      23.905  27.009  16.457  0.00  0.00    -0.389 OA
BRANCH  31  32
ATOM     32  CD1 2NC d   1      24.571  26.040  15.643  0.00  0.00     0.005 C 
ATOM     33  H10 2NC d   1      24.366  26.249  14.583  0.00  0.00     0.066 H 
ATOM     34  H11 2NC d   1      24.204  25.034  15.896  0.00  0.00     0.066 H 
ATOM     35  H12 2NC d   1      25.655  26.092  15.824  0.00  0.00     0.066 H 
ENDBRANCH  31  32
ENDBRANCH  29  31
BRANCH  29  36
ATOM     36  CG2 2NC d   1      25.095  27.322  18.512  0.00  0.00    -0.050 C 
ATOM     37  H7  2NC d   1      25.777  28.031  18.021  0.00  0.00     0.031 H 
ATOM     38  H8  2NC d   1      25.507  26.305  18.436  0.00  0.00     0.031 H 
ATOM     39  H9  2NC d   1      24.983  27.595  19.572  0.00  0.00     0.031 H 
ENDBRANCH  29  36
ENDBRANCH  19  29
ENDBRANCH  16  19
ENDBRANCH  13  15
BRANCH  13  40
ATOM     40  CB  2NC d   1      19.623  25.310  15.004  0.00  0.00    -0.030 C 
ATOM     41  H15 2NC d   1      19.872  24.253  14.830  0.00  0.00     0.043 H 
BRANCH  40  42
ATOM     42  CG1 2NC d   1      20.781  26.131  14.419  0.00  0.00    -0.063 C 
ATOM     43  H16 2NC d   1      20.895  25.843  13.363  0.00  0.00     0.033 H 
ATOM     44  H17 2NC d   1      21.693  25.863  14.972  0.00  0.00     0.033 H 
BRANCH  42  45
ATOM     45  CD1 2NC d   1      20.637  27.636  14.472  0.00  0.00    -0.076 C 
ATOM     46  H21 2NC d   1      21.526  28.105  14.025  0.00  0.00     0.027 H 
ATOM     47  H22 2NC d   1      20.540  27.958  15.519  0.00  0.00     0.027 H 
ATOM     48  H23 2NC d   1      19.741  27.939  13.910  0.00  0.00     0.027 H 
ENDBRANCH  42  45
ENDBRANCH  40  42
BRANCH  40  49
ATOM     49  CG2 2NC d   1      18.287  25.544  14.355  0.00  0.00    -0.071 C 
ATOM     50  H18 2NC d   1      17.528  24.914  14.841  0.00  0.00     0.028 H 
ATOM     51  H19 2NC d   1      18.348  25.287  13.287  0.00  0.00     0.028 H 
ATOM     52  H20 2NC d   1      18.008  26.603  14.462  0.00  0.00     0.028 H 
ENDBRANCH  40  49
ENDBRANCH  13  40
ENDBRANCH  10  13
ENDBRANCH   7   9
BRANCH   7  53
ATOM     53  CB  2NC d   1      17.627  24.046  20.556  0.00  0.00    -0.045 C 
ATOM     54  H28 2NC d   1      17.149  23.233  21.122  0.00  0.00     0.036 H 
ATOM     55  H29 2NC d   1      17.193  25.009  20.862  0.00  0.00     0.036 H 
BRANCH  53  56
ATOM     56  CG  2NC d   1      19.114  24.063  20.922  0.00  0.00    -0.064 C 
ATOM     57  H30 2NC d   1      19.201  24.099  22.018  0.00  0.00     0.033 H 
ATOM     58  H31 2NC d   1      19.568  24.966  20.488  0.00  0.00     0.033 H 
BRANCH  56  59
ATOM     59  CD  2NC d   1      19.882  22.853  20.420  0.00  0.00    -0.068 C 
ATOM     60  H32 2NC d   1      20.927  22.942  20.752  0.00  0.00     0.032 H 
ATOM     61  H33 2NC d   1      19.845  22.849  19.321  0.00  0.00     0.032 H 
BRANCH  59  62
ATOM     62  CE  2NC d   1      19.331  21.540  20.922  0.00  0.00    -0.077 C 
ATOM     63  H34 2NC d   1      19.933  20.712  20.520  0.00  0.00     0.027 H 
ATOM     64  H35 2NC d   1      18.288  21.429  20.590  0.00  0.00     0.027 H 
ATOM     65  H36 2NC d   1      19.370  21.522  22.021  0.00  0.00     0.027 H 
ENDBRANCH  59  62
ENDBRANCH  56  59
ENDBRANCH  53  56
ENDBRANCH   7  53
ENDBRANCH   4   7
ENDBRANCH   1   4
BRANCH   1  66
ATOM     66  CA  2NC d   1      14.159  23.096  17.207  0.00  0.00     0.178 C 
ATOM     67  H39 2NC d   1      13.402  23.609  17.819  0.00  0.00     0.099 H 
BRANCH  66  68
ATOM     68  C   2NC d   1      14.202  21.652  17.642  0.00  0.00     0.249 C 
ATOM     69  O   2NC d   1      15.237  21.003  17.687  0.00  0.00    -0.271 OA
ATOM     70  N   2NC d   1      13.042  21.109  17.915  0.00  0.00    -0.346 N 
ATOM     71  H49 2NC d   1      12.220  21.675  17.857  0.00  0.00     0.163 HD
BRANCH  70  72
ATOM     72  CA  2NC d   1      12.904  19.697  18.304  0.00  0.00     0.090 C 
ATOM     73  H50 2NC d   1      13.603  19.094  17.705  0.00  0.00     0.087 H 
BRANCH  72  74
ATOM     74  C   2NC d   1      11.481  19.265  17.960  0.00  0.00     0.241 C 
ATOM     75  O   2NC d   1      10.499  19.942  18.271  0.00  0.00    -0.271 OA
ATOM     76  N   2NC d   1      11.381  18.052  17.463  0.00  0.00    -0.346 N 
ATOM     77  H57 2NC d   1      12.216  17.526  17.303  0.00  0.00     0.163 HD
BRANCH  76  78
ATOM     78  CA  2NC d   1      10.100  17.448  17.138  0.00  0.00     0.089 C 
ATOM     79  H58 2NC d   1       9.290  18.072  17.544  0.00  0.00     0.087 H 
BRANCH  78  80
ATOM     80  C   2NC d   1      10.040  16.060  17.759  0.00  0.00     0.238 C 
ATOM     81  O   2NC d   1      11.036  15.326  17.762  0.00  0.00    -0.271 OA
ATOM     82  N   2NC d   1       8.805  15.620  18.290  0.00  0.00    -0.368 N 
ATOM     83  H70 2NC d   1       8.734  14.713  18.705  0.00  0.00     0.159 HD
ATOM     84  H71 2NC d   1       8.003  16.216  18.251  0.00  0.00     0.159 HD
ENDBRANCH  78  80
BRANCH  78  85
ATOM     85  CB  2NC d   1       9.926  17.317  15.631  0.00  0.00    -0.036 C 
ATOM     86  H59 2NC d   1       9.130  16.579  15.450  0.00  0.00     0.036 H 
ATOM     87  H60 2NC d   1      10.874  16.943  15.217  0.00  0.00     0.036 H 
BRANCH  85  88
ATOM     88  CG  2NC d   1       9.563  18.576  14.878  0.00  0.00    -0.048 C 
ATOM     89  H61 2NC d   1      10.375  19.314  14.957  0.00  0.00     0.035 H 
ATOM     90  H62 2NC d   1       8.635  19.007  15.282  0.00  0.00     0.035 H 
BRANCH  88  91
ATOM     91  CD  2NC d   1       9.363  18.166  13.419  0.00  0.00     0.009 C 
ATOM     92  H63 2NC d   1       8.768  17.241  13.398  0.00  0.00     0.064 H 
ATOM     93  H64 2NC d   1      10.351  17.976  12.975  0.00  0.00     0.064 H 
BRANCH  91  94
ATOM     94  NE  2NC d   1       8.689  19.157  12.618  0.00  0.00    -0.227 N 
ATOM     95  CZ  2NC d   1       8.492  18.969  11.307  0.00  0.00     0.665 C 
ATOM     96  NH1 2NC d   1       8.894  17.885  10.677  0.00  0.00    -0.235 N 
ATOM     97  NH2 2NC d   1       7.887  19.909  10.632  0.00  0.00    -0.235 N 
ATOM     98  H66 2NC d   1       8.721  17.782   9.667  0.00  0.00     0.174 HD
ATOM     99  H67 2NC d   1       9.381  17.140  11.194  0.00  0.00     0.174 HD
ATOM    100  H68 2NC d   1       7.567  20.763  11.111  0.00  0.00     0.174 HD
ATOM    101  H69 2NC d   1       7.730  19.797   9.620  0.00  0.00     0.174 HD
ATOM    102  H65 2NC d   1       8.353  20.024  13.061  0.00  0.00     0.177 HD
ENDBRANCH  91  94
ENDBRANCH  88  91
ENDBRANCH  85  88
ENDBRANCH  78  85
ENDBRANCH  76  78
ENDBRANCH  72  74
BRANCH  72 103
ATOM    103  CB  2NC d   1      13.259  19.495  19.764  0.00  0.00    -0.030 C 
ATOM    104  H51 2NC d   1      12.638  20.182  20.358  0.00  0.00     0.037 H 
ATOM    105  H52 2NC d   1      14.320  19.757  19.890  0.00  0.00     0.037 H 
BRANCH 103 106
ATOM    106  CG  2NC d   1      13.061  18.105  20.316  0.00  0.00     0.011 C 
ATOM    107  H53 2NC d   1      13.774  17.952  21.140  0.00  0.00     0.047 H 
ATOM    108  H54 2NC d   1      13.266  17.379  19.515  0.00  0.00     0.047 H 
BRANCH 106 109
ATOM    109  CD  2NC d   1      11.651  17.857  20.844  0.00  0.00     0.215 C 
ATOM    110  OE1 2NC d   1      10.974  18.775  21.235  0.00  0.00    -0.274 OA
ATOM    111  NE2 2NC d   1      11.187  16.630  20.800  0.00  0.00    -0.370 N 
ATOM    112  H55 2NC d   1      10.267  16.431  21.137  0.00  0.00     0.159 HD
ATOM    113  H56 2NC d   1      11.754  15.894  20.429  0.00  0.00     0.159 HD
ENDBRANCH 106 109
ENDBRANCH 103 106
ENDBRANCH  72 103
ENDBRANCH  70  72
ENDBRANCH  66  68
BRANCH  66 114
ATOM    114  CB  2NC d   1      13.683  23.167  15.763  0.00  0.00    -0.030 C 
ATOM    115  H40 2NC d   1      13.564  24.221  15.473  0.00  0.00     0.036 H 
ATOM    116  H41 2NC d   1      12.715  22.651  15.675  0.00  0.00     0.036 H 
BRANCH 114 117
ATOM    117  CG  2NC d   1      14.679  22.510  14.844  0.00  0.00    -0.063 C 
ATOM    118  H42 2NC d   1      14.884  21.493  15.210  0.00  0.00     0.033 H 
ATOM    119  H43 2NC d   1      15.610  23.096  14.850  0.00  0.00     0.033 H 
BRANCH 117 120
ATOM    120  CD  2NC d   1      14.169  22.426  13.441  0.00  0.00    -0.068 C 
ATOM    121  H44 2NC d   1      13.864  23.434  13.124  0.00  0.00     0.032 H 
ATOM    122  H45 2NC d   1      13.295  21.758  13.431  0.00  0.00     0.032 H 
BRANCH 120 123
ATOM    123  CE  2NC d   1      15.159  21.911  12.462  0.00  0.00    -0.077 C 
ATOM    124  H46 2NC d   1      14.704  21.882  11.461  0.00  0.00     0.027 H 
ATOM    125  H47 2NC d   1      15.469  20.897  12.753  0.00  0.00     0.027 H 
ATOM    126  H48 2NC d   1      16.038  22.573  12.446  0.00  0.00     0.027 H 
ENDBRANCH 120 123
ENDBRANCH 117 120
ENDBRANCH 114 117
ENDBRANCH  66 114
ENDBRANCH   1  66
TORSDOF 37
