REMARK WARNING: 32 MAX_TORS EXCEEDED!!!
REMARK  37 active torsions:
REMARK  status: ('A' for Active; 'I' for Inactive)
REMARK    1  A    between atoms: C_1  and  CH3_3 
REMARK       I    between atoms: C_1  and  N_4 
REMARK    2  A    between atoms: N_4  and  CA_5 
REMARK    3  A    between atoms: CA_5  and  C_6 
REMARK    4  A    between atoms: CA_5  and  CB_8 
REMARK       I    between atoms: C_6  and  N_12 
REMARK    5  A    between atoms: CB_8  and  OG1_9 
REMARK    6  A    between atoms: CB_8  and  CG2_10 
REMARK    7  A    between atoms: OG1_9  and  CD1_11 
REMARK    8  A    between atoms: N_12  and  CA_13 
REMARK    9  A    between atoms: CA_13  and  C_14 
REMARK   10  A    between atoms: CA_13  and  CB_16 
REMARK       I    between atoms: C_14  and  N_20 
REMARK   11  A    between atoms: CB_16  and  CG1_17 
REMARK   12  A    between atoms: CB_16  and  CG2_18 
REMARK   13  A    between atoms: CG1_17  and  CD1_19 
REMARK   14  A    between atoms: N_20  and  CA_21 
REMARK   15  A    between atoms: CA_21  and  C_22 
REMARK   16  A    between atoms: CA_21  and  CB_23 
REMARK   17  A    between atoms: C_22  and  N_27 
REMARK   18  A    between atoms: CB_23  and  CG_24 
REMARK   19  A    between atoms: CG_24  and  CD_25 
REMARK   20  A    between atoms: CD_25  and  CE_26 
REMARK   21  A    between atoms: N_27  and  CA_28 
REMARK   22  A    between atoms: CA_28  and  C_29 
REMARK   23  A    between atoms: CA_28  and  CB_31 
REMARK       I    between atoms: C_29  and  N_35 
REMARK   24  A    between atoms: CB_31  and  CG_32 
REMARK   25  A    between atoms: CG_32  and  CD_33 
REMARK   26  A    between atoms: CD_33  and  CE_34 
REMARK   27  A    between atoms: N_35  and  CA_36 
REMARK   28  A    between atoms: CA_36  and  C_37 
REMARK   29  A    between atoms: CA_36  and  CB_39 
REMARK       I    between atoms: C_37  and  N_44 
REMARK   30  A    between atoms: CB_39  and  CG_40 
REMARK   31  A    between atoms: CG_40  and  CD_41 
REMARK       I    between atoms: CD_41  and  NE2_43 
REMARK   32  A    between atoms: N_44  and  CA_45 
REMARK   33  A    between atoms: CA_45  and  C_46 
REMARK   34  A    between atoms: CA_45  and  CB_48 
REMARK       I    between atoms: C_46  and  N_55 
REMARK   35  A    between atoms: CB_48  and  CG_49 
REMARK   36  A    between atoms: CG_49  and  CD_50 
REMARK   37  A    between atoms: CD_50  and  NE_51 
REMARK       I    between atoms: NE_51  and  CZ_52 
REMARK       I    between atoms: CZ_52  and  NH1_53 
ROOT
ATOM      1  N   2NC d   1      15.582  23.667  17.483  0.00  0.00    -0.060 N 
ATOM      2  H37 2NC d   1      16.331  23.118  17.091  0.00  0.00     0.278 HD
ATOM      3  H38 2NC d   1      15.575  24.580  17.056  0.00  0.00     0.278 HD
ENDROOT
BRANCH   1   4
ATOM      4  C   2NC d   1      15.913  23.871  18.859  0.00  0.00     0.101 C 
ATOM      5  H26 2NC d   1      15.536  24.855  19.174  0.00  0.00     0.078 H 
ATOM      6  H27 2NC d   1      15.433  23.085  19.461  0.00  0.00     0.078 H 
BRANCH   4   7
ATOM      7  CA  2NC d   1      17.415  23.822  19.093  0.00  0.00     0.035 C 
ATOM      8  H25 2NC d   1      17.768  22.831  18.771  0.00  0.00     0.075 H 
BRANCH   7   9
ATOM      9  N   2NC d   1      18.172  24.823  18.339  0.00  0.00    -0.353 N 
ATOM     10  C   2NC d   1      18.884  24.478  17.295  0.00  0.00     0.241 C 
ATOM     11  O   2NC d   1      18.886  23.330  16.831  0.00  0.00    -0.271 OA
ATOM     12  H24 2NC d   1      18.145  25.781  18.624  0.00  0.00     0.163 HD
BRANCH  10  13
ATOM     13  CA  2NC d   1      19.726  25.560  16.667  0.00  0.00     0.092 C 
ATOM     14  H14 2NC d   1      19.240  26.530  16.849  0.00  0.00     0.088 H 
BRANCH  13  15
ATOM     15  N   2NC d   1      21.047  25.577  17.294  0.00  0.00    -0.346 N 
ATOM     16  C   2NC d   1      21.539  26.616  17.936  0.00  0.00     0.243 C 
ATOM     17  O   2NC d   1      20.848  27.627  17.990  0.00  0.00    -0.271 OA
ATOM     18  H13 2NC d   1      21.609  24.752  17.232  0.00  0.00     0.163 HD
BRANCH  16  19
ATOM     19  CA  2NC d   1      22.926  26.524  18.615  0.00  0.00     0.114 C 
ATOM     20  H5  2NC d   1      22.826  26.905  19.642  0.00  0.00     0.091 H 
BRANCH  19  21
ATOM     21  N   2NC d   1      23.467  25.194  18.701  0.00  0.00    -0.346 N 
ATOM     22  C   2NC d   1      23.690  24.491  19.803  0.00  0.00     0.214 C 
ATOM     23  O   2NC d   1      23.355  24.948  20.900  0.00  0.00    -0.274 OA
ATOM     24  H4  2NC d   1      23.700  24.751  17.835  0.00  0.00     0.163 HD
BRANCH  22  25
ATOM     25  CH3 2NC d   1      24.374  23.137  19.666  0.00  0.00    -0.003 C 
ATOM     26  H1  2NC d   1      24.579  22.936  18.604  0.00  0.00     0.040 H 
ATOM     27  H2  2NC d   1      23.717  22.352  20.068  0.00  0.00     0.040 H 
ATOM     28  H3  2NC d   1      25.320  23.146  20.227  0.00  0.00     0.040 H 
ENDBRANCH  22  25
ENDBRANCH  19  21
BRANCH  19  29
ATOM     29  CB  2NC d   1      23.889  27.446  17.834  0.00  0.00     0.062 C 
ATOM     30  H6  2NC d   1      23.457  28.457  17.806  0.00  0.00     0.086 H 
BRANCH  29  31
ATOM     31  OG1 2NC d   1      24.122  26.988  16.493  0.00  0.00    -0.389 OA
BRANCH  31  32
ATOM     32  CD1 2NC d   1      24.646  26.075  15.544  0.00  0.00     0.005 C 
ATOM     33  H10 2NC d   1      24.401  26.420  14.529  0.00  0.00     0.066 H 
ATOM     34  H11 2NC d   1      24.206  25.081  15.710  0.00  0.00     0.066 H 
ATOM     35  H12 2NC d   1      25.739  26.016  15.657  0.00  0.00     0.066 H 
ENDBRANCH  31  32
ENDBRANCH  29  31
BRANCH  29  36
ATOM     36  CG2 2NC d   1      25.265  27.489  18.505  0.00  0.00    -0.050 C 
ATOM     37  H7  2NC d   1      25.932  28.150  17.932  0.00  0.00     0.031 H 
ATOM     38  H8  2NC d   1      25.691  26.475  18.534  0.00  0.00     0.031 H 
ATOM     39  H9  2NC d   1      25.161  27.873  19.531  0.00  0.00     0.031 H 
ENDBRANCH  29  36
ENDBRANCH  19  29
ENDBRANCH  16  19
ENDBRANCH  13  15
BRANCH  13  40
ATOM     40  CB  2NC d   1      19.843  25.358  15.146  0.00  0.00    -0.030 C 
ATOM     41  H15 2NC d   1      20.187  24.325  14.986  0.00  0.00     0.043 H 
BRANCH  40  42
ATOM     42  CG1 2NC d   1      20.881  26.270  14.509  0.00  0.00    -0.063 C 
ATOM     43  H16 2NC d   1      20.924  26.016  13.440  0.00  0.00     0.033 H 
ATOM     44  H17 2NC d   1      21.848  26.039  14.979  0.00  0.00     0.033 H 
BRANCH  42  45
ATOM     45  CD1 2NC d   1      20.686  27.751  14.604  0.00  0.00    -0.076 C 
ATOM     46  H21 2NC d   1      21.517  28.264  14.097  0.00  0.00     0.027 H 
ATOM     47  H22 2NC d   1      20.661  28.050  15.662  0.00  0.00     0.027 H 
ATOM     48  H23 2NC d   1      19.736  28.027  14.122  0.00  0.00     0.027 H 
ENDBRANCH  42  45
ENDBRANCH  40  42
BRANCH  40  49
ATOM     49  CG2 2NC d   1      18.502  25.486  14.476  0.00  0.00    -0.071 C 
ATOM     50  H18 2NC d   1      17.782  24.813  14.964  0.00  0.00     0.028 H 
ATOM     51  H19 2NC d   1      18.595  25.215  13.414  0.00  0.00     0.028 H 
ATOM     52  H20 2NC d   1      18.148  26.524  14.560  0.00  0.00     0.028 H 
ENDBRANCH  40  49
ENDBRANCH  13  40
ENDBRANCH  10  13
ENDBRANCH   7   9
BRANCH   7  53
ATOM     53  CB  2NC d   1      17.704  23.974  20.597  0.00  0.00    -0.045 C 
ATOM     54  H28 2NC d   1      17.294  23.097  21.120  0.00  0.00     0.036 H 
ATOM     55  H29 2NC d   1      17.201  24.884  20.957  0.00  0.00     0.036 H 
BRANCH  53  56
ATOM     56  CG  2NC d   1      19.190  24.082  20.929  0.00  0.00    -0.064 C 
ATOM     57  H30 2NC d   1      19.299  24.250  22.011  0.00  0.00     0.033 H 
ATOM     58  H31 2NC d   1      19.614  24.936  20.381  0.00  0.00     0.033 H 
BRANCH  56  59
ATOM     59  CD  2NC d   1      19.951  22.841  20.553  0.00  0.00    -0.068 C 
ATOM     60  H32 2NC d   1      20.976  22.936  20.941  0.00  0.00     0.032 H 
ATOM     61  H33 2NC d   1      19.979  22.775  19.455  0.00  0.00     0.032 H 
BRANCH  59  62
ATOM     62  CE  2NC d   1      19.354  21.540  21.095  0.00  0.00    -0.077 C 
ATOM     63  H34 2NC d   1      19.973  20.690  20.772  0.00  0.00     0.027 H 
ATOM     64  H35 2NC d   1      18.331  21.417  20.709  0.00  0.00     0.027 H 
ATOM     65  H36 2NC d   1      19.329  21.578  22.194  0.00  0.00     0.027 H 
ENDBRANCH  59  62
ENDBRANCH  56  59
ENDBRANCH  53  56
ENDBRANCH   7  53
ENDBRANCH   4   7
ENDBRANCH   1   4
BRANCH   1  66
ATOM     66  CA  2NC d   1      14.343  23.017  17.076  0.00  0.00     0.178 C 
ATOM     67  H39 2NC d   1      13.513  23.555  17.556  0.00  0.00     0.099 H 
BRANCH  66  68
ATOM     68  C   2NC d   1      14.318  21.558  17.544  0.00  0.00     0.249 C 
ATOM     69  O   2NC d   1      15.283  20.794  17.520  0.00  0.00    -0.271 OA
ATOM     70  N   2NC d   1      13.146  21.107  17.952  0.00  0.00    -0.346 N 
ATOM     71  H49 2NC d   1      12.352  21.714  17.977  0.00  0.00     0.163 HD
BRANCH  70  72
ATOM     72  CA  2NC d   1      13.021  19.706  18.369  0.00  0.00     0.090 C 
ATOM     73  H50 2NC d   1      13.722  19.109  17.767  0.00  0.00     0.087 H 
BRANCH  72  74
ATOM     74  C   2NC d   1      11.596  19.256  18.015  0.00  0.00     0.241 C 
ATOM     75  O   2NC d   1      10.589  19.920  18.291  0.00  0.00    -0.271 OA
ATOM     76  N   2NC d   1      11.517  18.050  17.471  0.00  0.00    -0.346 N 
ATOM     77  H57 2NC d   1      12.357  17.528  17.322  0.00  0.00     0.163 HD
BRANCH  76  78
ATOM     78  CA  2NC d   1      10.232  17.460  17.081  0.00  0.00     0.089 C 
ATOM     79  H58 2NC d   1       9.414  18.090  17.461  0.00  0.00     0.087 H 
BRANCH  78  80
ATOM     80  C   2NC d   1      10.136  16.078  17.714  0.00  0.00     0.238 C 
ATOM     81  O   2NC d   1      11.101  15.306  17.673  0.00  0.00    -0.271 OA
ATOM     82  N   2NC d   1       8.939  15.617  18.361  0.00  0.00    -0.368 N 
ATOM     83  H70 2NC d   1       8.910  14.703  18.767  0.00  0.00     0.159 HD
ATOM     84  H71 2NC d   1       8.135  16.210  18.406  0.00  0.00     0.159 HD
ENDBRANCH  78  80
BRANCH  78  85
ATOM     85  CB  2NC d   1      10.114  17.370  15.575  0.00  0.00    -0.036 C 
ATOM     86  H59 2NC d   1       9.146  16.894  15.362  0.00  0.00     0.036 H 
ATOM     87  H60 2NC d   1      10.928  16.714  15.233  0.00  0.00     0.036 H 
BRANCH  85  88
ATOM     88  CG  2NC d   1      10.178  18.610  14.734  0.00  0.00    -0.048 C 
ATOM     89  H61 2NC d   1      11.181  19.052  14.828  0.00  0.00     0.035 H 
ATOM     90  H62 2NC d   1       9.426  19.326  15.098  0.00  0.00     0.035 H 
BRANCH  88  91
ATOM     91  CD  2NC d   1       9.906  18.316  13.264  0.00  0.00     0.009 C 
ATOM     92  H63 2NC d   1       9.764  17.230  13.162  0.00  0.00     0.064 H 
ATOM     93  H64 2NC d   1      10.794  18.625  12.692  0.00  0.00     0.064 H 
BRANCH  91  94
ATOM     94  NE  2NC d   1       8.737  18.977  12.664  0.00  0.00    -0.227 N 
ATOM     95  CZ  2NC d   1       8.157  18.596  11.527  0.00  0.00     0.665 C 
ATOM     96  NH1 2NC d   1       8.619  17.545  10.839  0.00  0.00    -0.235 N 
ATOM     97  NH2 2NC d   1       7.100  19.197  10.983  0.00  0.00    -0.235 N 
ATOM     98  H66 2NC d   1       8.160  17.262   9.961  0.00  0.00     0.174 HD
ATOM     99  H67 2NC d   1       9.433  17.019  11.187  0.00  0.00     0.174 HD
ATOM    100  H68 2NC d   1       6.678  20.015  11.445  0.00  0.00     0.174 HD
ATOM    101  H69 2NC d   1       6.704  18.843  10.100  0.00  0.00     0.174 HD
ATOM    102  H65 2NC d   1       8.340  19.790  13.156  0.00  0.00     0.177 HD
ENDBRANCH  91  94
ENDBRANCH  88  91
ENDBRANCH  85  88
ENDBRANCH  78  85
ENDBRANCH  76  78
ENDBRANCH  72  74
BRANCH  72 103
ATOM    103  CB  2NC d   1      13.399  19.479  19.831  0.00  0.00    -0.030 C 
ATOM    104  H51 2NC d   1      12.776  20.149  20.441  0.00  0.00     0.037 H 
ATOM    105  H52 2NC d   1      14.457  19.756  19.946  0.00  0.00     0.037 H 
BRANCH 103 106
ATOM    106  CG  2NC d   1      13.235  18.090  20.377  0.00  0.00     0.011 C 
ATOM    107  H53 2NC d   1      13.946  17.960  21.206  0.00  0.00     0.047 H 
ATOM    108  H54 2NC d   1      13.472  17.375  19.575  0.00  0.00     0.047 H 
BRANCH 106 109
ATOM    109  CD  2NC d   1      11.856  17.781  20.889  0.00  0.00     0.215 C 
ATOM    110  OE1 2NC d   1      11.150  18.702  21.231  0.00  0.00    -0.274 OA
ATOM    111  NE2 2NC d   1      11.375  16.569  20.872  0.00  0.00    -0.370 N 
ATOM    112  H55 2NC d   1      10.454  16.392  21.219  0.00  0.00     0.159 HD
ATOM    113  H56 2NC d   1      11.927  15.817  20.512  0.00  0.00     0.159 HD
ENDBRANCH 106 109
ENDBRANCH 103 106
ENDBRANCH  72 103
ENDBRANCH  70  72
ENDBRANCH  66  68
BRANCH  66 114
ATOM    114  CB  2NC d   1      14.110  23.034  15.579  0.00  0.00    -0.030 C 
ATOM    115  H40 2NC d   1      15.063  22.720  15.127  0.00  0.00     0.036 H 
ATOM    116  H41 2NC d   1      13.911  24.085  15.322  0.00  0.00     0.036 H 
BRANCH 114 117
ATOM    117  CG  2NC d   1      13.046  22.236  14.876  0.00  0.00    -0.063 C 
ATOM    118  H42 2NC d   1      12.487  22.916  14.216  0.00  0.00     0.033 H 
ATOM    119  H43 2NC d   1      12.367  21.824  15.637  0.00  0.00     0.033 H 
BRANCH 117 120
ATOM    120  CD  2NC d   1      13.568  21.086  14.036  0.00  0.00    -0.068 C 
ATOM    121  H44 2NC d   1      12.700  20.586  13.582  0.00  0.00     0.032 H 
ATOM    122  H45 2NC d   1      14.081  20.387  14.713  0.00  0.00     0.032 H 
BRANCH 120 123
ATOM    123  CE  2NC d   1      14.536  21.433  12.914  0.00  0.00    -0.077 C 
ATOM    124  H46 2NC d   1      14.834  20.513  12.389  0.00  0.00     0.027 H 
ATOM    125  H47 2NC d   1      15.428  21.919  13.336  0.00  0.00     0.027 H 
ATOM    126  H48 2NC d   1      14.046  22.117  12.206  0.00  0.00     0.027 H 
ENDBRANCH 120 123
ENDBRANCH 117 120
ENDBRANCH 114 117
ENDBRANCH  66 114
ENDBRANCH   1  66
TORSDOF 37
