REMARK WARNING: 32 MAX_TORS EXCEEDED!!!
REMARK  36 active torsions:
REMARK  status: ('A' for Active; 'I' for Inactive)
REMARK    1  A    between atoms: N_1  and  CA_2 
REMARK    2  A    between atoms: CA_2  and  C_3 
REMARK    3  A    between atoms: CA_2  and  CB_5 
REMARK       I    between atoms: C_3  and  N_12 
REMARK    4  A    between atoms: CB_5  and  CG_6 
REMARK    5  A    between atoms: CG_6  and  CD_7 
REMARK    6  A    between atoms: CD_7  and  NE_8 
REMARK       I    between atoms: NE_8  and  CZ_9 
REMARK       I    between atoms: CZ_9  and  NH1_10 
REMARK    7  A    between atoms: N_12  and  CA_13 
REMARK    8  A    between atoms: CA_13  and  C_14 
REMARK    9  A    between atoms: CA_13  and  CB_16 
REMARK       I    between atoms: C_14  and  N_19 
REMARK   10  A    between atoms: CB_16  and  CG1_17 
REMARK   11  A    between atoms: CB_16  and  CG2_18 
REMARK   12  A    between atoms: N_19  and  CA_20 
REMARK   13  A    between atoms: CA_20  and  C_21 
REMARK   14  A    between atoms: CA_20  and  CB_22 
REMARK   15  A    between atoms: C_21  and  N_26 
REMARK   16  A    between atoms: CB_22  and  CG_23 
REMARK   17  A    between atoms: CG_23  and  CD1_24 
REMARK   18  A    between atoms: CG_23  and  CD2_25 
REMARK   19  A    between atoms: N_26  and  CA_27 
REMARK   20  A    between atoms: CA_27  and  C_28 
REMARK   21  A    between atoms: CA_27  and  CB_30 
REMARK       I    between atoms: C_28  and  N_37 
REMARK   22  A    between atoms: CB_30  and  CG_31 
REMARK   23  A    between atoms: N_37  and  CA_38 
REMARK   24  A    between atoms: CA_38  and  C_39 
REMARK   25  A    between atoms: CA_38  and  CB_41 
REMARK       I    between atoms: C_39  and  N_46 
REMARK   26  A    between atoms: CB_41  and  CG_42 
REMARK   27  A    between atoms: CG_42  and  CD_43 
REMARK   28  A    between atoms: N_46  and  CA_47 
REMARK   29  A    between atoms: CA_47  and  C_48 
REMARK   30  A    between atoms: CA_47  and  CB_50 
REMARK       I    between atoms: C_48  and  N_51 
REMARK   31  A    between atoms: N_51  and  CA_52 
REMARK   32  A    between atoms: CA_52  and  C_53 
REMARK   33  A    between atoms: CA_52  and  CB_55 
REMARK       I    between atoms: C_53  and  NH2_59 
REMARK   34  A    between atoms: CB_55  and  CG_56 
REMARK   35  A    between atoms: CG_56  and  CD_57 
REMARK   36  A    between atoms: CD_57  and  CE_58 
ROOT
ATOM      1  N   0Q4 d   1      15.385  23.582  17.250  0.00  0.00    -0.060 N 
ATOM      2  H38 0Q4 d   1      16.137  23.093  16.790  0.00  0.00     0.278 HD
ATOM      3  H39 0Q4 d   1      15.345  24.531  16.912  0.00  0.00     0.278 HD
ENDROOT
BRANCH   1   4
ATOM      4  C   0Q4 d   1      15.743  23.669  18.549  0.00  0.00     0.101 C 
ATOM      5  H27 0Q4 d   1      15.320  24.593  18.970  0.00  0.00     0.078 H 
ATOM      6  H28 0Q4 d   1      15.334  22.801  19.086  0.00  0.00     0.078 H 
BRANCH   4   7
ATOM      7  CA  0Q4 d   1      17.264  23.693  18.740  0.00  0.00     0.035 C 
ATOM      8  H26 0Q4 d   1      17.643  22.724  18.382  0.00  0.00     0.075 H 
BRANCH   7   9
ATOM      9  N   0Q4 d   1      17.870  24.749  17.955  0.00  0.00    -0.353 N 
ATOM     10  C   0Q4 d   1      18.571  24.492  16.854  0.00  0.00     0.241 C 
ATOM     11  O   0Q4 d   1      18.745  23.396  16.367  0.00  0.00    -0.271 OA
ATOM     12  H25 0Q4 d   1      17.758  25.698  18.249  0.00  0.00     0.163 HD
BRANCH  10  13
ATOM     13  CA  0Q4 d   1      19.200  25.736  16.227  0.00  0.00     0.092 C 
ATOM     14  H17 0Q4 d   1      18.710  26.632  16.636  0.00  0.00     0.088 H 
BRANCH  13  15
ATOM     15  N   0Q4 d   1      20.598  25.751  16.618  0.00  0.00    -0.346 N 
ATOM     16  C   0Q4 d   1      21.176  26.806  17.198  0.00  0.00     0.249 C 
ATOM     17  O   0Q4 d   1      20.644  27.897  17.411  0.00  0.00    -0.271 OA
ATOM     18  H16 0Q4 d   1      21.152  24.936  16.446  0.00  0.00     0.163 HD
BRANCH  16  19
ATOM     19  CA  0Q4 d   1      22.609  26.572  17.627  0.00  0.00     0.176 C 
ATOM     20  H4  0Q4 d   1      22.920  25.611  17.192  0.00  0.00     0.099 H 
BRANCH  19  21
ATOM     21  N   0Q4 d   1      23.551  27.577  17.171  0.00  0.00    -0.067 N 
ATOM     22  H1  0Q4 d   1      24.475  27.345  17.500  0.00  0.00     0.275 HD
ATOM     23  H2  0Q4 d   1      23.282  28.478  17.533  0.00  0.00     0.275 HD
ATOM     24  H3  0Q4 d   1      23.550  27.606  16.163  0.00  0.00     0.275 HD
ENDBRANCH  19  21
BRANCH  19  25
ATOM     25  CB  0Q4 d   1      22.710  26.457  19.163  0.00  0.00    -0.029 C 
ATOM     26  H5  0Q4 d   1      21.810  26.932  19.581  0.00  0.00     0.036 H 
ATOM     27  H6  0Q4 d   1      23.600  27.025  19.470  0.00  0.00     0.036 H 
BRANCH  25  28
ATOM     28  CG  0Q4 d   1      22.820  25.093  19.791  0.00  0.00    -0.047 C 
ATOM     29  H7  0Q4 d   1      21.817  24.643  19.747  0.00  0.00     0.035 H 
ATOM     30  H8  0Q4 d   1      23.106  25.250  20.841  0.00  0.00     0.035 H 
BRANCH  28  31
ATOM     31  CD  0Q4 d   1      23.780  24.072  19.227  0.00  0.00     0.009 C 
ATOM     32  H9  0Q4 d   1      24.052  24.411  18.216  0.00  0.00     0.064 H 
ATOM     33  H10 0Q4 d   1      23.233  23.120  19.160  0.00  0.00     0.064 H 
BRANCH  31  34
ATOM     34  NE  0Q4 d   1      24.996  23.805  19.917  0.00  0.00    -0.227 N 
ATOM     35  CZ  0Q4 d   1      26.261  23.928  19.581  0.00  0.00     0.665 C 
ATOM     36  NH1 0Q4 d   1      26.622  24.399  18.397  0.00  0.00    -0.235 N 
ATOM     37  NH2 0Q4 d   1      27.155  23.557  20.507  0.00  0.00    -0.235 N 
ATOM     38  H12 0Q4 d   1      27.621  24.485  18.160  0.00  0.00     0.174 HD
ATOM     39  H13 0Q4 d   1      25.904  24.679  17.714  0.00  0.00     0.174 HD
ATOM     40  H14 0Q4 d   1      26.834  23.195  21.417  0.00  0.00     0.174 HD
ATOM     41  H15 0Q4 d   1      28.163  23.634  20.309  0.00  0.00     0.174 HD
ATOM     42  H11 0Q4 d   1      24.857  23.443  20.871  0.00  0.00     0.177 HD
ENDBRANCH  31  34
ENDBRANCH  28  31
ENDBRANCH  25  28
ENDBRANCH  19  25
ENDBRANCH  16  19
ENDBRANCH  13  15
BRANCH  13  43
ATOM     43  CB  0Q4 d   1      19.003  25.743  14.710  0.00  0.00    -0.033 C 
ATOM     44  H18 0Q4 d   1      19.559  24.894  14.285  0.00  0.00     0.042 H 
BRANCH  43  45
ATOM     45  CG1 0Q4 d   1      17.531  25.578  14.380  0.00  0.00    -0.071 C 
ATOM     46  H19 0Q4 d   1      17.397  25.584  13.288  0.00  0.00     0.028 H 
ATOM     47  H20 0Q4 d   1      16.960  26.407  14.824  0.00  0.00     0.028 H 
ATOM     48  H21 0Q4 d   1      17.168  24.623  14.789  0.00  0.00     0.028 H 
ENDBRANCH  43  45
BRANCH  43  49
ATOM     49  CG2 0Q4 d   1      19.529  27.031  14.075  0.00  0.00    -0.071 C 
ATOM     50  H22 0Q4 d   1      20.596  27.149  14.315  0.00  0.00     0.028 H 
ATOM     51  H23 0Q4 d   1      18.967  27.890  14.470  0.00  0.00     0.028 H 
ATOM     52  H24 0Q4 d   1      19.402  26.980  12.983  0.00  0.00     0.028 H 
ENDBRANCH  43  49
ENDBRANCH  13  43
ENDBRANCH  10  13
ENDBRANCH   7   9
BRANCH   7  53
ATOM     53  CB  0Q4 d   1      17.768  23.887  20.169  0.00  0.00    -0.042 C 
ATOM     54  H29 0Q4 d   1      17.188  23.218  20.822  0.00  0.00     0.036 H 
ATOM     55  H30 0Q4 d   1      17.576  24.933  20.452  0.00  0.00     0.036 H 
BRANCH  53  56
ATOM     56  CG  0Q4 d   1      19.247  23.605  20.414  0.00  0.00    -0.059 C 
ATOM     57  H31 0Q4 d   1      19.829  24.246  19.735  0.00  0.00     0.038 H 
BRANCH  56  58
ATOM     58  CD1 0Q4 d   1      19.666  23.914  21.836  0.00  0.00    -0.073 C 
ATOM     59  H32 0Q4 d   1      20.737  23.694  21.959  0.00  0.00     0.028 H 
ATOM     60  H33 0Q4 d   1      19.082  23.295  22.533  0.00  0.00     0.028 H 
ATOM     61  H34 0Q4 d   1      19.483  24.978  22.049  0.00  0.00     0.028 H 
ENDBRANCH  56  58
BRANCH  56  62
ATOM     62  CD2 0Q4 d   1      19.584  22.148  20.116  0.00  0.00    -0.073 C 
ATOM     63  H35 0Q4 d   1      19.286  21.906  19.085  0.00  0.00     0.028 H 
ATOM     64  H36 0Q4 d   1      19.043  21.496  20.817  0.00  0.00     0.028 H 
ATOM     65  H37 0Q4 d   1      20.667  21.991  20.231  0.00  0.00     0.028 H 
ENDBRANCH  56  62
ENDBRANCH  53  56
ENDBRANCH   7  53
ENDBRANCH   4   7
ENDBRANCH   1   4
BRANCH   1  66
ATOM     66  CA  0Q4 d   1      14.156  22.944  16.788  0.00  0.00     0.181 C 
ATOM     67  H40 0Q4 d   1      13.294  23.487  17.203  0.00  0.00     0.100 H 
BRANCH  66  68
ATOM     68  C   0Q4 d   1      14.095  21.501  17.248  0.00  0.00     0.249 C 
ATOM     69  O   0Q4 d   1      15.124  20.818  17.210  0.00  0.00    -0.271 OA
ATOM     70  N   0Q4 d   1      12.941  21.012  17.653  0.00  0.00    -0.346 N 
ATOM     71  H48 0Q4 d   1      12.145  21.615  17.715  0.00  0.00     0.163 HD
BRANCH  70  72
ATOM     72  CA  0Q4 d   1      12.806  19.605  18.013  0.00  0.00     0.090 C 
ATOM     73  H49 0Q4 d   1      13.518  19.007  17.425  0.00  0.00     0.087 H 
BRANCH  72  74
ATOM     74  C   0Q4 d   1      11.390  19.144  17.686  0.00  0.00     0.241 C 
ATOM     75  O   0Q4 d   1      10.434  19.894  17.886  0.00  0.00    -0.271 OA
ATOM     76  N   0Q4 d   1      11.267  17.870  17.290  0.00  0.00    -0.346 N 
ATOM     77  H54 0Q4 d   1      12.075  17.317  17.087  0.00  0.00     0.163 HD
BRANCH  76  78
ATOM     78  CA  0Q4 d   1       9.926  17.306  17.161  0.00  0.00     0.086 C 
ATOM     79  H55 0Q4 d   1       9.313  17.703  17.983  0.00  0.00     0.086 H 
BRANCH  78  80
ATOM     80  C   0Q4 d   1       9.927  15.777  17.254  0.00  0.00     0.240 C 
ATOM     81  O   0Q4 d   1      10.948  15.120  17.041  0.00  0.00    -0.271 OA
ATOM     82  N   0Q4 d   1       8.751  15.307  17.576  0.00  0.00    -0.346 N 
ATOM     83  H59 0Q4 d   1       8.171  15.995  18.013  0.00  0.00     0.163 HD
BRANCH  82  84
ATOM     84  CA  0Q4 d   1       8.095  14.034  17.450  0.00  0.00     0.089 C 
ATOM     85  H60 0Q4 d   1       7.162  14.076  18.032  0.00  0.00     0.087 H 
BRANCH  84  86
ATOM     86  C   0Q4 d   1       8.882  12.836  17.933  0.00  0.00     0.238 C 
ATOM     87  O   0Q4 d   1       8.494  12.243  18.954  0.00  0.00    -0.271 OA
ATOM     88  NH2 0Q4 d   1      10.020  12.482  17.098  0.00  0.00    -0.368 N 
ATOM     89  H70 0Q4 d   1      10.597  11.702  17.343  0.00  0.00     0.159 HD
ATOM     90  H71 0Q4 d   1      10.226  13.018  16.279  0.00  0.00     0.159 HD
ENDBRANCH  84  86
BRANCH  84  91
ATOM     91  CB  0Q4 d   1       7.758  13.835  15.960  0.00  0.00    -0.038 C 
ATOM     92  H61 0Q4 d   1       8.113  12.840  15.654  0.00  0.00     0.036 H 
ATOM     93  H62 0Q4 d   1       8.285  14.606  15.379  0.00  0.00     0.036 H 
BRANCH  91  94
ATOM     94  CG  0Q4 d   1       6.278  13.931  15.650  0.00  0.00    -0.063 C 
ATOM     95  H63 0Q4 d   1       5.825  12.945  15.831  0.00  0.00     0.033 H 
ATOM     96  H64 0Q4 d   1       6.167  14.196  14.588  0.00  0.00     0.033 H 
BRANCH  94  97
ATOM     97  CD  0Q4 d   1       5.521  14.958  16.476  0.00  0.00    -0.068 C 
ATOM     98  H65 0Q4 d   1       6.153  15.849  16.604  0.00  0.00     0.032 H 
ATOM     99  H66 0Q4 d   1       5.294  14.525  17.462  0.00  0.00     0.032 H 
BRANCH  97 100
ATOM    100  CE  0Q4 d   1       4.213  15.371  15.803  0.00  0.00    -0.077 C 
ATOM    101  H67 0Q4 d   1       3.696  16.113  16.430  0.00  0.00     0.027 H 
ATOM    102  H68 0Q4 d   1       3.571  14.487  15.676  0.00  0.00     0.027 H 
ATOM    103  H69 0Q4 d   1       4.430  15.811  14.818  0.00  0.00     0.027 H 
ENDBRANCH  97 100
ENDBRANCH  94  97
ENDBRANCH  91  94
ENDBRANCH  84  91
ENDBRANCH  82  84
ENDBRANCH  78  80
BRANCH  78 104
ATOM    104  CB  0Q4 d   1       9.290  17.704  15.850  0.00  0.00    -0.049 C 
ATOM    105  H56 0Q4 d   1       8.284  17.265  15.783  0.00  0.00     0.030 H 
ATOM    106  H57 0Q4 d   1       9.907  17.337  15.017  0.00  0.00     0.030 H 
ATOM    107  H58 0Q4 d   1       9.216  18.800  15.796  0.00  0.00     0.030 H 
ENDBRANCH  78 104
ENDBRANCH  76  78
ENDBRANCH  72  74
BRANCH  72 108
ATOM    108  CB  0Q4 d   1      13.132  19.440  19.496  0.00  0.00    -0.029 C 
ATOM    109  H50 0Q4 d   1      12.398  20.034  20.061  0.00  0.00     0.037 H 
ATOM    110  H51 0Q4 d   1      14.139  19.852  19.658  0.00  0.00     0.037 H 
BRANCH 108 111
ATOM    111  CG  0Q4 d   1      13.120  18.033  20.077  0.00  0.00     0.018 C 
ATOM    112  H52 0Q4 d   1      13.787  18.012  20.951  0.00  0.00     0.049 H 
ATOM    113  H53 0Q4 d   1      13.497  17.338  19.312  0.00  0.00     0.049 H 
BRANCH 111 114
ATOM    114  CD  0Q4 d   1      11.747  17.567  20.512  0.00  0.00     0.172 C 
ATOM    115  OE1 0Q4 d   1      10.881  18.451  20.698  0.00  0.00    -0.648 OA
ATOM    116  OE2 0Q4 d   1      11.507  16.360  20.588  0.00  0.00    -0.648 OA
ENDBRANCH 111 114
ENDBRANCH 108 111
ENDBRANCH  72 108
ENDBRANCH  70  72
ENDBRANCH  66  68
BRANCH  66 117
ATOM    117  CB  0Q4 d   1      14.096  22.998  15.264  0.00  0.00    -0.006 C 
ATOM    118  H41 0Q4 d   1      15.125  22.943  14.879  0.00  0.00     0.043 H 
ATOM    119  H42 0Q4 d   1      13.646  23.959  14.973  0.00  0.00     0.043 H 
BRANCH 117 120
ATOM    120  CG  0Q4 d   1      13.292  21.887  14.619  0.00  0.00    -0.056 A 
ATOM    121  CD1 0Q4 d   1      11.927  21.808  14.790  0.00  0.00    -0.077 A 
ATOM    122  CE1 0Q4 d   1      11.173  20.790  14.220  0.00  0.00    -0.082 A 
ATOM    123  H43 0Q4 d   1      11.427  22.562  15.387  0.00  0.00     0.084 H 
ATOM    124  CZ  0Q4 d   1      11.780  19.830  13.429  0.00  0.00    -0.083 A 
ATOM    125  H45 0Q4 d   1      10.104  20.747  14.396  0.00  0.00     0.083 H 
ATOM    126  CE2 0Q4 d   1      13.146  19.899  13.257  0.00  0.00    -0.082 A 
ATOM    127  H47 0Q4 d   1      11.198  19.046  12.958  0.00  0.00     0.083 H 
ATOM    128  CD2 0Q4 d   1      13.879  20.914  13.836  0.00  0.00    -0.077 A 
ATOM    129  H46 0Q4 d   1      13.650  19.147  12.660  0.00  0.00     0.083 H 
ATOM    130  H44 0Q4 d   1      14.950  20.948  13.671  0.00  0.00     0.084 H 
ENDBRANCH 117 120
ENDBRANCH  66 117
ENDBRANCH   1  66
TORSDOF 36
