REMARK WARNING: 32 MAX_TORS EXCEEDED!!!
REMARK  36 active torsions:
REMARK  status: ('A' for Active; 'I' for Inactive)
REMARK    1  A    between atoms: C_1  and  CH3_3 
REMARK       I    between atoms: C_1  and  N_4 
REMARK    2  A    between atoms: N_4  and  CA_5 
REMARK    3  A    between atoms: CA_5  and  C_6 
REMARK    4  A    between atoms: CA_5  and  CB_8 
REMARK       I    between atoms: C_6  and  N_11 
REMARK    5  A    between atoms: CB_8  and  OG1_9 
REMARK    6  A    between atoms: CB_8  and  CG2_10 
REMARK    7  A    between atoms: N_11  and  CA_12 
REMARK    8  A    between atoms: CA_12  and  C_13 
REMARK    9  A    between atoms: CA_12  and  CB_15 
REMARK       I    between atoms: C_13  and  N_19 
REMARK   10  A    between atoms: CB_15  and  CG1_16 
REMARK   11  A    between atoms: CB_15  and  CG2_17 
REMARK   12  A    between atoms: CG1_16  and  CD1_18 
REMARK   13  A    between atoms: N_19  and  CA_20 
REMARK   14  A    between atoms: CA_20  and  C_21 
REMARK   15  A    between atoms: CA_20  and  CB_22 
REMARK   16  A    between atoms: C_21  and  N_26 
REMARK   17  A    between atoms: CB_22  and  CG_23 
REMARK   18  A    between atoms: CG_23  and  CD_24 
REMARK   19  A    between atoms: CD_24  and  CE_25 
REMARK   20  A    between atoms: N_26  and  CA_27 
REMARK   21  A    between atoms: CA_27  and  C_28 
REMARK   22  A    between atoms: CA_27  and  CB_30 
REMARK       I    between atoms: C_28  and  N_34 
REMARK   23  A    between atoms: CB_30  and  CG_31 
REMARK   24  A    between atoms: CG_31  and  CD_32 
REMARK   25  A    between atoms: CD_32  and  CE_33 
REMARK   26  A    between atoms: N_34  and  CA_35 
REMARK   27  A    between atoms: CA_35  and  C_36 
REMARK   28  A    between atoms: CA_35  and  CB_38 
REMARK       I    between atoms: C_36  and  N_43 
REMARK   29  A    between atoms: CB_38  and  CG_39 
REMARK   30  A    between atoms: CG_39  and  CD_40 
REMARK       I    between atoms: CD_40  and  NE2_42 
REMARK   31  A    between atoms: N_43  and  CA_44 
REMARK   32  A    between atoms: CA_44  and  C_45 
REMARK   33  A    between atoms: CA_44  and  CB_47 
REMARK       I    between atoms: C_45  and  N_54 
REMARK   34  A    between atoms: CB_47  and  CG_48 
REMARK   35  A    between atoms: CG_48  and  CD_49 
REMARK   36  A    between atoms: CD_49  and  NE_50 
REMARK       I    between atoms: NE_50  and  CZ_51 
REMARK       I    between atoms: CZ_51  and  NH1_52 
ROOT
ATOM      1  N   2NC d   1      15.474  23.752  17.508  0.00  0.00    -0.060 N 
ATOM      2  H35 2NC d   1      16.254  23.272  17.088  0.00  0.00     0.278 HD
ATOM      3  H36 2NC d   1      15.398  24.677  17.115  0.00  0.00     0.278 HD
ENDROOT
BRANCH   1   4
ATOM      4  C   2NC d   1      15.793  23.920  18.892  0.00  0.00     0.101 C 
ATOM      5  H24 2NC d   1      15.446  24.913  19.215  0.00  0.00     0.078 H 
ATOM      6  H25 2NC d   1      15.271  23.143  19.470  0.00  0.00     0.078 H 
BRANCH   4   7
ATOM      7  CA  2NC d   1      17.290  23.812  19.168  0.00  0.00     0.035 C 
ATOM      8  H23 2NC d   1      17.603  22.800  18.871  0.00  0.00     0.075 H 
BRANCH   7   9
ATOM      9  N   2NC d   1      18.093  24.763  18.410  0.00  0.00    -0.353 N 
ATOM     10  C   2NC d   1      18.762  24.461  17.358  0.00  0.00     0.241 C 
ATOM     11  O   2NC d   1      18.727  23.302  16.893  0.00  0.00    -0.271 OA
ATOM     12  H22 2NC d   1      18.124  25.710  18.730  0.00  0.00     0.163 HD
BRANCH  10  13
ATOM     13  CA  2NC d   1      19.629  25.518  16.732  0.00  0.00     0.092 C 
ATOM     14  H12 2NC d   1      19.166  26.502  16.899  0.00  0.00     0.088 H 
BRANCH  13  15
ATOM     15  N   2NC d   1      20.916  25.482  17.412  0.00  0.00    -0.346 N 
ATOM     16  C   2NC d   1      21.394  26.521  18.060  0.00  0.00     0.243 C 
ATOM     17  O   2NC d   1      20.773  27.599  18.171  0.00  0.00    -0.271 OA
ATOM     18  H11 2NC d   1      21.454  24.639  17.385  0.00  0.00     0.163 HD
BRANCH  16  19
ATOM     19  CA  2NC d   1      22.782  26.417  18.728  0.00  0.00     0.113 C 
ATOM     20  H5  2NC d   1      22.675  26.733  19.776  0.00  0.00     0.091 H 
BRANCH  19  21
ATOM     21  N   2NC d   1      23.334  25.101  18.741  0.00  0.00    -0.346 N 
ATOM     22  C   2NC d   1      23.409  24.338  19.837  0.00  0.00     0.214 C 
ATOM     23  O   2NC d   1      22.958  24.750  20.910  0.00  0.00    -0.274 OA
ATOM     24  H4  2NC d   1      23.685  24.728  17.882  0.00  0.00     0.163 HD
BRANCH  22  25
ATOM     25  CH3 2NC d   1      24.073  23.018  19.686  0.00  0.00    -0.003 C 
ATOM     26  H1  2NC d   1      24.386  22.883  18.640  0.00  0.00     0.040 H 
ATOM     27  H2  2NC d   1      23.369  22.220  19.965  0.00  0.00     0.040 H 
ATOM     28  H3  2NC d   1      24.955  22.974  20.341  0.00  0.00     0.040 H 
ENDBRANCH  22  25
ENDBRANCH  19  21
BRANCH  19  29
ATOM     29  CB  2NC d   1      23.718  27.406  18.015  0.00  0.00     0.060 C 
ATOM     30  H6  2NC d   1      23.253  28.403  18.020  0.00  0.00     0.086 H 
BRANCH  29  31
ATOM     31  OG1 2NC d   1      23.899  26.976  16.659  0.00  0.00    -0.393 OA
ATOM     32  H7  2NC d   1      24.477  27.582  16.210  0.00  0.00     0.210 HD
ENDBRANCH  29  31
BRANCH  29  33
ATOM     33  CG2 2NC d   1      25.084  27.494  18.717  0.00  0.00    -0.050 C 
ATOM     34  H8  2NC d   1      25.726  28.209  18.181  0.00  0.00     0.031 H 
ATOM     35  H9  2NC d   1      25.560  26.503  18.718  0.00  0.00     0.031 H 
ATOM     36  H10 2NC d   1      24.942  27.834  19.753  0.00  0.00     0.031 H 
ENDBRANCH  29  33
ENDBRANCH  19  29
ENDBRANCH  16  19
ENDBRANCH  13  15
BRANCH  13  37
ATOM     37  CB  2NC d   1      19.776  25.316  15.216  0.00  0.00    -0.030 C 
ATOM     38  H13 2NC d   1      20.073  24.267  15.066  0.00  0.00     0.043 H 
BRANCH  37  39
ATOM     39  CG1 2NC d   1      20.893  26.179  14.601  0.00  0.00    -0.063 C 
ATOM     40  H14 2NC d   1      20.996  25.901  13.542  0.00  0.00     0.033 H 
ATOM     41  H15 2NC d   1      21.830  25.955  15.132  0.00  0.00     0.033 H 
BRANCH  39  42
ATOM     42  CD1 2NC d   1      20.656  27.673  14.674  0.00  0.00    -0.076 C 
ATOM     43  H19 2NC d   1      21.503  28.202  14.212  0.00  0.00     0.027 H 
ATOM     44  H20 2NC d   1      20.563  27.979  15.727  0.00  0.00     0.027 H 
ATOM     45  H21 2NC d   1      19.730  27.924  14.136  0.00  0.00     0.027 H 
ENDBRANCH  39  42
ENDBRANCH  37  39
BRANCH  37  46
ATOM     46  CG2 2NC d   1      18.471  25.501  14.511  0.00  0.00    -0.071 C 
ATOM     47  H16 2NC d   1      17.706  24.867  14.983  0.00  0.00     0.028 H 
ATOM     48  H17 2NC d   1      18.581  25.216  13.454  0.00  0.00     0.028 H 
ATOM     49  H18 2NC d   1      18.165  26.555  14.577  0.00  0.00     0.028 H 
ENDBRANCH  37  46
ENDBRANCH  13  37
ENDBRANCH  10  13
ENDBRANCH   7   9
BRANCH   7  50
ATOM     50  CB  2NC d   1      17.591  23.984  20.661  0.00  0.00    -0.045 C 
ATOM     51  H26 2NC d   1      17.113  23.151  21.197  0.00  0.00     0.036 H 
ATOM     52  H27 2NC d   1      17.143  24.935  20.986  0.00  0.00     0.036 H 
BRANCH  50  53
ATOM     53  CG  2NC d   1      19.051  24.006  21.053  0.00  0.00    -0.064 C 
ATOM     54  H28 2NC d   1      19.119  24.164  22.139  0.00  0.00     0.033 H 
ATOM     55  H29 2NC d   1      19.541  24.840  20.529  0.00  0.00     0.033 H 
BRANCH  53  56
ATOM     56  CD  2NC d   1      19.775  22.731  20.708  0.00  0.00    -0.068 C 
ATOM     57  H30 2NC d   1      20.817  22.823  21.048  0.00  0.00     0.032 H 
ATOM     58  H31 2NC d   1      19.755  22.608  19.615  0.00  0.00     0.032 H 
BRANCH  56  59
ATOM     59  CE  2NC d   1      19.180  21.492  21.335  0.00  0.00    -0.077 C 
ATOM     60  H32 2NC d   1      19.766  20.611  21.033  0.00  0.00     0.027 H 
ATOM     61  H33 2NC d   1      18.140  21.374  20.998  0.00  0.00     0.027 H 
ATOM     62  H34 2NC d   1      19.201  21.589  22.430  0.00  0.00     0.027 H 
ENDBRANCH  56  59
ENDBRANCH  53  56
ENDBRANCH  50  53
ENDBRANCH   7  50
ENDBRANCH   4   7
ENDBRANCH   1   4
BRANCH   1  63
ATOM     63  CA  2NC d   1      14.257  23.018  17.103  0.00  0.00     0.178 C 
ATOM     64  H37 2NC d   1      13.371  23.540  17.495  0.00  0.00     0.099 H 
BRANCH  63  65
ATOM     65  C   2NC d   1      14.274  21.600  17.598  0.00  0.00     0.249 C 
ATOM     66  O   2NC d   1      15.296  20.892  17.524  0.00  0.00    -0.271 OA
ATOM     67  N   2NC d   1      13.140  21.109  18.052  0.00  0.00    -0.346 N 
ATOM     68  H47 2NC d   1      12.336  21.702  18.092  0.00  0.00     0.163 HD
BRANCH  67  69
ATOM     69  CA  2NC d   1      13.022  19.723  18.499  0.00  0.00     0.090 C 
ATOM     70  H48 2NC d   1      13.735  19.115  17.923  0.00  0.00     0.087 H 
BRANCH  69  71
ATOM     71  C   2NC d   1      11.615  19.245  18.149  0.00  0.00     0.241 C 
ATOM     72  O   2NC d   1      10.617  19.911  18.443  0.00  0.00    -0.271 OA
ATOM     73  N   2NC d   1      11.537  18.024  17.661  0.00  0.00    -0.346 N 
ATOM     74  H55 2NC d   1      12.381  17.499  17.552  0.00  0.00     0.163 HD
BRANCH  73  75
ATOM     75  CA  2NC d   1      10.299  17.413  17.279  0.00  0.00     0.089 C 
ATOM     76  H56 2NC d   1       9.461  18.053  17.593  0.00  0.00     0.087 H 
BRANCH  75  77
ATOM     77  C   2NC d   1      10.198  16.041  17.947  0.00  0.00     0.238 C 
ATOM     78  O   2NC d   1      11.137  15.249  17.986  0.00  0.00    -0.271 OA
ATOM     79  N   2NC d   1       8.943  15.737  18.471  0.00  0.00    -0.368 N 
ATOM     80  H68 2NC d   1       8.790  14.859  18.925  0.00  0.00     0.159 HD
ATOM     81  H69 2NC d   1       8.195  16.396  18.393  0.00  0.00     0.159 HD
ENDBRANCH  75  77
BRANCH  75  82
ATOM     82  CB  2NC d   1      10.239  17.185  15.779  0.00  0.00    -0.036 C 
ATOM     83  H57 2NC d   1       9.346  16.585  15.551  0.00  0.00     0.036 H 
ATOM     84  H58 2NC d   1      11.140  16.634  15.472  0.00  0.00     0.036 H 
BRANCH  82  85
ATOM     85  CG  2NC d   1      10.170  18.462  14.997  0.00  0.00    -0.048 C 
ATOM     86  H59 2NC d   1      10.971  19.134  15.338  0.00  0.00     0.035 H 
ATOM     87  H60 2NC d   1       9.194  18.937  15.172  0.00  0.00     0.035 H 
BRANCH  85  88
ATOM     88  CD  2NC d   1      10.335  18.212  13.521  0.00  0.00     0.009 C 
ATOM     89  H61 2NC d   1       9.794  17.297  13.238  0.00  0.00     0.064 H 
ATOM     90  H62 2NC d   1      11.403  18.095  13.283  0.00  0.00     0.064 H 
BRANCH  88  91
ATOM     91  NE  2NC d   1       9.786  19.360  12.780  0.00  0.00    -0.227 N 
ATOM     92  CZ  2NC d   1       9.598  19.384  11.491  0.00  0.00     0.665 C 
ATOM     93  NH1 2NC d   1       9.997  18.323  10.780  0.00  0.00    -0.235 N 
ATOM     94  NH2 2NC d   1       9.052  20.444  10.890  0.00  0.00    -0.235 N 
ATOM     95  H64 2NC d   1       9.864  18.308   9.759  0.00  0.00     0.174 HD
ATOM     96  H65 2NC d   1      10.437  17.521  11.254  0.00  0.00     0.174 HD
ATOM     97  H66 2NC d   1       8.749  21.254  11.450  0.00  0.00     0.174 HD
ATOM     98  H67 2NC d   1       8.934  20.452   9.867  0.00  0.00     0.174 HD
ATOM     99  H63 2NC d   1       9.533  20.201  13.318  0.00  0.00     0.177 HD
ENDBRANCH  88  91
ENDBRANCH  85  88
ENDBRANCH  82  85
ENDBRANCH  75  82
ENDBRANCH  73  75
ENDBRANCH  69  71
BRANCH  69 100
ATOM    100  CB  2NC d   1      13.386  19.564  19.951  0.00  0.00    -0.030 C 
ATOM    101  H49 2NC d   1      12.764  20.257  20.536  0.00  0.00     0.037 H 
ATOM    102  H50 2NC d   1      14.446  19.835  20.069  0.00  0.00     0.037 H 
BRANCH 100 103
ATOM    103  CG  2NC d   1      13.193  18.175  20.510  0.00  0.00     0.011 C 
ATOM    104  H51 2NC d   1      13.884  18.044  21.356  0.00  0.00     0.047 H 
ATOM    105  H52 2NC d   1      13.437  17.448  19.721  0.00  0.00     0.047 H 
BRANCH 103 106
ATOM    106  CD  2NC d   1      11.785  17.893  20.998  0.00  0.00     0.215 C 
ATOM    107  OE1 2NC d   1      11.095  18.794  21.386  0.00  0.00    -0.274 OA
ATOM    108  NE2 2NC d   1      11.356  16.649  20.950  0.00  0.00    -0.370 N 
ATOM    109  H53 2NC d   1      10.433  16.426  21.263  0.00  0.00     0.159 HD
ATOM    110  H54 2NC d   1      11.953  15.927  20.600  0.00  0.00     0.159 HD
ENDBRANCH 103 106
ENDBRANCH 100 103
ENDBRANCH  69 100
ENDBRANCH  67  69
ENDBRANCH  63  65
BRANCH  63 111
ATOM    111  CB  2NC d   1      14.196  22.942  15.596  0.00  0.00    -0.030 C 
ATOM    112  H38 2NC d   1      15.017  22.285  15.272  0.00  0.00     0.036 H 
ATOM    113  H39 2NC d   1      14.368  23.959  15.214  0.00  0.00     0.036 H 
BRANCH 111 114
ATOM    114  CG  2NC d   1      12.943  22.434  14.947  0.00  0.00    -0.063 C 
ATOM    115  H40 2NC d   1      12.694  23.086  14.097  0.00  0.00     0.033 H 
ATOM    116  H41 2NC d   1      12.126  22.461  15.682  0.00  0.00     0.033 H 
BRANCH 114 117
ATOM    117  CD  2NC d   1      13.102  21.010  14.443  0.00  0.00    -0.068 C 
ATOM    118  H42 2NC d   1      12.153  20.699  13.982  0.00  0.00     0.032 H 
ATOM    119  H43 2NC d   1      13.321  20.362  15.304  0.00  0.00     0.032 H 
BRANCH 117 120
ATOM    120  CE  2NC d   1      14.202  20.832  13.425  0.00  0.00    -0.077 C 
ATOM    121  H44 2NC d   1      14.248  19.777  13.115  0.00  0.00     0.027 H 
ATOM    122  H45 2NC d   1      15.164  21.126  13.870  0.00  0.00     0.027 H 
ATOM    123  H46 2NC d   1      13.996  21.463  12.548  0.00  0.00     0.027 H 
ENDBRANCH 117 120
ENDBRANCH 114 117
ENDBRANCH 111 114
ENDBRANCH  63 111
ENDBRANCH   1  63
TORSDOF 36
