REMARK  27 active torsions:
REMARK  status: ('A' for Active; 'I' for Inactive)
REMARK    1  A    between atoms: CAA_1  and  OBI_2 
REMARK    2  A    between atoms: OBI_2  and  CBK_3 
REMARK       I    between atoms: CBK_3  and  N_5 
REMARK    3  A    between atoms: N_5  and  CA_6 
REMARK    4  A    between atoms: CA_6  and  CB_7 
REMARK    5  A    between atoms: CA_6  and  C_11 
REMARK    6  A    between atoms: CB_7  and  CAE_8 
REMARK    7  A    between atoms: CB_7  and  CG2_9 
REMARK    8  A    between atoms: CB_7  and  CG1_10 
REMARK       I    between atoms: C_11  and  NBG_13 
REMARK    9  A    between atoms: NBG_13  and  CBT_14 
REMARK   10  A    between atoms: CBT_14  and  CBA_15 
REMARK   11  A    between atoms: CBT_14  and  CBS_22 
REMARK   12  A    between atoms: CBA_15  and  CBO_16 
REMARK   13  A    between atoms: CBS_22  and  OAM_23 
REMARK   14  A    between atoms: CBS_22  and  CBC_24 
REMARK   15  A    between atoms: CBC_24  and  NBW_25 
REMARK   16  A    between atoms: NBW_25  and  NBH_26 
REMARK   17  A    between atoms: NBW_25  and  CBB_39 
REMARK       I    between atoms: NBH_26  and  CBN_27 
REMARK   18  A    between atoms: CBN_27  and  CBV_29 
REMARK   19  A    between atoms: CBV_29  and  CBY_30 
REMARK   20  A    between atoms: CBV_29  and  NBF_34 
REMARK   21  A    between atoms: CBY_30  and  CAH_31 
REMARK   22  A    between atoms: CBY_30  and  CAF_32 
REMARK   23  A    between atoms: CBY_30  and  CAG_33 
REMARK       I    between atoms: NBF_34  and  CBL_35 
REMARK   24  A    between atoms: CBL_35  and  OBJ_37 
REMARK   25  A    between atoms: OBJ_37  and  CAB_38 
REMARK   26  A    between atoms: CBB_39  and  CBP_40 
REMARK   27  A    between atoms: CBQ_45  and  CBR_46 
ROOT
ATOM      1  NBW DR7 d   1     -39.369  71.451  27.798  0.00  0.00     0.017 N 
ATOM      2  H28 DR7 d   1     -39.467  70.519  28.169  0.00  0.00     0.309 HD
ENDROOT
BRANCH   1   3
ATOM      3  CBC DR7 d   1     -40.534  71.914  28.497  0.00  0.00     0.130 C 
ATOM      4  H26 DR7 d   1     -40.301  71.929  29.572  0.00  0.00     0.083 H 
ATOM      5  H27 DR7 d   1     -40.751  72.937  28.155  0.00  0.00     0.083 H 
BRANCH   3   6
ATOM      6  CBS DR7 d   1     -41.709  71.131  28.313  0.00  0.00     0.080 C 
ATOM      7  H24 DR7 d   1     -41.929  71.004  27.243  0.00  0.00     0.088 H 
BRANCH   6   8
ATOM      8  CBT DR7 d   1     -41.792  69.764  28.937  0.00  0.00     0.042 C 
ATOM      9  H16 DR7 d   1     -40.971  69.153  28.533  0.00  0.00     0.077 H 
BRANCH   8  10
ATOM     10  NBG DR7 d   1     -41.760  69.693  30.381  0.00  0.00    -0.352 N 
ATOM     11  C   DR7 d   1     -41.063  68.926  31.166  0.00  0.00     0.241 C 
ATOM     12  O   DR7 d   1     -40.298  68.122  30.804  0.00  0.00    -0.271 OA
ATOM     13  H15 DR7 d   1     -42.369  70.334  30.849  0.00  0.00     0.163 HD
BRANCH  11  14
ATOM     14  CA  DR7 d   1     -41.439  69.178  32.803  0.00  0.00     0.097 C 
ATOM     15  H5  DR7 d   1     -42.160  69.963  33.077  0.00  0.00     0.088 H 
BRANCH  14  16
ATOM     16  N   DR7 d   1     -41.890  67.796  32.873  0.00  0.00    -0.323 N 
ATOM     17  CBK DR7 d   1     -43.183  67.950  33.647  0.00  0.00     0.360 C 
ATOM     18  OAI DR7 d   1     -43.632  68.974  34.037  0.00  0.00    -0.239 OA
ATOM     19  H4  DR7 d   1     -41.462  66.969  32.509  0.00  0.00     0.165 HD
BRANCH  17  20
ATOM     20  OBI DR7 d   1     -43.867  66.752  33.976  0.00  0.00    -0.309 OA
BRANCH  20  21
ATOM     21  CAA DR7 d   1     -45.021  66.855  34.746  0.00  0.00     0.015 C 
ATOM     22  H1  DR7 d   1     -45.437  65.852  34.919  0.00  0.00     0.067 H 
ATOM     23  H2  DR7 d   1     -45.761  67.473  34.217  0.00  0.00     0.067 H 
ATOM     24  H3  DR7 d   1     -44.777  67.322  35.712  0.00  0.00     0.067 H 
ENDBRANCH  20  21
ENDBRANCH  17  20
ENDBRANCH  14  16
BRANCH  14  25
ATOM     25  CB  DR7 d   1     -40.119  69.316  33.419  0.00  0.00    -0.022 C 
BRANCH  25  26
ATOM     26  CAE DR7 d   1     -39.307  68.022  33.507  0.00  0.00    -0.067 C 
ATOM     27  H6  DR7 d   1     -38.337  68.230  33.982  0.00  0.00     0.028 H 
ATOM     28  H7  DR7 d   1     -39.142  67.623  32.495  0.00  0.00     0.028 H 
ATOM     29  H8  DR7 d   1     -39.858  67.283  34.107  0.00  0.00     0.028 H 
ENDBRANCH  25  26
BRANCH  25  30
ATOM     30  CG2 DR7 d   1     -40.489  69.799  34.742  0.00  0.00    -0.067 C 
ATOM     31  H9  DR7 d   1     -41.070  70.728  34.644  0.00  0.00     0.028 H 
ATOM     32  H10 DR7 d   1     -39.579  69.996  35.328  0.00  0.00     0.028 H 
ATOM     33  H11 DR7 d   1     -41.097  69.038  35.253  0.00  0.00     0.028 H 
ENDBRANCH  25  30
BRANCH  25  34
ATOM     34  CG1 DR7 d   1     -39.271  70.406  32.827  0.00  0.00    -0.067 C 
ATOM     35  H12 DR7 d   1     -38.949  70.112  31.817  0.00  0.00     0.028 H 
ATOM     36  H13 DR7 d   1     -38.387  70.568  33.461  0.00  0.00     0.028 H 
ATOM     37  H14 DR7 d   1     -39.856  71.336  32.770  0.00  0.00     0.028 H 
ENDBRANCH  25  34
ENDBRANCH  14  25
ENDBRANCH  11  14
ENDBRANCH   8  10
BRANCH   8  38
ATOM     38  CBA DR7 d   1     -43.111  69.181  28.578  0.00  0.00    -0.020 C 
ATOM     39  H17 DR7 d   1     -43.144  69.076  27.483  0.00  0.00     0.043 H 
ATOM     40  H18 DR7 d   1     -43.889  69.888  28.902  0.00  0.00     0.043 H 
BRANCH  38  41
ATOM     41  CBO DR7 d   1     -43.434  67.842  29.175  0.00  0.00    -0.056 A 
ATOM     42  CAT DR7 d   1     -42.921  66.662  28.708  0.00  0.00    -0.077 A 
ATOM     43  CAP DR7 d   1     -43.247  65.462  29.321  0.00  0.00    -0.082 A 
ATOM     44  H19 DR7 d   1     -42.255  66.666  27.853  0.00  0.00     0.084 H 
ATOM     45  CAN DR7 d   1     -44.105  65.432  30.430  0.00  0.00    -0.083 A 
ATOM     46  H20 DR7 d   1     -42.834  64.536  28.939  0.00  0.00     0.083 H 
ATOM     47  CAQ DR7 d   1     -44.622  66.599  30.897  0.00  0.00    -0.082 A 
ATOM     48  H21 DR7 d   1     -44.352  64.491  30.908  0.00  0.00     0.083 H 
ATOM     49  CAU DR7 d   1     -44.282  67.796  30.276  0.00  0.00    -0.077 A 
ATOM     50  H22 DR7 d   1     -45.294  66.597  31.747  0.00  0.00     0.083 H 
ATOM     51  H23 DR7 d   1     -44.691  68.722  30.663  0.00  0.00     0.084 H 
ENDBRANCH  38  41
ENDBRANCH   8  38
ENDBRANCH   6   8
BRANCH   6  52
ATOM     52  OAM DR7 d   1     -42.519  72.082  28.892  0.00  0.00    -0.392 OA
ATOM     53  H25 DR7 d   1     -42.406  72.910  28.441  0.00  0.00     0.210 HD
ENDBRANCH   6  52
ENDBRANCH   3   6
ENDBRANCH   1   3
BRANCH   1  54
ATOM     54  NBH DR7 d   1     -39.326  70.970  26.469  0.00  0.00    -0.184 N 
ATOM     55  CBN DR7 d   1     -39.142  69.893  25.768  0.00  0.00     0.265 C 
ATOM     56  OAL DR7 d   1     -38.926  68.823  26.145  0.00  0.00    -0.269 OA
ATOM     57  H29 DR7 d   1     -39.499  71.733  25.846  0.00  0.00     0.197 HD
BRANCH  55  58
ATOM     58  CBV DR7 d   1     -39.196  70.262  24.301  0.00  0.00     0.099 C 
ATOM     59  H30 DR7 d   1     -39.702  71.238  24.257  0.00  0.00     0.088 H 
BRANCH  58  60
ATOM     60  CBY DR7 d   1     -40.006  69.346  23.368  0.00  0.00    -0.022 C 
BRANCH  60  61
ATOM     61  CAH DR7 d   1     -40.178  70.015  22.030  0.00  0.00    -0.067 C 
ATOM     62  H31 DR7 d   1     -40.757  69.359  21.364  0.00  0.00     0.028 H 
ATOM     63  H32 DR7 d   1     -39.190  70.207  21.587  0.00  0.00     0.028 H 
ATOM     64  H33 DR7 d   1     -40.712  70.967  22.162  0.00  0.00     0.028 H 
ENDBRANCH  60  61
BRANCH  60  65
ATOM     65  CAF DR7 d   1     -41.384  69.114  23.901  0.00  0.00    -0.067 C 
ATOM     66  H34 DR7 d   1     -41.319  68.624  24.884  0.00  0.00     0.028 H 
ATOM     67  H35 DR7 d   1     -41.942  68.469  23.206  0.00  0.00     0.028 H 
ATOM     68  H36 DR7 d   1     -41.904  70.078  24.005  0.00  0.00     0.028 H 
ENDBRANCH  60  65
BRANCH  60  69
ATOM     69  CAG DR7 d   1     -39.307  68.032  23.191  0.00  0.00    -0.067 C 
ATOM     70  H37 DR7 d   1     -38.294  68.206  22.799  0.00  0.00     0.028 H 
ATOM     71  H38 DR7 d   1     -39.872  67.408  22.483  0.00  0.00     0.028 H 
ATOM     72  H39 DR7 d   1     -39.242  67.518  24.161  0.00  0.00     0.028 H 
ENDBRANCH  60  69
ENDBRANCH  58  60
BRANCH  58  73
ATOM     73  NBF DR7 d   1     -37.829  70.470  23.811  0.00  0.00    -0.323 N 
ATOM     74  CBL DR7 d   1     -37.350  71.499  23.178  0.00  0.00     0.360 C 
ATOM     75  OAJ DR7 d   1     -37.947  72.459  22.880  0.00  0.00    -0.239 OA
ATOM     76  H40 DR7 d   1     -37.184  69.726  23.986  0.00  0.00     0.165 HD
BRANCH  74  77
ATOM     77  OBJ DR7 d   1     -35.976  71.421  22.817  0.00  0.00    -0.309 OA
BRANCH  77  78
ATOM     78  CAB DR7 d   1     -35.347  72.567  22.319  0.00  0.00     0.015 C 
ATOM     79  H41 DR7 d   1     -34.296  72.338  22.090  0.00  0.00     0.067 H 
ATOM     80  H42 DR7 d   1     -35.393  73.367  23.073  0.00  0.00     0.067 H 
ATOM     81  H43 DR7 d   1     -35.858  72.897  21.402  0.00  0.00     0.067 H 
ENDBRANCH  77  78
ENDBRANCH  74  77
ENDBRANCH  58  73
ENDBRANCH  55  58
ENDBRANCH   1  54
BRANCH   1  82
ATOM     82  CBB DR7 d   1     -38.091  71.697  28.468  0.00  0.00     0.128 C 
ATOM     83  H44 DR7 d   1     -38.042  71.044  29.352  0.00  0.00     0.086 H 
ATOM     84  H45 DR7 d   1     -38.075  72.749  28.788  0.00  0.00     0.086 H 
BRANCH  82  85
ATOM     85  CBP DR7 d   1     -36.861  71.448  27.642  0.00  0.00    -0.030 A 
ATOM     86  CAW DR7 d   1     -36.250  72.382  26.799  0.00  0.00    -0.074 A 
ATOM     87  CAY DR7 d   1     -35.087  72.046  26.090  0.00  0.00    -0.070 A 
ATOM     88  H46 DR7 d   1     -36.678  73.372  26.693  0.00  0.00     0.084 H 
ATOM     89  CBQ DR7 d   1     -34.566  70.780  26.233  0.00  0.00    -0.007 A 
ATOM     90  H47 DR7 d   1     -34.607  72.770  25.441  0.00  0.00     0.084 H 
ATOM     91  CAZ DR7 d   1     -35.201  69.882  27.065  0.00  0.00    -0.070 A 
ATOM     92  CAX DR7 d   1     -36.323  70.199  27.760  0.00  0.00    -0.074 A 
ATOM     93  H49 DR7 d   1     -34.788  68.885  27.168  0.00  0.00     0.084 H 
ATOM     94  H48 DR7 d   1     -36.790  69.464  28.406  0.00  0.00     0.084 H 
BRANCH  89  95
ATOM     95  CBR DR7 d   1     -33.438  70.288  25.604  0.00  0.00     0.066 A 
ATOM     96  CAV DR7 d   1     -33.037  68.928  25.839  0.00  0.00    -0.054 A 
ATOM     97  CAR DR7 d   1     -31.923  68.340  25.254  0.00  0.00    -0.079 A 
ATOM     98  H50 DR7 d   1     -33.638  68.327  26.511  0.00  0.00     0.087 H 
ATOM     99  CAO DR7 d   1     -31.185  69.098  24.414  0.00  0.00    -0.066 A 
ATOM    100  H51 DR7 d   1     -31.656  67.311  25.464  0.00  0.00     0.083 H 
ATOM    101  CAS DR7 d   1     -31.572  70.411  24.177  0.00  0.00     0.003 A 
ATOM    102  H52 DR7 d   1     -30.305  68.688  23.932  0.00  0.00     0.085 H 
ATOM    103  NBD DR7 d   1     -32.659  70.993  24.743  0.00  0.00    -0.260 NA
ATOM    104  H53 DR7 d   1     -30.970  71.006  23.500  0.00  0.00     0.114 H 
ENDBRANCH  89  95
ENDBRANCH  82  85
ENDBRANCH   1  82
TORSDOF 27
