REMARK  7 active torsions:
REMARK  status: ('A' for Active; 'I' for Inactive)
REMARK    1  A    between atoms: C10_1  and  N_2 
REMARK    2  A    between atoms: C13_8  and  O2_10 
REMARK    3  A    between atoms: O2_10  and  C7_11 
REMARK    4  A    between atoms: C7_11  and  C9_13 
REMARK    5  A    between atoms: C9_13  and  C8_14 
REMARK    6  A    between atoms: C9_13  and  C6_16 
REMARK    7  A    between atoms: C8_14  and  OH_15 
ROOT
ATOM      1  N   OIN d   1      13.953  23.798   0.323  0.00  0.00    -0.066 N 
ATOM      2  C11 OIN d   1      14.244  25.158   0.370  0.00  0.00     0.106 C 
ATOM      3  C17 OIN d   1      13.974  25.584  -1.031  0.00  0.00    -0.036 C 
ATOM      4  C16 OIN d   1      12.667  24.807  -1.200  0.00  0.00    -0.036 C 
ATOM      5  C15 OIN d   1      12.631  24.165   0.147  0.00  0.00     0.106 C 
ATOM      6  C14 OIN d   1      11.773  24.690   1.264  0.00  0.00    -0.013 C 
ATOM      7  C13 OIN d   1      12.412  25.940   1.798  0.00  0.00     0.052 C 
ATOM      8  C12 OIN d   1      13.918  26.049   1.545  0.00  0.00    -0.013 C 
ATOM      9  H4  OIN d   1      14.327  23.377  -0.513  0.00  0.00     0.280 HD
ATOM     10  H5  OIN d   1      15.342  25.173   0.434  0.00  0.00     0.084 H 
ATOM     11  H6  OIN d   1      14.755  25.254  -1.731  0.00  0.00     0.036 H 
ATOM     12  H7  OIN d   1      13.834  26.671  -1.123  0.00  0.00     0.036 H 
ATOM     13  H8  OIN d   1      12.724  24.068  -2.013  0.00  0.00     0.036 H 
ATOM     14  H9  OIN d   1      11.806  25.471  -1.368  0.00  0.00     0.036 H 
ATOM     15  H10 OIN d   1      12.124  23.207  -0.039  0.00  0.00     0.084 H 
ATOM     16  H11 OIN d   1      11.701  23.938   2.063  0.00  0.00     0.039 H 
ATOM     17  H12 OIN d   1      10.766  24.919   0.884  0.00  0.00     0.039 H 
ATOM     18  H13 OIN d   1      12.185  26.529   0.897  0.00  0.00     0.084 H 
ATOM     19  H14 OIN d   1      14.186  27.090   1.313  0.00  0.00     0.039 H 
ATOM     20  H15 OIN d   1      14.474  25.717   2.434  0.00  0.00     0.039 H 
ENDROOT
BRANCH   7  21
ATOM     21  O2  OIN d   1      11.572  26.825   2.627  0.00  0.00    -0.315 OA
BRANCH  21  22
ATOM     22  C7  OIN d   1      10.338  26.192   3.149  0.00  0.00     0.270 C 
ATOM     23  O3  OIN d   1      10.444  25.473   4.136  0.00  0.00    -0.264 OA
BRANCH  22  24
ATOM     24  C9  OIN d   1       8.963  26.451   2.529  0.00  0.00     0.076 C 
ATOM     25  H16 OIN d   1       8.951  27.501   2.201  0.00  0.00     0.066 H 
BRANCH  24  26
ATOM     26  C8  OIN d   1       7.855  26.285   3.561  0.00  0.00     0.033 C 
ATOM     27  H17 OIN d   1       7.925  25.277   3.995  0.00  0.00     0.075 H 
ATOM     28  H18 OIN d   1       6.884  26.401   3.058  0.00  0.00     0.075 H 
BRANCH  26  29
ATOM     29  OH  OIN d   1       7.942  27.237   4.607  0.00  0.00    -0.400 OA
ATOM     30  H19 OIN d   1       8.775  27.140   5.053  0.00  0.00     0.209 HD
ENDBRANCH  26  29
ENDBRANCH  24  26
BRANCH  24  31
ATOM     31  C6  OIN d   1       8.698  25.610   1.317  0.00  0.00    -0.043 A 
ATOM     32  C5  OIN d   1       8.362  26.233   0.121  0.00  0.00    -0.076 A 
ATOM     33  C4  OIN d   1       8.138  25.489  -1.028  0.00  0.00    -0.082 A 
ATOM     34  H20 OIN d   1       8.274  27.313   0.086  0.00  0.00     0.084 H 
ATOM     35  C3  OIN d   1       8.240  24.110  -0.995  0.00  0.00    -0.083 A 
ATOM     36  H21 OIN d   1       7.882  25.990  -1.955  0.00  0.00     0.083 H 
ATOM     37  C2  OIN d   1       8.578  23.479   0.187  0.00  0.00    -0.082 A 
ATOM     38  H22 OIN d   1       8.056  23.528  -1.891  0.00  0.00     0.083 H 
ATOM     39  C1  OIN d   1       8.800  24.223   1.338  0.00  0.00    -0.076 A 
ATOM     40  H23 OIN d   1       8.670  22.399   0.216  0.00  0.00     0.083 H 
ATOM     41  H24 OIN d   1       9.055  23.718   2.262  0.00  0.00     0.084 H 
ENDBRANCH  24  31
ENDBRANCH  22  24
ENDBRANCH  21  22
ENDBRANCH   7  21
BRANCH   1  42
ATOM     42  C10 OIN d   1      14.350  22.890   1.409  0.00  0.00     0.067 C 
ATOM     43  H1  OIN d   1      15.437  22.728   1.373  0.00  0.00     0.068 H 
ATOM     44  H2  OIN d   1      13.832  21.927   1.290  0.00  0.00     0.068 H 
ATOM     45  H3  OIN d   1      14.078  23.335   2.377  0.00  0.00     0.068 H 
ENDBRANCH   1  42
TORSDOF 7
