REMARK WARNING: 32 MAX_TORS EXCEEDED!!!
REMARK  36 active torsions:
REMARK  status: ('A' for Active; 'I' for Inactive)
REMARK    1  A    between atoms: C_1  and  CH3_3 
REMARK       I    between atoms: C_1  and  N_4 
REMARK    2  A    between atoms: N_4  and  CA_5 
REMARK    3  A    between atoms: CA_5  and  C_6 
REMARK    4  A    between atoms: CA_5  and  CB_8 
REMARK       I    between atoms: C_6  and  N_11 
REMARK    5  A    between atoms: CB_8  and  OG1_9 
REMARK    6  A    between atoms: CB_8  and  CG2_10 
REMARK    7  A    between atoms: N_11  and  CA_12 
REMARK    8  A    between atoms: CA_12  and  C_13 
REMARK    9  A    between atoms: CA_12  and  CB_15 
REMARK       I    between atoms: C_13  and  N_19 
REMARK   10  A    between atoms: CB_15  and  CG1_16 
REMARK   11  A    between atoms: CB_15  and  CG2_17 
REMARK   12  A    between atoms: CG1_16  and  CD1_18 
REMARK   13  A    between atoms: N_19  and  CA_20 
REMARK   14  A    between atoms: CA_20  and  C_21 
REMARK   15  A    between atoms: CA_20  and  CB_22 
REMARK   16  A    between atoms: C_21  and  N_26 
REMARK   17  A    between atoms: CB_22  and  CG_23 
REMARK   18  A    between atoms: CG_23  and  CD_24 
REMARK   19  A    between atoms: CD_24  and  CE_25 
REMARK   20  A    between atoms: N_26  and  CA_27 
REMARK   21  A    between atoms: CA_27  and  C_28 
REMARK   22  A    between atoms: CA_27  and  CB_30 
REMARK       I    between atoms: C_28  and  N_34 
REMARK   23  A    between atoms: CB_30  and  CG_31 
REMARK   24  A    between atoms: CG_31  and  CD_32 
REMARK   25  A    between atoms: CD_32  and  CE_33 
REMARK   26  A    between atoms: N_34  and  CA_35 
REMARK   27  A    between atoms: CA_35  and  C_36 
REMARK   28  A    between atoms: CA_35  and  CB_38 
REMARK       I    between atoms: C_36  and  N_43 
REMARK   29  A    between atoms: CB_38  and  CG_39 
REMARK   30  A    between atoms: CG_39  and  CD_40 
REMARK       I    between atoms: CD_40  and  NE2_42 
REMARK   31  A    between atoms: N_43  and  CA_44 
REMARK   32  A    between atoms: CA_44  and  C_45 
REMARK   33  A    between atoms: CA_44  and  CB_47 
REMARK       I    between atoms: C_45  and  N_54 
REMARK   34  A    between atoms: CB_47  and  CG_48 
REMARK   35  A    between atoms: CG_48  and  CD_49 
REMARK   36  A    between atoms: CD_49  and  NE_50 
REMARK       I    between atoms: NE_50  and  CZ_51 
REMARK       I    between atoms: CZ_51  and  NH1_52 
ROOT
ATOM      1  N   2NC d   1      15.613  23.682  17.468  0.00  0.00    -0.060 N 
ATOM      2  H35 2NC d   1      16.366  23.195  17.009  0.00  0.00     0.278 HD
ATOM      3  H36 2NC d   1      15.543  24.617  17.099  0.00  0.00     0.278 HD
ENDROOT
BRANCH   1   4
ATOM      4  C   2NC d   1      15.980  23.808  18.826  0.00  0.00     0.101 C 
ATOM      5  H24 2NC d   1      15.568  24.760  19.192  0.00  0.00     0.078 H 
ATOM      6  H25 2NC d   1      15.516  22.973  19.372  0.00  0.00     0.078 H 
BRANCH   4   7
ATOM      7  CA  2NC d   1      17.457  23.798  19.154  0.00  0.00     0.035 C 
ATOM      8  H23 2NC d   1      17.830  22.796  18.895  0.00  0.00     0.075 H 
BRANCH   7   9
ATOM      9  N   2NC d   1      18.193  24.758  18.339  0.00  0.00    -0.353 N 
ATOM     10  C   2NC d   1      18.878  24.432  17.275  0.00  0.00     0.241 C 
ATOM     11  O   2NC d   1      18.877  23.295  16.811  0.00  0.00    -0.271 OA
ATOM     12  H22 2NC d   1      18.172  25.720  18.610  0.00  0.00     0.163 HD
BRANCH  10  13
ATOM     13  CA  2NC d   1      19.766  25.497  16.656  0.00  0.00     0.092 C 
ATOM     14  H12 2NC d   1      19.279  26.472  16.806  0.00  0.00     0.088 H 
BRANCH  13  15
ATOM     15  N   2NC d   1      21.035  25.520  17.370  0.00  0.00    -0.346 N 
ATOM     16  C   2NC d   1      21.528  26.595  17.970  0.00  0.00     0.243 C 
ATOM     17  O   2NC d   1      20.887  27.657  18.032  0.00  0.00    -0.271 OA
ATOM     18  H11 2NC d   1      21.567  24.674  17.410  0.00  0.00     0.163 HD
BRANCH  16  19
ATOM     19  CA  2NC d   1      22.916  26.523  18.644  0.00  0.00     0.113 C 
ATOM     20  H5  2NC d   1      22.817  26.883  19.679  0.00  0.00     0.091 H 
BRANCH  19  21
ATOM     21  N   2NC d   1      23.444  25.176  18.705  0.00  0.00    -0.346 N 
ATOM     22  C   2NC d   1      23.606  24.517  19.846  0.00  0.00     0.214 C 
ATOM     23  O   2NC d   1      23.299  25.015  20.920  0.00  0.00    -0.274 OA
ATOM     24  H4  2NC d   1      23.698  24.723  17.851  0.00  0.00     0.163 HD
BRANCH  22  25
ATOM     25  CH3 2NC d   1      24.268  23.169  19.749  0.00  0.00    -0.003 C 
ATOM     26  H1  2NC d   1      24.450  22.925  18.692  0.00  0.00     0.040 H 
ATOM     27  H2  2NC d   1      23.613  22.406  20.194  0.00  0.00     0.040 H 
ATOM     28  H3  2NC d   1      25.225  23.191  20.291  0.00  0.00     0.040 H 
ENDBRANCH  22  25
ENDBRANCH  19  21
BRANCH  19  29
ATOM     29  CB  2NC d   1      23.847  27.484  17.881  0.00  0.00     0.060 C 
ATOM     30  H6  2NC d   1      23.396  28.486  17.824  0.00  0.00     0.086 H 
BRANCH  29  31
ATOM     31  OG1 2NC d   1      24.026  26.967  16.574  0.00  0.00    -0.393 OA
ATOM     32  H7  2NC d   1      24.598  27.544  16.082  0.00  0.00     0.210 HD
ENDBRANCH  29  31
BRANCH  29  33
ATOM     33  CG2 2NC d   1      25.191  27.564  18.640  0.00  0.00    -0.050 C 
ATOM     34  H8  2NC d   1      25.871  28.247  18.110  0.00  0.00     0.031 H 
ATOM     35  H9  2NC d   1      25.643  26.563  18.691  0.00  0.00     0.031 H 
ATOM     36  H10 2NC d   1      25.015  27.939  19.659  0.00  0.00     0.031 H 
ENDBRANCH  29  33
ENDBRANCH  19  29
ENDBRANCH  16  19
ENDBRANCH  13  15
BRANCH  13  37
ATOM     37  CB  2NC d   1      19.932  25.305  15.144  0.00  0.00    -0.030 C 
ATOM     38  H13 2NC d   1      20.290  24.276  14.991  0.00  0.00     0.043 H 
BRANCH  37  39
ATOM     39  CG1 2NC d   1      20.972  26.228  14.516  0.00  0.00    -0.063 C 
ATOM     40  H14 2NC d   1      21.082  25.939  13.460  0.00  0.00     0.033 H 
ATOM     41  H15 2NC d   1      21.925  26.066  15.042  0.00  0.00     0.033 H 
BRANCH  39  42
ATOM     42  CD1 2NC d   1      20.670  27.701  14.559  0.00  0.00    -0.076 C 
ATOM     43  H19 2NC d   1      21.488  28.257  14.079  0.00  0.00     0.027 H 
ATOM     44  H20 2NC d   1      20.572  28.025  15.606  0.00  0.00     0.027 H 
ATOM     45  H21 2NC d   1      19.729  27.898  14.024  0.00  0.00     0.027 H 
ENDBRANCH  39  42
ENDBRANCH  37  39
BRANCH  37  46
ATOM     46  CG2 2NC d   1      18.599  25.425  14.449  0.00  0.00    -0.071 C 
ATOM     47  H16 2NC d   1      17.875  24.748  14.926  0.00  0.00     0.028 H 
ATOM     48  H17 2NC d   1      18.712  25.153  13.389  0.00  0.00     0.028 H 
ATOM     49  H18 2NC d   1      18.238  26.461  14.525  0.00  0.00     0.028 H 
ENDBRANCH  37  46
ENDBRANCH  13  37
ENDBRANCH  10  13
ENDBRANCH   7   9
BRANCH   7  50
ATOM     50  CB  2NC d   1      17.759  24.013  20.639  0.00  0.00    -0.045 C 
ATOM     51  H26 2NC d   1      17.283  23.197  21.203  0.00  0.00     0.036 H 
ATOM     52  H27 2NC d   1      17.315  24.974  20.939  0.00  0.00     0.036 H 
BRANCH  50  53
ATOM     53  CG  2NC d   1      19.199  24.041  21.005  0.00  0.00    -0.064 C 
ATOM     54  H28 2NC d   1      19.268  24.132  22.099  0.00  0.00     0.033 H 
ATOM     55  H29 2NC d   1      19.650  24.927  20.534  0.00  0.00     0.033 H 
BRANCH  53  56
ATOM     56  CD  2NC d   1      20.006  22.829  20.587  0.00  0.00    -0.068 C 
ATOM     57  H30 2NC d   1      21.032  22.947  20.965  0.00  0.00     0.032 H 
ATOM     58  H31 2NC d   1      20.023  22.784  19.488  0.00  0.00     0.032 H 
BRANCH  56  59
ATOM     59  CE  2NC d   1      19.448  21.521  21.112  0.00  0.00    -0.077 C 
ATOM     60  H32 2NC d   1      20.081  20.689  20.771  0.00  0.00     0.027 H 
ATOM     61  H33 2NC d   1      18.424  21.381  20.735  0.00  0.00     0.027 H 
ATOM     62  H34 2NC d   1      19.433  21.544  22.212  0.00  0.00     0.027 H 
ENDBRANCH  56  59
ENDBRANCH  53  56
ENDBRANCH  50  53
ENDBRANCH   7  50
ENDBRANCH   4   7
ENDBRANCH   1   4
BRANCH   1  63
ATOM     63  CA  2NC d   1      14.354  22.978  17.091  0.00  0.00     0.178 C 
ATOM     64  H37 2NC d   1      13.553  23.483  17.650  0.00  0.00     0.099 H 
BRANCH  63  65
ATOM     65  C   2NC d   1      14.355  21.530  17.568  0.00  0.00     0.249 C 
ATOM     66  O   2NC d   1      15.361  20.800  17.510  0.00  0.00    -0.271 OA
ATOM     67  N   2NC d   1      13.220  21.043  18.002  0.00  0.00    -0.346 N 
ATOM     68  H47 2NC d   1      12.423  21.645  18.045  0.00  0.00     0.163 HD
BRANCH  67  69
ATOM     69  CA  2NC d   1      13.074  19.640  18.429  0.00  0.00     0.090 C 
ATOM     70  H48 2NC d   1      13.783  19.027  17.853  0.00  0.00     0.087 H 
BRANCH  69  71
ATOM     71  C   2NC d   1      11.676  19.178  18.074  0.00  0.00     0.241 C 
ATOM     72  O   2NC d   1      10.692  19.857  18.365  0.00  0.00    -0.271 OA
ATOM     73  N   2NC d   1      11.578  17.981  17.559  0.00  0.00    -0.346 N 
ATOM     74  H55 2NC d   1      12.421  17.464  17.413  0.00  0.00     0.163 HD
BRANCH  73  75
ATOM     75  CA  2NC d   1      10.327  17.355  17.186  0.00  0.00     0.089 C 
ATOM     76  H56 2NC d   1       9.497  17.981  17.545  0.00  0.00     0.087 H 
BRANCH  75  77
ATOM     77  C   2NC d   1      10.220  15.985  17.845  0.00  0.00     0.238 C 
ATOM     78  O   2NC d   1      11.190  15.216  17.858  0.00  0.00    -0.271 OA
ATOM     79  N   2NC d   1       9.029  15.639  18.341  0.00  0.00    -0.368 N 
ATOM     80  H68 2NC d   1       8.911  14.750  18.783  0.00  0.00     0.159 HD
ATOM     81  H69 2NC d   1       8.256  16.269  18.271  0.00  0.00     0.159 HD
ENDBRANCH  75  77
BRANCH  75  82
ATOM     82  CB  2NC d   1      10.232  17.250  15.674  0.00  0.00    -0.036 C 
ATOM     83  H57 2NC d   1       9.231  16.871  15.420  0.00  0.00     0.036 H 
ATOM     84  H58 2NC d   1      10.993  16.533  15.333  0.00  0.00     0.036 H 
BRANCH  82  85
ATOM     85  CG  2NC d   1      10.446  18.562  14.925  0.00  0.00    -0.048 C 
ATOM     86  H59 2NC d   1      11.374  19.023  15.293  0.00  0.00     0.035 H 
ATOM     87  H60 2NC d   1       9.596  19.226  15.141  0.00  0.00     0.035 H 
BRANCH  85  88
ATOM     88  CD  2NC d   1      10.557  18.404  13.421  0.00  0.00     0.009 C 
ATOM     89  H61 2NC d   1      11.424  17.766  13.196  0.00  0.00     0.064 H 
ATOM     90  H62 2NC d   1      10.706  19.397  12.972  0.00  0.00     0.064 H 
BRANCH  88  91
ATOM     91  NE  2NC d   1       9.363  17.797  12.833  0.00  0.00    -0.227 N 
ATOM     92  CZ  2NC d   1       9.036  17.523  11.603  0.00  0.00     0.665 C 
ATOM     93  NH1 2NC d   1       9.918  17.822  10.670  0.00  0.00    -0.235 N 
ATOM     94  NH2 2NC d   1       7.878  16.962  11.265  0.00  0.00    -0.235 N 
ATOM     95  H64 2NC d   1       9.708  17.625   9.681  0.00  0.00     0.174 HD
ATOM     96  H65 2NC d   1      10.817  18.252  10.930  0.00  0.00     0.174 HD
ATOM     97  H66 2NC d   1       7.188  16.728  11.992  0.00  0.00     0.174 HD
ATOM     98  H67 2NC d   1       7.672  16.762  10.276  0.00  0.00     0.174 HD
ATOM     99  H63 2NC d   1       8.644  17.537  13.523  0.00  0.00     0.177 HD
ENDBRANCH  88  91
ENDBRANCH  85  88
ENDBRANCH  82  85
ENDBRANCH  75  82
ENDBRANCH  73  75
ENDBRANCH  69  71
BRANCH  69 100
ATOM    100  CB  2NC d   1      13.433  19.483  19.888  0.00  0.00    -0.030 C 
ATOM    101  H49 2NC d   1      12.807  20.173  20.473  0.00  0.00     0.037 H 
ATOM    102  H50 2NC d   1      14.492  19.753  20.013  0.00  0.00     0.037 H 
BRANCH 100 103
ATOM    103  CG  2NC d   1      13.233  18.088  20.430  0.00  0.00     0.011 C 
ATOM    104  H51 2NC d   1      13.922  17.944  21.275  0.00  0.00     0.047 H 
ATOM    105  H52 2NC d   1      13.475  17.370  19.633  0.00  0.00     0.047 H 
BRANCH 103 106
ATOM    106  CD  2NC d   1      11.822  17.806  20.913  0.00  0.00     0.215 C 
ATOM    107  OE1 2NC d   1      11.140  18.716  21.330  0.00  0.00    -0.274 OA
ATOM    108  NE2 2NC d   1      11.398  16.569  20.865  0.00  0.00    -0.370 N 
ATOM    109  H53 2NC d   1      10.474  16.345  21.175  0.00  0.00     0.159 HD
ATOM    110  H54 2NC d   1      11.998  15.848  20.519  0.00  0.00     0.159 HD
ENDBRANCH 103 106
ENDBRANCH 100 103
ENDBRANCH  69 100
ENDBRANCH  67  69
ENDBRANCH  63  65
BRANCH  63 111
ATOM    111  CB  2NC d   1      13.973  23.103  15.642  0.00  0.00    -0.030 C 
ATOM    112  H38 2NC d   1      14.170  24.126  15.290  0.00  0.00     0.036 H 
ATOM    113  H39 2NC d   1      12.905  22.871  15.514  0.00  0.00     0.036 H 
BRANCH 111 114
ATOM    114  CG  2NC d   1      14.817  22.112  14.854  0.00  0.00    -0.063 C 
ATOM    115  H40 2NC d   1      15.100  21.254  15.482  0.00  0.00     0.033 H 
ATOM    116  H41 2NC d   1      15.724  22.596  14.463  0.00  0.00     0.033 H 
BRANCH 114 117
ATOM    117  CD  2NC d   1      13.907  21.673  13.719  0.00  0.00    -0.068 C 
ATOM    118  H42 2NC d   1      13.249  22.504  13.425  0.00  0.00     0.032 H 
ATOM    119  H43 2NC d   1      13.296  20.817  14.040  0.00  0.00     0.032 H 
BRANCH 117 120
ATOM    120  CE  2NC d   1      14.787  21.268  12.540  0.00  0.00    -0.077 C 
ATOM    121  H44 2NC d   1      14.152  20.945  11.702  0.00  0.00     0.027 H 
ATOM    122  H45 2NC d   1      15.445  20.440  12.841  0.00  0.00     0.027 H 
ATOM    123  H46 2NC d   1      15.398  22.127  12.226  0.00  0.00     0.027 H 
ENDBRANCH 117 120
ENDBRANCH 114 117
ENDBRANCH 111 114
ENDBRANCH  63 111
ENDBRANCH   1  63
TORSDOF 36
