REMARK  17 active torsions:
REMARK  status: ('A' for Active; 'I' for Inactive)
REMARK    1  A    between atoms: N1_1  and  C31_39 
REMARK    2  A    between atoms: C2_3  and  C3_4 
REMARK       I    between atoms: C3_4  and  N2_6 
REMARK    3  A    between atoms: N2_6  and  C4_7 
REMARK    4  A    between atoms: C4_7  and  C5_8 
REMARK    5  A    between atoms: C4_7  and  C6_9 
REMARK    6  A    between atoms: C4_7  and  C7_10 
REMARK    7  A    between atoms: N3_11  and  C10_14 
REMARK    8  A    between atoms: C10_14  and  C11_15 
REMARK    9  A    between atoms: C11_15  and  O2_16 
REMARK   10  A    between atoms: C11_15  and  C12_17 
REMARK   11  A    between atoms: C12_17  and  C13_18 
REMARK   12  A    between atoms: C13_18  and  C14_19 
REMARK   13  A    between atoms: C13_18  and  C21_26 
REMARK   14  A    between atoms: C14_19  and  C15_20 
REMARK       I    between atoms: C21_26  and  N4_28 
REMARK   15  A    between atoms: N4_28  and  C22_29 
REMARK   16  A    between atoms: C23_30  and  O4_31 
REMARK   17  A    between atoms: C31_39  and  C32_40 
ROOT
ATOM      1  C10 MK1 d   1      20.476  31.205  16.568  0.00  0.00     0.108 C 
ATOM      2  H20 MK1 d   1      19.402  31.424  16.667  0.00  0.00     0.080 H 
ATOM      3  H21 MK1 d   1      20.900  30.992  17.560  0.00  0.00     0.080 H 
ENDROOT
BRANCH   1   4
ATOM      4  N3  MK1 d   1      21.143  32.368  16.011  0.00  0.00    -0.053 N 
ATOM      5  C2  MK1 d   1      20.357  33.632  16.277  0.00  0.00     0.203 C 
ATOM      6  C1  MK1 d   1      21.143  34.797  15.691  0.00  0.00     0.119 C 
ATOM      7  H4  MK1 d   1      20.216  33.763  17.360  0.00  0.00     0.102 H 
ATOM      8  N1  MK1 d   1      22.525  34.902  16.358  0.00  0.00    -0.063 N 
ATOM      9  H2  MK1 d   1      21.273  34.639  14.610  0.00  0.00     0.080 H 
ATOM     10  H3  MK1 d   1      20.587  35.731  15.861  0.00  0.00     0.080 H 
ATOM     11  C9  MK1 d   1      23.210  33.684  16.063  0.00  0.00     0.106 C 
ATOM     12  H1  MK1 d   1      22.444  35.036  17.354  0.00  0.00     0.280 HD
ATOM     13  C8  MK1 d   1      22.464  32.483  16.606  0.00  0.00     0.107 C 
ATOM     14  H18 MK1 d   1      24.211  33.718  16.517  0.00  0.00     0.078 H 
ATOM     15  H19 MK1 d   1      23.305  33.582  14.972  0.00  0.00     0.078 H 
ATOM     16  H16 MK1 d   1      23.039  31.573  16.381  0.00  0.00     0.078 H 
ATOM     17  H17 MK1 d   1      22.358  32.590  17.696  0.00  0.00     0.078 H 
ATOM     18  H15 MK1 d   1      21.236  32.246  15.015  0.00  0.00     0.281 HD
BRANCH   5  19
ATOM     19  C3  MK1 d   1      19.019  33.603  15.583  0.00  0.00     0.251 C 
ATOM     20  O1  MK1 d   1      18.924  33.245  14.399  0.00  0.00    -0.271 OA
ATOM     21  N2  MK1 d   1      18.001  34.024  16.314  0.00  0.00    -0.351 N 
ATOM     22  H5  MK1 d   1      18.202  34.336  17.243  0.00  0.00     0.163 HD
BRANCH  21  23
ATOM     23  C4  MK1 d   1      16.597  34.072  15.876  0.00  0.00     0.022 C 
BRANCH  23  24
ATOM     24  C5  MK1 d   1      15.801  34.696  17.045  0.00  0.00    -0.054 C 
ATOM     25  H6  MK1 d   1      14.737  34.757  16.773  0.00  0.00     0.030 H 
ATOM     26  H7  MK1 d   1      16.185  35.706  17.253  0.00  0.00     0.030 H 
ATOM     27  H8  MK1 d   1      15.914  34.069  17.942  0.00  0.00     0.030 H 
ENDBRANCH  23  24
BRANCH  23  28
ATOM     28  C6  MK1 d   1      16.121  32.713  15.555  0.00  0.00    -0.054 C 
ATOM     29  H9  MK1 d   1      15.072  32.760  15.229  0.00  0.00     0.030 H 
ATOM     30  H10 MK1 d   1      16.199  32.076  16.449  0.00  0.00     0.030 H 
ATOM     31  H11 MK1 d   1      16.737  32.290  14.748  0.00  0.00     0.030 H 
ENDBRANCH  23  28
BRANCH  23  32
ATOM     32  C7  MK1 d   1      16.474  34.977  14.693  0.00  0.00    -0.054 C 
ATOM     33  H12 MK1 d   1      15.424  35.013  14.366  0.00  0.00     0.030 H 
ATOM     34  H13 MK1 d   1      17.101  34.596  13.873  0.00  0.00     0.030 H 
ATOM     35  H14 MK1 d   1      16.806  35.989  14.969  0.00  0.00     0.030 H 
ENDBRANCH  23  32
ENDBRANCH  21  23
ENDBRANCH   5  19
BRANCH   8  36
ATOM     36  C31 MK1 d   1      23.225  36.035  15.736  0.00  0.00     0.108 C 
ATOM     37  H44 MK1 d   1      23.161  35.926  14.643  0.00  0.00     0.083 H 
ATOM     38  H45 MK1 d   1      24.280  36.004  16.046  0.00  0.00     0.083 H 
BRANCH  36  39
ATOM     39  C32 MK1 d   1      22.654  37.385  16.116  0.00  0.00    -0.015 A 
ATOM     40  C33 MK1 d   1      22.591  37.753  17.488  0.00  0.00     0.009 A 
ATOM     41  N5  MK1 d   1      22.095  39.010  17.865  0.00  0.00    -0.273 NA
ATOM     42  H46 MK1 d   1      22.928  37.057  18.248  0.00  0.00     0.115 H 
ATOM     43  C34 MK1 d   1      21.676  39.808  16.841  0.00  0.00     0.002 A 
ATOM     44  C35 MK1 d   1      21.679  39.491  15.500  0.00  0.00    -0.066 A 
ATOM     45  H47 MK1 d   1      21.303  40.790  17.109  0.00  0.00     0.114 H 
ATOM     46  C36 MK1 d   1      22.136  38.243  15.160  0.00  0.00    -0.072 A 
ATOM     47  H48 MK1 d   1      21.337  40.194  14.749  0.00  0.00     0.085 H 
ATOM     48  H49 MK1 d   1      22.091  37.923  14.125  0.00  0.00     0.084 H 
ENDBRANCH  36  39
ENDBRANCH   8  36
ENDBRANCH   1   4
BRANCH   1  49
ATOM     49  C11 MK1 d   1      20.652  29.956  15.670  0.00  0.00     0.059 C 
ATOM     50  H22 MK1 d   1      21.620  30.007  15.151  0.00  0.00     0.085 H 
BRANCH  49  51
ATOM     51  O2  MK1 d   1      20.602  28.786  16.475  0.00  0.00    -0.394 OA
ATOM     52  H23 MK1 d   1      19.763  28.743  16.918  0.00  0.00     0.210 HD
ENDBRANCH  49  51
BRANCH  49  53
ATOM     53  C12 MK1 d   1      19.526  29.907  14.650  0.00  0.00    -0.028 C 
ATOM     54  H24 MK1 d   1      19.558  30.834  14.058  0.00  0.00     0.038 H 
ATOM     55  H25 MK1 d   1      18.572  29.852  15.194  0.00  0.00     0.038 H 
BRANCH  53  56
ATOM     56  C13 MK1 d   1      19.597  28.702  13.670  0.00  0.00     0.029 C 
ATOM     57  H26 MK1 d   1      19.727  27.776  14.249  0.00  0.00     0.055 H 
BRANCH  56  58
ATOM     58  C14 MK1 d   1      18.277  28.645  12.869  0.00  0.00    -0.029 C 
ATOM     59  H27 MK1 d   1      18.107  29.631  12.412  0.00  0.00     0.041 H 
ATOM     60  H28 MK1 d   1      17.458  28.419  13.568  0.00  0.00     0.041 H 
BRANCH  58  61
ATOM     61  C15 MK1 d   1      18.267  27.611  11.779  0.00  0.00    -0.057 A 
ATOM     62  C16 MK1 d   1      18.377  26.253  12.096  0.00  0.00    -0.077 A 
ATOM     63  C17 MK1 d   1      18.404  25.312  11.067  0.00  0.00    -0.082 A 
ATOM     64  H29 MK1 d   1      18.441  25.935  13.130  0.00  0.00     0.084 H 
ATOM     65  C18 MK1 d   1      18.299  25.699   9.761  0.00  0.00    -0.083 A 
ATOM     66  H30 MK1 d   1      18.510  24.260  11.306  0.00  0.00     0.083 H 
ATOM     67  C19 MK1 d   1      18.134  27.041   9.450  0.00  0.00    -0.082 A 
ATOM     68  H31 MK1 d   1      18.345  24.959   8.970  0.00  0.00     0.083 H 
ATOM     69  C20 MK1 d   1      18.115  27.983  10.470  0.00  0.00    -0.077 A 
ATOM     70  H32 MK1 d   1      18.021  27.352   8.418  0.00  0.00     0.083 H 
ATOM     71  H33 MK1 d   1      17.978  29.030  10.226  0.00  0.00     0.084 H 
ENDBRANCH  58  61
ENDBRANCH  56  58
BRANCH  56  72
ATOM     72  C21 MK1 d   1      20.726  28.831  12.681  0.00  0.00     0.222 C 
ATOM     73  O3  MK1 d   1      20.994  29.902  12.095  0.00  0.00    -0.273 OA
ATOM     74  N4  MK1 d   1      21.403  27.720  12.442  0.00  0.00    -0.350 N 
ATOM     75  H34 MK1 d   1      21.254  26.921  13.024  0.00  0.00     0.163 HD
BRANCH  74  76
ATOM     76  C22 MK1 d   1      22.354  27.638  11.357  0.00  0.00     0.063 C 
ATOM     77  C23 MK1 d   1      22.266  26.286  10.613  0.00  0.00     0.063 C 
ATOM     78  C24 MK1 d   1      23.644  26.188   9.943  0.00  0.00    -0.014 C 
ATOM     79  H36 MK1 d   1      21.435  26.247   9.893  0.00  0.00     0.087 H 
ATOM     80  C25 MK1 d   1      24.619  26.904  10.857  0.00  0.00    -0.047 A 
ATOM     81  H38 MK1 d   1      23.622  26.673   8.956  0.00  0.00     0.044 H 
ATOM     82  H39 MK1 d   1      23.936  25.134   9.827  0.00  0.00     0.044 H 
ATOM     83  C26 MK1 d   1      25.981  26.890  10.996  0.00  0.00    -0.076 A 
ATOM     84  C30 MK1 d   1      23.814  27.786  11.722  0.00  0.00    -0.027 A 
ATOM     85  C27 MK1 d   1      26.543  27.677  11.959  0.00  0.00    -0.082 A 
ATOM     86  H40 MK1 d   1      26.598  26.269  10.357  0.00  0.00     0.084 H 
ATOM     87  C28 MK1 d   1      25.820  28.533  12.763  0.00  0.00    -0.082 A 
ATOM     88  H41 MK1 d   1      27.617  27.627  12.100  0.00  0.00     0.083 H 
ATOM     89  C29 MK1 d   1      24.456  28.556  12.635  0.00  0.00    -0.074 A 
ATOM     90  H42 MK1 d   1      26.320  29.174  13.480  0.00  0.00     0.083 H 
ATOM     91  H43 MK1 d   1      23.876  29.206  13.280  0.00  0.00     0.084 H 
ATOM     92  H35 MK1 d   1      22.098  28.446  10.656  0.00  0.00     0.084 H 
BRANCH  77  93
ATOM     93  O4  MK1 d   1      22.171  25.229  11.602  0.00  0.00    -0.393 OA
ATOM     94  H37 MK1 d   1      22.116  24.389  11.162  0.00  0.00     0.210 HD
ENDBRANCH  77  93
ENDBRANCH  74  76
ENDBRANCH  56  72
ENDBRANCH  53  56
ENDBRANCH  49  53
ENDBRANCH   1  49
TORSDOF 17
