REMARK WARNING: 32 MAX_TORS EXCEEDED!!!
REMARK  36 active torsions:
REMARK  status: ('A' for Active; 'I' for Inactive)
REMARK    1  A    between atoms: C_1  and  CH3_3 
REMARK       I    between atoms: C_1  and  N_4 
REMARK    2  A    between atoms: N_4  and  CA_5 
REMARK    3  A    between atoms: CA_5  and  C_6 
REMARK    4  A    between atoms: CA_5  and  CB_8 
REMARK       I    between atoms: C_6  and  N_11 
REMARK    5  A    between atoms: CB_8  and  OG1_9 
REMARK    6  A    between atoms: CB_8  and  CG2_10 
REMARK    7  A    between atoms: N_11  and  CA_12 
REMARK    8  A    between atoms: CA_12  and  C_13 
REMARK    9  A    between atoms: CA_12  and  CB_15 
REMARK       I    between atoms: C_13  and  N_19 
REMARK   10  A    between atoms: CB_15  and  CG1_16 
REMARK   11  A    between atoms: CB_15  and  CG2_17 
REMARK   12  A    between atoms: CG1_16  and  CD1_18 
REMARK   13  A    between atoms: N_19  and  CA_20 
REMARK   14  A    between atoms: CA_20  and  C_21 
REMARK   15  A    between atoms: CA_20  and  CB_22 
REMARK   16  A    between atoms: C_21  and  N_26 
REMARK   17  A    between atoms: CB_22  and  CG_23 
REMARK   18  A    between atoms: CG_23  and  CD_24 
REMARK   19  A    between atoms: CD_24  and  CE_25 
REMARK   20  A    between atoms: N_26  and  CA_27 
REMARK   21  A    between atoms: CA_27  and  C_28 
REMARK   22  A    between atoms: CA_27  and  CB_30 
REMARK       I    between atoms: C_28  and  N_34 
REMARK   23  A    between atoms: CB_30  and  CG_31 
REMARK   24  A    between atoms: CG_31  and  CD_32 
REMARK   25  A    between atoms: CD_32  and  CE_33 
REMARK   26  A    between atoms: N_34  and  CA_35 
REMARK   27  A    between atoms: CA_35  and  C_36 
REMARK   28  A    between atoms: CA_35  and  CB_38 
REMARK       I    between atoms: C_36  and  N_43 
REMARK   29  A    between atoms: CB_38  and  CG_39 
REMARK   30  A    between atoms: CG_39  and  CD_40 
REMARK       I    between atoms: CD_40  and  NE2_42 
REMARK   31  A    between atoms: N_43  and  CA_44 
REMARK   32  A    between atoms: CA_44  and  C_45 
REMARK   33  A    between atoms: CA_44  and  CB_47 
REMARK       I    between atoms: C_45  and  N_54 
REMARK   34  A    between atoms: CB_47  and  CG_48 
REMARK   35  A    between atoms: CG_48  and  CD_49 
REMARK   36  A    between atoms: CD_49  and  NE_50 
REMARK       I    between atoms: NE_50  and  CZ_51 
REMARK       I    between atoms: CZ_51  and  NH1_52 
ROOT
ATOM      1  N   2NC d   1      15.487  23.834  17.444  0.00  0.00    -0.060 N 
ATOM      2  H35 2NC d   1      16.263  23.374  16.995  0.00  0.00     0.278 HD
ATOM      3  H36 2NC d   1      15.398  24.771  17.084  0.00  0.00     0.278 HD
ENDROOT
BRANCH   1   4
ATOM      4  C   2NC d   1      15.846  23.972  18.754  0.00  0.00     0.101 C 
ATOM      5  H24 2NC d   1      15.447  24.932  19.114  0.00  0.00     0.078 H 
ATOM      6  H25 2NC d   1      15.385  23.148  19.319  0.00  0.00     0.078 H 
BRANCH   4   7
ATOM      7  CA  2NC d   1      17.351  23.952  19.039  0.00  0.00     0.035 C 
ATOM      8  H23 2NC d   1      17.723  22.965  18.726  0.00  0.00     0.075 H 
BRANCH   7   9
ATOM      9  N   2NC d   1      18.106  24.968  18.290  0.00  0.00    -0.353 N 
ATOM     10  C   2NC d   1      18.822  24.643  17.244  0.00  0.00     0.241 C 
ATOM     11  O   2NC d   1      18.775  23.484  16.776  0.00  0.00    -0.271 OA
ATOM     12  H22 2NC d   1      18.072  25.923  18.585  0.00  0.00     0.163 HD
BRANCH  10  13
ATOM     13  CA  2NC d   1      19.692  25.697  16.624  0.00  0.00     0.092 C 
ATOM     14  H12 2NC d   1      19.225  26.678  16.797  0.00  0.00     0.088 H 
BRANCH  13  15
ATOM     15  N   2NC d   1      20.964  25.669  17.320  0.00  0.00    -0.346 N 
ATOM     16  C   2NC d   1      21.440  26.712  17.963  0.00  0.00     0.243 C 
ATOM     17  O   2NC d   1      20.810  27.758  18.050  0.00  0.00    -0.271 OA
ATOM     18  H11 2NC d   1      21.499  24.824  17.310  0.00  0.00     0.163 HD
BRANCH  16  19
ATOM     19  CA  2NC d   1      22.817  26.562  18.636  0.00  0.00     0.113 C 
ATOM     20  H5  2NC d   1      22.710  26.860  19.690  0.00  0.00     0.091 H 
BRANCH  19  21
ATOM     21  N   2NC d   1      23.392  25.252  18.622  0.00  0.00    -0.346 N 
ATOM     22  C   2NC d   1      23.558  24.579  19.761  0.00  0.00     0.214 C 
ATOM     23  O   2NC d   1      23.267  25.087  20.862  0.00  0.00    -0.274 OA
ATOM     24  H4  2NC d   1      23.671  24.840  17.755  0.00  0.00     0.163 HD
BRANCH  22  25
ATOM     25  CH3 2NC d   1      24.161  23.207  19.668  0.00  0.00    -0.003 C 
ATOM     26  H1  2NC d   1      24.338  22.955  18.612  0.00  0.00     0.040 H 
ATOM     27  H2  2NC d   1      23.471  22.473  20.110  0.00  0.00     0.040 H 
ATOM     28  H3  2NC d   1      25.116  23.188  20.214  0.00  0.00     0.040 H 
ENDBRANCH  22  25
ENDBRANCH  19  21
BRANCH  19  29
ATOM     29  CB  2NC d   1      23.761  27.543  17.929  0.00  0.00     0.060 C 
ATOM     30  H6  2NC d   1      23.300  28.542  17.917  0.00  0.00     0.086 H 
BRANCH  29  31
ATOM     31  OG1 2NC d   1      23.956  27.088  16.566  0.00  0.00    -0.393 OA
ATOM     32  H7  2NC d   1      24.540  27.686  16.114  0.00  0.00     0.210 HD
ENDBRANCH  29  31
BRANCH  29  33
ATOM     33  CG2 2NC d   1      25.116  27.631  18.656  0.00  0.00    -0.050 C 
ATOM     34  H8  2NC d   1      25.770  28.340  18.128  0.00  0.00     0.031 H 
ATOM     35  H9  2NC d   1      25.589  26.638  18.672  0.00  0.00     0.031 H 
ATOM     36  H10 2NC d   1      24.957  27.978  19.688  0.00  0.00     0.031 H 
ENDBRANCH  29  33
ENDBRANCH  19  29
ENDBRANCH  16  19
ENDBRANCH  13  15
BRANCH  13  37
ATOM     37  CB  2NC d   1      19.841  25.523  15.093  0.00  0.00    -0.030 C 
ATOM     38  H13 2NC d   1      20.180  24.488  14.937  0.00  0.00     0.043 H 
BRANCH  37  39
ATOM     39  CG1 2NC d   1      20.905  26.413  14.472  0.00  0.00    -0.063 C 
ATOM     40  H14 2NC d   1      20.958  26.173  13.400  0.00  0.00     0.033 H 
ATOM     41  H15 2NC d   1      21.866  26.170  14.950  0.00  0.00     0.033 H 
BRANCH  39  42
ATOM     42  CD1 2NC d   1      20.691  27.902  14.600  0.00  0.00    -0.076 C 
ATOM     43  H19 2NC d   1      21.522  28.435  14.115  0.00  0.00     0.027 H 
ATOM     44  H20 2NC d   1      20.651  28.177  15.664  0.00  0.00     0.027 H 
ATOM     45  H21 2NC d   1      19.744  28.180  14.114  0.00  0.00     0.027 H 
ENDBRANCH  39  42
ENDBRANCH  37  39
BRANCH  37  46
ATOM     46  CG2 2NC d   1      18.506  25.655  14.369  0.00  0.00    -0.071 C 
ATOM     47  H16 2NC d   1      17.764  24.998  14.846  0.00  0.00     0.028 H 
ATOM     48  H17 2NC d   1      18.630  25.364  13.315  0.00  0.00     0.028 H 
ATOM     49  H18 2NC d   1      18.161  26.698  14.423  0.00  0.00     0.028 H 
ENDBRANCH  37  46
ENDBRANCH  13  37
ENDBRANCH  10  13
ENDBRANCH   7   9
BRANCH   7  50
ATOM     50  CB  2NC d   1      17.647  24.113  20.513  0.00  0.00    -0.045 C 
ATOM     51  H26 2NC d   1      17.180  23.269  21.042  0.00  0.00     0.036 H 
ATOM     52  H27 2NC d   1      17.185  25.054  20.846  0.00  0.00     0.036 H 
BRANCH  50  53
ATOM     53  CG  2NC d   1      19.098  24.152  20.906  0.00  0.00    -0.064 C 
ATOM     54  H28 2NC d   1      19.150  24.262  21.999  0.00  0.00     0.033 H 
ATOM     55  H29 2NC d   1      19.555  25.030  20.427  0.00  0.00     0.033 H 
BRANCH  53  56
ATOM     56  CD  2NC d   1      19.894  22.960  20.529  0.00  0.00    -0.068 C 
ATOM     57  H30 2NC d   1      20.914  23.086  20.920  0.00  0.00     0.032 H 
ATOM     58  H31 2NC d   1      19.927  22.897  19.431  0.00  0.00     0.032 H 
BRANCH  56  59
ATOM     59  CE  2NC d   1      19.327  21.646  21.071  0.00  0.00    -0.077 C 
ATOM     60  H32 2NC d   1      19.968  20.811  20.752  0.00  0.00     0.027 H 
ATOM     61  H33 2NC d   1      18.309  21.497  20.681  0.00  0.00     0.027 H 
ATOM     62  H34 2NC d   1      19.296  21.685  22.170  0.00  0.00     0.027 H 
ENDBRANCH  56  59
ENDBRANCH  53  56
ENDBRANCH  50  53
ENDBRANCH   7  50
ENDBRANCH   4   7
ENDBRANCH   1   4
BRANCH   1  63
ATOM     63  CA  2NC d   1      14.285  23.119  16.994  0.00  0.00     0.178 C 
ATOM     64  H37 2NC d   1      13.419  23.615  17.456  0.00  0.00     0.099 H 
BRANCH  63  65
ATOM     65  C   2NC d   1      14.299  21.683  17.446  0.00  0.00     0.249 C 
ATOM     66  O   2NC d   1      15.314  20.966  17.361  0.00  0.00    -0.271 OA
ATOM     67  N   2NC d   1      13.171  21.197  17.905  0.00  0.00    -0.346 N 
ATOM     68  H47 2NC d   1      12.371  21.792  17.986  0.00  0.00     0.163 HD
BRANCH  67  69
ATOM     69  CA  2NC d   1      13.071  19.780  18.303  0.00  0.00     0.090 C 
ATOM     70  H48 2NC d   1      13.765  19.190  17.686  0.00  0.00     0.087 H 
BRANCH  69  71
ATOM     71  C   2NC d   1      11.649  19.323  17.985  0.00  0.00     0.241 C 
ATOM     72  O   2NC d   1      10.639  19.961  18.319  0.00  0.00    -0.271 OA
ATOM     73  N   2NC d   1      11.576  18.124  17.473  0.00  0.00    -0.346 N 
ATOM     74  H55 2NC d   1      12.416  17.605  17.315  0.00  0.00     0.163 HD
BRANCH  73  75
ATOM     75  CA  2NC d   1      10.300  17.532  17.130  0.00  0.00     0.089 C 
ATOM     76  H56 2NC d   1       9.480  18.162  17.504  0.00  0.00     0.087 H 
BRANCH  75  77
ATOM     77  C   2NC d   1      10.227  16.161  17.755  0.00  0.00     0.238 C 
ATOM     78  O   2NC d   1      11.182  15.411  17.759  0.00  0.00    -0.271 OA
ATOM     79  N   2NC d   1       9.469  15.858  18.143  0.00  0.00    -0.368 N 
ATOM     80  H68 2NC d   1       9.446  14.945  18.550  0.00  0.00     0.159 HD
ATOM     81  H69 2NC d   1       8.653  16.436  18.165  0.00  0.00     0.159 HD
ENDBRANCH  75  77
BRANCH  75  82
ATOM     82  CB  2NC d   1      10.199  17.393  15.620  0.00  0.00    -0.036 C 
ATOM     83  H57 2NC d   1       9.374  16.706  15.382  0.00  0.00     0.036 H 
ATOM     84  H58 2NC d   1      11.143  16.977  15.239  0.00  0.00     0.036 H 
BRANCH  82  85
ATOM     85  CG  2NC d   1       9.938  18.731  14.933  0.00  0.00    -0.048 C 
ATOM     86  H59 2NC d   1      10.425  19.526  15.517  0.00  0.00     0.035 H 
ATOM     87  H60 2NC d   1       8.852  18.907  14.907  0.00  0.00     0.035 H 
BRANCH  85  88
ATOM     88  CD  2NC d   1      10.472  18.777  13.509  0.00  0.00     0.009 C 
ATOM     89  H61 2NC d   1      11.517  18.433  13.511  0.00  0.00     0.064 H 
ATOM     90  H62 2NC d   1      10.428  19.815  13.148  0.00  0.00     0.064 H 
BRANCH  88  91
ATOM     91  NE  2NC d   1       9.699  17.929  12.600  0.00  0.00    -0.227 N 
ATOM     92  CZ  2NC d   1       8.513  18.232  12.084  0.00  0.00     0.665 C 
ATOM     93  NH1 2NC d   1       7.966  19.397  12.415  0.00  0.00    -0.235 N 
ATOM     94  NH2 2NC d   1       7.874  17.405  11.258  0.00  0.00    -0.235 N 
ATOM     95  H64 2NC d   1       7.047  19.662  12.032  0.00  0.00     0.174 HD
ATOM     96  H65 2NC d   1       8.461  20.035  13.055  0.00  0.00     0.174 HD
ATOM     97  H66 2NC d   1       8.299  16.502  11.002  0.00  0.00     0.174 HD
ATOM     98  H67 2NC d   1       6.955  17.668  10.875  0.00  0.00     0.174 HD
ATOM     99  H63 2NC d   1      10.109  17.021  12.338  0.00  0.00     0.177 HD
ENDBRANCH  88  91
ENDBRANCH  85  88
ENDBRANCH  82  85
ENDBRANCH  75  82
ENDBRANCH  73  75
ENDBRANCH  69  71
BRANCH  69 100
ATOM    100  CB  2NC d   1      13.476  19.589  19.741  0.00  0.00    -0.030 C 
ATOM    101  H49 2NC d   1      12.883  20.288  20.349  0.00  0.00     0.037 H 
ATOM    102  H50 2NC d   1      14.543  19.845  19.823  0.00  0.00     0.037 H 
BRANCH 100 103
ATOM    103  CG  2NC d   1      13.295  18.228  20.316  0.00  0.00     0.011 C 
ATOM    104  H51 2NC d   1      14.018  18.103  21.136  0.00  0.00     0.047 H 
ATOM    105  H52 2NC d   1      13.505  17.491  19.526  0.00  0.00     0.047 H 
BRANCH 103 106
ATOM    106  CD  2NC d   1      11.892  17.948  20.869  0.00  0.00     0.215 C 
ATOM    107  OE1 2NC d   1      11.264  18.856  21.344  0.00  0.00    -0.274 OA
ATOM    108  NE2 2NC d   1      11.417  16.728  20.770  0.00  0.00    -0.370 N 
ATOM    109  H53 2NC d   1      10.505  16.516  21.122  0.00  0.00     0.159 HD
ATOM    110  H54 2NC d   1      11.967  16.010  20.343  0.00  0.00     0.159 HD
ENDBRANCH 103 106
ENDBRANCH 100 103
ENDBRANCH  69 100
ENDBRANCH  67  69
ENDBRANCH  63  65
BRANCH  63 111
ATOM    111  CB  2NC d   1      14.090  23.157  15.489  0.00  0.00    -0.030 C 
ATOM    112  H38 2NC d   1      15.011  22.739  15.056  0.00  0.00     0.036 H 
ATOM    113  H39 2NC d   1      14.010  24.221  15.223  0.00  0.00     0.036 H 
BRANCH 111 114
ATOM    114  CG  2NC d   1      12.959  22.473  14.782  0.00  0.00    -0.063 C 
ATOM    115  H40 2NC d   1      12.695  23.063  13.892  0.00  0.00     0.033 H 
ATOM    116  H41 2NC d   1      12.096  22.430  15.463  0.00  0.00     0.033 H 
BRANCH 114 117
ATOM    117  CD  2NC d   1      13.296  21.057  14.340  0.00  0.00    -0.068 C 
ATOM    118  H42 2NC d   1      12.377  20.558  13.998  0.00  0.00     0.032 H 
ATOM    119  H43 2NC d   1      13.718  20.504  15.192  0.00  0.00     0.032 H 
BRANCH 117 120
ATOM    120  CE  2NC d   1      14.316  21.071  13.195  0.00  0.00    -0.077 C 
ATOM    121  H44 2NC d   1      14.543  20.038  12.894  0.00  0.00     0.027 H 
ATOM    122  H45 2NC d   1      15.239  21.566  13.532  0.00  0.00     0.027 H 
ATOM    123  H46 2NC d   1      13.898  21.619  12.338  0.00  0.00     0.027 H 
ENDBRANCH 117 120
ENDBRANCH 114 117
ENDBRANCH 111 114
ENDBRANCH  63 111
ENDBRANCH   1  63
TORSDOF 36
