REMARK  17 active torsions:
REMARK  status: ('A' for Active; 'I' for Inactive)
REMARK    1  A    between atoms: N1_1  and  C31_39 
REMARK    2  A    between atoms: C2_3  and  C3_4 
REMARK       I    between atoms: C3_4  and  N2_6 
REMARK    3  A    between atoms: N2_6  and  C4_7 
REMARK    4  A    between atoms: C4_7  and  C5_8 
REMARK    5  A    between atoms: C4_7  and  C6_9 
REMARK    6  A    between atoms: C4_7  and  C7_10 
REMARK    7  A    between atoms: N3_11  and  C10_14 
REMARK    8  A    between atoms: C10_14  and  C11_15 
REMARK    9  A    between atoms: C11_15  and  O2_16 
REMARK   10  A    between atoms: C11_15  and  C12_17 
REMARK   11  A    between atoms: C12_17  and  C13_18 
REMARK   12  A    between atoms: C13_18  and  C14_19 
REMARK   13  A    between atoms: C13_18  and  C21_26 
REMARK   14  A    between atoms: C14_19  and  C15_20 
REMARK       I    between atoms: C21_26  and  N4_28 
REMARK   15  A    between atoms: N4_28  and  C22_29 
REMARK   16  A    between atoms: C23_30  and  O4_31 
REMARK   17  A    between atoms: C31_39  and  C32_40 
ROOT
ATOM      1  C10 MK1 d   1      20.455  31.121  16.403  0.00  0.00     0.108 C 
ATOM      2  H20 MK1 d   1      19.382  31.322  16.536  0.00  0.00     0.080 H 
ATOM      3  H21 MK1 d   1      20.910  30.897  17.379  0.00  0.00     0.080 H 
ENDROOT
BRANCH   1   4
ATOM      4  N3  MK1 d   1      21.087  32.312  15.858  0.00  0.00    -0.053 N 
ATOM      5  C2  MK1 d   1      20.295  33.567  16.121  0.00  0.00     0.203 C 
ATOM      6  C1  MK1 d   1      21.091  34.725  15.575  0.00  0.00     0.119 C 
ATOM      7  H4  MK1 d   1      20.155  33.686  17.206  0.00  0.00     0.102 H 
ATOM      8  N1  MK1 d   1      22.445  34.844  16.178  0.00  0.00    -0.063 N 
ATOM      9  H2  MK1 d   1      21.203  34.590  14.489  0.00  0.00     0.080 H 
ATOM     10  H3  MK1 d   1      20.537  35.654  15.774  0.00  0.00     0.080 H 
ATOM     11  C9  MK1 d   1      23.168  33.654  15.872  0.00  0.00     0.106 C 
ATOM     12  H1  MK1 d   1      22.375  34.963  17.177  0.00  0.00     0.280 HD
ATOM     13  C8  MK1 d   1      22.450  32.398  16.416  0.00  0.00     0.107 C 
ATOM     14  H18 MK1 d   1      24.169  33.718  16.325  0.00  0.00     0.078 H 
ATOM     15  H19 MK1 d   1      23.264  33.565  14.780  0.00  0.00     0.078 H 
ATOM     16  H16 MK1 d   1      23.018  31.501  16.129  0.00  0.00     0.078 H 
ATOM     17  H17 MK1 d   1      22.391  32.459  17.513  0.00  0.00     0.078 H 
ATOM     18  H15 MK1 d   1      21.158  32.202  14.858  0.00  0.00     0.281 HD
BRANCH   5  19
ATOM     19  C3  MK1 d   1      18.955  33.547  15.459  0.00  0.00     0.251 C 
ATOM     20  O1  MK1 d   1      18.822  33.175  14.284  0.00  0.00    -0.271 OA
ATOM     21  N2  MK1 d   1      17.976  33.996  16.211  0.00  0.00    -0.351 N 
ATOM     22  H5  MK1 d   1      18.197  34.293  17.140  0.00  0.00     0.163 HD
BRANCH  21  23
ATOM     23  C4  MK1 d   1      16.546  34.091  15.764  0.00  0.00     0.022 C 
BRANCH  23  24
ATOM     24  C5  MK1 d   1      15.804  34.679  16.965  0.00  0.00    -0.054 C 
ATOM     25  H6  MK1 d   1      14.736  34.784  16.721  0.00  0.00     0.030 H 
ATOM     26  H7  MK1 d   1      16.223  35.667  17.207  0.00  0.00     0.030 H 
ATOM     27  H8  MK1 d   1      15.918  34.010  17.830  0.00  0.00     0.030 H 
ENDBRANCH  23  24
BRANCH  23  28
ATOM     28  C6  MK1 d   1      16.025  32.793  15.415  0.00  0.00    -0.054 C 
ATOM     29  H9  MK1 d   1      14.978  32.893  15.092  0.00  0.00     0.030 H 
ATOM     30  H10 MK1 d   1      16.077  32.130  16.291  0.00  0.00     0.030 H 
ATOM     31  H11 MK1 d   1      16.622  32.366  14.596  0.00  0.00     0.030 H 
ENDBRANCH  23  28
BRANCH  23  32
ATOM     32  C7  MK1 d   1      16.475  35.041  14.625  0.00  0.00    -0.054 C 
ATOM     33  H12 MK1 d   1      15.433  35.125  14.282  0.00  0.00     0.030 H 
ATOM     34  H13 MK1 d   1      17.104  34.673  13.801  0.00  0.00     0.030 H 
ATOM     35  H14 MK1 d   1      16.835  36.029  14.948  0.00  0.00     0.030 H 
ENDBRANCH  23  32
ENDBRANCH  21  23
ENDBRANCH   5  19
BRANCH   8  36
ATOM     36  C31 MK1 d   1      23.137  36.006  15.576  0.00  0.00     0.108 C 
ATOM     37  H44 MK1 d   1      23.072  35.923  14.481  0.00  0.00     0.083 H 
ATOM     38  H45 MK1 d   1      24.193  35.982  15.883  0.00  0.00     0.083 H 
BRANCH  36  39
ATOM     39  C32 MK1 d   1      22.542  37.342  15.996  0.00  0.00    -0.015 A 
ATOM     40  C33 MK1 d   1      22.443  37.686  17.348  0.00  0.00     0.009 A 
ATOM     41  N5  MK1 d   1      21.915  38.873  17.798  0.00  0.00    -0.273 NA
ATOM     42  H46 MK1 d   1      22.803  36.976  18.084  0.00  0.00     0.115 H 
ATOM     43  C34 MK1 d   1      21.513  39.745  16.819  0.00  0.00     0.002 A 
ATOM     44  C35 MK1 d   1      21.611  39.484  15.454  0.00  0.00    -0.066 A 
ATOM     45  H47 MK1 d   1      21.093  40.696  17.126  0.00  0.00     0.114 H 
ATOM     46  C36 MK1 d   1      22.107  38.247  15.061  0.00  0.00    -0.072 A 
ATOM     47  H48 MK1 d   1      21.309  40.223  14.721  0.00  0.00     0.085 H 
ATOM     48  H49 MK1 d   1      22.151  37.995  14.008  0.00  0.00     0.084 H 
ENDBRANCH  36  39
ENDBRANCH   8  36
ENDBRANCH   1   4
BRANCH   1  49
ATOM     49  C11 MK1 d   1      20.613  29.912  15.506  0.00  0.00     0.059 C 
ATOM     50  H22 MK1 d   1      21.572  29.995  14.973  0.00  0.00     0.085 H 
BRANCH  49  51
ATOM     51  O2  MK1 d   1      20.603  28.712  16.284  0.00  0.00    -0.394 OA
ATOM     52  H23 MK1 d   1      19.779  28.646  16.752  0.00  0.00     0.210 HD
ENDBRANCH  49  51
BRANCH  49  53
ATOM     53  C12 MK1 d   1      19.478  29.804  14.482  0.00  0.00    -0.028 C 
ATOM     54  H24 MK1 d   1      19.465  30.736  13.897  0.00  0.00     0.038 H 
ATOM     55  H25 MK1 d   1      18.534  29.707  15.038  0.00  0.00     0.038 H 
BRANCH  53  56
ATOM     56  C13 MK1 d   1      19.558  28.643  13.501  0.00  0.00     0.029 C 
ATOM     57  H26 MK1 d   1      19.694  27.720  14.083  0.00  0.00     0.055 H 
BRANCH  56  58
ATOM     58  C14 MK1 d   1      18.262  28.526  12.670  0.00  0.00    -0.029 C 
ATOM     59  H27 MK1 d   1      18.060  29.507  12.216  0.00  0.00     0.041 H 
ATOM     60  H28 MK1 d   1      17.442  28.263  13.354  0.00  0.00     0.041 H 
BRANCH  58  61
ATOM     61  C15 MK1 d   1      18.294  27.522  11.590  0.00  0.00    -0.057 A 
ATOM     62  C16 MK1 d   1      18.421  26.168  11.872  0.00  0.00    -0.077 A 
ATOM     63  C17 MK1 d   1      18.453  25.237  10.845  0.00  0.00    -0.082 A 
ATOM     64  H29 MK1 d   1      18.496  25.837  12.902  0.00  0.00     0.084 H 
ATOM     65  C18 MK1 d   1      18.373  25.642   9.508  0.00  0.00    -0.083 A 
ATOM     66  H30 MK1 d   1      18.541  24.183  11.081  0.00  0.00     0.083 H 
ATOM     67  C19 MK1 d   1      18.245  27.006   9.244  0.00  0.00    -0.082 A 
ATOM     68  H31 MK1 d   1      18.409  24.918   8.702  0.00  0.00     0.083 H 
ATOM     69  C20 MK1 d   1      18.183  27.927  10.250  0.00  0.00    -0.077 A 
ATOM     70  H32 MK1 d   1      18.194  27.343   8.215  0.00  0.00     0.083 H 
ATOM     71  H33 MK1 d   1      18.047  28.976  10.013  0.00  0.00     0.084 H 
ENDBRANCH  58  61
ENDBRANCH  56  58
BRANCH  56  72
ATOM     72  C21 MK1 d   1      20.716  28.770  12.514  0.00  0.00     0.222 C 
ATOM     73  O3  MK1 d   1      20.986  29.858  11.942  0.00  0.00    -0.273 OA
ATOM     74  N4  MK1 d   1      21.386  27.666  12.264  0.00  0.00    -0.350 N 
ATOM     75  H34 MK1 d   1      21.275  26.887  12.881  0.00  0.00     0.163 HD
BRANCH  74  76
ATOM     76  C22 MK1 d   1      22.274  27.534  11.135  0.00  0.00     0.063 C 
ATOM     77  C23 MK1 d   1      22.198  26.211  10.413  0.00  0.00     0.063 C 
ATOM     78  C24 MK1 d   1      23.539  26.109   9.684  0.00  0.00    -0.014 C 
ATOM     79  H36 MK1 d   1      21.348  26.176   9.716  0.00  0.00     0.087 H 
ATOM     80  C25 MK1 d   1      24.540  26.825  10.554  0.00  0.00    -0.047 A 
ATOM     81  H38 MK1 d   1      23.476  26.592   8.698  0.00  0.00     0.044 H 
ATOM     82  H39 MK1 d   1      23.827  25.055   9.559  0.00  0.00     0.044 H 
ATOM     83  C26 MK1 d   1      25.903  26.817  10.669  0.00  0.00    -0.076 A 
ATOM     84  C30 MK1 d   1      23.759  27.709  11.462  0.00  0.00    -0.027 A 
ATOM     85  C27 MK1 d   1      26.531  27.594  11.600  0.00  0.00    -0.082 A 
ATOM     86  H40 MK1 d   1      26.492  26.186  10.013  0.00  0.00     0.084 H 
ATOM     87  C28 MK1 d   1      25.822  28.450  12.452  0.00  0.00    -0.082 A 
ATOM     88  H41 MK1 d   1      27.611  27.547  11.682  0.00  0.00     0.083 H 
ATOM     89  C29 MK1 d   1      24.440  28.481  12.362  0.00  0.00    -0.074 A 
ATOM     90  H42 MK1 d   1      26.344  29.075  13.167  0.00  0.00     0.083 H 
ATOM     91  H43 MK1 d   1      23.883  29.135  13.023  0.00  0.00     0.084 H 
ATOM     92  H35 MK1 d   1      21.985  28.325  10.427  0.00  0.00     0.084 H 
BRANCH  77  93
ATOM     93  O4  MK1 d   1      22.116  25.153  11.366  0.00  0.00    -0.393 OA
ATOM     94  H37 MK1 d   1      22.068  24.321  10.910  0.00  0.00     0.210 HD
ENDBRANCH  77  93
ENDBRANCH  74  76
ENDBRANCH  56  72
ENDBRANCH  53  56
ENDBRANCH  49  53
ENDBRANCH   1  49
TORSDOF 17
