REMARK  7 active torsions:
REMARK  status: ('A' for Active; 'I' for Inactive)
REMARK    1  A    between atoms: C13_2  and  C11_3 
REMARK    2  A    between atoms: C11_3  and  O11_4 
REMARK    3  A    between atoms: C11_3  and  C12_5 
REMARK    4  A    between atoms: C11_3  and  C10_6 
REMARK       I    between atoms: C10_6  and  N09_8 
REMARK    5  A    between atoms: N09_8  and  C06_9 
REMARK    6  A    between atoms: C03_13  and  N08_14 
REMARK    7  A    between atoms: C04_17  and  C07_18 
ROOT
ATOM      1  C06 BHM d   1      27.787   3.622   3.746  0.00  0.00     0.035 A 
ATOM      2  C05 BHM d   1      26.454   3.345   4.038  0.00  0.00    -0.040 A 
ATOM      3  C01 BHM d   1      28.154   4.935   3.470  0.00  0.00    -0.055 A 
ATOM      4  C02 BHM d   1      27.193   5.939   3.508  0.00  0.00    -0.048 A 
ATOM      5  C03 BHM d   1      25.865   5.657   3.817  0.00  0.00     0.118 A 
ATOM      6  C04 BHM d   1      25.474   4.339   4.070  0.00  0.00     0.083 A 
ATOM      7  H8  BHM d   1      26.167   2.321   4.248  0.00  0.00     0.088 H 
ATOM      8  H9  BHM d   1      29.183   5.174   3.227  0.00  0.00     0.087 H 
ATOM      9  H10 BHM d   1      27.483   6.961   3.293  0.00  0.00     0.087 H 
ENDROOT
BRANCH   1  10
ATOM     10  N09 BHM d   1      28.728   2.680   3.691  0.00  0.00    -0.325 N 
ATOM     11  C10 BHM d   1      28.541   1.386   3.943  0.00  0.00     0.257 C 
ATOM     12  O10 BHM d   1      27.477   0.886   4.309  0.00  0.00    -0.270 OA
ATOM     13  H7  BHM d   1      29.652   2.969   3.439  0.00  0.00     0.169 HD
BRANCH  11  14
ATOM     14  C11 BHM d   1      29.797   0.524   3.794  0.00  0.00     0.144 C 
BRANCH  14  15
ATOM     15  C13 BHM d   1      30.268   0.044   5.169  0.00  0.00     0.023 C 
ATOM     16 BRAI BHM d   1      30.748   1.562   6.284  0.00  0.00    -0.093 Br
ATOM     17  H1  BHM d   1      29.458  -0.521   5.654  0.00  0.00     0.055 H 
ATOM     18  H2  BHM d   1      31.146  -0.607   5.045  0.00  0.00     0.055 H 
ENDBRANCH  14  15
BRANCH  14  19
ATOM     19  O11 BHM d   1      30.833   1.313   3.202  0.00  0.00    -0.380 OA
ATOM     20  H3  BHM d   1      31.617   0.785   3.108  0.00  0.00     0.211 HD
ENDBRANCH  14  19
BRANCH  14  21
ATOM     21  C12 BHM d   1      29.475  -0.677   2.903  0.00  0.00    -0.039 C 
ATOM     22  H4  BHM d   1      29.138  -0.323   1.918  0.00  0.00     0.032 H 
ATOM     23  H5  BHM d   1      28.679  -1.277   3.369  0.00  0.00     0.032 H 
ATOM     24  H6  BHM d   1      30.377  -1.295   2.781  0.00  0.00     0.032 H 
ENDBRANCH  14  21
ENDBRANCH  11  14
ENDBRANCH   1  10
BRANCH   6  25
ATOM     25  C07 BHM d   1      24.008   3.923   4.290  0.00  0.00     0.419 C 
ATOM     26  F01 BHM d   1      23.612   4.280   5.508  0.00  0.00    -0.166 F 
ATOM     27  F02 BHM d   1      23.182   4.462   3.397  0.00  0.00    -0.166 F 
ATOM     28  F03 BHM d   1      23.834   2.609   4.182  0.00  0.00    -0.166 F 
ENDBRANCH   6  25
BRANCH   5  29
ATOM     29  N08 BHM d   1      25.039   6.703   3.874  0.00  0.00    -0.115 N 
ATOM     30  O02 BHM d   1      23.697   6.611   4.329  0.00  0.00    -0.532 OA
ATOM     31  O01 BHM d   1      25.539   8.001   3.584  0.00  0.00    -0.532 OA
ENDBRANCH   5  29
TORSDOF 7
