REMARK  10 active torsions:
REMARK  status: ('A' for Active; 'I' for Inactive)
REMARK    1  A    between atoms: C2_14  and  C5_1 
REMARK    2  A    between atoms: C22_11  and  S25_25 
REMARK    3  A    between atoms: C24_12  and  O26_26 
REMARK    4  A    between atoms: O4_16  and  C1_13 
REMARK    5  A    between atoms: O4_16  and  C9_17 
REMARK    6  A    between atoms: C19_23  and  O23_24 
REMARK    7  A    between atoms: S25_25  and  C27_27 
REMARK    8  A    between atoms: O26_26  and  C30_30 
REMARK    9  A    between atoms: C30_30  and  C31_31 
REMARK   10  A    between atoms: C31_31  and  N32_32 
ROOT
ATOM      1  O4  L4G d   1      31.032  -2.157  27.352  0.00  0.00    -0.309 OA
ENDROOT
BRANCH   1   2
ATOM      2  C1  L4G d   1      30.202  -1.024  27.598  0.00  0.00     0.098 A 
ATOM      3  C2  L4G d   1      30.751   0.259  28.031  0.00  0.00     0.009 A 
ATOM      4  C6  L4G d   1      29.857   1.355  28.253  0.00  0.00    -0.069 A 
ATOM      5  C12 L4G d   1      28.460   1.213  28.067  0.00  0.00    -0.071 A 
ATOM      6  H1  L4G d   1      30.257   2.312  28.569  0.00  0.00     0.085 H 
ATOM      7  C7  L4G d   1      27.918  -0.029  27.656  0.00  0.00    -0.021 A 
ATOM      8  H10 L4G d   1      27.803   2.058  28.240  0.00  0.00     0.084 H 
ATOM      9  C13 L4G d   1      26.520  -0.161  27.472  0.00  0.00    -0.040 A 
ATOM     10  C3  L4G d   1      28.790  -1.162  27.418  0.00  0.00     0.009 A 
ATOM     11  C19 L4G d   1      25.973  -1.411  27.058  0.00  0.00     0.066 A 
ATOM     12  H4  L4G d   1      25.867   0.687  27.646  0.00  0.00     0.089 H 
ATOM     13  C14 L4G d   1      26.822  -2.529  26.826  0.00  0.00    -0.050 A 
ATOM     14  C8  L4G d   1      28.218  -2.413  27.004  0.00  0.00    -0.067 A 
ATOM     15  H11 L4G d   1      26.395  -3.474  26.511  0.00  0.00     0.087 H 
ATOM     16  H2  L4G d   1      28.859  -3.269  26.828  0.00  0.00     0.085 H 
BRANCH   3  17
ATOM     17  C5  L4G d   1      32.207   0.466  28.240  0.00  0.00    -0.023 A 
ATOM     18  C10 L4G d   1      32.872   1.629  27.720  0.00  0.00    -0.071 A 
ATOM     19  C17 L4G d   1      34.267   1.803  27.925  0.00  0.00    -0.061 A 
ATOM     20  H3  L4G d   1      32.309   2.374  27.171  0.00  0.00     0.084 H 
ATOM     21  C22 L4G d   1      35.009   0.824  28.636  0.00  0.00     0.058 A 
ATOM     22  H6  L4G d   1      34.765   2.684  27.538  0.00  0.00     0.085 H 
ATOM     23  C18 L4G d   1      34.367  -0.324  29.154  0.00  0.00    -0.061 A 
ATOM     24  C11 L4G d   1      32.980  -0.503  28.959  0.00  0.00    -0.071 A 
ATOM     25  H13 L4G d   1      34.939  -1.066  29.700  0.00  0.00     0.085 H 
ATOM     26  H9  L4G d   1      32.493  -1.385  29.359  0.00  0.00     0.084 H 
BRANCH  21  27
ATOM     27  S25 L4G d   1      36.758   1.030  28.908  0.00  0.00     0.171 S 
ATOM     28  O28 L4G d   1      36.932   1.385  30.388  0.00  0.00    -0.223 OA
ATOM     29  O29 L4G d   1      37.180   2.384  28.306  0.00  0.00    -0.223 OA
BRANCH  27  30
ATOM     30  C27 L4G d   1      38.042  -0.218  28.504  0.00  0.00     0.020 C 
ATOM     31  H15 L4G d   1      39.033   0.174  28.777  0.00  0.00     0.049 H 
ATOM     32  H16 L4G d   1      38.017  -0.434  27.426  0.00  0.00     0.049 H 
ATOM     33  H17 L4G d   1      37.845  -1.142  29.067  0.00  0.00     0.049 H 
ENDBRANCH  27  30
ENDBRANCH  21  27
ENDBRANCH   3  17
BRANCH  11  34
ATOM     34  O23 L4G d   1      24.651  -1.533  26.879  0.00  0.00    -0.361 OA
ATOM     35  H14 L4G d   1      24.476  -1.775  25.977  0.00  0.00     0.217 HD
ENDBRANCH  11  34
ENDBRANCH   1   2
BRANCH   1  36
ATOM     36  C9  L4G d   1      31.657  -2.214  26.046  0.00  0.00     0.076 A 
ATOM     37  C15 L4G d   1      32.648  -3.198  25.807  0.00  0.00    -0.048 A 
ATOM     38  C20 L4G d   1      33.288  -3.290  24.550  0.00  0.00    -0.048 A 
ATOM     39  H5  L4G d   1      32.919  -3.889  26.598  0.00  0.00     0.087 H 
ATOM     40  C24 L4G d   1      32.948  -2.384  23.478  0.00  0.00     0.069 A 
ATOM     41  H7  L4G d   1      34.044  -4.050  24.389  0.00  0.00     0.087 H 
ATOM     42  C21 L4G d   1      31.956  -1.395  23.708  0.00  0.00    -0.048 A 
ATOM     43  C16 L4G d   1      31.318  -1.305  24.965  0.00  0.00    -0.048 A 
ATOM     44  H8  L4G d   1      31.687  -0.706  22.916  0.00  0.00     0.087 H 
ATOM     45  H12 L4G d   1      30.562  -0.544  25.126  0.00  0.00     0.087 H 
BRANCH  40  46
ATOM     46  O26 L4G d   1      33.537  -2.406  22.189  0.00  0.00    -0.349 OA
BRANCH  46  47
ATOM     47  C30 L4G d   1      34.263  -3.573  21.760  0.00  0.00     0.049 C 
ATOM     48  H18 L4G d   1      34.730  -4.059  22.630  0.00  0.00     0.077 H 
ATOM     49  H19 L4G d   1      35.043  -3.280  21.041  0.00  0.00     0.077 H 
BRANCH  47  50
ATOM     50  C31 L4G d   1      33.278  -4.552  21.086  0.00  0.00     0.103 C 
ATOM     51  H20 L4G d   1      32.540  -4.834  21.851  0.00  0.00     0.079 H 
ATOM     52  H21 L4G d   1      33.862  -5.438  20.797  0.00  0.00     0.079 H 
BRANCH  50  53
ATOM     53  N32 L4G d   1      32.520  -4.144  19.902  0.00  0.00    -0.069 N 
ATOM     54  C33 L4G d   1      33.401  -3.475  18.919  0.00  0.00     0.084 C 
ATOM     55  C35 L4G d   1      32.654  -3.324  17.579  0.00  0.00    -0.042 C 
ATOM     56  H23 L4G d   1      34.307  -4.080  18.767  0.00  0.00     0.076 H 
ATOM     57  H24 L4G d   1      33.682  -2.481  19.296  0.00  0.00     0.076 H 
ATOM     58  C37 L4G d   1      31.368  -2.493  17.789  0.00  0.00    -0.062 C 
ATOM     59  H27 L4G d   1      32.387  -4.320  17.195  0.00  0.00     0.035 H 
ATOM     60  H28 L4G d   1      33.304  -2.814  16.854  0.00  0.00     0.035 H 
ATOM     61  C36 L4G d   1      30.499  -3.046  18.939  0.00  0.00    -0.042 C 
ATOM     62  H31 L4G d   1      30.779  -2.510  16.860  0.00  0.00     0.033 H 
ATOM     63  H32 L4G d   1      31.650  -1.456  18.025  0.00  0.00     0.033 H 
ATOM     64  C34 L4G d   1      31.363  -3.251  20.203  0.00  0.00     0.084 C 
ATOM     65  H29 L4G d   1      29.692  -2.332  19.161  0.00  0.00     0.035 H 
ATOM     66  H30 L4G d   1      30.063  -4.009  18.635  0.00  0.00     0.035 H 
ATOM     67  H25 L4G d   1      31.738  -2.276  20.548  0.00  0.00     0.076 H 
ATOM     68  H26 L4G d   1      30.748  -3.708  20.992  0.00  0.00     0.076 H 
ATOM     69  H22 L4G d   1      32.155  -4.982  19.478  0.00  0.00     0.280 HD
ENDBRANCH  50  53
ENDBRANCH  47  50
ENDBRANCH  46  47
ENDBRANCH  40  46
ENDBRANCH   1  36
TORSDOF 10
