REMARK  4 active torsions:
REMARK  status: ('A' for Active; 'I' for Inactive)
REMARK    1  A    between atoms: C11_8  and  C13_10 
REMARK    2  A    between atoms: C12_9  and  O15_12 
REMARK    3  A    between atoms: O15_12  and  C16_13 
REMARK    4  A    between atoms: C16_13  and  C17_14 
ROOT
ATOM      1  C1  982 d   1      46.455  12.272   2.936  0.00  0.00    -0.066 A 
ATOM      2  C2  982 d   1      46.485  11.019   2.317  0.00  0.00    -0.065 A 
ATOM      3  C3  982 d   1      45.824  10.850   1.109  0.00  0.00     0.004 A 
ATOM      4  N1  982 d   1      45.136  11.817   0.461  0.00  0.00    -0.253 NA
ATOM      5  C5  982 d   1      45.137  13.015   1.094  0.00  0.00     0.111 A 
ATOM      6  C6  982 d   1      45.754  13.329   2.311  0.00  0.00     0.035 A 
ATOM      7  S10 982 d   1      44.326  14.342   0.406  0.00  0.00    -0.060 SA
ATOM      8  C11 982 d   1      44.765  15.362   1.712  0.00  0.00     0.117 A 
ATOM      9  C12 982 d   1      45.537  14.709   2.663  0.00  0.00     0.106 A 
ATOM     10  H1  982 d   1      46.962  12.431   3.881  0.00  0.00     0.085 H 
ATOM     11  H2  982 d   1      47.017  10.192   2.774  0.00  0.00     0.085 H 
ATOM     12  H3  982 d   1      45.862   9.869   0.650  0.00  0.00     0.114 H 
ENDROOT
BRANCH   9  13
ATOM     13  O15 982 d   1      46.016  15.298   3.805  0.00  0.00    -0.338 OA
BRANCH  13  14
ATOM     14  C16 982 d   1      47.251  16.013   3.641  0.00  0.00     0.106 C 
ATOM     15  H4  982 d   1      47.212  16.599   2.711  0.00  0.00     0.091 H 
ATOM     16  H5  982 d   1      48.083  15.295   3.587  0.00  0.00     0.091 H 
BRANCH  14  17
ATOM     17  C17 982 d   1      47.475  16.963   4.831  0.00  0.00     0.198 C 
ATOM     18  O20 982 d   1      48.525  17.636   4.777  0.00  0.00    -0.646 OA
ATOM     19  O22 982 d   1      46.616  16.976   5.746  0.00  0.00    -0.646 OA
ENDBRANCH  14  17
ENDBRANCH  13  14
ENDBRANCH   9  13
BRANCH   8  20
ATOM     20  C13 982 d   1      44.301  16.860   1.705  0.00  0.00     0.219 C 
ATOM     21  O14 982 d   1      43.800  17.262   0.614  0.00  0.00    -0.643 OA
ATOM     22  O21 982 d   1      44.454  17.545   2.762  0.00  0.00    -0.643 OA
ENDBRANCH   8  20
TORSDOF 4
