REMARK  9 active torsions:
REMARK  status: ('A' for Active; 'I' for Inactive)
REMARK    1  A    between atoms: C2_2  and  C6_6 
REMARK    2  A    between atoms: C3_3  and  O9_9 
REMARK    3  A    between atoms: O9_9  and  C10_10 
REMARK    4  A    between atoms: C10_10  and  C11_11 
REMARK    5  A    between atoms: C22_18  and  N28_21 
REMARK    6  A    between atoms: N28_21  and  C29_22 
REMARK    7  A    between atoms: N32_25  and  S44_28 
REMARK    8  A    between atoms: S44_28  and  C45_29 
REMARK    9  A    between atoms: C45_29  and  C46_30 
ROOT
ATOM      1  C29 598 d   1      48.572   7.451   1.944  0.00  0.00     0.012 C 
ATOM      2  C30 598 d   1      47.941   6.952   3.265  0.00  0.00    -0.031 C 
ATOM      3  C31 598 d   1      49.019   6.484   4.237  0.00  0.00     0.007 C 
ATOM      4  N32 598 d   1      49.840   5.430   3.540  0.00  0.00    -0.310 N 
ATOM      5  C33 598 d   1      50.537   5.932   2.297  0.00  0.00     0.007 C 
ATOM      6  C34 598 d   1      49.468   6.381   1.303  0.00  0.00    -0.031 C 
ATOM      7  H7  598 d   1      49.195   8.330   2.167  0.00  0.00     0.072 H 
ATOM      8  H8  598 d   1      47.263   6.113   3.047  0.00  0.00     0.038 H 
ATOM      9  H9  598 d   1      47.372   7.773   3.726  0.00  0.00     0.038 H 
ATOM     10  H10 598 d   1      48.552   6.060   5.138  0.00  0.00     0.065 H 
ATOM     11  H11 598 d   1      49.661   7.331   4.521  0.00  0.00     0.065 H 
ATOM     12  H12 598 d   1      51.141   5.125   1.856  0.00  0.00     0.065 H 
ATOM     13  H13 598 d   1      51.189   6.780   2.552  0.00  0.00     0.065 H 
ATOM     14  H14 598 d   1      49.954   6.800   0.410  0.00  0.00     0.038 H 
ATOM     15  H15 598 d   1      48.853   5.516   1.014  0.00  0.00     0.038 H 
ENDROOT
BRANCH   1  16
ATOM     16  N28 598 d   1      47.516   7.851   1.030  0.00  0.00    -0.385 N 
ATOM     17  H6  598 d   1      47.176   7.152   0.354  0.00  0.00     0.160 HD
BRANCH  16  18
ATOM     18  C22 598 d   1      46.934   9.110   1.005  0.00  0.00     0.029 A 
ATOM     19  C21 598 d   1      47.310  10.027   2.014  0.00  0.00    -0.040 A 
ATOM     20  C19 598 d   1      46.762  11.325   2.064  0.00  0.00     0.019 A 
ATOM     21  H3  598 d   1      48.033   9.726   2.763  0.00  0.00     0.089 H 
ATOM     22  S18 598 d   1      47.117  12.555   3.231  0.00  0.00    -0.085 SA
ATOM     23  C20 598 d   1      45.840  11.711   1.093  0.00  0.00    -0.000 A 
ATOM     24  C4  598 d   1      46.014  13.629   2.437  0.00  0.00     0.058 A 
ATOM     25  C3  598 d   1      45.591  14.969   2.649  0.00  0.00     0.112 A 
ATOM     26  C5  598 d   1      45.439  13.049   1.343  0.00  0.00     0.037 A 
ATOM     27  C2  598 d   1      44.683  15.334   1.685  0.00  0.00     0.117 A 
ATOM     28  S1  598 d   1      44.362  14.118   0.520  0.00  0.00    -0.078 SA
ATOM     29  C24 598 d   1      45.459  10.814   0.065  0.00  0.00    -0.068 A 
ATOM     30  C23 598 d   1      46.013   9.523   0.036  0.00  0.00    -0.057 A 
ATOM     31  H5  598 d   1      44.747  11.121  -0.692  0.00  0.00     0.085 H 
ATOM     32  H4  598 d   1      45.722   8.836  -0.750  0.00  0.00     0.086 H 
BRANCH  25  33
ATOM     33  O9  598 d   1      46.022  15.741   3.679  0.00  0.00    -0.338 OA
BRANCH  33  34
ATOM     34  C10 598 d   1      47.268  16.415   3.451  0.00  0.00     0.106 C 
ATOM     35  H1  598 d   1      47.179  17.100   2.595  0.00  0.00     0.091 H 
ATOM     36  H2  598 d   1      48.066  15.684   3.254  0.00  0.00     0.091 H 
BRANCH  34  37
ATOM     37  C11 598 d   1      47.572  17.199   4.727  0.00  0.00     0.198 C 
ATOM     38  O14 598 d   1      46.696  17.160   5.632  0.00  0.00    -0.646 OA
ATOM     39  O15 598 d   1      48.673  17.786   4.744  0.00  0.00    -0.646 OA
ENDBRANCH  34  37
ENDBRANCH  33  34
ENDBRANCH  25  33
BRANCH  27  40
ATOM     40  C6  598 d   1      43.967  16.716   1.523  0.00  0.00     0.219 C 
ATOM     41  O7  598 d   1      44.037  17.562   2.467  0.00  0.00    -0.643 OA
ATOM     42  O8  598 d   1      43.380  16.841   0.412  0.00  0.00    -0.643 OA
ENDBRANCH  27  40
ENDBRANCH  16  18
ENDBRANCH   1  16
BRANCH   4  43
ATOM     43  S44 598 d   1      50.672   4.294   4.548  0.00  0.00     0.232 S 
ATOM     44  O59 598 d   1      50.568   4.726   5.928  0.00  0.00    -0.205 OA
ATOM     45  O60 598 d   1      51.981   4.069   3.954  0.00  0.00    -0.205 OA
BRANCH  43  46
ATOM     46  C45 598 d   1      49.658   2.830   4.310  0.00  0.00     0.070 C 
ATOM     47  H16 598 d   1      48.731   2.930   4.894  0.00  0.00     0.066 H 
ATOM     48  H17 598 d   1      50.212   1.943   4.651  0.00  0.00     0.066 H 
BRANCH  46  49
ATOM     49  C46 598 d   1      49.315   2.674   2.849  0.00  0.00    -0.043 A 
ATOM     50  C49 598 d   1      48.025   2.994   2.382  0.00  0.00    -0.076 A 
ATOM     51  C50 598 d   1      47.695   2.855   1.024  0.00  0.00    -0.082 A 
ATOM     52  H18 598 d   1      47.277   3.352   3.080  0.00  0.00     0.084 H 
ATOM     53  C51 598 d   1      48.657   2.398   0.119  0.00  0.00    -0.083 A 
ATOM     54  H19 598 d   1      46.697   3.101   0.679  0.00  0.00     0.083 H 
ATOM     55  C52 598 d   1      49.948   2.076   0.567  0.00  0.00    -0.082 A 
ATOM     56  H20 598 d   1      48.406   2.292  -0.930  0.00  0.00     0.083 H 
ATOM     57  C53 598 d   1      50.276   2.212   1.925  0.00  0.00    -0.076 A 
ATOM     58  H21 598 d   1      50.693   1.722  -0.137  0.00  0.00     0.083 H 
ATOM     59  H22 598 d   1      51.274   1.960   2.266  0.00  0.00     0.084 H 
ENDBRANCH  46  49
ENDBRANCH  43  46
ENDBRANCH   4  43
TORSDOF 9
