REMARK  5 active torsions:
REMARK  status: ('A' for Active; 'I' for Inactive)
REMARK    1  A    between atoms: N_1  and  CA_2 
REMARK    2  A    between atoms: N_1  and  C1_6 
REMARK    3  A    between atoms: N_1  and  C2_7 
REMARK    4  A    between atoms: N_1  and  C3_8 
REMARK    5  A    between atoms: CA_2  and  C_3 
ROOT
ATOM      1  N   BET d   1      10.221  10.670  16.632  0.00  0.00    -0.069 N 
ENDROOT
BRANCH   1   2
ATOM      2  CA  BET d   1      10.259  10.002  17.951  0.00  0.00     0.162 C 
ATOM      3  H1  BET d   1       9.234   9.995  18.350  0.00  0.00     0.093 H 
ATOM      4  H2  BET d   1      10.905  10.602  18.610  0.00  0.00     0.093 H 
BRANCH   2   5
ATOM      5  C   BET d   1      10.770   8.584  17.979  0.00  0.00     0.199 C 
ATOM      6  O1  BET d   1      10.956   8.082  19.107  0.00  0.00    -0.647 OA
ATOM      7  O2  BET d   1      10.973   7.947  16.921  0.00  0.00    -0.647 OA
ENDBRANCH   2   5
ENDBRANCH   1   2
BRANCH   1   8
ATOM      8  C1  BET d   1      11.551  10.655  15.967  0.00  0.00     0.068 C 
ATOM      9  H3  BET d   1      11.479  11.160  14.992  0.00  0.00     0.068 H 
ATOM     10  H4  BET d   1      11.875   9.614  15.818  0.00  0.00     0.068 H 
ATOM     11  H5  BET d   1      12.283  11.180  16.599  0.00  0.00     0.068 H 
ENDBRANCH   1   8
BRANCH   1  12
ATOM     12  C2  BET d   1       9.180  10.052  15.781  0.00  0.00     0.068 C 
ATOM     13  H6  BET d   1       8.213  10.081  16.305  0.00  0.00     0.068 H 
ATOM     14  H7  BET d   1       9.451   9.007  15.570  0.00  0.00     0.068 H 
ATOM     15  H8  BET d   1       9.102  10.608  14.835  0.00  0.00     0.068 H 
ENDBRANCH   1  12
BRANCH   1  16
ATOM     16  C3  BET d   1       9.873  12.091  16.883  0.00  0.00     0.068 C 
ATOM     17  H9  BET d   1      10.646  12.552  17.516  0.00  0.00     0.068 H 
ATOM     18  H10 BET d   1       8.901  12.146  17.394  0.00  0.00     0.068 H 
ATOM     19  H11 BET d   1       9.815  12.629  15.925  0.00  0.00     0.068 H 
ENDBRANCH   1  16
TORSDOF 5
