REMARK  12 active torsions:
REMARK  status: ('A' for Active; 'I' for Inactive)
REMARK    1  A    between atoms: C1_1  and  C7_7 
REMARK    2  A    between atoms: C7_7  and  N1_8 
REMARK    3  A    between atoms: C8_12  and  C1'_13 
REMARK    4  A    between atoms: C3'_15  and  C31'_16 
REMARK    5  A    between atoms: C31'_16  and  C32'_17 
REMARK    6  A    between atoms: C31'_16  and  C42'_20 
REMARK    7  A    between atoms: C42'_20  and  C43'_21 
REMARK    8  A    between atoms: C5'_25  and  C1''_28 
REMARK    9  A    between atoms: C6'_26  and  O6'_27 
REMARK   10  A    between atoms: C2''_29  and  O2''_39 
REMARK   11  A    between atoms: C5''_32  and  C51_33 
REMARK   12  A    between atoms: C51_33  and  N52_34 
REMARK       I    between atoms: N52_34  and  C53_35 
REMARK       I    between atoms: C53_35  and  N55_37 
ROOT
ATOM      1  C1' C1B d   1     -12.893   4.759  10.332  0.00  0.00     0.044 A 
ATOM      2  C2' C1B d   1     -13.742   5.853  10.434  0.00  0.00    -0.060 A 
ATOM      3  C3' C1B d   1     -14.981   5.883   9.820  0.00  0.00    -0.041 A 
ATOM      4  C4' C1B d   1     -15.405   4.789   9.068  0.00  0.00    -0.062 A 
ATOM      5  C5' C1B d   1     -14.605   3.649   8.918  0.00  0.00     0.011 A 
ATOM      6  C6' C1B d   1     -13.347   3.662   9.567  0.00  0.00     0.090 A 
ATOM      7  H9  C1B d   1     -13.423   6.712  11.014  0.00  0.00     0.086 H 
ATOM      8  H13 C1B d   1     -16.376   4.821   8.588  0.00  0.00     0.085 H 
ENDROOT
BRANCH   5   9
ATOM      9  C1' C1B d   1     -15.064   2.566   8.155  0.00  0.00     0.011 A 
ATOM     10  C2' C1B d   1     -14.225   1.865   7.294  0.00  0.00     0.076 A 
ATOM     11  C3' C1B d   1     -14.663   0.792   6.572  0.00  0.00    -0.050 A 
ATOM     12  C4' C1B d   1     -15.961   0.373   6.668  0.00  0.00    -0.073 A 
ATOM     13  H15 C1B d   1     -13.976   0.268   5.917  0.00  0.00     0.087 H 
ATOM     14  C5' C1B d   1     -16.844   1.023   7.492  0.00  0.00    -0.039 A 
ATOM     15  H16 C1B d   1     -16.295  -0.480   6.088  0.00  0.00     0.084 H 
ATOM     16  C6' C1B d   1     -16.396   2.120   8.236  0.00  0.00    -0.062 A 
ATOM     17  H22 C1B d   1     -17.090   2.637   8.889  0.00  0.00     0.085 H 
BRANCH  10  18
ATOM     18  O2' C1B d   1     -12.910   2.233   7.100  0.00  0.00    -0.360 OA
ATOM     19  H23 C1B d   1     -12.709   2.984   7.646  0.00  0.00     0.217 HD
ENDBRANCH  10  18
BRANCH  14  20
ATOM     20  C51 C1B d   1     -18.280   0.508   7.553  0.00  0.00     0.021 C 
ATOM     21  H17 C1B d   1     -18.311  -0.557   7.282  0.00  0.00     0.071 H 
ATOM     22  H18 C1B d   1     -18.916   1.081   6.862  0.00  0.00     0.071 H 
BRANCH  20  23
ATOM     23  N52 C1B d   1     -18.750   0.691   8.946  0.00  0.00    -0.339 N 
ATOM     24  C53 C1B d   1     -19.561   1.686   9.234  0.00  0.00     0.314 C 
ATOM     25  O54 C1B d   1     -19.947   2.459   8.379  0.00  0.00    -0.248 OA
ATOM     26  N55 C1B d   1     -20.008   1.907  10.447  0.00  0.00    -0.352 N 
ATOM     27  H20 C1B d   1     -20.623   2.676  10.621  0.00  0.00     0.160 HD
ATOM     28  H21 C1B d   1     -19.733   1.307  11.198  0.00  0.00     0.160 HD
ATOM     29  H19 C1B d   1     -18.452   0.061   9.664  0.00  0.00     0.164 HD
ENDBRANCH  20  23
ENDBRANCH  14  20
ENDBRANCH   5   9
BRANCH   6  30
ATOM     30  O6' C1B d   1     -12.491   2.578   9.468  0.00  0.00    -0.359 OA
ATOM     31  H14 C1B d   1     -11.698   2.756   9.961  0.00  0.00     0.217 HD
ENDBRANCH   6  30
BRANCH   3  32
ATOM     32  C31 C1B d   1     -15.885   7.105  10.028  0.00  0.00     0.065 C 
ATOM     33  H10 C1B d   1     -15.493   7.680  10.880  0.00  0.00     0.065 H 
BRANCH  32  34
ATOM     34  C32 C1B d   1     -17.294   6.571  10.452  0.00  0.00     0.182 C 
ATOM     35  O33 C1B d   1     -17.348   6.023  11.549  0.00  0.00    -0.647 OA
ATOM     36  O34 C1B d   1     -18.248   6.706   9.706  0.00  0.00    -0.647 OA
ENDBRANCH  32  34
BRANCH  32  37
ATOM     37  C42 C1B d   1     -15.819   8.066   8.785  0.00  0.00     0.032 C 
ATOM     38  H11 C1B d   1     -16.645   8.788   8.861  0.00  0.00     0.051 H 
ATOM     39  H12 C1B d   1     -15.943   7.462   7.874  0.00  0.00     0.051 H 
BRANCH  37  40
ATOM     40  C43 C1B d   1     -14.471   8.867   8.669  0.00  0.00     0.173 C 
ATOM     41  O44 C1B d   1     -13.832   9.220   9.656  0.00  0.00    -0.648 OA
ATOM     42  O45 C1B d   1     -14.105   9.120   7.537  0.00  0.00    -0.648 OA
ENDBRANCH  37  40
ENDBRANCH  32  37
ENDBRANCH   3  32
BRANCH   1  43
ATOM     43  C8  C1B d   1     -11.643   4.762  10.970  0.00  0.00     0.142 A 
ATOM     44  N3  C1B d   1     -10.813   3.768  10.919  0.00  0.00    -0.228 NA
ATOM     45  C4  C1B d   1      -9.785   4.134  11.608  0.00  0.00     0.086 A 
ATOM     46  C3  C1B d   1      -8.635   3.459  11.870  0.00  0.00    -0.052 A 
ATOM     47  C5  C1B d   1     -10.040   5.359  12.058  0.00  0.00     0.063 A 
ATOM     48  C2  C1B d   1      -7.693   4.124  12.659  0.00  0.00    -0.067 A 
ATOM     49  H2  C1B d   1      -8.458   2.460  11.488  0.00  0.00     0.087 H 
ATOM     50  C1  C1B d   1      -7.923   5.437  13.165  0.00  0.00     0.009 A 
ATOM     51  H1  C1B d   1      -6.759   3.627  12.894  0.00  0.00     0.085 H 
ATOM     52  C6  C1B d   1      -9.149   6.059  12.839  0.00  0.00    -0.041 A 
ATOM     53  H3  C1B d   1      -9.381   7.057  13.193  0.00  0.00     0.088 H 
ATOM     54  N4  C1B d   1     -11.226   5.805  11.673  0.00  0.00    -0.338 N 
ATOM     55  H8  C1B d   1     -11.691   6.704  11.865  0.00  0.00     0.167 HD
BRANCH  50  56
ATOM     56  C7  C1B d   1      -6.965   6.070  13.952  0.00  0.00     0.102 C 
ATOM     57  N2  C1B d   1      -6.037   5.342  14.551  0.00  0.00    -0.385 N 
ATOM     58  H6  C1B d   1      -6.031   4.319  14.435  0.00  0.00     0.157 HD
ATOM     59  H7  C1B d   1      -5.320   5.799  15.133  0.00  0.00     0.157 HD
BRANCH  56  60
ATOM     60  N1  C1B d   1      -7.021   7.376  14.064  0.00  0.00    -0.385 N 
ATOM     61  H4  C1B d   1      -6.327   7.874  14.639  0.00  0.00     0.157 HD
ATOM     62  H5  C1B d   1      -7.760   7.904  13.577  0.00  0.00     0.157 HD
ENDBRANCH  56  60
ENDBRANCH  50  56
ENDBRANCH   1  43
TORSDOF 12
