REMARK  2 active torsions:
REMARK  status: ('A' for Active; 'I' for Inactive)
REMARK    1  A    between atoms: C3_8  and  C12_9 
REMARK    2  A    between atoms: C9_14  and  C_15 
ROOT
ATOM      1  C12 FBC d   1      21.435  84.889  55.725  0.00  0.00    -0.026 A 
ATOM      2  C7  FBC d   1      21.426  86.119  55.072  0.00  0.00    -0.071 A 
ATOM      3  C8  FBC d   1      21.425  86.208  53.683  0.00  0.00    -0.066 A 
ATOM      4  C11 FBC d   1      21.424  83.729  54.918  0.00  0.00    -0.071 A 
ATOM      5  C10 FBC d   1      21.397  83.813  53.514  0.00  0.00    -0.066 A 
ATOM      6  C9  FBC d   1      21.407  85.067  52.896  0.00  0.00     0.040 A 
ATOM      7  H4  FBC d   1      21.420  87.030  55.660  0.00  0.00     0.084 H 
ATOM      8  H5  FBC d   1      21.439  87.183  53.210  0.00  0.00     0.085 H 
ATOM      9  H6  FBC d   1      21.437  82.754  55.391  0.00  0.00     0.084 H 
ATOM     10  H7  FBC d   1      21.369  82.910  52.914  0.00  0.00     0.085 H 
ENDROOT
BRANCH   1  11
ATOM     11  C3  FBC d   1      21.445  84.860  57.135  0.00  0.00    -0.020 A 
ATOM     12  C4  FBC d   1      20.790  85.859  57.866  0.00  0.00    -0.035 A 
ATOM     13  C5  FBC d   1      20.776  85.867  59.266  0.00  0.00     0.120 A 
ATOM     14  H2  FBC d   1      20.278  86.651  57.331  0.00  0.00     0.089 H 
ATOM     15  C6  FBC d   1      21.422  84.860  59.956  0.00  0.00    -0.009 A 
ATOM     16  FL2 FBC d   1      20.134  86.845  59.949  0.00  0.00    -0.206 F 
ATOM     17  C1  FBC d   1      22.095  83.858  59.263  0.00  0.00     0.120 A 
ATOM     18  H1  FBC d   1      21.405  84.850  61.040  0.00  0.00     0.092 H 
ATOM     19  FL1 FBC d   1      22.734  82.884  59.947  0.00  0.00    -0.206 F 
ATOM     20  C2  FBC d   1      22.099  83.858  57.858  0.00  0.00    -0.035 A 
ATOM     21  H3  FBC d   1      22.617  83.069  57.326  0.00  0.00     0.089 H 
ENDBRANCH   1  11
BRANCH   6  22
ATOM     22  C   FBC d   1      21.423  85.223  51.394  0.00  0.00     0.209 C 
ATOM     23  OC3 FBC d   1      20.442  85.763  50.846  0.00  0.00    -0.644 OA
ATOM     24  OC1 FBC d   1      22.372  84.799  50.687  0.00  0.00    -0.644 OA
ENDBRANCH   6  22
TORSDOF 2
