REMARK  7 active torsions:
REMARK  status: ('A' for Active; 'I' for Inactive)
REMARK       I    between atoms: C17_2  and  N18_3 
REMARK       I    between atoms: C17_2  and  N16_12 
REMARK    1  A    between atoms: N18_3  and  C19_4 
REMARK    2  A    between atoms: N16_12  and  C11_13 
REMARK    3  A    between atoms: C9_15  and  C12_16 
REMARK    4  A    between atoms: C12_16  and  C15_17 
REMARK    5  A    between atoms: C12_16  and  C14_18 
REMARK    6  A    between atoms: C12_16  and  C13_19 
REMARK    7  A    between atoms: N7_21  and  C5_22 
ROOT
ATOM      1  C11 1PP d   1      11.377   0.056  30.312  0.00  0.00     0.135 A 
ATOM      2  C10 1PP d   1      11.157   0.774  29.130  0.00  0.00    -0.012 A 
ATOM      3  C9  1PP d   1      10.272   1.772  29.565  0.00  0.00     0.066 A 
ATOM      4  N8  1PP d   1       9.910   1.704  30.855  0.00  0.00    -0.169 NA
ATOM      5  N7  1PP d   1      10.626   0.580  31.308  0.00  0.00    -0.217 N 
ATOM      6  H6  1PP d   1      11.565   0.603  28.135  0.00  0.00     0.092 H 
ENDROOT
BRANCH   1   7
ATOM      7  N16 1PP d   1      12.100  -1.055  30.537  0.00  0.00    -0.293 N 
ATOM      8  C17 1PP d   1      13.286  -1.299  29.974  0.00  0.00     0.326 C 
ATOM      9  O27 1PP d   1      13.816  -0.500  29.214  0.00  0.00    -0.247 OA
ATOM     10  N18 1PP d   1      13.873  -2.458  30.284  0.00  0.00    -0.307 N 
ATOM     11  H1  1PP d   1      13.402  -3.070  30.919  0.00  0.00     0.170 HD
ATOM     12  H5  1PP d   1      11.727  -1.740  31.163  0.00  0.00     0.172 HD
BRANCH  10  13
ATOM     13  C19 1PP d   1      15.072  -2.853  29.787  0.00  0.00     0.059 A 
ATOM     14  C20 1PP d   1      15.219  -4.180  29.492  0.00  0.00     0.082 A 
ATOM     15 CL25 1PP d   1      13.877  -5.305  29.743  0.00  0.00    -0.080 Cl
ATOM     16  C21 1PP d   1      16.486  -4.709  28.928  0.00  0.00     0.058 A 
ATOM     17 CL26 1PP d   1      16.583  -6.468  28.608  0.00  0.00    -0.082 Cl
ATOM     18  C22 1PP d   1      17.551  -3.832  28.716  0.00  0.00    -0.060 A 
ATOM     19  C23 1PP d   1      17.360  -2.473  29.037  0.00  0.00    -0.079 A 
ATOM     20  H2  1PP d   1      18.495  -4.185  28.317  0.00  0.00     0.086 H 
ATOM     21  C24 1PP d   1      16.147  -1.988  29.549  0.00  0.00    -0.055 A 
ATOM     22  H3  1PP d   1      18.178  -1.779  28.883  0.00  0.00     0.083 H 
ATOM     23  H4  1PP d   1      16.041  -0.931  29.763  0.00  0.00     0.087 H 
ENDBRANCH  10  13
ENDBRANCH   1   7
BRANCH   5  24
ATOM     24  C5  1PP d   1      10.551   0.234  32.644  0.00  0.00     0.060 A 
ATOM     25  C6  1PP d   1      11.652  -0.118  33.426  0.00  0.00    -0.055 A 
ATOM     26  C1  1PP d   1      11.606  -0.387  34.828  0.00  0.00    -0.081 A 
ATOM     27  H16 1PP d   1      12.614  -0.193  32.932  0.00  0.00     0.087 H 
ATOM     28  C2  1PP d   1      10.376  -0.419  35.521  0.00  0.00    -0.083 A 
ATOM     29  H20 1PP d   1      12.528  -0.569  35.368  0.00  0.00     0.083 H 
ATOM     30  C3  1PP d   1       9.229  -0.101  34.770  0.00  0.00    -0.081 A 
ATOM     31  H19 1PP d   1      10.319  -0.674  36.573  0.00  0.00     0.083 H 
ATOM     32  C4  1PP d   1       9.347   0.221  33.377  0.00  0.00    -0.055 A 
ATOM     33  H18 1PP d   1       8.255  -0.099  35.245  0.00  0.00     0.083 H 
ATOM     34  H17 1PP d   1       8.437   0.475  32.845  0.00  0.00     0.087 H 
ENDBRANCH   5  24
BRANCH   3  35
ATOM     35  C12 1PP d   1       9.691   2.845  28.666  0.00  0.00    -0.005 C 
BRANCH  35  36
ATOM     36  C15 1PP d   1       8.620   2.156  27.820  0.00  0.00    -0.064 C 
ATOM     37  H7  1PP d   1       8.159   2.890  27.143  0.00  0.00     0.028 H 
ATOM     38  H8  1PP d   1       7.849   1.731  28.480  0.00  0.00     0.028 H 
ATOM     39  H9  1PP d   1       9.081   1.351  27.229  0.00  0.00     0.028 H 
ENDBRANCH  35  36
BRANCH  35  40
ATOM     40  C14 1PP d   1      10.808   3.461  27.824  0.00  0.00    -0.064 C 
ATOM     41  H10 1PP d   1      11.545   3.940  28.486  0.00  0.00     0.028 H 
ATOM     42  H11 1PP d   1      10.382   4.214  27.144  0.00  0.00     0.028 H 
ATOM     43  H12 1PP d   1      11.301   2.673  27.236  0.00  0.00     0.028 H 
ENDBRANCH  35  40
BRANCH  35  44
ATOM     44  C13 1PP d   1       9.055   3.933  29.531  0.00  0.00    -0.064 C 
ATOM     45  H13 1PP d   1       8.250   3.494  30.139  0.00  0.00     0.028 H 
ATOM     46  H14 1PP d   1       8.639   4.719  28.884  0.00  0.00     0.028 H 
ATOM     47  H15 1PP d   1       9.818   4.369  30.192  0.00  0.00     0.028 H 
ENDBRANCH  35  44
ENDBRANCH   3  35
TORSDOF 7
