REMARK  12 active torsions:
REMARK  status: ('A' for Active; 'I' for Inactive)
REMARK    1  A    between atoms: C1_1  and  O2_2 
REMARK    2  A    between atoms: O2_2  and  C3_3 
REMARK    3  A    between atoms: C9_9  and  N10_10 
REMARK    4  A    between atoms: N10_10  and  C11_11 
REMARK    5  A    between atoms: C13_13  and  N14_14 
REMARK       I    between atoms: N14_14  and  C15_15 
REMARK    6  A    between atoms: C15_15  and  C17_17 
REMARK    7  A    between atoms: C21_21  and  N23_23 
REMARK    8  A    between atoms: C31_31  and  C32_32 
REMARK    9  A    between atoms: C35_35  and  O36_36 
REMARK   10  A    between atoms: O36_36  and  C37_37 
REMARK   11  A    between atoms: C37_37  and  C38_38 
REMARK   12  A    between atoms: C38_38  and  N39_39 
ROOT
ATOM      1  N10 AQZ d   1      -4.135   1.372  20.141  0.00  0.00    -0.340 N 
ATOM      2  H6  AQZ d   1      -3.966   2.189  20.745  0.00  0.00     0.167 HD
ENDROOT
BRANCH   1   3
ATOM      3  C9  AQZ d   1      -4.076   0.102  20.750  0.00  0.00     0.142 A 
ATOM      4  N8  AQZ d   1      -4.066  -0.981  19.965  0.00  0.00    -0.224 NA
ATOM      5  C7  AQZ d   1      -3.976  -2.170  20.570  0.00  0.00     0.089 A 
ATOM      6  N6  AQZ d   1      -3.918  -2.363  21.879  0.00  0.00    -0.241 NA
ATOM      7  H5  AQZ d   1      -3.948  -3.049  19.936  0.00  0.00     0.146 H 
ATOM      8  C5  AQZ d   1      -3.949  -1.282  22.648  0.00  0.00     0.075 A 
ATOM      9  C4  AQZ d   1      -3.895  -1.488  24.017  0.00  0.00    -0.019 A 
ATOM     10  C33 AQZ d   1      -4.035   0.025  22.137  0.00  0.00     0.042 A 
ATOM     11  C3  AQZ d   1      -3.924  -0.424  24.935  0.00  0.00     0.103 A 
ATOM     12  H4  AQZ d   1      -3.828  -2.503  24.392  0.00  0.00     0.091 H 
ATOM     13  C35 AQZ d   1      -3.996   0.884  24.426  0.00  0.00     0.103 A 
ATOM     14  C34 AQZ d   1      -4.046   1.132  23.020  0.00  0.00    -0.032 A 
ATOM     15  H25 AQZ d   1      -4.091   2.145  22.637  0.00  0.00     0.089 H 
BRANCH  11  16
ATOM     16  O2  AQZ d   1      -3.876  -0.517  26.330  0.00  0.00    -0.353 OA
BRANCH  16  17
ATOM     17  C1  AQZ d   1      -3.991  -1.788  26.967  0.00  0.00     0.010 C 
ATOM     18  H1  AQZ d   1      -3.931  -1.658  28.058  0.00  0.00     0.066 H 
ATOM     19  H2  AQZ d   1      -3.174  -2.442  26.630  0.00  0.00     0.066 H 
ATOM     20  H3  AQZ d   1      -4.957  -2.244  26.705  0.00  0.00     0.066 H 
ENDBRANCH  16  17
ENDBRANCH  11  16
BRANCH  13  21
ATOM     21  O36 AQZ d   1      -4.013   1.841  25.399  0.00  0.00    -0.347 OA
BRANCH  21  22
ATOM     22  C37 AQZ d   1      -3.852   3.185  24.929  0.00  0.00     0.049 C 
ATOM     23  H26 AQZ d   1      -4.697   3.442  24.274  0.00  0.00     0.077 H 
ATOM     24  H27 AQZ d   1      -2.912   3.260  24.362  0.00  0.00     0.077 H 
BRANCH  22  25
ATOM     25  C38 AQZ d   1      -3.809   4.181  26.122  0.00  0.00     0.103 C 
ATOM     26  H28 AQZ d   1      -4.835   4.330  26.488  0.00  0.00     0.079 H 
ATOM     27  H29 AQZ d   1      -3.406   5.139  25.761  0.00  0.00     0.079 H 
BRANCH  25  28
ATOM     28  N39 AQZ d   1      -2.975   3.718  27.246  0.00  0.00    -0.069 N 
ATOM     29  C40 AQZ d   1      -3.189   4.309  28.576  0.00  0.00     0.084 C 
ATOM     30  C41 AQZ d   1      -2.241   3.433  29.381  0.00  0.00    -0.041 C 
ATOM     31  H31 AQZ d   1      -4.232   4.205  28.911  0.00  0.00     0.076 H 
ATOM     32  H32 AQZ d   1      -2.898   5.369  28.608  0.00  0.00     0.076 H 
ATOM     33  C42 AQZ d   1      -1.001   3.488  28.493  0.00  0.00    -0.041 C 
ATOM     34  H33 AQZ d   1      -2.623   2.407  29.484  0.00  0.00     0.035 H 
ATOM     35  H34 AQZ d   1      -2.046   3.853  30.379  0.00  0.00     0.035 H 
ATOM     36  C43 AQZ d   1      -1.513   3.732  27.063  0.00  0.00     0.084 C 
ATOM     37  H35 AQZ d   1      -0.451   2.537  28.545  0.00  0.00     0.035 H 
ATOM     38  H36 AQZ d   1      -0.342   4.310  28.808  0.00  0.00     0.035 H 
ATOM     39  H37 AQZ d   1      -1.169   4.703  26.677  0.00  0.00     0.076 H 
ATOM     40  H38 AQZ d   1      -1.189   2.931  26.382  0.00  0.00     0.076 H 
ATOM     41  H30 AQZ d   1      -3.231   2.747  27.337  0.00  0.00     0.280 HD
ENDBRANCH  25  28
ENDBRANCH  22  25
ENDBRANCH  21  22
ENDBRANCH  13  21
ENDBRANCH   1   3
BRANCH   1  42
ATOM     42  C11 AQZ d   1      -4.403   1.623  18.789  0.00  0.00     0.041 A 
ATOM     43  C12 AQZ d   1      -3.423   2.217  17.979  0.00  0.00    -0.031 A 
ATOM     44  C13 AQZ d   1      -3.716   2.519  16.640  0.00  0.00     0.037 A 
ATOM     45  H7  AQZ d   1      -2.444   2.442  18.386  0.00  0.00     0.090 H 
ATOM     46  C29 AQZ d   1      -4.969   2.193  16.130  0.00  0.00    -0.057 A 
ATOM     47  C30 AQZ d   1      -5.936   1.621  16.927  0.00  0.00    -0.073 A 
ATOM     48  H20 AQZ d   1      -5.188   2.393  15.087  0.00  0.00     0.086 H 
ATOM     49  C31 AQZ d   1      -5.692   1.311  18.253  0.00  0.00    -0.035 A 
ATOM     50  H21 AQZ d   1      -6.912   1.409  16.505  0.00  0.00     0.084 H 
BRANCH  44  51
ATOM     51  N14 AQZ d   1      -2.721   3.114  15.837  0.00  0.00    -0.323 N 
ATOM     52  C15 AQZ d   1      -1.361   2.865  15.910  0.00  0.00     0.256 C 
ATOM     53  O16 AQZ d   1      -0.825   2.072  16.710  0.00  0.00    -0.267 OA
ATOM     54  H8  AQZ d   1      -3.026   3.776  15.152  0.00  0.00     0.169 HD
BRANCH  52  55
ATOM     55  C17 AQZ d   1      -0.498   3.580  14.897  0.00  0.00     0.037 A 
ATOM     56  C18 AQZ d   1      -0.771   4.825  14.288  0.00  0.00    -0.051 A 
ATOM     57  C19 AQZ d   1       0.148   5.299  13.345  0.00  0.00     0.005 A 
ATOM     58  H9  AQZ d   1      -1.659   5.392  14.542  0.00  0.00     0.087 H 
ATOM     59  N20 AQZ d   1       1.283   4.604  12.977  0.00  0.00    -0.243 NA
ATOM     60  H10 AQZ d   1      -0.041   6.260  12.880  0.00  0.00     0.114 H 
ATOM     61  C21 AQZ d   1       1.526   3.401  13.531  0.00  0.00     0.126 A 
ATOM     62  C22 AQZ d   1       0.635   2.870  14.487  0.00  0.00    -0.024 A 
ATOM     63  H11 AQZ d   1       0.832   1.893  14.912  0.00  0.00     0.090 H 
BRANCH  61  64
ATOM     64  N23 AQZ d   1       2.675   2.673  13.137  0.00  0.00    -0.362 N 
ATOM     65  C24 AQZ d   1       3.881   3.391  12.636  0.00  0.00     0.016 C 
ATOM     66  C25 AQZ d   1       4.934   2.408  12.026  0.00  0.00     0.034 C 
ATOM     67  H12 AQZ d   1       4.345   3.934  13.473  0.00  0.00     0.067 H 
ATOM     68  H13 AQZ d   1       3.572   4.107  11.860  0.00  0.00     0.067 H 
ATOM     69  O26 AQZ d   1       5.031   1.217  12.809  0.00  0.00    -0.388 OA
ATOM     70  H14 AQZ d   1       5.916   2.903  11.999  0.00  0.00     0.076 H 
ATOM     71  H15 AQZ d   1       4.629   2.143  11.003  0.00  0.00     0.076 H 
ATOM     72  C27 AQZ d   1       3.718   0.631  12.845  0.00  0.00     0.034 C 
ATOM     73  C28 AQZ d   1       2.932   1.426  13.858  0.00  0.00     0.016 C 
ATOM     74  H16 AQZ d   1       3.779  -0.424  13.152  0.00  0.00     0.076 H 
ATOM     75  H17 AQZ d   1       3.243   0.698  11.855  0.00  0.00     0.076 H 
ATOM     76  H18 AQZ d   1       1.993   0.917  14.123  0.00  0.00     0.067 H 
ATOM     77  H19 AQZ d   1       3.522   1.606  14.769  0.00  0.00     0.067 H 
ENDBRANCH  61  64
ENDBRANCH  52  55
ENDBRANCH  44  51
BRANCH  49  78
ATOM     78  C32 AQZ d   1      -6.844   0.687  19.023  0.00  0.00    -0.049 C 
ATOM     79  H22 AQZ d   1      -6.528   0.488  20.058  0.00  0.00     0.033 H 
ATOM     80  H23 AQZ d   1      -7.138  -0.257  18.541  0.00  0.00     0.033 H 
ATOM     81  H24 AQZ d   1      -7.699   1.379  19.027  0.00  0.00     0.033 H 
ENDBRANCH  49  78
ENDBRANCH   1  42
TORSDOF 12
