REMARK  6 active torsions:
REMARK  status: ('A' for Active; 'I' for Inactive)
REMARK    1  A    between atoms: N1_1  and  C2_2 
REMARK    2  A    between atoms: C3_3  and  C14_14 
REMARK    3  A    between atoms: N6_6  and  C7_7 
REMARK    4  A    between atoms: C14_14  and  C16_16 
REMARK    5  A    between atoms: C20_20  and  O21_21 
REMARK    6  A    between atoms: O21_21  and  C22_22 
ROOT
ATOM      1  C16 PQA d   1      -1.740  -1.702  23.948  0.00  0.00     0.018 A 
ATOM      2  C17 PQA d   1      -0.623  -0.856  24.065  0.00  0.00    -0.069 A 
ATOM      3  C18 PQA d   1       0.041  -0.751  25.295  0.00  0.00    -0.079 A 
ATOM      4  C19 PQA d   1      -0.402  -1.491  26.387  0.00  0.00    -0.051 A 
ATOM      5  C20 PQA d   1      -1.505  -2.335  26.271  0.00  0.00     0.070 A 
ATOM      6  C28 PQA d   1      -2.181  -2.452  25.053  0.00  0.00    -0.037 A 
ATOM      7  H8  PQA d   1      -0.277  -0.288  23.209  0.00  0.00     0.085 H 
ATOM      8  H9  PQA d   1       0.898  -0.095  25.395  0.00  0.00     0.083 H 
ATOM      9  H10 PQA d   1       0.115  -1.410  27.336  0.00  0.00     0.087 H 
ATOM     10  H22 PQA d   1      -3.035  -3.113  24.961  0.00  0.00     0.089 H 
ENDROOT
BRANCH   1  11
ATOM     11  C14 PQA d   1      -2.470  -1.839  22.665  0.00  0.00     0.197 C 
ATOM     12  O15 PQA d   1      -2.865  -2.954  22.322  0.00  0.00    -0.286 OA
BRANCH  11  13
ATOM     13  C3  PQA d   1      -2.745  -0.682  21.838  0.00  0.00     0.079 A 
ATOM     14  C2  PQA d   1      -3.209  -0.767  20.538  0.00  0.00     0.139 A 
ATOM     15  N6  PQA d   1      -3.348   0.536  20.070  0.00  0.00    -0.217 N 
ATOM     16  N5  PQA d   1      -3.014   1.441  21.036  0.00  0.00    -0.177 NA
ATOM     17  C4  PQA d   1      -2.645   0.702  22.082  0.00  0.00     0.040 A 
ATOM     18  H3  PQA d   1      -2.302   1.123  23.026  0.00  0.00     0.119 H 
BRANCH  14  19
ATOM     19  N1  PQA d   1      -3.472  -1.876  19.805  0.00  0.00    -0.383 N 
ATOM     20  H1  PQA d   1      -3.345  -2.810  20.221  0.00  0.00     0.157 HD
ATOM     21  H2  PQA d   1      -3.799  -1.785  18.832  0.00  0.00     0.157 HD
ENDBRANCH  14  19
BRANCH  15  22
ATOM     22  C7  PQA d   1      -3.856   0.958  18.821  0.00  0.00     0.060 A 
ATOM     23  C8  PQA d   1      -3.131   1.557  17.790  0.00  0.00    -0.052 A 
ATOM     24  C9  PQA d   1      -3.790   1.915  16.615  0.00  0.00    -0.043 A 
ATOM     25  H4  PQA d   1      -2.069   1.742  17.901  0.00  0.00     0.087 H 
ATOM     26  C10 PQA d   1      -5.149   1.671  16.464  0.00  0.00     0.116 A 
ATOM     27  H5  PQA d   1      -3.237   2.388  15.812  0.00  0.00     0.088 H 
ATOM     28  F11 PQA d   1      -5.765   2.029  15.330  0.00  0.00    -0.206 F 
ATOM     29  C12 PQA d   1      -5.882   1.061  17.473  0.00  0.00    -0.043 A 
ATOM     30  C13 PQA d   1      -5.236   0.708  18.653  0.00  0.00    -0.052 A 
ATOM     31  H6  PQA d   1      -6.940   0.863  17.343  0.00  0.00     0.088 H 
ATOM     32  H7  PQA d   1      -5.797   0.236  19.452  0.00  0.00     0.087 H 
ENDBRANCH  15  22
ENDBRANCH  11  13
ENDBRANCH   1  11
BRANCH   5  33
ATOM     33  O21 PQA d   1      -1.871  -3.009  27.411  0.00  0.00    -0.346 OA
BRANCH  33  34
ATOM     34  C22 PQA d   1      -3.236  -2.804  27.801  0.00  0.00     0.048 C 
ATOM     35  C23 PQA d   1      -3.774  -4.123  28.359  0.00  0.00    -0.018 C 
ATOM     36  C24 PQA d   1      -3.238  -4.437  29.758  0.00  0.00     0.084 C 
ATOM     37  H12 PQA d   1      -3.482  -4.937  27.680  0.00  0.00     0.039 H 
ATOM     38  H13 PQA d   1      -4.871  -4.062  28.408  0.00  0.00     0.039 H 
ATOM     39  N25 PQA d   1      -2.284  -3.443  30.277  0.00  0.00    -0.075 N 
ATOM     40  H14 PQA d   1      -2.733  -5.414  29.723  0.00  0.00     0.075 H 
ATOM     41  H15 PQA d   1      -4.091  -4.490  30.450  0.00  0.00     0.075 H 
ATOM     42  C26 PQA d   1      -2.770  -2.062  30.223  0.00  0.00     0.084 C 
ATOM     43  H16 PQA d   1      -1.438  -3.502  29.733  0.00  0.00     0.277 HD
ATOM     44  H17 PQA d   1      -2.082  -3.670  31.238  0.00  0.00     0.277 HD
ATOM     45  C27 PQA d   1      -3.287  -1.670  28.838  0.00  0.00    -0.018 C 
ATOM     46  H18 PQA d   1      -1.944  -1.388  30.494  0.00  0.00     0.075 H 
ATOM     47  H19 PQA d   1      -3.589  -1.949  30.949  0.00  0.00     0.075 H 
ATOM     48  H20 PQA d   1      -4.332  -1.343  28.940  0.00  0.00     0.039 H 
ATOM     49  H21 PQA d   1      -2.676  -0.835  28.466  0.00  0.00     0.039 H 
ATOM     50  H11 PQA d   1      -3.834  -2.514  26.925  0.00  0.00     0.084 H 
ENDBRANCH  33  34
ENDBRANCH   5  33
TORSDOF 6
