REMARK  8 active torsions:
REMARK  status: ('A' for Active; 'I' for Inactive)
REMARK    1  A    between atoms: P_2  and  O4_5 
REMARK    2  A    between atoms: O4_5  and  C4_6 
REMARK    3  A    between atoms: C4_6  and  C3_7 
REMARK    4  A    between atoms: C3_7  and  O3_8 
REMARK    5  A    between atoms: C3_7  and  C2_9 
REMARK    6  A    between atoms: C2_9  and  O2_10 
REMARK    7  A    between atoms: C2_9  and  C1_11 
REMARK       I    between atoms: C1_11  and  N_13 
REMARK    8  A    between atoms: N_13  and  ON_14 
ROOT
ATOM      1  C3  RES d   1      26.667  -9.486  15.219  0.00  0.00     0.090 C 
ATOM      2  H3  RES d   1      25.919 -10.287  15.122  0.00  0.00     0.091 H 
ENDROOT
BRANCH   1   3
ATOM      3  C4  RES d   1      28.051 -10.117  15.225  0.00  0.00     0.059 C 
ATOM      4  H1  RES d   1      28.256 -10.569  14.243  0.00  0.00     0.079 H 
ATOM      5  H2  RES d   1      28.808  -9.348  15.440  0.00  0.00     0.079 H 
BRANCH   3   6
ATOM      6  O4  RES d   1      28.088 -11.123  16.234  0.00  0.00    -0.280 OA
BRANCH   6   7
ATOM      7  P   RES d   1      29.242 -12.241  16.228  0.00  0.00     0.422 P 
ATOM      8  O7  RES d   1      30.513 -11.469  16.463  0.00  0.00    -0.617 OA
ATOM      9  O5  RES d   1      28.847 -13.171  17.345  0.00  0.00    -0.617 OA
ATOM     10  O6  RES d   1      29.170 -12.864  14.855  0.00  0.00    -0.617 OA
ENDBRANCH   6   7
ENDBRANCH   3   6
ENDBRANCH   1   3
BRANCH   1  11
ATOM     11  O3  RES d   1      26.460  -8.797  16.444  0.00  0.00    -0.390 OA
ATOM     12  H4  RES d   1      27.119  -8.119  16.540  0.00  0.00     0.210 HD
ENDBRANCH   1  11
BRANCH   1  13
ATOM     13  C2  RES d   1      26.480  -8.502  14.068  0.00  0.00     0.140 C 
ATOM     14  H5  RES d   1      27.124  -7.625  14.229  0.00  0.00     0.102 H 
BRANCH  13  15
ATOM     15  O2  RES d   1      26.822  -9.104  12.827  0.00  0.00    -0.383 OA
ATOM     16  H6  RES d   1      27.731  -9.380  12.850  0.00  0.00     0.210 HD
ENDBRANCH  13  15
BRANCH  13  17
ATOM     17  C1  RES d   1      25.043  -8.073  14.059  0.00  0.00     0.272 C 
ATOM     18  O1  RES d   1      24.151  -8.904  13.988  0.00  0.00    -0.268 OA
ATOM     19  N   RES d   1      24.801  -6.772  14.153  0.00  0.00    -0.235 N 
ATOM     20  H7  RES d   1      25.550  -6.113  14.218  0.00  0.00     0.197 HD
BRANCH  19  21
ATOM     21  ON  RES d   1      23.469  -6.349  14.159  0.00  0.00    -0.287 OA
ATOM     22  H8  RES d   1      23.018  -6.738  14.899  0.00  0.00     0.244 HD
ENDBRANCH  19  21
ENDBRANCH  13  17
ENDBRANCH   1  13
TORSDOF 8
