REMARK  7 active torsions:
REMARK  status: ('A' for Active; 'I' for Inactive)
REMARK    1  A    between atoms: C1_2  and  C2_4 
REMARK    2  A    between atoms: C2_4  and  O2_5 
REMARK    3  A    between atoms: C2_4  and  C3_6 
REMARK    4  A    between atoms: C3_6  and  O3_7 
REMARK    5  A    between atoms: C3_6  and  C4_8 
REMARK    6  A    between atoms: C4_8  and  O4_9 
REMARK    7  A    between atoms: O4_9  and  P_10 
ROOT
ATOM      1  C3  DEZ d   1      26.545  -9.250  15.101  0.00  0.00     0.091 C 
ATOM      2  H3  DEZ d   1      25.743  -9.989  14.959  0.00  0.00     0.091 H 
ENDROOT
BRANCH   1   3
ATOM      3  C2  DEZ d   1      26.425  -8.184  14.011  0.00  0.00     0.145 C 
ATOM      4  H1  DEZ d   1      27.144  -7.378  14.218  0.00  0.00     0.104 H 
BRANCH   3   5
ATOM      5  C1  DEZ d   1      25.034  -7.612  14.002  0.00  0.00     0.205 C 
ATOM      6  OH2 DEZ d   1      24.107  -8.305  13.531  0.00  0.00    -0.646 OA
ATOM      7  OH1 DEZ d   1      24.849  -6.465  14.467  0.00  0.00    -0.646 OA
ENDBRANCH   3   5
BRANCH   3   8
ATOM      8  O2  DEZ d   1      26.717  -8.752  12.740  0.00  0.00    -0.382 OA
ATOM      9  H2  DEZ d   1      26.657  -8.079  12.072  0.00  0.00     0.210 HD
ENDBRANCH   3   8
ENDBRANCH   1   3
BRANCH   1  10
ATOM     10  O3  DEZ d   1      26.388  -8.639  16.376  0.00  0.00    -0.390 OA
ATOM     11  H4  DEZ d   1      27.064  -7.983  16.497  0.00  0.00     0.210 HD
ENDBRANCH   1  10
BRANCH   1  12
ATOM     12  C4  DEZ d   1      27.890  -9.974  15.032  0.00  0.00     0.059 C 
ATOM     13  H5  DEZ d   1      28.698  -9.230  14.971  0.00  0.00     0.079 H 
ATOM     14  H6  DEZ d   1      27.911 -10.613  14.137  0.00  0.00     0.079 H 
BRANCH  12  15
ATOM     15  O4  DEZ d   1      28.086 -10.787  16.195  0.00  0.00    -0.280 OA
BRANCH  15  16
ATOM     16  P   DEZ d   1      29.065 -12.068  16.197  0.00  0.00     0.422 P 
ATOM     17  O1P DEZ d   1      30.436 -11.536  16.515  0.00  0.00    -0.617 OA
ATOM     18  O2P DEZ d   1      28.970 -12.638  14.807  0.00  0.00    -0.617 OA
ATOM     19  O3P DEZ d   1      28.478 -12.954  17.264  0.00  0.00    -0.617 OA
ENDBRANCH  15  16
ENDBRANCH  12  15
ENDBRANCH   1  12
TORSDOF 7
