REMARK  15 active torsions:
REMARK  status: ('A' for Active; 'I' for Inactive)
REMARK    1  A    between atoms: C6_6  and  N6_7 
REMARK    2  A    between atoms: C1_11  and  N9_10 
REMARK    3  A    between atoms: C2_12  and  O2_13 
REMARK    4  A    between atoms: C3_14  and  O3_15 
REMARK    5  A    between atoms: C5_18  and  C4_17 
REMARK    6  A    between atoms: O5_19  and  C5_18 
REMARK    7  A    between atoms: PA_20  and  O5_19 
REMARK    8  A    between atoms: O3A_23  and  PA_20 
REMARK    9  A    between atoms: PB_24  and  O3A_23 
REMARK   10  A    between atoms: RO5_27  and  PB_24 
REMARK   11  A    between atoms: RC5_28  and  RO5_27 
REMARK   12  A    between atoms: RC4_36  and  RC5_28 
REMARK   13  A    between atoms: RC1_31  and  RO1_30 
REMARK   14  A    between atoms: RC2_33  and  RO2_32 
REMARK   15  A    between atoms: RC3_35  and  RO3_34 
ROOT
ATOM      1  C5  AR6 d   1     -17.212  24.841   4.361  0.00  0.00     0.058 C 
ATOM      2  H11 AR6 d   1     -17.204  25.700   5.048  0.00  0.00     0.079 H 
ATOM      3  H12 AR6 d   1     -16.201  24.686   3.957  0.00  0.00     0.079 H 
ENDROOT
BRANCH   1   4
ATOM      4  C4  AR6 d   1     -18.176  25.119   3.216  0.00  0.00     0.089 C 
ATOM      5  C3  AR6 d   1     -19.658  24.733   3.466  0.00  0.00     0.091 C 
ATOM      6  C2  AR6 d   1     -19.895  23.475   2.642  0.00  0.00     0.105 C 
ATOM      7  H8  AR6 d   1     -19.818  24.516   4.532  0.00  0.00     0.091 H 
ATOM      8  C1  AR6 d   1     -18.909  23.748   1.492  0.00  0.00     0.139 C 
ATOM      9  H6  AR6 d   1     -19.575  22.594   3.217  0.00  0.00     0.093 H 
ATOM     10  O4  AR6 d   1     -17.769  24.240   2.147  0.00  0.00    -0.353 OA
ATOM     11  H5  AR6 d   1     -19.330  24.502   0.811  0.00  0.00     0.122 H 
ATOM     12  H10 AR6 d   1     -18.109  26.178   2.928  0.00  0.00     0.090 H 
BRANCH   5  13
ATOM     13  O3  AR6 d   1     -20.518  25.792   3.081  0.00  0.00    -0.390 OA
ATOM     14  H9  AR6 d   1     -20.368  26.004   2.167  0.00  0.00     0.210 HD
ENDBRANCH   5  13
BRANCH   6  15
ATOM     15  O2  AR6 d   1     -21.232  23.218   2.207  0.00  0.00    -0.388 OA
ATOM     16  H7  AR6 d   1     -21.785  23.059   2.963  0.00  0.00     0.210 HD
ENDBRANCH   6  15
BRANCH   8  17
ATOM     17  N9  AR6 d   1     -18.532  22.560   0.710  0.00  0.00    -0.294 N 
ATOM     18  C4  AR6 d   1     -18.048  22.627  -0.556  0.00  0.00     0.167 A 
ATOM     19  N3  AR6 d   1     -17.870  23.766  -1.286  0.00  0.00    -0.222 NA
ATOM     20  C5  AR6 d   1     -17.733  21.388  -1.061  0.00  0.00     0.149 A 
ATOM     21  C2  AR6 d   1     -17.373  23.694  -2.539  0.00  0.00     0.091 A 
ATOM     22  N1  AR6 d   1     -17.036  22.465  -3.091  0.00  0.00    -0.222 NA
ATOM     23  H1  AR6 d   1     -17.236  24.601  -3.118  0.00  0.00     0.146 H 
ATOM     24  C6  AR6 d   1     -17.193  21.281  -2.394  0.00  0.00     0.155 A 
ATOM     25  N7  AR6 d   1     -18.033  20.476  -0.087  0.00  0.00    -0.236 NA
ATOM     26  C8  AR6 d   1     -18.496  21.208   0.936  0.00  0.00     0.071 A 
ATOM     27  H4  AR6 d   1     -18.819  20.763   1.876  0.00  0.00     0.144 H 
BRANCH  24  28
ATOM     28  N6  AR6 d   1     -16.865  20.139  -2.929  0.00  0.00    -0.382 N 
ATOM     29  H2  AR6 d   1     -16.988  19.266  -2.396  0.00  0.00     0.157 HD
ATOM     30  H3  AR6 d   1     -16.482  20.109  -3.885  0.00  0.00     0.157 HD
ENDBRANCH  24  28
ENDBRANCH   8  17
ENDBRANCH   1   4
BRANCH   1  31
ATOM     31  O5  AR6 d   1     -17.635  23.634   5.094  0.00  0.00    -0.287 OA
BRANCH  31  32
ATOM     32  PA  AR6 d   1     -16.564  22.760   5.783  0.00  0.00     0.417 P 
ATOM     33  O1A AR6 d   1     -15.913  21.895   4.720  0.00  0.00    -0.624 OA
ATOM     34  O2A AR6 d   1     -17.280  21.922   6.863  0.00  0.00    -0.624 OA
BRANCH  32  35
ATOM     35  O3A AR6 d   1     -15.470  23.645   6.410  0.00  0.00    -0.180 OA
BRANCH  35  36
ATOM     36  PB  AR6 d   1     -15.371  24.428   7.777  0.00  0.00     0.417 P 
ATOM     37  O1B AR6 d   1     -16.718  24.931   8.325  0.00  0.00    -0.624 OA
ATOM     38  O2B AR6 d   1     -14.344  25.504   7.619  0.00  0.00    -0.624 OA
BRANCH  36  39
ATOM     39  RO5 AR6 d   1     -14.771  23.311   8.691  0.00  0.00    -0.287 OA
BRANCH  39  40
ATOM     40  RC5 AR6 d   1     -13.366  22.976   8.576  0.00  0.00     0.058 C 
ATOM     41  H13 AR6 d   1     -12.755  23.691   9.146  0.00  0.00     0.079 H 
ATOM     42  H14 AR6 d   1     -13.055  22.987   7.521  0.00  0.00     0.079 H 
BRANCH  40  43
ATOM     43  RC4 AR6 d   1     -13.221  21.579   9.154  0.00  0.00     0.090 C 
ATOM     44  RO4 AR6 d   1     -14.012  20.641   8.361  0.00  0.00    -0.349 OA
ATOM     45  RC1 AR6 d   1     -13.265  19.637   7.674  0.00  0.00     0.156 C 
ATOM     46  RC2 AR6 d   1     -11.827  20.094   7.799  0.00  0.00     0.110 C 
ATOM     47  H16 AR6 d   1     -13.549  19.597   6.612  0.00  0.00     0.133 H 
ATOM     48  RC3 AR6 d   1     -11.896  20.827   9.127  0.00  0.00     0.092 C 
ATOM     49  H18 AR6 d   1     -11.617  20.819   6.999  0.00  0.00     0.094 H 
ATOM     50  H20 AR6 d   1     -11.090  21.576   9.133  0.00  0.00     0.091 H 
ATOM     51  H21 AR6 d   1     -13.578  21.628  10.193  0.00  0.00     0.090 H 
BRANCH  45  52
ATOM     52  RO1 AR6 d   1     -13.544  18.354   8.277  0.00  0.00    -0.369 OA
ATOM     53  H15 AR6 d   1     -13.291  18.374   9.193  0.00  0.00     0.212 HD
ENDBRANCH  45  52
BRANCH  46  54
ATOM     54  RO2 AR6 d   1     -10.808  19.094   7.695  0.00  0.00    -0.388 OA
ATOM     55  H17 AR6 d   1     -10.929  18.448   8.381  0.00  0.00     0.210 HD
ENDBRANCH  46  54
BRANCH  48  56
ATOM     56  RO3 AR6 d   1     -11.677  20.001  10.265  0.00  0.00    -0.390 OA
ATOM     57  H19 AR6 d   1     -12.336  19.317  10.290  0.00  0.00     0.210 HD
ENDBRANCH  48  56
ENDBRANCH  40  43
ENDBRANCH  39  40
ENDBRANCH  36  39
ENDBRANCH  35  36
ENDBRANCH  32  35
ENDBRANCH  31  32
ENDBRANCH   1  31
TORSDOF 15
