REMARK  8 active torsions:
REMARK  status: ('A' for Active; 'I' for Inactive)
REMARK    1  A    between atoms: O3A_8  and  PB_1 
REMARK    2  A    between atoms: PA_5  and  O3A_8 
REMARK    3  A    between atoms: PA_5  and  O5_9 
REMARK    4  A    between atoms: O5_9  and  C5_10 
REMARK    5  A    between atoms: C5_10  and  C4_11 
REMARK    6  A    between atoms: C3_13  and  O3_14 
REMARK    7  A    between atoms: C2_15  and  O2_16 
REMARK    8  A    between atoms: C1_17  and  N9_18 
ROOT
ATOM      1  C4  ADP d   1      13.298  79.229  -3.241  0.00  0.00     0.089 C 
ATOM      2  O4  ADP d   1      14.105  79.253  -2.029  0.00  0.00    -0.353 OA
ATOM      3  C3  ADP d   1      12.992  80.725  -3.544  0.00  0.00     0.091 C 
ATOM      4  C2  ADP d   1      13.969  81.468  -2.616  0.00  0.00     0.105 C 
ATOM      5  C1  ADP d   1      14.080  80.527  -1.420  0.00  0.00     0.139 C 
ATOM      6  H3  ADP d   1      12.348  78.708  -3.053  0.00  0.00     0.090 H 
ATOM      7  H4  ADP d   1      13.215  80.974  -4.592  0.00  0.00     0.091 H 
ATOM      8  H6  ADP d   1      14.944  81.591  -3.110  0.00  0.00     0.093 H 
ATOM      9  H8  ADP d   1      13.207  80.639  -0.760  0.00  0.00     0.122 H 
ENDROOT
BRANCH   5  10
ATOM     10  N9  ADP d   1      15.348  80.721  -0.606  0.00  0.00    -0.294 N 
ATOM     11  C8  ADP d   1      16.501  81.357  -0.968  0.00  0.00     0.071 A 
ATOM     12  N7  ADP d   1      17.439  81.352   0.001  0.00  0.00    -0.236 NA
ATOM     13  H9  ADP d   1      16.648  81.822  -1.942  0.00  0.00     0.144 H 
ATOM     14  C5  ADP d   1      16.845  80.676   1.022  0.00  0.00     0.149 A 
ATOM     15  C6  ADP d   1      17.325  80.326   2.357  0.00  0.00     0.155 A 
ATOM     16  C4  ADP d   1      15.550  80.276   0.668  0.00  0.00     0.167 A 
ATOM     17  N6  ADP d   1      18.481  80.611   2.850  0.00  0.00    -0.382 N 
ATOM     18  N1  ADP d   1      16.403  79.618   3.122  0.00  0.00    -0.222 NA
ATOM     19  H10 ADP d   1      18.720  80.315   3.807  0.00  0.00     0.157 HD
ATOM     20  H11 ADP d   1      19.166  81.134   2.287  0.00  0.00     0.157 HD
ATOM     21  C2  ADP d   1      15.132  79.269   2.667  0.00  0.00     0.091 A 
ATOM     22  N3  ADP d   1      14.676  79.583   1.446  0.00  0.00    -0.222 NA
ATOM     23  H12 ADP d   1      14.480  78.716   3.334  0.00  0.00     0.146 H 
ENDBRANCH   5  10
BRANCH   4  24
ATOM     24  O2  ADP d   1      13.497  82.760  -2.200  0.00  0.00    -0.388 OA
ATOM     25  H7  ADP d   1      12.678  82.660  -1.729  0.00  0.00     0.210 HD
ENDBRANCH   4  24
BRANCH   1  26
ATOM     26  C5  ADP d   1      14.054  78.451  -4.328  0.00  0.00     0.058 C 
ATOM     27  H1  ADP d   1      14.794  77.801  -3.838  0.00  0.00     0.079 H 
ATOM     28  H2  ADP d   1      13.330  77.833  -4.879  0.00  0.00     0.079 H 
BRANCH  26  29
ATOM     29  O5  ADP d   1      14.755  79.308  -5.287  0.00  0.00    -0.287 OA
BRANCH  29  30
ATOM     30  PA  ADP d   1      16.201  78.940  -5.842  0.00  0.00     0.418 P 
ATOM     31  O1A ADP d   1      17.047  78.845  -4.593  0.00  0.00    -0.624 OA
ATOM     32  O2A ADP d   1      16.729  79.877  -6.903  0.00  0.00    -0.624 OA
BRANCH  30  33
ATOM     33  O3A ADP d   1      16.007  77.494  -6.425  0.00  0.00    -0.173 OA
BRANCH  33  34
ATOM     34  PB  ADP d   1      15.182  76.981  -7.695  0.00  0.00     0.431 P 
ATOM     35  O1B ADP d   1      14.597  75.686  -7.268  0.00  0.00    -0.616 OA
ATOM     36  O2B ADP d   1      16.196  76.853  -8.800  0.00  0.00    -0.616 OA
ATOM     37  O3B ADP d   1      14.059  78.047  -8.020  0.00  0.00    -0.616 OA
ENDBRANCH  33  34
ENDBRANCH  30  33
ENDBRANCH  29  30
ENDBRANCH  26  29
ENDBRANCH   1  26
BRANCH   3  38
ATOM     38  O3  ADP d   1      11.585  80.958  -3.302  0.00  0.00    -0.390 OA
ATOM     39  H5  ADP d   1      11.380  81.868  -3.482  0.00  0.00     0.210 HD
ENDBRANCH   3  38
TORSDOF 8
