REMARK  10 active torsions:
REMARK  status: ('A' for Active; 'I' for Inactive)
REMARK    1  A    between atoms: C4A_8  and  N_1 
REMARK    2  A    between atoms: N_1  and  CA_17 
REMARK    3  A    between atoms: C2_3  and  C2A_4 
REMARK    4  A    between atoms: C3_5  and  O3A_6 
REMARK    5  A    between atoms: C4_7  and  C4A_8 
REMARK    6  A    between atoms: C5_9  and  C5A_10 
REMARK    7  A    between atoms: C5A_10  and  OP4_11 
REMARK    8  A    between atoms: OP4_11  and  P_12 
REMARK    9  A    between atoms: CA_17  and  CB_18 
REMARK   10  A    between atoms: CA_17  and  C_19 
ROOT
ATOM      1  N1  PDD d   1      74.687  38.607  62.428  0.00  0.00    -0.262 NA
ATOM      2  C2  PDD d   1      74.592  37.672  63.422  0.00  0.00     0.064 A 
ATOM      3  C3  PDD d   1      75.198  36.386  63.186  0.00  0.00     0.098 A 
ATOM      4  C4  PDD d   1      75.880  36.138  61.929  0.00  0.00     0.012 A 
ATOM      5  C5  PDD d   1      75.934  37.195  60.939  0.00  0.00    -0.006 A 
ATOM      6  C6  PDD d   1      75.321  38.411  61.231  0.00  0.00     0.011 A 
ATOM      7  H11 PDD d   1      75.346  39.212  60.501  0.00  0.00     0.115 H 
ENDROOT
BRANCH   4   8
ATOM      8  C4A PDD d   1      76.516  34.762  61.726  0.00  0.00     0.109 C 
ATOM      9  H7  PDD d   1      76.750  34.645  60.658  0.00  0.00     0.083 H 
ATOM     10  H8  PDD d   1      77.446  34.722  62.312  0.00  0.00     0.083 H 
BRANCH   8  11
ATOM     11  N   PDD d   1      75.648  33.614  62.145  0.00  0.00    -0.058 N 
ATOM     12  H1  PDD d   1      75.157  33.266  61.336  0.00  0.00     0.278 HD
ATOM     13  H2  PDD d   1      74.982  33.943  62.827  0.00  0.00     0.278 HD
BRANCH  11  14
ATOM     14  CA  PDD d   1      76.450  32.481  62.753  0.00  0.00     0.181 C 
ATOM     15  H12 PDD d   1      76.948  32.854  63.660  0.00  0.00     0.101 H 
BRANCH  14  16
ATOM     16  CB  PDD d   1      77.533  31.978  61.792  0.00  0.00    -0.040 C 
ATOM     17  H13 PDD d   1      78.093  31.159  62.267  0.00  0.00     0.031 H 
ATOM     18  H14 PDD d   1      78.222  32.801  61.552  0.00  0.00     0.031 H 
ATOM     19  H15 PDD d   1      77.062  31.613  60.867  0.00  0.00     0.031 H 
ENDBRANCH  14  16
BRANCH  14  20
ATOM     20  C   PDD d   1      75.479  31.342  63.157  0.00  0.00     0.204 C 
ATOM     21  O   PDD d   1      75.536  30.306  62.276  0.00  0.00    -0.646 OA
ATOM     22  OXT PDD d   1      74.676  31.387  64.200  0.00  0.00    -0.646 OA
ENDBRANCH  14  20
ENDBRANCH  11  14
ENDBRANCH   8  11
ENDBRANCH   4   8
BRANCH   3  23
ATOM     23  O3A PDD d   1      75.146  35.416  64.113  0.00  0.00    -0.358 OA
ATOM     24  H6  PDD d   1      75.594  34.644  63.788  0.00  0.00     0.217 HD
ENDBRANCH   3  23
BRANCH   5  25
ATOM     25  C5A PDD d   1      76.634  37.042  59.589  0.00  0.00     0.058 C 
ATOM     26  H9  PDD d   1      75.888  36.828  58.810  0.00  0.00     0.082 H 
ATOM     27  H10 PDD d   1      77.357  36.215  59.642  0.00  0.00     0.082 H 
BRANCH  25  28
ATOM     28  OP4 PDD d   1      77.330  38.275  59.268  0.00  0.00    -0.278 OA
BRANCH  28  29
ATOM     29  P   PDD d   1      77.661  38.571  57.724  0.00  0.00     0.422 P 
ATOM     30  OP1 PDD d   1      76.456  38.150  56.954  0.00  0.00    -0.617 OA
ATOM     31  OP2 PDD d   1      78.902  37.699  57.366  0.00  0.00    -0.617 OA
ATOM     32  OP3 PDD d   1      78.078  40.016  57.612  0.00  0.00    -0.617 OA
ENDBRANCH  28  29
ENDBRANCH  25  28
ENDBRANCH   5  25
BRANCH   2  33
ATOM     33  C2A PDD d   1      73.872  38.043  64.684  0.00  0.00    -0.033 C 
ATOM     34  H3  PDD d   1      73.883  37.189  65.377  0.00  0.00     0.035 H 
ATOM     35  H4  PDD d   1      72.831  38.309  64.448  0.00  0.00     0.035 H 
ATOM     36  H5  PDD d   1      74.373  38.903  65.153  0.00  0.00     0.035 H 
ENDBRANCH   2  33
TORSDOF 10
