REMARK  8 active torsions:
REMARK  status: ('A' for Active; 'I' for Inactive)
REMARK    1  A    between atoms: N7_7  and  C37_21 
REMARK    2  A    between atoms: C8_8  and  C10_10 
REMARK       I    between atoms: C10_10  and  N11_11 
REMARK    3  A    between atoms: N11_11  and  C12_12 
REMARK    4  A    between atoms: N15_15  and  C27_18 
REMARK    5  A    between atoms: C27_18  and  C28_19 
REMARK    6  A    between atoms: C27_18  and  C32_20 
REMARK    7  A    between atoms: C37_21  and  C38_22 
REMARK    8  A    between atoms: C43_25  and  C45_27 
ROOT
ATOM      1  C1  IIA d   1       2.285   8.585  25.948  0.00  0.00    -0.081 A 
ATOM      2  C2  IIA d   1       3.448   8.957  25.115  0.00  0.00    -0.056 A 
ATOM      3  C3  IIA d   1       4.095   8.010  24.168  0.00  0.00     0.045 A 
ATOM      4  C4  IIA d   1       3.526   6.631  24.099  0.00  0.00    -0.007 A 
ATOM      5  C5  IIA d   1       2.380   6.250  24.927  0.00  0.00    -0.071 A 
ATOM      6  C6  IIA d   1       1.763   7.218  25.844  0.00  0.00    -0.082 A 
ATOM      7  N7  IIA d   1       5.174   8.019  23.235  0.00  0.00    -0.336 N 
ATOM      8  C8  IIA d   1       5.255   6.795  22.715  0.00  0.00     0.104 A 
ATOM      9  C9  IIA d   1       4.275   5.911  23.178  0.00  0.00    -0.039 A 
ATOM     10  H1  IIA d   1       1.829   9.304  26.619  0.00  0.00     0.083 H 
ATOM     11  H2  IIA d   1       3.846   9.962  25.198  0.00  0.00     0.087 H 
ATOM     12  H3  IIA d   1       1.983   5.243  24.863  0.00  0.00     0.084 H 
ATOM     13  H4  IIA d   1       0.915   6.919  26.449  0.00  0.00     0.083 H 
ATOM     14  H5  IIA d   1       4.130   4.874  22.878  0.00  0.00     0.088 H 
ENDROOT
BRANCH   8  15
ATOM     15  C10 IIA d   1       6.270   6.301  21.940  0.00  0.00     0.268 C 
ATOM     16  N11 IIA d   1       5.842   5.311  21.184  0.00  0.00    -0.351 N 
ATOM     17  H6  IIA d   1       4.875   5.172  20.971  0.00  0.00     0.163 HD
ATOM     18  O56 IIA d   1       7.427   6.725  21.963  0.00  0.00    -0.266 OA
BRANCH  16  19
ATOM     19  C12 IIA d   1       6.861   4.462  20.699  0.00  0.00     0.015 C 
ATOM     20  C13 IIA d   1       6.268   3.075  20.483  0.00  0.00    -0.023 C 
ATOM     21  C14 IIA d   1       7.267   2.094  19.874  0.00  0.00     0.086 C 
ATOM     22  H8  IIA d   1       5.405   3.163  19.807  0.00  0.00     0.038 H 
ATOM     23  H9  IIA d   1       5.935   2.680  21.454  0.00  0.00     0.038 H 
ATOM     24  N15 IIA d   1       7.779   2.686  18.587  0.00  0.00    -0.067 N 
ATOM     25  H10 IIA d   1       6.770   1.134  19.671  0.00  0.00     0.076 H 
ATOM     26  H11 IIA d   1       8.104   1.934  20.570  0.00  0.00     0.076 H 
ATOM     27  C16 IIA d   1       8.425   4.024  18.744  0.00  0.00     0.086 C 
ATOM     28  H12 IIA d   1       6.970   2.834  18.005  0.00  0.00     0.280 HD
ATOM     29  C17 IIA d   1       7.400   4.971  19.365  0.00  0.00    -0.023 C 
ATOM     30  H13 IIA d   1       8.738   4.405  17.761  0.00  0.00     0.076 H 
ATOM     31  H14 IIA d   1       9.303   3.940  19.402  0.00  0.00     0.076 H 
ATOM     32  H15 IIA d   1       7.877   5.949  19.528  0.00  0.00     0.038 H 
ATOM     33  H16 IIA d   1       6.558   5.086  18.666  0.00  0.00     0.038 H 
ATOM     34  H7  IIA d   1       7.680   4.412  21.432  0.00  0.00     0.072 H 
BRANCH  24  35
ATOM     35  C27 IIA d   1       8.654   1.730  17.863  0.00  0.00     0.097 C 
ATOM     36  H17 IIA d   1       9.446   1.387  18.545  0.00  0.00     0.083 H 
BRANCH  35  37
ATOM     37  C28 IIA d   1       9.302   2.355  16.642  0.00  0.00    -0.050 C 
ATOM     38  H18 IIA d   1       9.938   1.609  16.142  0.00  0.00     0.030 H 
ATOM     39  H19 IIA d   1       9.917   3.213  16.952  0.00  0.00     0.030 H 
ATOM     40  H20 IIA d   1       8.521   2.696  15.947  0.00  0.00     0.030 H 
ENDBRANCH  35  37
BRANCH  35  41
ATOM     41  C32 IIA d   1       7.818   0.553  17.432  0.00  0.00    -0.050 C 
ATOM     42  H21 IIA d   1       8.450  -0.168  16.893  0.00  0.00     0.030 H 
ATOM     43  H22 IIA d   1       7.011   0.899  16.770  0.00  0.00     0.030 H 
ATOM     44  H23 IIA d   1       7.383   0.068  18.318  0.00  0.00     0.030 H 
ENDBRANCH  35  41
ENDBRANCH  24  35
ENDBRANCH  16  19
ENDBRANCH   8  15
BRANCH   7  45
ATOM     45  C37 IIA d   1       6.136   9.032  22.749  0.00  0.00     0.043 C 
ATOM     46  H24 IIA d   1       5.631  10.009  22.754  0.00  0.00     0.074 H 
ATOM     47  H25 IIA d   1       6.415   8.768  21.718  0.00  0.00     0.074 H 
BRANCH  45  48
ATOM     48  C38 IIA d   1       7.403   9.158  23.557  0.00  0.00     0.083 C 
ATOM     49  N41 IIA d   1       8.415   9.916  23.123  0.00  0.00    -0.131 NA
ATOM     50  O42 IIA d   1       9.473   9.732  24.021  0.00  0.00    -0.212 OA
ATOM     51  C43 IIA d   1       9.042   8.875  24.991  0.00  0.00     0.120 C 
ATOM     52  C44 IIA d   1       7.654   8.519  24.841  0.00  0.00    -0.019 C 
ATOM     53  H26 IIA d   1       6.994   7.946  25.490  0.00  0.00     0.091 H 
BRANCH  51  54
ATOM     54  C45 IIA d   1       9.948   8.292  25.964  0.00  0.00     0.042 A 
ATOM     55  S46 IIA d   1      11.576   8.474  25.456  0.00  0.00    -0.075 SA
ATOM     56  C47 IIA d   1      12.092   7.635  26.924  0.00  0.00     0.075 A 
ATOM     57  C48 IIA d   1      11.084   7.221  27.707  0.00  0.00    -0.054 A 
ATOM     58 CL50 IIA d   1      13.756   7.409  27.144  0.00  0.00    -0.076 Cl
ATOM     59  C49 IIA d   1       9.802   7.596  27.114  0.00  0.00    -0.061 A 
ATOM     60  H27 IIA d   1      11.204   6.684  28.647  0.00  0.00     0.086 H 
ATOM     61  H28 IIA d   1       8.837   7.343  27.550  0.00  0.00     0.085 H 
ENDBRANCH  51  54
ENDBRANCH  45  48
ENDBRANCH   7  45
TORSDOF 8
