REMARK  5 active torsions:
REMARK  status: ('A' for Active; 'I' for Inactive)
REMARK    1  A    between atoms: C1_1  and  O1_6 
REMARK    2  A    between atoms: C2_2  and  O2_7 
REMARK    3  A    between atoms: C3_3  and  O3_8 
REMARK    4  A    between atoms: C4_4  and  O4_9 
REMARK    5  A    between atoms: O1_6  and  CM_11 
ROOT
ATOM      1  C1  ARW d   1      22.452  22.430  30.097  0.00  0.00     0.157 C 
ATOM      2  C2  ARW d   1      21.708  23.171  28.983  0.00  0.00     0.110 C 
ATOM      3  C3  ARW d   1      20.780  22.186  28.266  0.00  0.00     0.091 C 
ATOM      4  C4  ARW d   1      19.810  21.550  29.253  0.00  0.00     0.083 C 
ATOM      5  C5  ARW d   1      20.510  20.963  30.476  0.00  0.00     0.049 C 
ATOM      6  O5  ARW d   1      21.468  21.892  31.014  0.00  0.00    -0.356 OA
ATOM      7  H1  ARW d   1      23.091  23.133  30.651  0.00  0.00     0.133 H 
ATOM      8  H2  ARW d   1      21.095  23.962  29.440  0.00  0.00     0.094 H 
ATOM      9  H3  ARW d   1      21.373  21.405  27.767  0.00  0.00     0.091 H 
ATOM     10  H4  ARW d   1      19.248  20.754  28.742  0.00  0.00     0.090 H 
ATOM     11  H5  ARW d   1      21.029  20.038  30.184  0.00  0.00     0.078 H 
ATOM     12  H6  ARW d   1      19.759  20.734  31.246  0.00  0.00     0.078 H 
ENDROOT
BRANCH   1  13
ATOM     13  O1  ARW d   1      23.291  21.452  29.469  0.00  0.00    -0.363 OA
BRANCH  13  14
ATOM     14  CM  ARW d   1      24.190  20.799  30.380  0.00  0.00     0.007 C 
ATOM     15  H10 ARW d   1      24.799  20.066  29.831  0.00  0.00     0.066 H 
ATOM     16  H11 ARW d   1      23.611  20.284  31.160  0.00  0.00     0.066 H 
ATOM     17  H12 ARW d   1      24.848  21.547  30.846  0.00  0.00     0.066 H 
ENDBRANCH  13  14
ENDBRANCH   1  13
BRANCH   2  18
ATOM     18  O2  ARW d   1      22.618  23.793  28.050  0.00  0.00    -0.388 OA
ATOM     19  H7  ARW d   1      23.183  24.398  28.516  0.00  0.00     0.210 HD
ENDBRANCH   2  18
BRANCH   3  20
ATOM     20  O3  ARW d   1      20.010  22.931  27.299  0.00  0.00    -0.390 OA
ATOM     21  H8  ARW d   1      19.419  22.342  26.845  0.00  0.00     0.210 HD
ENDBRANCH   3  20
BRANCH   4  22
ATOM     22  O4  ARW d   1      18.912  22.567  29.717  0.00  0.00    -0.391 OA
ATOM     23  H9  ARW d   1      18.278  22.181  30.310  0.00  0.00     0.210 HD
ENDBRANCH   4  22
TORSDOF 5
