REMARK  10 active torsions:
REMARK  status: ('A' for Active; 'I' for Inactive)
REMARK    1  A    between atoms: N12_3  and  C19_4 
REMARK    2  A    between atoms: C19_4  and  C21_5 
REMARK    3  A    between atoms: C21_5  and  C23_6 
REMARK    4  A    between atoms: C23_6  and  N29_7 
REMARK    5  A    between atoms: N29_7  and  C32_8 
REMARK    6  A    between atoms: N29_7  and  C31_9 
REMARK    7  A    between atoms: N29_7  and  C30_10 
REMARK    8  A    between atoms: C1_20  and  C4_21 
REMARK    9  A    between atoms: C20_24  and  C22_25 
REMARK   10  A    between atoms: C22_25  and  N25_26 
ROOT
ATOM      1  O18 784 d   1      -5.095  11.634  18.956  0.00  0.00    -0.279 OA
ATOM      2  C11 784 d   1      -4.706  11.286  20.056  0.00  0.00     0.213 C 
ATOM      3  N12 784 d   1      -5.570  10.960  21.134  0.00  0.00    -0.188 NA
ATOM      4  C5  784 d   1      -3.256  11.179  20.406  0.00  0.00     0.060 C 
ATOM      5  C2  784 d   1      -3.254  10.216  21.582  0.00  0.00     0.064 C 
ATOM      6  C6  784 d   1      -4.724  10.128  21.919  0.00  0.00     0.213 C 
ATOM      7  O13 784 d   1      -5.179   9.422  22.791  0.00  0.00    -0.279 OA
ATOM      8  C7  784 d   1      -2.799  12.527  20.947  0.00  0.00     0.117 C 
ATOM      9  C14 784 d   1      -1.513  13.057  20.309  0.00  0.00    -0.036 C 
ATOM     10  C15 784 d   1      -0.651  13.558  21.460  0.00  0.00    -0.040 C 
ATOM     11  C8  784 d   1      -1.359  13.140  22.750  0.00  0.00     0.085 C 
ATOM     12  N3  784 d   1      -2.568  12.363  22.402  0.00  0.00    -0.057 N 
ATOM     13  C1  784 d   1      -2.362  10.912  22.625  0.00  0.00     0.141 C 
ATOM     14  H16 784 d   1      -2.636  10.837  19.564  0.00  0.00     0.058 H 
ATOM     15  H17 784 d   1      -2.851   9.223  21.333  0.00  0.00     0.059 H 
ATOM     16  H18 784 d   1      -3.599  13.263  20.778  0.00  0.00     0.086 H 
ATOM     17  H19 784 d   1      -1.741  13.880  19.616  0.00  0.00     0.036 H 
ATOM     18  H20 784 d   1      -0.996  12.252  19.766  0.00  0.00     0.036 H 
ATOM     19  H21 784 d   1      -0.558  14.653  21.416  0.00  0.00     0.035 H 
ATOM     20  H22 784 d   1       0.349  13.103  21.411  0.00  0.00     0.035 H 
ATOM     21  H23 784 d   1      -1.647  14.036  23.320  0.00  0.00     0.076 H 
ATOM     22  H24 784 d   1      -0.684  12.520  23.358  0.00  0.00     0.076 H 
ATOM     23  H25 784 d   1      -3.357  12.692  22.936  0.00  0.00     0.281 HD
ATOM     24  H26 784 d   1      -1.318  10.685  22.363  0.00  0.00     0.093 H 
ENDROOT
BRANCH   3  25
ATOM     25  C19 784 d   1      -6.919  10.425  20.789  0.00  0.00    -0.005 C 
ATOM     26  H1  784 d   1      -7.414  11.163  20.140  0.00  0.00     0.057 H 
ATOM     27  H2  784 d   1      -7.486  10.322  21.726  0.00  0.00     0.057 H 
BRANCH  25  28
ATOM     28  C21 784 d   1      -6.961   9.071  20.069  0.00  0.00    -0.030 C 
ATOM     29  H3  784 d   1      -6.091   8.469  20.370  0.00  0.00     0.037 H 
ATOM     30  H4  784 d   1      -6.935   9.234  18.981  0.00  0.00     0.037 H 
BRANCH  28  31
ATOM     31  C23 784 d   1      -8.244   8.332  20.442  0.00  0.00     0.085 C 
ATOM     32  H5  784 d   1      -9.066   9.063  20.426  0.00  0.00     0.076 H 
ATOM     33  H6  784 d   1      -8.119   7.943  21.463  0.00  0.00     0.076 H 
BRANCH  31  34
ATOM     34  N29 784 d   1      -8.636   7.199  19.576  0.00  0.00    -0.079 N 
BRANCH  34  35
ATOM     35  C32 784 d   1      -8.576   7.531  18.144  0.00  0.00     0.067 C 
ATOM     36  H7  784 d   1      -8.877   6.654  17.552  0.00  0.00     0.068 H 
ATOM     37  H8  784 d   1      -7.548   7.819  17.877  0.00  0.00     0.068 H 
ATOM     38  H9  784 d   1      -9.258   8.368  17.933  0.00  0.00     0.068 H 
ENDBRANCH  34  35
BRANCH  34  39
ATOM     39  C31 784 d   1     -10.029   6.868  19.903  0.00  0.00     0.067 C 
ATOM     40  H10 784 d   1     -10.105   6.615  20.971  0.00  0.00     0.068 H 
ATOM     41  H11 784 d   1     -10.353   6.008  19.298  0.00  0.00     0.068 H 
ATOM     42  H12 784 d   1     -10.672   7.733  19.685  0.00  0.00     0.068 H 
ENDBRANCH  34  39
BRANCH  34  43
ATOM     43  C30 784 d   1      -7.795   6.018  19.816  0.00  0.00     0.067 C 
ATOM     44  H13 784 d   1      -6.749   6.257  19.573  0.00  0.00     0.068 H 
ATOM     45  H14 784 d   1      -8.138   5.188  19.181  0.00  0.00     0.068 H 
ATOM     46  H15 784 d   1      -7.868   5.724  20.874  0.00  0.00     0.068 H 
ENDBRANCH  34  43
ENDBRANCH  31  34
ENDBRANCH  28  31
ENDBRANCH  25  28
ENDBRANCH   3  25
BRANCH  13  47
ATOM     47  C4  784 d   1      -2.520  10.452  24.038  0.00  0.00    -0.027 A 
ATOM     48  C10 784 d   1      -3.408  11.059  24.936  0.00  0.00    -0.074 A 
ATOM     49  C17 784 d   1      -3.522  10.595  26.250  0.00  0.00    -0.069 A 
ATOM     50  H27 784 d   1      -4.013  11.897  24.609  0.00  0.00     0.084 H 
ATOM     51  C20 784 d   1      -2.743   9.513  26.680  0.00  0.00     0.007 A 
ATOM     52  H28 784 d   1      -4.213  11.072  26.936  0.00  0.00     0.085 H 
ATOM     53  C16 784 d   1      -1.858   8.905  25.783  0.00  0.00    -0.069 A 
ATOM     54  C9  784 d   1      -1.738   9.376  24.474  0.00  0.00    -0.074 A 
ATOM     55  H33 784 d   1      -1.260   8.061  26.107  0.00  0.00     0.085 H 
ATOM     56  H34 784 d   1      -1.037   8.907  23.793  0.00  0.00     0.084 H 
BRANCH  51  57
ATOM     57  C22 784 d   1      -2.886   9.010  28.088  0.00  0.00     0.102 C 
ATOM     58  N24 784 d   1      -3.676   9.691  28.902  0.00  0.00    -0.385 N 
ATOM     59  H31 784 d   1      -4.142  10.548  28.570  0.00  0.00     0.157 HD
ATOM     60  H32 784 d   1      -3.825   9.365  29.867  0.00  0.00     0.157 HD
BRANCH  57  61
ATOM     61  N25 784 d   1      -2.312   7.949  28.507  0.00  0.00    -0.385 N 
ATOM     62  H29 784 d   1      -2.441   7.645  29.483  0.00  0.00     0.157 HD
ATOM     63  H30 784 d   1      -1.720   7.398  27.869  0.00  0.00     0.157 HD
ENDBRANCH  57  61
ENDBRANCH  51  57
ENDBRANCH  13  47
TORSDOF 10
