REMARK  19 active torsions:
REMARK  status: ('A' for Active; 'I' for Inactive)
REMARK    1  A    between atoms: C2_2  and  C3_3 
REMARK       I    between atoms: C3_3  and  N2_30 
REMARK    2  A    between atoms: C23_40  and  O4_4 
REMARK    3  A    between atoms: C4_31  and  C7_6 
REMARK    4  A    between atoms: N3_34  and  C10_9 
REMARK    5  A    between atoms: C10_9  and  C11_10 
REMARK    6  A    between atoms: C11_10  and  O2_35 
REMARK    7  A    between atoms: C11_10  and  C12_11 
REMARK    8  A    between atoms: C12_11  and  C13_12 
REMARK    9  A    between atoms: C13_12  and  C21_18 
REMARK   10  A    between atoms: C13_12  and  C14_13 
REMARK   11  A    between atoms: C14_13  and  C15_14 
REMARK       I    between atoms: C21_18  and  N4_39 
REMARK   12  A    between atoms: N4_39  and  C22_19 
REMARK   13  A    between atoms: C26_43  and  C27_21 
REMARK   14  A    between atoms: C27_21  and  C28_44 
REMARK   15  A    between atoms: C30_22  and  C29_42 
REMARK       I    between atoms: N1_28  and  C31_23 
REMARK   16  A    between atoms: C31_23  and  C26_43 
REMARK   17  A    between atoms: N2_30  and  C4_31 
REMARK   18  A    between atoms: C4_31  and  C6_33 
REMARK   19  A    between atoms: C4_31  and  C5_32 
ROOT
ATOM      1  C10 1IN d   1      12.782  25.303   4.456  0.00  0.00     0.108 C 
ATOM      2  H12 1IN d   1      12.543  25.831   5.391  0.00  0.00     0.080 H 
ATOM      3  H13 1IN d   1      13.059  26.035   3.683  0.00  0.00     0.080 H 
ENDROOT
BRANCH   1   4
ATOM      4  N3  1IN d   1      11.629  24.508   4.013  0.00  0.00    -0.053 N 
ATOM      5  C2  1IN d   1      10.352  24.965   4.625  0.00  0.00     0.195 C 
ATOM      6  C1  1IN d   1       9.179  24.072   4.194  0.00  0.00     0.033 C 
ATOM      7  H3  1IN d   1      10.160  25.990   4.275  0.00  0.00     0.102 H 
ATOM      8  N1  1IN d   1       9.125  24.111   2.738  0.00  0.00    -0.345 N 
ATOM      9  H1  1IN d   1       9.344  23.040   4.538  0.00  0.00     0.068 H 
ATOM     10  H2  1IN d   1       8.238  24.454   4.617  0.00  0.00     0.068 H 
ATOM     11  C9  1IN d   1      10.320  23.604   2.083  0.00  0.00     0.021 C 
ATOM     12  C31 1IN d   1       8.032  24.546   2.064  0.00  0.00     0.243 C 
ATOM     13  C8  1IN d   1      11.513  24.411   2.552  0.00  0.00     0.099 C 
ATOM     14  H10 1IN d   1      10.464  22.545   2.344  0.00  0.00     0.067 H 
ATOM     15  H11 1IN d   1      10.213  23.701   0.993  0.00  0.00     0.067 H 
ATOM     16  H8  1IN d   1      12.426  23.937   2.163  0.00  0.00     0.078 H 
ATOM     17  H9  1IN d   1      11.425  25.428   2.143  0.00  0.00     0.078 H 
ATOM     18  O5  1IN d   1       7.994  24.619   0.836  0.00  0.00    -0.268 OA
ATOM     19  H39 1IN d   1      11.789  23.571   4.348  0.00  0.00     0.281 HD
BRANCH   5  20
ATOM     20  C3  1IN d   1      10.403  24.980   6.145  0.00  0.00     0.251 C 
ATOM     21  N2  1IN d   1      10.042  26.167   6.691  0.00  0.00    -0.351 N 
ATOM     22  H32 1IN d   1       9.824  26.930   6.082  0.00  0.00     0.163 HD
ATOM     23  O1  1IN d   1      10.729  23.960   6.759  0.00  0.00    -0.271 OA
BRANCH  21  24
ATOM     24  C4  1IN d   1       9.959  26.375   8.129  0.00  0.00     0.022 C 
BRANCH  24  25
ATOM     25  C7  1IN d   1       8.936  25.395   8.734  0.00  0.00    -0.054 C 
ATOM     26  H5  1IN d   1       8.875  25.554   9.821  0.00  0.00     0.030 H 
ATOM     27  H6  1IN d   1       9.254  24.362   8.532  0.00  0.00     0.030 H 
ATOM     28  H7  1IN d   1       7.949  25.570   8.282  0.00  0.00     0.030 H 
ENDBRANCH  24  25
BRANCH  24  29
ATOM     29  C6  1IN d   1      11.340  26.205   8.779  0.00  0.00    -0.054 C 
ATOM     30  H36 1IN d   1      11.257  26.366   9.864  0.00  0.00     0.030 H 
ATOM     31  H37 1IN d   1      12.039  26.939   8.352  0.00  0.00     0.030 H 
ATOM     32  H38 1IN d   1      11.713  25.188   8.587  0.00  0.00     0.030 H 
ENDBRANCH  24  29
BRANCH  24  33
ATOM     33  C5  1IN d   1       9.466  27.818   8.359  0.00  0.00    -0.054 C 
ATOM     34  H33 1IN d   1       9.391  28.012   9.439  0.00  0.00     0.030 H 
ATOM     35  H34 1IN d   1       8.477  27.946   7.894  0.00  0.00     0.030 H 
ATOM     36  H35 1IN d   1      10.178  28.525   7.908  0.00  0.00     0.030 H 
ENDBRANCH  24  33
ENDBRANCH  21  24
ENDBRANCH   5  20
BRANCH  12  37
ATOM     37  C26 1IN d   1       6.830  24.945   2.833  0.00  0.00    -0.017 C 
ATOM     38  H50 1IN d   1       6.895  25.070   3.913  0.00  0.00     0.092 H 
BRANCH  37  39
ATOM     39  C27 1IN d   1       5.554  25.172   2.149  0.00  0.00    -0.067 C 
ATOM     40  H26 1IN d   1       5.555  25.428   1.091  0.00  0.00     0.085 H 
BRANCH  39  41
ATOM     41  C28 1IN d   1       4.287  25.062   2.854  0.00  0.00    -0.018 A 
ATOM     42  C32 1IN d   1       3.094  24.992   2.133  0.00  0.00    -0.070 A 
ATOM     43  C33 1IN d   1       1.872  24.944   2.811  0.00  0.00    -0.065 A 
ATOM     44  H28 1IN d   1       3.115  24.975   1.049  0.00  0.00     0.084 H 
ATOM     45  C34 1IN d   1       1.902  24.968   4.213  0.00  0.00     0.002 A 
ATOM     46  H29 1IN d   1       0.933  24.890   2.271  0.00  0.00     0.085 H 
ATOM     47  N5  1IN d   1       3.061  25.013   4.869  0.00  0.00    -0.272 NA
ATOM     48  H30 1IN d   1       0.972  24.950   4.769  0.00  0.00     0.114 H 
ATOM     49  C35 1IN d   1       4.232  25.069   4.247  0.00  0.00     0.012 A 
ATOM     50  H31 1IN d   1       5.148  25.120   4.824  0.00  0.00     0.116 H 
ENDBRANCH  39  41
ENDBRANCH  37  39
ENDBRANCH  12  37
ENDBRANCH   1   4
BRANCH   1  51
ATOM     51  C11 1IN d   1      13.932  24.312   4.685  0.00  0.00     0.059 C 
ATOM     52  H14 1IN d   1      13.800  23.443   4.024  0.00  0.00     0.085 H 
BRANCH  51  53
ATOM     53  O2  1IN d   1      15.143  24.989   4.371  0.00  0.00    -0.394 OA
ATOM     54  H40 1IN d   1      15.121  25.271   3.464  0.00  0.00     0.210 HD
ENDBRANCH  51  53
BRANCH  51  55
ATOM     55  C12 1IN d   1      14.016  23.831   6.135  0.00  0.00    -0.028 C 
ATOM     56  H15 1IN d   1      13.079  23.305   6.371  0.00  0.00     0.038 H 
ATOM     57  H16 1IN d   1      14.111  24.717   6.780  0.00  0.00     0.038 H 
BRANCH  55  58
ATOM     58  C13 1IN d   1      15.181  22.887   6.456  0.00  0.00     0.029 C 
ATOM     59  H17 1IN d   1      16.116  23.323   6.075  0.00  0.00     0.055 H 
BRANCH  58  60
ATOM     60  C21 1IN d   1      14.979  21.507   5.802  0.00  0.00     0.222 C 
ATOM     61  O3  1IN d   1      13.874  20.964   5.788  0.00  0.00    -0.273 OA
ATOM     62  N4  1IN d   1      16.082  20.973   5.250  0.00  0.00    -0.353 N 
ATOM     63  H43 1IN d   1      16.841  21.570   4.990  0.00  0.00     0.163 HD
BRANCH  62  64
ATOM     64  C22 1IN d   1      16.191  19.527   5.022  0.00  0.00     0.040 C 
ATOM     65  C23 1IN d   1      17.596  19.015   5.404  0.00  0.00     0.055 C 
ATOM     66  C24 1IN d   1      17.609  17.738   4.558  0.00  0.00    -0.039 C 
ATOM     67  H44 1IN d   1      17.724  18.833   6.481  0.00  0.00     0.086 H 
ATOM     68  C25 1IN d   1      16.853  18.006   3.302  0.00  0.00    -0.058 C 
ATOM     69  H24 1IN d   1      18.646  17.461   4.317  0.00  0.00     0.036 H 
ATOM     70  H25 1IN d   1      17.130  16.918   5.114  0.00  0.00     0.036 H 
ATOM     71  C30 1IN d   1      15.744  19.014   3.624  0.00  0.00    -0.035 C 
ATOM     72  H45 1IN d   1      17.529  18.424   2.541  0.00  0.00     0.033 H 
ATOM     73  H46 1IN d   1      16.411  17.072   2.926  0.00  0.00     0.033 H 
ATOM     74  H27 1IN d   1      14.755  18.534   3.668  0.00  0.00     0.042 H 
ATOM     75  H23 1IN d   1      15.492  19.066   5.735  0.00  0.00     0.077 H 
BRANCH  65  76
ATOM     76  O4  1IN d   1      18.574  19.924   4.905  0.00  0.00    -0.394 OA
ATOM     77  H4  1IN d   1      19.433  19.521   4.952  0.00  0.00     0.210 HD
ENDBRANCH  65  76
BRANCH  71  78
ATOM     78  C29 1IN d   1      15.727  20.116   2.603  0.00  0.00    -0.071 C 
ATOM     79  H47 1IN d   1      14.927  20.830   2.848  0.00  0.00     0.028 H 
ATOM     80  H48 1IN d   1      15.545  19.689   1.606  0.00  0.00     0.028 H 
ATOM     81  H49 1IN d   1      16.697  20.636   2.608  0.00  0.00     0.028 H 
ENDBRANCH  71  78
ENDBRANCH  62  64
ENDBRANCH  58  60
BRANCH  58  82
ATOM     82  C14 1IN d   1      15.265  22.756   7.978  0.00  0.00    -0.029 C 
ATOM     83  H18 1IN d   1      14.310  22.355   8.350  0.00  0.00     0.041 H 
ATOM     84  H19 1IN d   1      15.436  23.754   8.408  0.00  0.00     0.041 H 
BRANCH  82  85
ATOM     85  C15 1IN d   1      16.379  21.841   8.425  0.00  0.00    -0.057 A 
ATOM     86  C20 1IN d   1      16.030  20.685   9.132  0.00  0.00    -0.077 A 
ATOM     87  C19 1IN d   1      17.027  19.833   9.604  0.00  0.00    -0.082 A 
ATOM     88  H22 1IN d   1      14.987  20.453   9.312  0.00  0.00     0.084 H 
ATOM     89  C18 1IN d   1      18.371  20.137   9.337  0.00  0.00    -0.083 A 
ATOM     90  H21 1IN d   1      16.767  18.946  10.171  0.00  0.00     0.083 H 
ATOM     91  C17 1IN d   1      18.714  21.292   8.611  0.00  0.00    -0.082 A 
ATOM     92  H42 1IN d   1      19.152  19.475   9.694  0.00  0.00     0.083 H 
ATOM     93  C16 1IN d   1      17.713  22.145   8.152  0.00  0.00    -0.077 A 
ATOM     94  H41 1IN d   1      19.755  21.518   8.409  0.00  0.00     0.083 H 
ATOM     95  H20 1IN d   1      17.968  23.035   7.589  0.00  0.00     0.084 H 
ENDBRANCH  82  85
ENDBRANCH  58  82
ENDBRANCH  55  58
ENDBRANCH  51  55
ENDBRANCH   1  51
TORSDOF 19
