REMARK  19 active torsions:
REMARK  status: ('A' for Active; 'I' for Inactive)
REMARK    1  A    between atoms: C2_2  and  C3_3 
REMARK       I    between atoms: C3_3  and  N2_31 
REMARK    2  A    between atoms: C23_41  and  O4_4 
REMARK    3  A    between atoms: C4_32  and  C7_7 
REMARK    4  A    between atoms: N3_35  and  C10_10 
REMARK    5  A    between atoms: C10_10  and  C11_11 
REMARK    6  A    between atoms: C11_11  and  O2_36 
REMARK    7  A    between atoms: C11_11  and  C12_12 
REMARK    8  A    between atoms: C12_12  and  C13_13 
REMARK    9  A    between atoms: C13_13  and  C21_19 
REMARK   10  A    between atoms: C13_13  and  C14_14 
REMARK   11  A    between atoms: C14_14  and  C15_15 
REMARK       I    between atoms: C21_19  and  N4_40 
REMARK   12  A    between atoms: N4_40  and  C22_20 
REMARK   13  A    between atoms: C30_23  and  C29_43 
REMARK       I    between atoms: N1_29  and  C31_24 
REMARK   14  A    between atoms: C31_24  and  C32_25 
REMARK   15  A    between atoms: C34_27  and  N5_49 
REMARK   16  A    between atoms: N2_31  and  C4_32 
REMARK   17  A    between atoms: C4_32  and  C6_34 
REMARK   18  A    between atoms: C4_32  and  C5_33 
REMARK   19  A    between atoms: N8_47  and  C28_50 
ROOT
ATOM      1  C1  3IN d   1       8.922  24.492   4.075  0.00  0.00     0.033 C 
ATOM      2  C2  3IN d   1      10.203  25.195   4.552  0.00  0.00     0.195 C 
ATOM      3  O5  3IN d   1       7.922  25.431   0.740  0.00  0.00    -0.266 OA
ATOM      4  C8  3IN d   1      11.309  24.584   2.450  0.00  0.00     0.099 C 
ATOM      5  C9  3IN d   1       9.995  23.969   1.965  0.00  0.00     0.021 C 
ATOM      6  C31 3IN d   1       7.753  25.158   1.929  0.00  0.00     0.274 C 
ATOM      7  N1  3IN d   1       8.828  24.575   2.626  0.00  0.00    -0.343 N 
ATOM      8  N3  3IN d   1      11.387  24.546   3.934  0.00  0.00    -0.053 N 
ATOM      9  H1  3IN d   1       8.950  23.435   4.380  0.00  0.00     0.068 H 
ATOM     10  H2  3IN d   1       8.046  24.981   4.527  0.00  0.00     0.068 H 
ATOM     11  H3  3IN d   1      10.176  26.248   4.237  0.00  0.00     0.102 H 
ATOM     12  H8  3IN d   1      12.151  24.016   2.029  0.00  0.00     0.078 H 
ATOM     13  H9  3IN d   1      11.366  25.629   2.111  0.00  0.00     0.078 H 
ATOM     14  H10 3IN d   1      10.006  22.891   2.182  0.00  0.00     0.067 H 
ATOM     15  H11 3IN d   1       9.909  24.124   0.879  0.00  0.00     0.067 H 
ATOM     16  H38 3IN d   1      11.438  23.597   4.270  0.00  0.00     0.281 HD
ENDROOT
BRANCH   8  17
ATOM     17  C10 3IN d   1      12.667  25.236   4.162  0.00  0.00     0.108 C 
ATOM     18  H12 3IN d   1      12.495  26.032   4.902  0.00  0.00     0.080 H 
ATOM     19  H13 3IN d   1      12.985  25.684   3.209  0.00  0.00     0.080 H 
BRANCH  17  20
ATOM     20  C11 3IN d   1      13.806  24.361   4.671  0.00  0.00     0.059 C 
ATOM     21  H14 3IN d   1      13.803  23.436   4.075  0.00  0.00     0.085 H 
BRANCH  20  22
ATOM     22  O2  3IN d   1      14.975  25.088   4.426  0.00  0.00    -0.394 OA
ATOM     23  H39 3IN d   1      15.054  25.253   3.494  0.00  0.00     0.210 HD
ENDBRANCH  20  22
BRANCH  20  24
ATOM     24  C12 3IN d   1      13.844  23.956   6.130  0.00  0.00    -0.028 C 
ATOM     25  H15 3IN d   1      12.914  23.421   6.375  0.00  0.00     0.038 H 
ATOM     26  H16 3IN d   1      13.919  24.863   6.748  0.00  0.00     0.038 H 
BRANCH  24  27
ATOM     27  C13 3IN d   1      15.061  23.025   6.448  0.00  0.00     0.029 C 
ATOM     28  H17 3IN d   1      15.995  23.490   6.100  0.00  0.00     0.055 H 
BRANCH  27  29
ATOM     29  C21 3IN d   1      14.878  21.621   5.735  0.00  0.00     0.222 C 
ATOM     30  O3  3IN d   1      13.784  21.050   5.730  0.00  0.00    -0.273 OA
ATOM     31  N4  3IN d   1      15.999  21.151   5.186  0.00  0.00    -0.353 N 
ATOM     32  H42 3IN d   1      16.741  21.807   5.048  0.00  0.00     0.163 HD
BRANCH  31  33
ATOM     33  C22 3IN d   1      16.258  19.747   4.757  0.00  0.00     0.040 C 
ATOM     34  C23 3IN d   1      17.569  19.157   5.390  0.00  0.00     0.055 C 
ATOM     35  C24 3IN d   1      17.625  17.981   4.395  0.00  0.00    -0.039 C 
ATOM     36  H43 3IN d   1      17.522  18.866   6.450  0.00  0.00     0.086 H 
ATOM     37  C25 3IN d   1      16.947  18.346   3.161  0.00  0.00    -0.058 C 
ATOM     38  H24 3IN d   1      18.675  17.738   4.176  0.00  0.00     0.036 H 
ATOM     39  H25 3IN d   1      17.130  17.104   4.838  0.00  0.00     0.036 H 
ATOM     40  C30 3IN d   1      15.647  18.996   3.500  0.00  0.00    -0.035 C 
ATOM     41  H44 3IN d   1      17.573  19.047   2.589  0.00  0.00     0.033 H 
ATOM     42  H45 3IN d   1      16.763  17.444   2.559  0.00  0.00     0.033 H 
ATOM     43  H28 3IN d   1      14.851  18.280   3.751  0.00  0.00     0.042 H 
ATOM     44  H23 3IN d   1      15.551  19.296   5.469  0.00  0.00     0.077 H 
BRANCH  34  45
ATOM     45  O4  3IN d   1      18.566  20.152   5.132  0.00  0.00    -0.394 OA
ATOM     46  H4  3IN d   1      19.428  19.759   5.196  0.00  0.00     0.210 HD
ENDBRANCH  34  45
BRANCH  40  47
ATOM     47  C29 3IN d   1      15.155  19.960   2.454  0.00  0.00    -0.071 C 
ATOM     48  H46 3IN d   1      14.197  20.394   2.777  0.00  0.00     0.028 H 
ATOM     49  H47 3IN d   1      15.014  19.427   1.502  0.00  0.00     0.028 H 
ATOM     50  H48 3IN d   1      15.894  20.763   2.319  0.00  0.00     0.028 H 
ENDBRANCH  40  47
ENDBRANCH  31  33
ENDBRANCH  27  29
BRANCH  27  51
ATOM     51  C14 3IN d   1      15.092  22.859   7.979  0.00  0.00    -0.029 C 
ATOM     52  H18 3IN d   1      14.117  22.474   8.311  0.00  0.00     0.041 H 
ATOM     53  H19 3IN d   1      15.273  23.843   8.436  0.00  0.00     0.041 H 
BRANCH  51  54
ATOM     54  C15 3IN d   1      16.163  21.913   8.437  0.00  0.00    -0.057 A 
ATOM     55  C20 3IN d   1      15.719  20.743   9.107  0.00  0.00    -0.077 A 
ATOM     56  C19 3IN d   1      16.667  19.852   9.625  0.00  0.00    -0.082 A 
ATOM     57  H22 3IN d   1      14.659  20.542   9.216  0.00  0.00     0.084 H 
ATOM     58  C18 3IN d   1      18.018  20.171   9.482  0.00  0.00    -0.083 A 
ATOM     59  H21 3IN d   1      16.360  18.940  10.123  0.00  0.00     0.083 H 
ATOM     60  C17 3IN d   1      18.482  21.264   8.744  0.00  0.00    -0.082 A 
ATOM     61  H41 3IN d   1      18.748  19.536   9.970  0.00  0.00     0.083 H 
ATOM     62  C16 3IN d   1      17.528  22.151   8.212  0.00  0.00    -0.077 A 
ATOM     63  H40 3IN d   1      19.543  21.423   8.587  0.00  0.00     0.083 H 
ATOM     64  H20 3IN d   1      17.845  23.011   7.633  0.00  0.00     0.084 H 
ENDBRANCH  51  54
ENDBRANCH  27  51
ENDBRANCH  24  27
ENDBRANCH  20  24
ENDBRANCH  17  20
ENDBRANCH   8  17
BRANCH   2  65
ATOM     65  C3  3IN d   1      10.254  25.142   6.047  0.00  0.00     0.251 C 
ATOM     66  N2  3IN d   1       9.827  26.299   6.638  0.00  0.00    -0.351 N 
ATOM     67  H31 3IN d   1       9.528  27.040   6.037  0.00  0.00     0.163 HD
ATOM     68  O1  3IN d   1      10.629  24.122   6.632  0.00  0.00    -0.271 OA
BRANCH  66  69
ATOM     69  C4  3IN d   1       9.774  26.536   8.074  0.00  0.00     0.022 C 
BRANCH  69  70
ATOM     70  C7  3IN d   1       8.710  25.631   8.695  0.00  0.00    -0.054 C 
ATOM     71  H5  3IN d   1       8.667  25.807   9.780  0.00  0.00     0.030 H 
ATOM     72  H6  3IN d   1       8.967  24.579   8.504  0.00  0.00     0.030 H 
ATOM     73  H7  3IN d   1       7.731  25.856   8.248  0.00  0.00     0.030 H 
ENDBRANCH  69  70
BRANCH  69  74
ATOM     74  C6  3IN d   1      11.124  26.336   8.739  0.00  0.00    -0.054 C 
ATOM     75  H35 3IN d   1      11.033  26.526   9.819  0.00  0.00     0.030 H 
ATOM     76  H36 3IN d   1      11.854  27.035   8.304  0.00  0.00     0.030 H 
ATOM     77  H37 3IN d   1      11.464  25.302   8.576  0.00  0.00     0.030 H 
ENDBRANCH  69  74
BRANCH  69  78
ATOM     78  C5  3IN d   1       9.393  28.021   8.330  0.00  0.00    -0.054 C 
ATOM     79  H32 3IN d   1       9.351  28.207   9.413  0.00  0.00     0.030 H 
ATOM     80  H33 3IN d   1       8.409  28.229   7.884  0.00  0.00     0.030 H 
ATOM     81  H34 3IN d   1      10.149  28.677   7.874  0.00  0.00     0.030 H 
ENDBRANCH  69  78
ENDBRANCH  66  69
ENDBRANCH   2  65
BRANCH   6  82
ATOM     82  C32 3IN d   1       6.428  25.457   2.583  0.00  0.00     0.143 A 
ATOM     83  N6  3IN d   1       5.700  24.509   3.256  0.00  0.00    -0.226 NA
ATOM     84  C33 3IN d   1       4.437  24.783   3.681  0.00  0.00     0.172 A 
ATOM     85  C34 3IN d   1       3.873  26.055   3.457  0.00  0.00     0.166 A 
ATOM     86 Cl1  3IN d   1       3.509  23.552   4.509  0.00  0.00    -0.058 Cl
ATOM     87  N7  3IN d   1       4.618  26.987   2.854  0.00  0.00    -0.238 NA
ATOM     88  C36 3IN d   1       5.843  26.728   2.401  0.00  0.00     0.038 A 
ATOM     89  H49 3IN d   1       6.398  27.504   1.886  0.00  0.00     0.118 H 
BRANCH  85  90
ATOM     90  N5  3IN d   1       2.555  26.411   3.657  0.00  0.00    -0.360 N 
ATOM     91  C37 3IN d   1       1.986  26.737   4.987  0.00  0.00     0.019 C 
ATOM     92  C35 3IN d   1       1.043  27.984   4.944  0.00  0.00     0.098 C 
ATOM     93  H53 3IN d   1       2.812  26.943   5.684  0.00  0.00     0.066 H 
ATOM     94  H54 3IN d   1       1.410  25.871   5.346  0.00  0.00     0.066 H 
ATOM     95  N8  3IN d   1       0.008  27.820   3.894  0.00  0.00    -0.072 N 
ATOM     96  H29 3IN d   1       0.551  28.099   5.921  0.00  0.00     0.078 H 
ATOM     97  H30 3IN d   1       1.640  28.881   4.726  0.00  0.00     0.078 H 
ATOM     98  C27 3IN d   1       0.696  27.746   2.565  0.00  0.00     0.098 C 
ATOM     99  H52 3IN d   1      -0.489  26.957   4.046  0.00  0.00     0.279 HD
ATOM    100  C26 3IN d   1       1.636  26.500   2.492  0.00  0.00     0.019 C 
ATOM    101  H26 3IN d   1      -0.062  27.672   1.771  0.00  0.00     0.078 H 
ATOM    102  H27 3IN d   1       1.294  28.657   2.418  0.00  0.00     0.078 H 
ATOM    103  H50 3IN d   1       1.016  25.592   2.462  0.00  0.00     0.066 H 
ATOM    104  H51 3IN d   1       2.237  26.565   1.573  0.00  0.00     0.066 H 
BRANCH  95 105
ATOM    105  C28 3IN d   1      -0.957  28.939   3.992  0.00  0.00     0.066 C 
ATOM    106  H55 3IN d   1      -1.729  28.826   3.217  0.00  0.00     0.068 H 
ATOM    107  H56 3IN d   1      -0.428  29.893   3.847  0.00  0.00     0.068 H 
ATOM    108  H57 3IN d   1      -1.430  28.929   4.985  0.00  0.00     0.068 H 
ENDBRANCH  95 105
ENDBRANCH  85  90
ENDBRANCH   6  82
TORSDOF 19
