REMARK  9 active torsions:
REMARK  status: ('A' for Active; 'I' for Inactive)
REMARK    1  A    between atoms: N7_7  and  C17_14 
REMARK    2  A    between atoms: C8_8  and  C11_10 
REMARK       I    between atoms: C11_10  and  N12_11 
REMARK    3  A    between atoms: N12_11  and  C13_12 
REMARK    4  A    between atoms: C17_14  and  C18_15 
REMARK    5  A    between atoms: C24_19  and  O1_22 
REMARK    6  A    between atoms: O1_22  and  C7_24 
REMARK    7  A    between atoms: N1_27  and  C16_28 
REMARK    8  A    between atoms: C16_28  and  C19_29 
REMARK    9  A    between atoms: C16_28  and  C20_30 
ROOT
ATOM      1  C1  IID d   1       2.928  10.171  25.681  0.00  0.00    -0.081 A 
ATOM      2  C2  IID d   1       4.129   9.314  25.606  0.00  0.00    -0.056 A 
ATOM      3  C3  IID d   1       4.519   8.698  24.316  0.00  0.00     0.045 A 
ATOM      4  C4  IID d   1       3.689   8.915  23.096  0.00  0.00    -0.007 A 
ATOM      5  C5  IID d   1       2.509   9.794  23.182  0.00  0.00    -0.071 A 
ATOM      6  C6  IID d   1       2.128  10.427  24.464  0.00  0.00    -0.082 A 
ATOM      7  N7  IID d   1       5.563   7.860  23.942  0.00  0.00    -0.337 N 
ATOM      8  C8  IID d   1       5.400   7.543  22.636  0.00  0.00     0.104 A 
ATOM      9  C9  IID d   1       4.269   8.157  22.062  0.00  0.00    -0.039 A 
ATOM     10  H1  IID d   1       2.634  10.611  26.627  0.00  0.00     0.083 H 
ATOM     11  H2  IID d   1       4.724   9.136  26.494  0.00  0.00     0.087 H 
ATOM     12  H3  IID d   1       1.913   9.979  22.296  0.00  0.00     0.084 H 
ATOM     13  H4  IID d   1       1.263  11.078  24.511  0.00  0.00     0.083 H 
ATOM     14  H5  IID d   1       3.918   8.065  21.035  0.00  0.00     0.088 H 
ENDROOT
BRANCH   8  15
ATOM     15  C11 IID d   1       6.219   6.662  21.946  0.00  0.00     0.268 C 
ATOM     16  N12 IID d   1       5.620   5.896  21.015  0.00  0.00    -0.351 N 
ATOM     17  H6  IID d   1       4.681   6.017  20.692  0.00  0.00     0.163 HD
ATOM     18  O45 IID d   1       7.422   6.595  22.200  0.00  0.00    -0.266 OA
BRANCH  16  19
ATOM     19  C13 IID d   1       6.529   4.874  20.551  0.00  0.00     0.015 C 
ATOM     20  C14 IID d   1       7.148   5.274  19.212  0.00  0.00    -0.023 C 
ATOM     21  C26 IID d   1       8.174   4.259  18.701  0.00  0.00     0.086 C 
ATOM     22  H8  IID d   1       7.647   6.247  19.333  0.00  0.00     0.038 H 
ATOM     23  H9  IID d   1       6.344   5.365  18.467  0.00  0.00     0.038 H 
ATOM     24  N1  IID d   1       7.559   2.900  18.612  0.00  0.00    -0.067 N 
ATOM     25  H16 IID d   1       9.028   4.226  19.393  0.00  0.00     0.076 H 
ATOM     26  H17 IID d   1       8.522   4.566  17.704  0.00  0.00     0.076 H 
ATOM     27  C12 IID d   1       6.832   2.441  19.849  0.00  0.00     0.086 C 
ATOM     28  H25 IID d   1       6.867   2.968  17.882  0.00  0.00     0.280 HD
ATOM     29  C10 IID d   1       5.855   3.520  20.343  0.00  0.00    -0.023 C 
ATOM     30  H23 IID d   1       6.269   1.525  19.617  0.00  0.00     0.076 H 
ATOM     31  H24 IID d   1       7.566   2.230  20.641  0.00  0.00     0.076 H 
ATOM     32  H21 IID d   1       5.053   3.636  19.599  0.00  0.00     0.038 H 
ATOM     33  H22 IID d   1       5.422   3.192  21.299  0.00  0.00     0.038 H 
ATOM     34  H7  IID d   1       7.326   4.761  21.300  0.00  0.00     0.072 H 
BRANCH  24  35
ATOM     35  C16 IID d   1       8.508   1.825  18.203  0.00  0.00     0.097 C 
ATOM     36  H26 IID d   1       9.074   1.533  19.100  0.00  0.00     0.083 H 
BRANCH  35  37
ATOM     37  C19 IID d   1       9.527   2.225  17.147  0.00  0.00    -0.050 C 
ATOM     38  H27 IID d   1      10.174   1.366  16.918  0.00  0.00     0.030 H 
ATOM     39  H28 IID d   1      10.141   3.056  17.526  0.00  0.00     0.030 H 
ATOM     40  H29 IID d   1       9.003   2.543  16.234  0.00  0.00     0.030 H 
ENDBRANCH  35  37
BRANCH  35  41
ATOM     41  C20 IID d   1       7.715   0.622  17.731  0.00  0.00    -0.050 C 
ATOM     42  H30 IID d   1       8.407  -0.177  17.427  0.00  0.00     0.030 H 
ATOM     43  H31 IID d   1       7.088   0.909  16.874  0.00  0.00     0.030 H 
ATOM     44  H32 IID d   1       7.075   0.261  18.549  0.00  0.00     0.030 H 
ENDBRANCH  35  41
ENDBRANCH  24  35
ENDBRANCH  16  19
ENDBRANCH   8  15
BRANCH   7  45
ATOM     45  C17 IID d   1       6.630   7.337  24.848  0.00  0.00     0.024 C 
ATOM     46  H10 IID d   1       6.830   6.300  24.540  0.00  0.00     0.072 H 
ATOM     47  H11 IID d   1       6.215   7.343  25.867  0.00  0.00     0.072 H 
BRANCH  45  48
ATOM     48  C18 IID d   1       7.991   8.054  24.915  0.00  0.00    -0.037 A 
ATOM     49  C21 IID d   1       8.423   9.145  23.995  0.00  0.00    -0.075 A 
ATOM     50  C22 IID d   1       9.746   9.750  24.169  0.00  0.00    -0.080 A 
ATOM     51  H12 IID d   1       7.764   9.487  23.205  0.00  0.00     0.084 H 
ATOM     52  C23 IID d   1      10.636   9.285  25.237  0.00  0.00    -0.051 A 
ATOM     53  H13 IID d   1      10.068  10.544  23.506  0.00  0.00     0.083 H 
ATOM     54  C24 IID d   1      10.227   8.226  26.160  0.00  0.00     0.068 A 
ATOM     55  H14 IID d   1      11.616   9.735  25.345  0.00  0.00     0.087 H 
ATOM     56  C25 IID d   1       8.904   7.604  25.983  0.00  0.00    -0.043 A 
ATOM     57  H15 IID d   1       8.597   6.804  26.647  0.00  0.00     0.088 H 
BRANCH  54  58
ATOM     58  O1  IID d   1      11.141   7.952  27.175  0.00  0.00    -0.356 OA
BRANCH  58  59
ATOM     59  C7  IID d   1      11.100   6.761  27.985  0.00  0.00     0.010 C 
ATOM     60  H18 IID d   1      11.926   6.783  28.711  0.00  0.00     0.066 H 
ATOM     61  H19 IID d   1      11.201   5.875  27.340  0.00  0.00     0.066 H 
ATOM     62  H20 IID d   1      10.141   6.716  28.522  0.00  0.00     0.066 H 
ENDBRANCH  58  59
ENDBRANCH  54  58
ENDBRANCH  45  48
ENDBRANCH   7  45
TORSDOF 9
