REMARK  18 active torsions:
REMARK  status: ('A' for Active; 'I' for Inactive)
REMARK    1  A    between atoms: C22_18  and  C23_1 
REMARK    2  A    between atoms: C32_13  and  C33_7 
REMARK    3  A    between atoms: N24_41  and  C32_13 
REMARK    4  A    between atoms: O8_20  and  C7_14 
REMARK    5  A    between atoms: C4_15  and  C1_38 
REMARK    6  A    between atoms: N24_41  and  C4_15 
REMARK       I    between atoms: N1_17  and  C30_32 
REMARK    7  A    between atoms: C41_35  and  N1_17 
REMARK    8  A    between atoms: C1_38  and  C22_18 
REMARK    9  A    between atoms: C1_38  and  O6_19 
REMARK   10  A    between atoms: C30_32  and  O8_20 
REMARK       I    between atoms: C10_21  and  N12_23 
REMARK   11  A    between atoms: C1_38  and  C10_21 
REMARK   12  A    between atoms: N12_23  and  C51_24 
REMARK   13  A    between atoms: C59_30  and  O60_31 
REMARK   14  A    between atoms: C41_35  and  C42_36 
REMARK   15  A    between atoms: C45_40  and  C41_35 
REMARK   16  A    between atoms: C42_36  and  C43_37 
REMARK   17  A    between atoms: C42_36  and  C44_39 
REMARK       I    between atoms: N47_43  and  C45_40 
REMARK   18  A    between atoms: N24_41  and  N47_43 
ROOT
ATOM      1  C4  A1A d   1      13.981  23.758   6.123  0.00  0.00     0.141 C 
ATOM      2  H16 A1A d   1      13.560  22.816   6.503  0.00  0.00     0.085 H 
ATOM      3  H17 A1A d   1      13.980  24.510   6.926  0.00  0.00     0.085 H 
ENDROOT
BRANCH   1   4
ATOM      4  C1  A1A d   1      12.934  24.283   5.058  0.00  0.00     0.168 C 
BRANCH   4   5
ATOM      5  C22 A1A d   1      12.609  23.350   3.833  0.00  0.00    -0.002 C 
ATOM      6  H19 A1A d   1      13.362  23.534   3.052  0.00  0.00     0.045 H 
ATOM      7  H20 A1A d   1      12.677  22.305   4.170  0.00  0.00     0.045 H 
BRANCH   5   8
ATOM      8  C23 A1A d   1      11.205  23.568   3.212  0.00  0.00    -0.055 A 
ATOM      9  C24 A1A d   1      10.958  24.687   2.336  0.00  0.00    -0.077 A 
ATOM     10  C25 A1A d   1       9.650  24.900   1.791  0.00  0.00    -0.082 A 
ATOM     11  H1  A1A d   1      11.764  25.369   2.089  0.00  0.00     0.084 H 
ATOM     12  C26 A1A d   1       8.580  24.005   2.113  0.00  0.00    -0.083 A 
ATOM     13  H2  A1A d   1       9.470  25.742   1.132  0.00  0.00     0.083 H 
ATOM     14  C27 A1A d   1       8.815  22.888   2.979  0.00  0.00    -0.082 A 
ATOM     15  H3  A1A d   1       7.591  24.172   1.701  0.00  0.00     0.083 H 
ATOM     16  C28 A1A d   1      10.119  22.670   3.528  0.00  0.00    -0.077 A 
ATOM     17  H4  A1A d   1       8.005  22.208   3.219  0.00  0.00     0.083 H 
ATOM     18  H5  A1A d   1      10.292  21.826   4.185  0.00  0.00     0.084 H 
ENDBRANCH   5   8
ENDBRANCH   4   5
BRANCH   4  19
ATOM     19  O6  A1A d   1      13.414  25.524   4.557  0.00  0.00    -0.378 OA
ATOM     20  H21 A1A d   1      12.747  25.923   4.010  0.00  0.00     0.211 HD
ENDBRANCH   4  19
BRANCH   4  21
ATOM     21  C10 A1A d   1      11.622  24.508   5.908  0.00  0.00     0.255 C 
ATOM     22  O11 A1A d   1      11.289  23.692   6.790  0.00  0.00    -0.270 OA
ATOM     23  N12 A1A d   1      10.869  25.599   5.688  0.00  0.00    -0.347 N 
ATOM     24  H22 A1A d   1      11.150  26.233   4.968  0.00  0.00     0.163 HD
BRANCH  23  25
ATOM     25  C51 A1A d   1       9.649  25.906   6.457  0.00  0.00     0.063 C 
ATOM     26  C52 A1A d   1       9.875  26.703   7.713  0.00  0.00    -0.027 A 
ATOM     27  C57 A1A d   1       8.764  27.547   7.931  0.00  0.00    -0.047 A 
ATOM     28  C53 A1A d   1      10.993  26.690   8.610  0.00  0.00    -0.074 A 
ATOM     29  C56 A1A d   1       8.708  28.426   9.055  0.00  0.00    -0.076 A 
ATOM     30  C58 A1A d   1       7.727  27.359   6.832  0.00  0.00    -0.014 C 
ATOM     31  C55 A1A d   1       9.820  28.430   9.966  0.00  0.00    -0.082 A 
ATOM     32  H29 A1A d   1       7.852  29.071   9.216  0.00  0.00     0.084 H 
ATOM     33  C54 A1A d   1      10.955  27.567   9.744  0.00  0.00    -0.082 A 
ATOM     34  H26 A1A d   1       9.806  29.087  10.828  0.00  0.00     0.083 H 
ATOM     35  H25 A1A d   1      11.786  27.582  10.440  0.00  0.00     0.083 H 
ATOM     36  C59 A1A d   1       8.561  26.734   5.685  0.00  0.00     0.063 C 
ATOM     37  H30 A1A d   1       7.292  28.322   6.527  0.00  0.00     0.044 H 
ATOM     38  H31 A1A d   1       6.924  26.680   7.155  0.00  0.00     0.044 H 
ATOM     39  H27 A1A d   1       7.966  26.095   5.016  0.00  0.00     0.087 H 
ATOM     40  H24 A1A d   1      11.841  26.037   8.437  0.00  0.00     0.084 H 
ATOM     41  H23 A1A d   1       9.211  24.936   6.736  0.00  0.00     0.084 H 
BRANCH  36  42
ATOM     42  O60 A1A d   1       9.114  27.849   4.975  0.00  0.00    -0.393 OA
ATOM     43  H28 A1A d   1       9.747  27.536   4.340  0.00  0.00     0.210 HD
ENDBRANCH  36  42
ENDBRANCH  23  25
ENDBRANCH   4  21
ENDBRANCH   1   4
BRANCH   1  44
ATOM     44  N24 A1A d   1      15.402  23.471   5.862  0.00  0.00     0.018 N 
ATOM     45  H40 A1A d   1      15.686  24.242   5.278  0.00  0.00     0.309 HD
BRANCH  44  46
ATOM     46  C32 A1A d   1      16.205  23.662   7.115  0.00  0.00     0.128 C 
ATOM     47  H11 A1A d   1      17.229  23.913   6.802  0.00  0.00     0.086 H 
ATOM     48  H12 A1A d   1      15.765  24.518   7.648  0.00  0.00     0.086 H 
BRANCH  46  49
ATOM     49  C33 A1A d   1      16.319  22.515   8.132  0.00  0.00    -0.030 A 
ATOM     50  C34 A1A d   1      17.631  22.023   8.458  0.00  0.00    -0.075 A 
ATOM     51  C35 A1A d   1      17.796  20.957   9.399  0.00  0.00    -0.082 A 
ATOM     52  H6  A1A d   1      18.502  22.463   7.987  0.00  0.00     0.084 H 
ATOM     53  C36 A1A d   1      16.646  20.373  10.025  0.00  0.00    -0.083 A 
ATOM     54  H7  A1A d   1      18.788  20.592   9.638  0.00  0.00     0.083 H 
ATOM     55  C37 A1A d   1      15.332  20.857   9.708  0.00  0.00    -0.082 A 
ATOM     56  H8  A1A d   1      16.769  19.566  10.738  0.00  0.00     0.083 H 
ATOM     57  C38 A1A d   1      15.168  21.924   8.765  0.00  0.00    -0.075 A 
ATOM     58  H9  A1A d   1      14.463  20.415  10.182  0.00  0.00     0.083 H 
ATOM     59  H10 A1A d   1      14.175  22.287   8.527  0.00  0.00     0.084 H 
ENDBRANCH  46  49
ENDBRANCH  44  46
BRANCH  44  60
ATOM     60  N47 A1A d   1      15.744  22.361   5.062  0.00  0.00    -0.184 N 
ATOM     61  C45 A1A d   1      15.444  21.034   5.159  0.00  0.00     0.264 C 
ATOM     62  O46 A1A d   1      14.447  20.598   5.749  0.00  0.00    -0.269 OA
ATOM     63  H41 A1A d   1      16.315  22.590   4.274  0.00  0.00     0.197 HD
BRANCH  61  64
ATOM     64  C41 A1A d   1      16.446  20.070   4.442  0.00  0.00     0.096 C 
ATOM     65  H32 A1A d   1      17.232  20.702   4.003  0.00  0.00     0.088 H 
BRANCH  64  66
ATOM     66  N1  A1A d   1      17.053  19.178   5.424  0.00  0.00    -0.323 N 
ATOM     67  C30 A1A d   1      18.321  19.234   5.869  0.00  0.00     0.360 C 
ATOM     68  O3  A1A d   1      19.103  20.117   5.444  0.00  0.00    -0.239 OA
ATOM     69  H18 A1A d   1      16.472  18.457   5.802  0.00  0.00     0.165 HD
BRANCH  67  70
ATOM     70  O8  A1A d   1      18.687  18.293   6.779  0.00  0.00    -0.309 OA
BRANCH  70  71
ATOM     71  C7  A1A d   1      19.998  18.230   7.333  0.00  0.00     0.015 C 
ATOM     72  H13 A1A d   1      20.057  17.391   8.042  0.00  0.00     0.067 H 
ATOM     73  H14 A1A d   1      20.219  19.170   7.859  0.00  0.00     0.067 H 
ATOM     74  H15 A1A d   1      20.730  18.080   6.526  0.00  0.00     0.067 H 
ENDBRANCH  70  71
ENDBRANCH  67  70
ENDBRANCH  64  66
BRANCH  64  75
ATOM     75  C42 A1A d   1      15.886  19.168   3.298  0.00  0.00    -0.033 C 
ATOM     76  H33 A1A d   1      15.120  18.519   3.747  0.00  0.00     0.042 H 
BRANCH  75  77
ATOM     77  C43 A1A d   1      16.970  18.264   2.647  0.00  0.00    -0.071 C 
ATOM     78  H34 A1A d   1      16.512  17.657   1.852  0.00  0.00     0.028 H 
ATOM     79  H35 A1A d   1      17.403  17.602   3.411  0.00  0.00     0.028 H 
ATOM     80  H36 A1A d   1      17.762  18.894   2.216  0.00  0.00     0.028 H 
ENDBRANCH  75  77
BRANCH  75  81
ATOM     81  C44 A1A d   1      15.233  19.966   2.159  0.00  0.00    -0.071 C 
ATOM     82  H37 A1A d   1      14.454  20.624   2.572  0.00  0.00     0.028 H 
ATOM     83  H38 A1A d   1      14.780  19.271   1.437  0.00  0.00     0.028 H 
ATOM     84  H39 A1A d   1      15.997  20.574   1.653  0.00  0.00     0.028 H 
ENDBRANCH  75  81
ENDBRANCH  64  75
ENDBRANCH  61  64
ENDBRANCH  44  60
ENDBRANCH   1  44
TORSDOF 18
