REMARK  6 active torsions:
REMARK  status: ('A' for Active; 'I' for Inactive)
REMARK    1  A    between atoms: C10_2  and  C11_3 
REMARK    2  A    between atoms: C4_17  and  N9_16 
REMARK    3  A    between atoms: N9_16  and  C8_24 
REMARK    4  A    between atoms: C1_21  and  C18_22 
REMARK    5  A    between atoms: C8_24  and  C23_23 
REMARK    6  A    between atoms: C23_23  and  O24_25 
ROOT
ATOM      1  C2  DFZ d   1       6.069  -2.285  19.491  0.00  0.00     0.091 A 
ATOM      2  C10 DFZ d   1       2.093  -4.281  19.729  0.00  0.00     0.056 A 
ATOM      3  N1  DFZ d   1       4.852  -2.156  19.981  0.00  0.00    -0.223 NA
ATOM      4  C6  DFZ d   1       3.926  -3.099  19.770  0.00  0.00     0.144 A 
ATOM      5  C5  DFZ d   1       4.235  -4.230  19.021  0.00  0.00     0.069 A 
ATOM      6  C4  DFZ d   1       5.539  -4.334  18.517  0.00  0.00     0.140 A 
ATOM      7  N3  DFZ d   1       6.412  -3.344  18.782  0.00  0.00    -0.224 NA
ATOM      8  N90 DFZ d   1       2.661  -3.161  20.165  0.00  0.00    -0.339 N 
ATOM      9  C1  DFZ d   1       3.059  -4.983  18.995  0.00  0.00     0.020 A 
ATOM     10  H1  DFZ d   1       6.801  -1.507  19.674  0.00  0.00     0.146 H 
ATOM     11  H12 DFZ d   1       2.186  -2.443  20.730  0.00  0.00     0.167 HD
ENDROOT
BRANCH   2  12
ATOM     12  C11 DFZ d   1       0.762  -4.643  19.974  0.00  0.00    -0.009 A 
ATOM     13  C12 DFZ d   1       0.253  -5.909  19.701  0.00  0.00    -0.071 A 
ATOM     14  C13 DFZ d   1      -1.081  -6.213  19.965  0.00  0.00    -0.082 A 
ATOM     15  H2  DFZ d   1       0.902  -6.668  19.278  0.00  0.00     0.084 H 
ATOM     16  C14 DFZ d   1      -1.930  -5.253  20.509  0.00  0.00    -0.083 A 
ATOM     17  H3  DFZ d   1      -1.460  -7.204  19.745  0.00  0.00     0.083 H 
ATOM     18  C15 DFZ d   1      -1.434  -3.984  20.786  0.00  0.00    -0.082 A 
ATOM     19  H4  DFZ d   1      -2.967  -5.492  20.715  0.00  0.00     0.083 H 
ATOM     20  C16 DFZ d   1      -0.098  -3.688  20.517  0.00  0.00    -0.071 A 
ATOM     21  H5  DFZ d   1      -2.084  -3.227  21.210  0.00  0.00     0.083 H 
ATOM     22  H6  DFZ d   1       0.280  -2.696  20.734  0.00  0.00     0.084 H 
ENDBRANCH   2  12
BRANCH   9  23
ATOM     23  C18 DFZ d   1       2.910  -6.219  18.360  0.00  0.00    -0.023 A 
ATOM     24  C19 DFZ d   1       2.182  -6.343  17.179  0.00  0.00    -0.072 A 
ATOM     25  C20 DFZ d   1       2.055  -7.592  16.567  0.00  0.00    -0.082 A 
ATOM     26  H7  DFZ d   1       1.715  -5.471  16.735  0.00  0.00     0.084 H 
ATOM     27  C21 DFZ d   1       2.656  -8.720  17.126  0.00  0.00    -0.083 A 
ATOM     28  H8  DFZ d   1       1.485  -7.686  15.650  0.00  0.00     0.083 H 
ATOM     29  C22 DFZ d   1       3.388  -8.596  18.304  0.00  0.00    -0.082 A 
ATOM     30  H9  DFZ d   1       2.554  -9.687  16.646  0.00  0.00     0.083 H 
ATOM     31  C17 DFZ d   1       3.510  -7.350  18.916  0.00  0.00    -0.072 A 
ATOM     32  H10 DFZ d   1       3.862  -9.466  18.744  0.00  0.00     0.083 H 
ATOM     33  H13 DFZ d   1       4.078  -7.258  19.835  0.00  0.00     0.084 H 
ENDBRANCH   9  23
BRANCH   6  34
ATOM     34  N9  DFZ d   1       5.972  -5.362  17.782  0.00  0.00    -0.372 N 
ATOM     35  H11 DFZ d   1       5.318  -6.122  17.545  0.00  0.00     0.161 HD
BRANCH  34  36
ATOM     36  C8  DFZ d   1       7.364  -5.435  17.302  0.00  0.00     0.013 C 
ATOM     37  H16 DFZ d   1       7.560  -6.442  16.906  0.00  0.00     0.067 H 
ATOM     38  H17 DFZ d   1       8.049  -5.230  18.138  0.00  0.00     0.067 H 
BRANCH  36  39
ATOM     39  C23 DFZ d   1       7.592  -4.399  16.192  0.00  0.00     0.031 C 
ATOM     40  H14 DFZ d   1       6.622  -3.999  15.861  0.00  0.00     0.076 H 
ATOM     41  H15 DFZ d   1       8.100  -4.879  15.343  0.00  0.00     0.076 H 
BRANCH  39  42
ATOM     42  O24 DFZ d   1       8.406  -3.325  16.689  0.00  0.00    -0.399 OA
ATOM     43  H18 DFZ d   1       7.967  -2.909  17.422  0.00  0.00     0.209 HD
ENDBRANCH  39  42
ENDBRANCH  36  39
ENDBRANCH  34  36
ENDBRANCH   6  34
TORSDOF 6
