REMARK  6 active torsions:
REMARK  status: ('A' for Active; 'I' for Inactive)
REMARK    1  A    between atoms: C1_1  and  O1_7 
REMARK    2  A    between atoms: C2_2  and  O2_8 
REMARK    3  A    between atoms: C3_3  and  O3_9 
REMARK    4  A    between atoms: C4_4  and  O4_10 
REMARK    5  A    between atoms: C5_5  and  C6_6 
REMARK    6  A    between atoms: O1_7  and  CM_12 
ROOT
ATOM      1  C1  MFU d   1      -2.435  36.785  -2.351  0.00  0.00     0.158 C 
ATOM      2  C2  MFU d   1      -2.919  36.633  -0.904  0.00  0.00     0.110 C 
ATOM      3  C3  MFU d   1      -4.352  37.081  -0.779  0.00  0.00     0.092 C 
ATOM      4  C4  MFU d   1      -5.210  36.301  -1.794  0.00  0.00     0.087 C 
ATOM      5  C5  MFU d   1      -4.655  36.519  -3.178  0.00  0.00     0.065 C 
ATOM      6  O5  MFU d   1      -3.276  36.067  -3.204  0.00  0.00    -0.351 OA
ATOM      7  H1  MFU d   1      -1.417  36.380  -2.446  0.00  0.00     0.133 H 
ATOM      8  H2  MFU d   1      -2.854  35.570  -0.629  0.00  0.00     0.094 H 
ATOM      9  H3  MFU d   1      -4.393  38.143  -1.063  0.00  0.00     0.091 H 
ATOM     10  H4  MFU d   1      -6.249  36.657  -1.743  0.00  0.00     0.091 H 
ATOM     11  H5  MFU d   1      -4.697  37.595  -3.405  0.00  0.00     0.086 H 
ENDROOT
BRANCH   1  12
ATOM     12  O1  MFU d   1      -2.405  38.172  -2.631  0.00  0.00    -0.363 OA
BRANCH  12  13
ATOM     13  CM  MFU d   1      -1.843  38.446  -3.845  0.00  0.00     0.007 C 
ATOM     14  H12 MFU d   1      -1.844  39.533  -4.013  0.00  0.00     0.066 H 
ATOM     15  H13 MFU d   1      -2.424  37.952  -4.638  0.00  0.00     0.066 H 
ATOM     16  H14 MFU d   1      -0.808  38.074  -3.862  0.00  0.00     0.066 H 
ENDBRANCH  12  13
ENDBRANCH   1  12
BRANCH   2  17
ATOM     17  O2  MFU d   1      -2.096  37.408   0.033  0.00  0.00    -0.388 OA
ATOM     18  H9  MFU d   1      -2.403  37.260   0.920  0.00  0.00     0.210 HD
ENDBRANCH   2  17
BRANCH   3  19
ATOM     19  O3  MFU d   1      -4.833  36.999   0.556  0.00  0.00    -0.390 OA
ATOM     20  H10 MFU d   1      -4.844  36.090   0.832  0.00  0.00     0.210 HD
ENDBRANCH   3  19
BRANCH   5  21
ATOM     21  C6  MFU d   1      -5.395  35.769  -4.255  0.00  0.00    -0.050 C 
ATOM     22  H6  MFU d   1      -4.933  35.978  -5.231  0.00  0.00     0.031 H 
ATOM     23  H7  MFU d   1      -6.446  36.092  -4.270  0.00  0.00     0.031 H 
ATOM     24  H8  MFU d   1      -5.346  34.689  -4.050  0.00  0.00     0.031 H 
ENDBRANCH   5  21
BRANCH   4  25
ATOM     25  O4  MFU d   1      -5.170  34.908  -1.532  0.00  0.00    -0.390 OA
ATOM     26  H11 MFU d   1      -5.515  34.740  -0.663  0.00  0.00     0.210 HD
ENDBRANCH   4  25
TORSDOF 6
