REMARK  8 active torsions:
REMARK  status: ('A' for Active; 'I' for Inactive)
REMARK    1  A    between atoms: C4_4  and  S8_8 
REMARK    2  A    between atoms: S8_8  and  C9_9 
REMARK    3  A    between atoms: C9_9  and  C10_10 
REMARK       I    between atoms: C10_10  and  N12_12 
REMARK    4  A    between atoms: N12_12  and  C13_13 
REMARK    5  A    between atoms: C13_13  and  C14_14 
REMARK    6  A    between atoms: C13_13  and  C25_25 
REMARK    7  A    between atoms: C14_14  and  C15_15 
REMARK    8  A    between atoms: C18_18  and  N21_21 
REMARK       I    between atoms: N21_21  and  C22_22 
REMARK       I    between atoms: C22_22  and  N24_24 
REMARK       I    between atoms: C25_25  and  N27_27 
ROOT
ATOM      1  C13 4CP d   1      12.806 -15.277  14.135  0.00  0.00     0.093 C 
ATOM      2  H8  4CP d   1      12.957 -16.138  13.467  0.00  0.00     0.088 H 
ENDROOT
BRANCH   1   3
ATOM      3  N12 4CP d   1      14.132 -14.673  14.483  0.00  0.00    -0.347 N 
ATOM      4  C10 4CP d   1      15.389 -15.274  14.320  0.00  0.00     0.228 C 
ATOM      5  O11 4CP d   1      15.454 -16.401  13.854  0.00  0.00    -0.273 OA
ATOM      6  H7  4CP d   1      14.120 -13.751  14.870  0.00  0.00     0.163 HD
BRANCH   4   7
ATOM      7  C9  4CP d   1      16.694 -14.587  14.700  0.00  0.00     0.055 C 
ATOM      8  H5  4CP d   1      17.208 -15.193  15.461  0.00  0.00     0.063 H 
ATOM      9  H6  4CP d   1      17.329 -14.507  13.805  0.00  0.00     0.063 H 
BRANCH   7  10
ATOM     10  S8  4CP d   1      16.405 -12.920  15.370  0.00  0.00    -0.121 SA
BRANCH  10  11
ATOM     11  C4  4CP d   1      16.446 -11.651  14.166  0.00  0.00     0.001 A 
ATOM     12  C3  4CP d   1      15.438 -10.626  14.212  0.00  0.00    -0.065 A 
ATOM     13  C2  4CP d   1      15.444  -9.571  13.240  0.00  0.00    -0.061 A 
ATOM     14  H2  4CP d   1      14.674 -10.651  14.981  0.00  0.00     0.085 H 
ATOM     15  C1  4CP d   1      16.454  -9.539  12.224  0.00  0.00     0.034 A 
ATOM     16  H1  4CP d   1      14.685  -8.798  13.274  0.00  0.00     0.086 H 
ATOM     17  C6  4CP d   1      17.460 -10.559  12.172  0.00  0.00    -0.061 A 
ATOM     18 CL7  4CP d   1      16.464  -8.281  11.066  0.00  0.00    -0.084 Cl
ATOM     19  C5  4CP d   1      17.456 -11.611  13.140  0.00  0.00    -0.065 A 
ATOM     20  H4  4CP d   1      18.221 -10.533  11.401  0.00  0.00     0.086 H 
ATOM     21  H3  4CP d   1      18.217 -12.382  13.102  0.00  0.00     0.085 H 
ENDBRANCH  10  11
ENDBRANCH   7  10
ENDBRANCH   4   7
ENDBRANCH   1   3
BRANCH   1  22
ATOM     22  C14 4CP d   1      12.113 -15.749  15.440  0.00  0.00    -0.014 C 
ATOM     23  H9  4CP d   1      11.130 -16.158  15.161  0.00  0.00     0.043 H 
ATOM     24  H10 4CP d   1      11.974 -14.863  16.078  0.00  0.00     0.043 H 
BRANCH  22  25
ATOM     25  C15 4CP d   1      12.831 -16.814  16.283  0.00  0.00    -0.056 A 
ATOM     26  C16 4CP d   1      13.470 -16.411  17.510  0.00  0.00    -0.075 A 
ATOM     27  C17 4CP d   1      14.149 -17.379  18.329  0.00  0.00    -0.056 A 
ATOM     28  H11 4CP d   1      13.439 -15.372  17.818  0.00  0.00     0.084 H 
ATOM     29  C18 4CP d   1      14.201 -18.779  17.937  0.00  0.00     0.049 A 
ATOM     30  H12 4CP d   1      14.627 -17.062  19.249  0.00  0.00     0.086 H 
ATOM     31  C19 4CP d   1      13.558 -19.168  16.702  0.00  0.00    -0.056 A 
ATOM     32  C20 4CP d   1      12.876 -18.197  15.882  0.00  0.00    -0.075 A 
ATOM     33  H13 4CP d   1      13.589 -20.205  16.387  0.00  0.00     0.086 H 
ATOM     34  H14 4CP d   1      12.396 -18.509  14.961  0.00  0.00     0.084 H 
BRANCH  29  35
ATOM     35  N21 4CP d   1      14.864 -19.829  18.702  0.00  0.00    -0.193 N 
ATOM     36  C22 4CP d   1      15.574 -19.796  19.936  0.00  0.00     0.669 C 
ATOM     37  N23 4CP d   1      15.752 -18.703  20.630  0.00  0.00    -0.235 N 
ATOM     38  N24 4CP d   1      16.099 -20.980  20.420  0.00  0.00    -0.235 N 
ATOM     39  H16 4CP d   1      16.274 -18.736  21.517  0.00  0.00     0.174 HD
ATOM     40  H17 4CP d   1      15.370 -17.809  20.290  0.00  0.00     0.174 HD
ATOM     41  H18 4CP d   1      15.972 -21.854  19.891  0.00  0.00     0.174 HD
ATOM     42  H19 4CP d   1      16.617 -20.988  21.310  0.00  0.00     0.174 HD
ATOM     43  H15 4CP d   1      14.809 -20.763  18.272  0.00  0.00     0.184 HD
ENDBRANCH  29  35
ENDBRANCH  22  25
ENDBRANCH   1  22
BRANCH   1  44
ATOM     44  C25 4CP d   1      11.932 -14.232  13.428  0.00  0.00     0.238 C 
ATOM     45  O26 4CP d   1      12.302 -13.067  13.384  0.00  0.00    -0.271 OA
ATOM     46  N27 4CP d   1      10.726 -14.568  12.821  0.00  0.00    -0.368 N 
ATOM     47  H20 4CP d   1      10.180 -13.863  12.369  0.00  0.00     0.159 HD
ATOM     48  H21 4CP d   1      10.405 -15.515  12.837  0.00  0.00     0.159 HD
ENDBRANCH   1  44
TORSDOF 8
