REMARK  16 active torsions:
REMARK  status: ('A' for Active; 'I' for Inactive)
REMARK    1  A    between atoms: C4_4  and  S8_8 
REMARK    2  A    between atoms: S8_8  and  C9_9 
REMARK    3  A    between atoms: C9_9  and  C10_10 
REMARK       I    between atoms: C10_10  and  N12_12 
REMARK    4  A    between atoms: N12_12  and  C13_13 
REMARK    5  A    between atoms: C13_13  and  C14_14 
REMARK    6  A    between atoms: C13_13  and  C25_25 
REMARK    7  A    between atoms: C14_14  and  C15_15 
REMARK    8  A    between atoms: C18_18  and  N21_21 
REMARK       I    between atoms: N21_21  and  C22_22 
REMARK       I    between atoms: C22_22  and  N24_24 
REMARK       I    between atoms: C25_25  and  N27_27 
REMARK    9  A    between atoms: N27_27  and  C28_28 
REMARK   10  A    between atoms: C28_28  and  C29_29 
REMARK   11  A    between atoms: C29_29  and  O30_30 
REMARK   12  A    between atoms: O30_30  and  C31_31 
REMARK   13  A    between atoms: C31_31  and  C32_32 
REMARK   14  A    between atoms: C32_32  and  O33_33 
REMARK   15  A    between atoms: O33_33  and  C34_34 
REMARK   16  A    between atoms: C34_34  and  C35_35 
REMARK       I    between atoms: C35_35  and  N37_37 
ROOT
ATOM      1  C13 2CE d   1      13.203 -15.669  14.203  0.00  0.00     0.093 C 
ATOM      2  H8  2CE d   1      13.451 -16.571  13.625  0.00  0.00     0.088 H 
ENDROOT
BRANCH   1   3
ATOM      3  N12 2CE d   1      14.445 -14.932  14.550  0.00  0.00    -0.347 N 
ATOM      4  C10 2CE d   1      15.719 -15.488  14.420  0.00  0.00     0.228 C 
ATOM      5  O11 2CE d   1      15.813 -16.629  14.022  0.00  0.00    -0.273 OA
ATOM      6  H7  2CE d   1      14.365 -13.996  14.892  0.00  0.00     0.163 HD
BRANCH   4   7
ATOM      7  C9  2CE d   1      17.008 -14.747  14.741  0.00  0.00     0.055 C 
ATOM      8  H5  2CE d   1      17.566 -15.312  15.502  0.00  0.00     0.063 H 
ATOM      9  H6  2CE d   1      17.613 -14.668  13.826  0.00  0.00     0.063 H 
BRANCH   7  10
ATOM     10  S8  2CE d   1      16.671 -13.082  15.371  0.00  0.00    -0.121 SA
BRANCH  10  11
ATOM     11  C4  2CE d   1      16.674 -11.833  14.133  0.00  0.00     0.001 A 
ATOM     12  C3  2CE d   1      15.726 -10.794  14.219  0.00  0.00    -0.065 A 
ATOM     13  C2  2CE d   1      15.703  -9.778  13.241  0.00  0.00    -0.061 A 
ATOM     14  H2  2CE d   1      15.014 -10.776  15.037  0.00  0.00     0.085 H 
ATOM     15  C1  2CE d   1      16.621  -9.790  12.174  0.00  0.00     0.034 A 
ATOM     16  H1  2CE d   1      14.972  -8.981  13.312  0.00  0.00     0.086 H 
ATOM     17  C6  2CE d   1      17.568 -10.825  12.079  0.00  0.00    -0.061 A 
ATOM     18 CL7  2CE d   1      16.584  -8.542  10.994  0.00  0.00    -0.084 Cl
ATOM     19  C5  2CE d   1      17.593 -11.841  13.055  0.00  0.00    -0.065 A 
ATOM     20  H4  2CE d   1      18.276 -10.841  11.258  0.00  0.00     0.086 H 
ATOM     21  H3  2CE d   1      18.324 -12.638  12.980  0.00  0.00     0.085 H 
ENDBRANCH  10  11
ENDBRANCH   7  10
ENDBRANCH   4   7
ENDBRANCH   1   3
BRANCH   1  22
ATOM     22  C14 2CE d   1      12.459 -16.077  15.500  0.00  0.00    -0.014 C 
ATOM     23  H9  2CE d   1      11.509 -16.544  15.201  0.00  0.00     0.043 H 
ATOM     24  H10 2CE d   1      12.253 -15.155  16.064  0.00  0.00     0.043 H 
BRANCH  22  25
ATOM     25  C15 2CE d   1      13.166 -17.048  16.453  0.00  0.00    -0.056 A 
ATOM     26  C16 2CE d   1      13.574 -16.597  17.732  0.00  0.00    -0.075 A 
ATOM     27  C17 2CE d   1      14.231 -17.481  18.631  0.00  0.00    -0.056 A 
ATOM     28  H11 2CE d   1      13.384 -15.571  18.027  0.00  0.00     0.084 H 
ATOM     29  C18 2CE d   1      14.493 -18.837  18.258  0.00  0.00     0.049 A 
ATOM     30  H12 2CE d   1      14.536 -17.124  19.608  0.00  0.00     0.086 H 
ATOM     31  C19 2CE d   1      14.080 -19.274  16.975  0.00  0.00    -0.056 A 
ATOM     32  C20 2CE d   1      13.423 -18.390  16.079  0.00  0.00    -0.075 A 
ATOM     33  H13 2CE d   1      14.268 -20.298  16.673  0.00  0.00     0.086 H 
ATOM     34  H14 2CE d   1      13.116 -18.744  15.102  0.00  0.00     0.084 H 
BRANCH  29  35
ATOM     35  N21 2CE d   1      15.156 -19.796  19.122  0.00  0.00    -0.193 N 
ATOM     36  C22 2CE d   1      15.657 -19.619  20.430  0.00  0.00     0.669 C 
ATOM     37  N23 2CE d   1      15.571 -18.481  21.056  0.00  0.00    -0.235 N 
ATOM     38  N24 2CE d   1      16.261 -20.696  21.066  0.00  0.00    -0.235 N 
ATOM     39  H16 2CE d   1      15.948 -18.388  22.010  0.00  0.00     0.174 HD
ATOM     40  H17 2CE d   1      15.126 -17.673  20.597  0.00  0.00     0.174 HD
ATOM     41  H18 2CE d   1      16.337 -21.603  20.583  0.00  0.00     0.174 HD
ATOM     42  H19 2CE d   1      16.633 -20.588  22.020  0.00  0.00     0.174 HD
ATOM     43  H15 2CE d   1      15.278 -20.739  18.725  0.00  0.00     0.184 HD
ENDBRANCH  29  35
ENDBRANCH  22  25
ENDBRANCH   1  22
BRANCH   1  44
ATOM     44  C25 2CE d   1      12.340 -14.743  13.366  0.00  0.00     0.240 C 
ATOM     45  O26 2CE d   1      12.694 -13.586  13.213  0.00  0.00    -0.271 OA
ATOM     46  N27 2CE d   1      11.203 -15.199  12.733  0.00  0.00    -0.357 N 
ATOM     47  H20 2CE d   1      10.922 -16.145  12.893  0.00  0.00     0.162 HD
BRANCH  46  48
ATOM     48  C28 2CE d   1      10.385 -14.380  11.843  0.00  0.00     0.015 C 
ATOM     49  H21 2CE d   1      10.797 -14.452  10.826  0.00  0.00     0.067 H 
ATOM     50  H22 2CE d   1      10.434 -13.336  12.186  0.00  0.00     0.067 H 
BRANCH  48  51
ATOM     51  C29 2CE d   1       8.915 -14.809  11.803  0.00  0.00     0.034 C 
ATOM     52  H23 2CE d   1       8.805 -15.623  11.072  0.00  0.00     0.076 H 
ATOM     53  H24 2CE d   1       8.305 -13.949  11.489  0.00  0.00     0.076 H 
BRANCH  51  54
ATOM     54  O30 2CE d   1       8.444 -15.266  13.071  0.00  0.00    -0.387 OA
BRANCH  54  55
ATOM     55  C31 2CE d   1       8.655 -14.317  14.115  0.00  0.00     0.039 C 
ATOM     56  H25 2CE d   1       8.070 -13.412  13.894  0.00  0.00     0.077 H 
ATOM     57  H26 2CE d   1       9.725 -14.063  14.151  0.00  0.00     0.077 H 
BRANCH  55  58
ATOM     58  C32 2CE d   1       8.229 -14.857  15.490  0.00  0.00     0.040 C 
ATOM     59  H27 2CE d   1       9.060 -14.730  16.200  0.00  0.00     0.077 H 
ATOM     60  H28 2CE d   1       7.986 -15.926  15.397  0.00  0.00     0.077 H 
BRANCH  58  61
ATOM     61  O33 2CE d   1       7.088 -14.160  15.979  0.00  0.00    -0.380 OA
BRANCH  61  62
ATOM     62  C34 2CE d   1       7.412 -13.322  17.084  0.00  0.00     0.093 C 
ATOM     63  H29 2CE d   1       7.386 -13.917  18.009  0.00  0.00     0.089 H 
ATOM     64  H30 2CE d   1       6.674 -12.509  17.150  0.00  0.00     0.089 H 
BRANCH  62  65
ATOM     65  C35 2CE d   1       8.796 -12.725  16.915  0.00  0.00     0.239 C 
ATOM     66  O36 2CE d   1       9.330 -12.746  15.824  0.00  0.00    -0.271 OA
ATOM     67  N37 2CE d   1       9.469 -12.176  17.995  0.00  0.00    -0.368 N 
ATOM     68  H31 2CE d   1      10.381 -11.786  17.870  0.00  0.00     0.159 HD
ATOM     69  H32 2CE d   1       9.043 -12.170  18.899  0.00  0.00     0.159 HD
ENDBRANCH  62  65
ENDBRANCH  61  62
ENDBRANCH  58  61
ENDBRANCH  55  58
ENDBRANCH  54  55
ENDBRANCH  51  54
ENDBRANCH  48  51
ENDBRANCH  46  48
ENDBRANCH   1  44
TORSDOF 16
