REMARK  20 active torsions:
REMARK  status: ('A' for Active; 'I' for Inactive)
REMARK    1  A    between atoms: C10_4  and  C12_5 
REMARK    2  A    between atoms: N7_8  and  C6_9 
REMARK    3  A    between atoms: C1_14  and  C13_15 
REMARK    4  A    between atoms: C13_15  and  O14_17 
REMARK    5  A    between atoms: O14_17  and  C15_18 
REMARK    6  A    between atoms: C15_18  and  C16_19 
REMARK    7  A    between atoms: C19_22  and  O19_23 
REMARK    8  A    between atoms: O19_23  and  C22_24 
REMARK    9  A    between atoms: C18_25  and  C30_32 
REMARK   10  A    between atoms: N23_28  and  C24_29 
REMARK   11  A    between atoms: C24_29  and  C25_30 
REMARK   12  A    between atoms: C35_35  and  O35_36 
REMARK   13  A    between atoms: O35_36  and  C37_37 
REMARK   14  A    between atoms: C38_40  and  O38_41 
REMARK   15  A    between atoms: O38_41  and  C39_42 
REMARK   16  A    between atoms: C32_43  and  O32_44 
REMARK   17  A    between atoms: C32_43  and  C27_45 
REMARK   18  A    between atoms: C27_45  and  O27_46 
REMARK   19  A    between atoms: C28_47  and  O28_48 
REMARK   20  A    between atoms: O28_48  and  C29_49 
ROOT
ATOM      1  C16 MLK d   1       6.759  -1.162 -10.516  0.00  0.00     0.013 C 
ATOM      2  C21 MLK d   1       7.408  -2.549 -10.359  0.00  0.00    -0.052 C 
ATOM      3  C20 MLK d   1       8.299  -2.886 -11.533  0.00  0.00    -0.039 C 
ATOM      4  C19 MLK d   1       9.314  -1.762 -11.775  0.00  0.00     0.048 C 
ATOM      5  C18 MLK d   1       8.633  -0.393 -12.005  0.00  0.00     0.029 C 
ATOM      6  C17 MLK d   1       7.111  -0.472 -11.849  0.00  0.00    -0.003 C 
ATOM      7  C26 MLK d   1       8.859   0.714 -10.978  0.00  0.00     0.149 C 
ATOM      8  N23 MLK d   1       8.631   0.201  -9.592  0.00  0.00    -0.062 N 
ATOM      9  C23 MLK d   1       7.250  -0.282  -9.359  0.00  0.00     0.093 C 
ATOM     10  C27 MLK d   1       7.875   1.780 -11.496  0.00  0.00     0.145 C 
ATOM     11  C28 MLK d   1       6.624   0.973 -11.833  0.00  0.00     0.077 C 
ATOM     12  H13 MLK d   1       6.615  -3.307 -10.284  0.00  0.00     0.034 H 
ATOM     13  H14 MLK d   1       8.011  -2.558  -9.439  0.00  0.00     0.034 H 
ATOM     14  H15 MLK d   1       7.679  -3.015 -12.433  0.00  0.00     0.036 H 
ATOM     15  H16 MLK d   1       8.838  -3.821 -11.322  0.00  0.00     0.036 H 
ATOM     16  H17 MLK d   1       9.870  -2.013 -12.690  0.00  0.00     0.084 H 
ATOM     17  H21 MLK d   1       6.661  -1.025 -12.687  0.00  0.00     0.046 H 
ATOM     18  H22 MLK d   1       9.888   1.100 -11.030  0.00  0.00     0.091 H 
ATOM     19  H23 MLK d   1       9.242  -0.593  -9.481  0.00  0.00     0.280 HD
ATOM     20  H29 MLK d   1       7.229  -0.870  -8.429  0.00  0.00     0.077 H 
ATOM     21  H30 MLK d   1       6.580   0.585  -9.260  0.00  0.00     0.077 H 
ATOM     22  H48 MLK d   1       5.871   1.109 -11.043  0.00  0.00     0.088 H 
ENDROOT
BRANCH   1  23
ATOM     23  C15 MLK d   1       5.261  -1.397 -10.412  0.00  0.00     0.038 C 
ATOM     24  H11 MLK d   1       5.017  -1.837  -9.434  0.00  0.00     0.076 H 
ATOM     25  H12 MLK d   1       4.722  -0.445 -10.530  0.00  0.00     0.076 H 
BRANCH  23  26
ATOM     26  O14 MLK d   1       4.898  -2.290 -11.448  0.00  0.00    -0.317 OA
BRANCH  26  27
ATOM     27  C13 MLK d   1       3.518  -2.616 -11.718  0.00  0.00     0.295 C 
ATOM     28  O13 MLK d   1       2.642  -2.151 -11.011  0.00  0.00    -0.259 OA
BRANCH  27  29
ATOM     29  C1  MLK d   1       3.214  -3.515 -12.872  0.00  0.00     0.066 A 
ATOM     30  C6  MLK d   1       1.859  -3.533 -13.465  0.00  0.00     0.061 A 
ATOM     31  C5  MLK d   1       1.609  -4.379 -14.543  0.00  0.00    -0.056 A 
ATOM     32  C4  MLK d   1       2.623  -5.189 -15.059  0.00  0.00    -0.081 A 
ATOM     33  H7  MLK d   1       0.620  -4.409 -14.985  0.00  0.00     0.087 H 
ATOM     34  C3  MLK d   1       3.906  -5.173 -14.504  0.00  0.00    -0.082 A 
ATOM     35  H8  MLK d   1       2.412  -5.839 -15.901  0.00  0.00     0.083 H 
ATOM     36  C2  MLK d   1       4.203  -4.340 -13.416  0.00  0.00    -0.065 A 
ATOM     37  H9  MLK d   1       4.678  -5.811 -14.919  0.00  0.00     0.083 H 
ATOM     38  H10 MLK d   1       5.202  -4.336 -12.995  0.00  0.00     0.085 H 
BRANCH  30  39
ATOM     39  N7  MLK d   1       0.857  -2.713 -12.931  0.00  0.00    -0.251 N 
ATOM     40  C8  MLK d   1       0.737  -1.404 -13.206  0.00  0.00     0.232 A 
ATOM     41  O8  MLK d   1       1.584  -0.663 -13.710  0.00  0.00    -0.273 OA
ATOM     42  C9  MLK d   1      -0.640  -0.930 -12.793  0.00  0.00     0.021 A 
ATOM     43  C10 MLK d   1      -1.267  -2.155 -12.155  0.00  0.00     0.029 A 
ATOM     44  H1  MLK d   1      -1.221  -0.603 -13.668  0.00  0.00     0.048 H 
ATOM     45  H2  MLK d   1      -0.570  -0.104 -12.070  0.00  0.00     0.048 H 
ATOM     46  C11 MLK d   1      -0.242  -3.226 -12.379  0.00  0.00     0.235 A 
ATOM     47  H3  MLK d   1      -2.207  -2.410 -12.667  0.00  0.00     0.054 H 
ATOM     48  O11 MLK d   1      -0.414  -4.385 -12.029  0.00  0.00    -0.272 OA
BRANCH  43  49
ATOM     49  C12 MLK d   1      -1.559  -1.962 -10.673  0.00  0.00    -0.064 C 
ATOM     50  H4  MLK d   1      -2.011  -2.879 -10.266  0.00  0.00     0.028 H 
ATOM     51  H5  MLK d   1      -2.256  -1.121 -10.543  0.00  0.00     0.028 H 
ATOM     52  H6  MLK d   1      -0.621  -1.747 -10.139  0.00  0.00     0.028 H 
ENDBRANCH  43  49
ENDBRANCH  30  39
ENDBRANCH  27  29
ENDBRANCH  26  27
ENDBRANCH  23  26
ENDBRANCH   1  23
BRANCH   5  53
ATOM     53  C30 MLK d   1       9.129   0.109 -13.388  0.00  0.00    -0.033 C 
ATOM     54  C33 MLK d   1      10.663   0.238 -13.467  0.00  0.00    -0.052 C 
ATOM     55  C34 MLK d   1      10.954   1.653 -13.954  0.00  0.00    -0.003 C 
ATOM     56  H32 MLK d   1      11.070  -0.499 -14.175  0.00  0.00     0.034 H 
ATOM     57  H33 MLK d   1      11.109   0.079 -12.474  0.00  0.00     0.034 H 
ATOM     58  C35 MLK d   1      11.050   2.648 -12.803  0.00  0.00     0.046 C 
ATOM     59  C38 MLK d   1       9.762   1.927 -14.830  0.00  0.00     0.050 C 
ATOM     60  H34 MLK d   1      11.887   1.686 -14.535  0.00  0.00     0.047 H 
ATOM     61  C36 MLK d   1       9.704   3.283 -12.411  0.00  0.00    -0.008 C 
ATOM     62  H35 MLK d   1      11.430   2.099 -11.929  0.00  0.00     0.084 H 
ATOM     63  C32 MLK d   1       8.430   2.478 -12.740  0.00  0.00     0.102 C 
ATOM     64  H39 MLK d   1       9.629   4.250 -12.930  0.00  0.00     0.041 H 
ATOM     65  H40 MLK d   1       9.720   3.450 -11.324  0.00  0.00     0.041 H 
ATOM     66  C31 MLK d   1       8.648   1.479 -13.888  0.00  0.00     0.009 C 
ATOM     67  H41 MLK d   1       7.703   1.370 -14.441  0.00  0.00     0.049 H 
ATOM     68  H42 MLK d   1       9.777   1.279 -15.719  0.00  0.00     0.084 H 
ATOM     69  H31 MLK d   1       8.798  -0.647 -14.116  0.00  0.00     0.042 H 
BRANCH  58  70
ATOM     70  O35 MLK d   1      11.967   3.705 -13.106  0.00  0.00    -0.390 OA
BRANCH  70  71
ATOM     71  C37 MLK d   1      13.348   3.348 -12.913  0.00  0.00     0.004 C 
ATOM     72  H36 MLK d   1      13.987   4.207 -13.165  0.00  0.00     0.066 H 
ATOM     73  H37 MLK d   1      13.602   2.499 -13.564  0.00  0.00     0.066 H 
ATOM     74  H38 MLK d   1      13.510   3.066 -11.862  0.00  0.00     0.066 H 
ENDBRANCH  70  71
ENDBRANCH  58  70
BRANCH  63  75
ATOM     75  O32 MLK d   1       7.441   3.412 -13.130  0.00  0.00    -0.386 OA
ATOM     76  H46 MLK d   1       6.630   2.954 -13.317  0.00  0.00     0.210 HD
ENDBRANCH  63  75
BRANCH  59  77
ATOM     77  O38 MLK d   1       9.724   3.282 -15.295  0.00  0.00    -0.390 OA
BRANCH  77  78
ATOM     78  C39 MLK d   1       8.674   3.493 -16.241  0.00  0.00     0.004 C 
ATOM     79  H43 MLK d   1       8.682   4.543 -16.570  0.00  0.00     0.066 H 
ATOM     80  H44 MLK d   1       7.706   3.263 -15.772  0.00  0.00     0.066 H 
ATOM     81  H45 MLK d   1       8.825   2.836 -17.110  0.00  0.00     0.066 H 
ENDBRANCH  77  78
ENDBRANCH  59  77
ENDBRANCH   5  53
BRANCH  11  82
ATOM     82  O28 MLK d   1       6.039   1.340 -13.072  0.00  0.00    -0.387 OA
BRANCH  82  83
ATOM     83  C29 MLK d   1       4.695   0.899 -13.212  0.00  0.00     0.005 C 
ATOM     84  H49 MLK d   1       4.305   1.216 -14.191  0.00  0.00     0.066 H 
ATOM     85  H50 MLK d   1       4.080   1.338 -12.413  0.00  0.00     0.066 H 
ATOM     86  H51 MLK d   1       4.660  -0.198 -13.141  0.00  0.00     0.066 H 
ENDBRANCH  82  83
ENDBRANCH  11  82
BRANCH   8  87
ATOM     87  C24 MLK d   1       8.999   1.182  -8.541  0.00  0.00     0.081 C 
ATOM     88  H24 MLK d   1       8.584   0.845  -7.580  0.00  0.00     0.075 H 
ATOM     89  H25 MLK d   1       8.570   2.160  -8.803  0.00  0.00     0.075 H 
BRANCH  87  90
ATOM     90  C25 MLK d   1      10.503   1.330  -8.399  0.00  0.00    -0.053 C 
ATOM     91  H26 MLK d   1      10.726   2.065  -7.611  0.00  0.00     0.029 H 
ATOM     92  H27 MLK d   1      10.929   1.674  -9.353  0.00  0.00     0.029 H 
ATOM     93  H28 MLK d   1      10.943   0.359  -8.130  0.00  0.00     0.029 H 
ENDBRANCH  87  90
ENDBRANCH   8  87
BRANCH   4  94
ATOM     94  O19 MLK d   1      10.252  -1.675 -10.708  0.00  0.00    -0.390 OA
BRANCH  94  95
ATOM     95  C22 MLK d   1      11.109  -2.800 -10.538  0.00  0.00     0.004 C 
ATOM     96  H18 MLK d   1      11.786  -2.620  -9.690  0.00  0.00     0.066 H 
ATOM     97  H19 MLK d   1      11.700  -2.952 -11.453  0.00  0.00     0.066 H 
ATOM     98  H20 MLK d   1      10.503  -3.696 -10.340  0.00  0.00     0.066 H 
ENDBRANCH  94  95
ENDBRANCH   4  94
BRANCH  10  99
ATOM     99  O27 MLK d   1       7.551   2.807 -10.552  0.00  0.00    -0.382 OA
ATOM    100  H47 MLK d   1       6.902   3.389 -10.929  0.00  0.00     0.210 HD
ENDBRANCH  10  99
TORSDOF 20
