REMARK  8 active torsions:
REMARK  status: ('A' for Active; 'I' for Inactive)
REMARK    1  A    between atoms: C3_2  and  C1_3 
REMARK    2  A    between atoms: C3_2  and  C8_9 
REMARK    3  A    between atoms: C8_9  and  C9_10 
REMARK    4  A    between atoms: C11_14  and  C14_17 
REMARK    5  A    between atoms: N1_15  and  C22_16 
REMARK    6  A    between atoms: C14_17  and  C16_18 
REMARK    7  A    between atoms: C16_18  and  O2_19 
REMARK    8  A    between atoms: C16_18  and  C17_20 
ROOT
ATOM      1  C9  LOB d   1      -7.993  24.207   4.642  0.00  0.00     0.110 C 
ATOM      2  C12 LOB d   1      -8.451  22.786   4.915  0.00  0.00    -0.038 C 
ATOM      3  C15 LOB d   1      -9.907  22.675   4.529  0.00  0.00    -0.061 C 
ATOM      4  C13 LOB d   1     -10.029  22.710   3.017  0.00  0.00    -0.038 C 
ATOM      5  C11 LOB d   1      -9.269  23.854   2.338  0.00  0.00     0.106 C 
ATOM      6  N1  LOB d   1      -8.316  24.573   3.234  0.00  0.00    -0.066 N 
ATOM      7  H8  LOB d   1      -8.529  24.880   5.327  0.00  0.00     0.085 H 
ATOM      8  H9  LOB d   1      -8.331  22.555   5.984  0.00  0.00     0.036 H 
ATOM      9  H10 LOB d   1      -7.853  22.081   4.318  0.00  0.00     0.036 H 
ATOM     10  H11 LOB d   1     -10.467  23.517   4.962  0.00  0.00     0.033 H 
ATOM     11  H12 LOB d   1     -10.317  21.727   4.909  0.00  0.00     0.033 H 
ATOM     12  H13 LOB d   1     -11.095  22.808   2.762  0.00  0.00     0.036 H 
ATOM     13  H14 LOB d   1      -9.643  21.759   2.620  0.00  0.00     0.036 H 
ATOM     14  H15 LOB d   1     -10.014  24.583   1.986  0.00  0.00     0.084 H 
ATOM     15  H16 LOB d   1      -7.450  24.297   2.798  0.00  0.00     0.280 HD
ENDROOT
BRANCH   5  16
ATOM     16  C14 LOB d   1      -8.490  23.320   1.119  0.00  0.00    -0.010 C 
ATOM     17  H20 LOB d   1      -9.127  22.604   0.579  0.00  0.00     0.040 H 
ATOM     18  H21 LOB d   1      -7.584  22.808   1.475  0.00  0.00     0.040 H 
BRANCH  16  19
ATOM     19  C16 LOB d   1      -8.077  24.436   0.155  0.00  0.00     0.062 C 
ATOM     20  H22 LOB d   1      -8.686  25.323   0.386  0.00  0.00     0.090 H 
BRANCH  19  21
ATOM     21  O2  LOB d   1      -6.700  24.744   0.374  0.00  0.00    -0.391 OA
ATOM     22  H23 LOB d   1      -6.174  23.969   0.215  0.00  0.00     0.210 HD
ENDBRANCH  19  21
BRANCH  19  23
ATOM     23  C17 LOB d   1      -8.264  24.115  -1.291  0.00  0.00    -0.030 A 
ATOM     24  C18 LOB d   1      -7.861  22.897  -1.838  0.00  0.00    -0.074 A 
ATOM     25  C20 LOB d   1      -8.045  22.631  -3.197  0.00  0.00    -0.082 A 
ATOM     26  H24 LOB d   1      -7.401  22.149  -1.202  0.00  0.00     0.084 H 
ATOM     27  C21 LOB d   1      -8.626  23.585  -4.031  0.00  0.00    -0.083 A 
ATOM     28  H25 LOB d   1      -7.734  21.676  -3.606  0.00  0.00     0.083 H 
ATOM     29  C10 LOB d   1      -9.015  24.812  -3.492  0.00  0.00    -0.082 A 
ATOM     30  H26 LOB d   1      -8.774  23.377  -5.085  0.00  0.00     0.083 H 
ATOM     31  C19 LOB d   1      -8.830  25.075  -2.134  0.00  0.00    -0.074 A 
ATOM     32  H27 LOB d   1      -9.463  25.564  -4.131  0.00  0.00     0.083 H 
ATOM     33  H28 LOB d   1      -9.129  26.035  -1.728  0.00  0.00     0.084 H 
ENDBRANCH  19  23
ENDBRANCH  16  19
ENDBRANCH   5  16
BRANCH   6  34
ATOM     34  C22 LOB d   1      -8.314  26.014   3.004  0.00  0.00     0.067 C 
ATOM     35  H17 LOB d   1      -7.598  26.493   3.687  0.00  0.00     0.068 H 
ATOM     36  H18 LOB d   1      -9.321  26.416   3.188  0.00  0.00     0.068 H 
ATOM     37  H19 LOB d   1      -8.021  26.219   1.964  0.00  0.00     0.068 H 
ENDBRANCH   6  34
BRANCH   1  38
ATOM     38  C8  LOB d   1      -6.479  24.410   4.837  0.00  0.00     0.022 C 
ATOM     39  H6  LOB d   1      -5.968  23.970   3.968  0.00  0.00     0.048 H 
ATOM     40  H7  LOB d   1      -6.288  25.493   4.866  0.00  0.00     0.048 H 
BRANCH  38  41
ATOM     41  C3  LOB d   1      -5.871  23.800   6.088  0.00  0.00     0.161 C 
ATOM     42  O1  LOB d   1      -5.815  22.584   6.149  0.00  0.00    -0.292 OA
BRANCH  41  43
ATOM     43  C1  LOB d   1      -5.293  24.612   7.229  0.00  0.00     0.010 A 
ATOM     44  C2  LOB d   1      -4.770  23.956   8.351  0.00  0.00    -0.070 A 
ATOM     45  C5  LOB d   1      -4.231  24.683   9.414  0.00  0.00    -0.082 A 
ATOM     46  H1  LOB d   1      -4.784  22.873   8.394  0.00  0.00     0.085 H 
ATOM     47  C6  LOB d   1      -4.209  26.076   9.373  0.00  0.00    -0.083 A 
ATOM     48  H2  LOB d   1      -3.828  24.162  10.275  0.00  0.00     0.083 H 
ATOM     49  C7  LOB d   1      -4.721  26.740   8.264  0.00  0.00    -0.082 A 
ATOM     50  H3  LOB d   1      -3.795  26.639  10.202  0.00  0.00     0.083 H 
ATOM     51  C4  LOB d   1      -5.254  26.009   7.201  0.00  0.00    -0.070 A 
ATOM     52  H4  LOB d   1      -4.706  27.823   8.225  0.00  0.00     0.083 H 
ATOM     53  H5  LOB d   1      -5.645  26.535   6.337  0.00  0.00     0.085 H 
ENDBRANCH  41  43
ENDBRANCH  38  41
ENDBRANCH   1  38
TORSDOF 8
