REMARK  11 active torsions:
REMARK  status: ('A' for Active; 'I' for Inactive)
REMARK    1  A    between atoms: C13_3  and  O25_4 
REMARK    2  A    between atoms: O25_4  and  C26_5 
REMARK    3  A    between atoms: C9_11  and  O23_12 
REMARK    4  A    between atoms: O23_12  and  C24_13 
REMARK    5  A    between atoms: C24_13  and  C30_14 
REMARK    6  A    between atoms: C11_16  and  C14_17 
REMARK    7  A    between atoms: C14_17  and  C15_18 
REMARK    8  A    between atoms: C14_17  and  N3_21 
REMARK    9  A    between atoms: N3_21  and  C1_22 
REMARK   10  A    between atoms: C4_25  and  C7_26 
REMARK   11  A    between atoms: C7_26  and  N1_27 
ROOT
ATOM      1  F30 346 d   1       9.108  41.738  30.075  0.00  0.00    -0.203 F 
ATOM      2  C12 346 d   1       9.972  42.327  30.928  0.00  0.00     0.158 A 
ATOM      3  C13 346 d   1      10.347  43.614  30.652  0.00  0.00     0.111 A 
ATOM      4  C8  346 d   1      11.241  44.276  31.494  0.00  0.00    -0.015 A 
ATOM      5  C9  346 d   1      11.730  43.601  32.621  0.00  0.00     0.072 A 
ATOM      6  C10 346 d   1      11.348  42.277  32.880  0.00  0.00    -0.039 A 
ATOM      7  C11 346 d   1      10.457  41.622  32.035  0.00  0.00     0.019 A 
ATOM      8  H8  346 d   1      11.551  45.292  31.281  0.00  0.00     0.092 H 
ATOM      9  H14 346 d   1      11.749  41.760  33.744  0.00  0.00     0.088 H 
ENDROOT
BRANCH   7  10
ATOM     10  C14 346 d   1      10.023  40.211  32.302  0.00  0.00     0.123 C 
ATOM     11  H15 346 d   1       9.378  39.869  31.479  0.00  0.00     0.097 H 
BRANCH  10  12
ATOM     12  C15 346 d   1       9.256  40.129  33.587  0.00  0.00     0.201 C 
ATOM     13  O2  346 d   1       8.113  40.684  33.585  0.00  0.00    -0.646 OA
ATOM     14  O1  346 d   1       9.728  39.513  34.607  0.00  0.00    -0.646 OA
ENDBRANCH  10  12
BRANCH  10  15
ATOM     15  N3  346 d   1      11.218  39.353  32.373  0.00  0.00    -0.372 N 
ATOM     16  H16 346 d   1      11.549  39.054  33.302  0.00  0.00     0.161 HD
BRANCH  15  17
ATOM     17  C1  346 d   1      11.923  38.925  31.257  0.00  0.00     0.029 A 
ATOM     18  C2  346 d   1      11.499  39.168  29.952  0.00  0.00    -0.057 A 
ATOM     19  C3  346 d   1      12.261  38.698  28.920  0.00  0.00    -0.067 A 
ATOM     20  H17 346 d   1      10.585  39.718  29.760  0.00  0.00     0.086 H 
ATOM     21  C4  346 d   1      13.451  37.989  29.111  0.00  0.00     0.007 A 
ATOM     22  H18 346 d   1      11.927  38.883  27.905  0.00  0.00     0.085 H 
ATOM     23  C5  346 d   1      13.874  37.741  30.422  0.00  0.00    -0.067 A 
ATOM     24  C6  346 d   1      13.118  38.217  31.457  0.00  0.00    -0.057 A 
ATOM     25  H23 346 d   1      14.783  37.182  30.613  0.00  0.00     0.085 H 
ATOM     26  H24 346 d   1      13.455  38.041  32.472  0.00  0.00     0.086 H 
BRANCH  21  27
ATOM     27  C7  346 d   1      14.222  37.522  27.987  0.00  0.00     0.102 C 
ATOM     28  N2  346 d   1      15.379  36.870  28.141  0.00  0.00    -0.385 N 
ATOM     29  H21 346 d   1      15.768  36.727  29.084  0.00  0.00     0.157 HD
ATOM     30  H22 346 d   1      15.882  36.511  27.317  0.00  0.00     0.157 HD
BRANCH  27  31
ATOM     31  N1  346 d   1      13.792  37.660  26.703  0.00  0.00    -0.385 N 
ATOM     32  H19 346 d   1      14.372  37.313  25.926  0.00  0.00     0.157 HD
ATOM     33  H20 346 d   1      12.887  38.111  26.509  0.00  0.00     0.157 HD
ENDBRANCH  27  31
ENDBRANCH  21  27
ENDBRANCH  15  17
ENDBRANCH  10  15
ENDBRANCH   7  10
BRANCH   3  34
ATOM     34  O25 346 d   1       9.785  44.171  29.517  0.00  0.00    -0.340 OA
BRANCH  34  35
ATOM     35  C26 346 d   1      10.201  45.494  29.198  0.00  0.00     0.067 C 
ATOM     36  C27 346 d   1       9.332  45.985  28.048  0.00  0.00    -0.019 C 
ATOM     37  C29 346 d   1      10.136  45.540  26.840  0.00  0.00     0.022 C 
ATOM     38  H2  346 d   1       9.217  47.079  28.072  0.00  0.00     0.040 H 
ATOM     39  H3  346 d   1       8.339  45.511  28.065  0.00  0.00     0.040 H 
ATOM     40  O28 346 d   1      11.518  45.557  27.222  0.00  0.00    -0.389 OA
ATOM     41  H4  346 d   1       9.968  46.230  26.000  0.00  0.00     0.074 H 
ATOM     42  H5  346 d   1       9.839  44.523  26.543  0.00  0.00     0.074 H 
ATOM     43  C31 346 d   1      11.633  45.495  28.653  0.00  0.00     0.044 C 
ATOM     44  H6  346 d   1      12.156  44.575  28.954  0.00  0.00     0.078 H 
ATOM     45  H7  346 d   1      12.184  46.370  29.029  0.00  0.00     0.078 H 
ATOM     46  H1  346 d   1      10.115  46.148  30.078  0.00  0.00     0.087 H 
ENDBRANCH  34  35
ENDBRANCH   3  34
BRANCH   5  47
ATOM     47  O23 346 d   1      12.629  44.356  33.371  0.00  0.00    -0.351 OA
BRANCH  47  48
ATOM     48  C24 346 d   1      13.187  43.660  34.492  0.00  0.00     0.023 C 
ATOM     49  H9  346 d   1      13.691  42.750  34.135  0.00  0.00     0.074 H 
ATOM     50  H10 346 d   1      12.377  43.384  35.183  0.00  0.00     0.074 H 
BRANCH  48  51
ATOM     51  C30 346 d   1      14.192  44.527  35.228  0.00  0.00    -0.056 C 
ATOM     52  H11 346 d   1      14.603  43.968  36.082  0.00  0.00     0.030 H 
ATOM     53  H12 346 d   1      13.694  45.438  35.592  0.00  0.00     0.030 H 
ATOM     54  H13 346 d   1      15.008  44.804  34.544  0.00  0.00     0.030 H 
ENDBRANCH  48  51
ENDBRANCH  47  48
ENDBRANCH   5  47
TORSDOF 11
