REMARK  6 active torsions:
REMARK  status: ('A' for Active; 'I' for Inactive)
REMARK    1  A    between atoms: C1_1  and  C2_2 
REMARK    2  A    between atoms: C1_1  and  C10_10 
REMARK    3  A    between atoms: N2_22  and  C1_1 
REMARK    4  A    between atoms: C2_2  and  C3_3 
REMARK    5  A    between atoms: C2_2  and  O2_19 
REMARK    6  A    between atoms: C3_3  and  C4_4 
ROOT
ATOM      1  C10 FNZ d   1      55.316  42.855  67.009  0.00  0.00    -0.031 A 
ATOM      2  C11 FNZ d   1      55.722  41.531  67.264  0.00  0.00    -0.073 A 
ATOM      3  C12 FNZ d   1      56.998  41.233  67.797  0.00  0.00    -0.062 A 
ATOM      4  C13 FNZ d   1      57.878  42.302  68.071  0.00  0.00     0.044 A 
ATOM      5  C14 FNZ d   1      57.484  43.635  67.856  0.00  0.00    -0.062 A 
ATOM      6  C15 FNZ d   1      56.205  43.885  67.331  0.00  0.00    -0.073 A 
ATOM      7  C16 FNZ d   1      59.203  42.037  68.576  0.00  0.00     0.099 C 
ATOM      8  N1  FNZ d   1      60.253  41.833  68.972  0.00  0.00    -0.191 NA
ATOM      9  H9  FNZ d   1      55.038  40.718  67.046  0.00  0.00     0.084 H 
ATOM     10  H10 FNZ d   1      57.293  40.208  67.990  0.00  0.00     0.085 H 
ATOM     11  H11 FNZ d   1      58.154  44.454  68.091  0.00  0.00     0.085 H 
ATOM     12  H12 FNZ d   1      55.897  44.912  67.170  0.00  0.00     0.084 H 
ENDROOT
BRANCH   1  13
ATOM     13  C1  FNZ d   1      53.960  43.182  66.378  0.00  0.00     0.086 C 
ATOM     14  H1  FNZ d   1      54.002  44.237  66.071  0.00  0.00     0.087 H 
BRANCH  13  15
ATOM     15  C2  FNZ d   1      53.635  42.348  65.127  0.00  0.00     0.065 C 
ATOM     16  H2  FNZ d   1      52.679  42.697  64.709  0.00  0.00     0.087 H 
BRANCH  15  17
ATOM     17  C3  FNZ d   1      54.724  42.505  64.062  0.00  0.00    -0.015 C 
ATOM     18  H3  FNZ d   1      55.650  42.031  64.419  0.00  0.00     0.044 H 
ATOM     19  H4  FNZ d   1      54.905  43.575  63.884  0.00  0.00     0.044 H 
BRANCH  17  20
ATOM     20  C4  FNZ d   1      54.298  41.852  62.771  0.00  0.00    -0.056 A 
ATOM     21  C5  FNZ d   1      53.576  42.569  61.807  0.00  0.00    -0.074 A 
ATOM     22  C6  FNZ d   1      53.139  41.959  60.613  0.00  0.00    -0.045 A 
ATOM     23  H5  FNZ d   1      53.349  43.614  61.983  0.00  0.00     0.084 H 
ATOM     24  C7  FNZ d   1      53.450  40.626  60.391  0.00  0.00     0.116 A 
ATOM     25  H6  FNZ d   1      52.570  42.522  59.882  0.00  0.00     0.088 H 
ATOM     26  C8  FNZ d   1      54.182  39.890  61.319  0.00  0.00    -0.045 A 
ATOM     27  F7  FNZ d   1      53.030  40.021  59.236  0.00  0.00    -0.206 F 
ATOM     28  C9  FNZ d   1      54.596  40.511  62.512  0.00  0.00    -0.074 A 
ATOM     29  H7  FNZ d   1      54.430  38.853  61.125  0.00  0.00     0.088 H 
ATOM     30  H8  FNZ d   1      55.156  39.939  63.243  0.00  0.00     0.084 H 
ENDBRANCH  17  20
ENDBRANCH  15  17
BRANCH  15  31
ATOM     31  O2  FNZ d   1      53.511  40.966  65.484  0.00  0.00    -0.393 OA
ATOM     32  H15 FNZ d   1      52.835  40.870  66.145  0.00  0.00     0.210 HD
ENDBRANCH  15  31
ENDBRANCH  13  15
BRANCH  13  33
ATOM     33  N2  FNZ d   1      52.837  43.032  67.334  0.00  0.00    -0.251 N 
ATOM     34  C18 FNZ d   1      52.804  42.592  68.619  0.00  0.00     0.085 A 
ATOM     35  N4  FNZ d   1      51.580  42.654  69.070  0.00  0.00    -0.234 NA
ATOM     36  H14 FNZ d   1      53.666  42.242  69.186  0.00  0.00     0.146 H 
ATOM     37  C17 FNZ d   1      50.889  43.099  68.036  0.00  0.00     0.107 A 
ATOM     38  N3  FNZ d   1      51.576  43.362  66.952  0.00  0.00    -0.164 NA
ATOM     39  H13 FNZ d   1      49.810  43.239  68.082  0.00  0.00     0.149 H 
ENDBRANCH  13  33
ENDBRANCH   1  13
TORSDOF 6
