REMARK  6 active torsions:
REMARK  status: ('A' for Active; 'I' for Inactive)
REMARK    1  A    between atoms: CAV_3  and  CAL_4 
REMARK    2  A    between atoms: CAL_4  and  NAO_5 
REMARK    3  A    between atoms: NAO_5  and  CAS_6 
REMARK    4  A    between atoms: CAT_14  and  CAR_15 
REMARK    5  A    between atoms: CAQ_20  and  CAP_21 
REMARK    6  A    between atoms: CAP_21  and  CAA_22 
ROOT
ATOM      1  CAS IYZ d   1      27.130  52.917  -1.006  0.00  0.00     0.144 A 
ATOM      2  CAF IYZ d   1      27.447  54.201  -0.608  0.00  0.00    -0.034 A 
ATOM      3  CAG IYZ d   1      27.502  54.450   0.749  0.00  0.00    -0.033 A 
ATOM      4  NAN IYZ d   1      26.867  51.921  -0.147  0.00  0.00    -0.148 NA
ATOM      5  NAW IYZ d   1      26.922  52.130   1.065  0.00  0.00    -0.212 N 
ATOM      6  CAU IYZ d   1      27.248  53.396   1.585  0.00  0.00     0.151 A 
ATOM      7  NAM IYZ d   1      27.217  53.320   2.888  0.00  0.00    -0.239 NA
ATOM      8  CAH IYZ d   1      26.895  52.088   3.251  0.00  0.00     0.033 A 
ATOM      9  CAT IYZ d   1      26.733  51.348   2.164  0.00  0.00     0.088 A 
ATOM     10  H9  IYZ d   1      27.646  54.986  -1.336  0.00  0.00     0.089 H 
ATOM     11  H10 IYZ d   1      27.737  55.440   1.137  0.00  0.00     0.089 H 
ATOM     12  H11 IYZ d   1      26.782  51.740   4.277  0.00  0.00     0.118 H 
ENDROOT
BRANCH   9  13
ATOM     13  CAR IYZ d   1      26.348  50.031   2.126  0.00  0.00    -0.005 A 
ATOM     14  CAI IYZ d   1      26.215  49.322   0.943  0.00  0.00    -0.057 A 
ATOM     15  CAQ IYZ d   1      25.803  48.017   1.035  0.00  0.00     0.010 A 
ATOM     16  H12 IYZ d   1      26.428  49.780  -0.016  0.00  0.00     0.086 H 
ATOM     17  CAD IYZ d   1      25.483  47.420   2.246  0.00  0.00    -0.070 A 
ATOM     18  CAC IYZ d   1      25.590  48.132   3.424  0.00  0.00    -0.081 A 
ATOM     19  H15 IYZ d   1      25.147  46.389   2.267  0.00  0.00     0.085 H 
ATOM     20  CAE IYZ d   1      26.030  49.447   3.346  0.00  0.00    -0.071 A 
ATOM     21  H14 IYZ d   1      25.339  47.680   4.377  0.00  0.00     0.083 H 
ATOM     22  H13 IYZ d   1      26.127  50.029   4.255  0.00  0.00     0.084 H 
BRANCH  15  23
ATOM     23  CAP IYZ d   1      25.639  47.157  -0.182  0.00  0.00     0.155 C 
ATOM     24  OAB IYZ d   1      25.509  45.958   0.020  0.00  0.00    -0.293 OA
BRANCH  23  25
ATOM     25  CAA IYZ d   1      25.613  47.733  -1.603  0.00  0.00    -0.017 C 
ATOM     26  H16 IYZ d   1      25.483  46.916  -2.328  0.00  0.00     0.038 H 
ATOM     27  H17 IYZ d   1      26.560  48.255  -1.804  0.00  0.00     0.038 H 
ATOM     28  H18 IYZ d   1      24.777  48.442  -1.696  0.00  0.00     0.038 H 
ENDBRANCH  23  25
ENDBRANCH  15  23
ENDBRANCH   9  13
BRANCH   1  29
ATOM     29  NAO IYZ d   1      27.063  52.692  -2.294  0.00  0.00    -0.373 N 
ATOM     30  H8  IYZ d   1      27.620  53.269  -2.939  0.00  0.00     0.161 HD
BRANCH  29  31
ATOM     31  CAL IYZ d   1      26.202  51.625  -2.834  0.00  0.00    -0.003 C 
ATOM     32  H6  IYZ d   1      25.443  51.341  -2.090  0.00  0.00     0.064 H 
ATOM     33  H7  IYZ d   1      25.704  51.971  -3.752  0.00  0.00     0.064 H 
BRANCH  31  34
ATOM     34  CAV IYZ d   1      27.103  50.429  -3.146  0.00  0.00    -0.039 A 
ATOM     35  CAJ IYZ d   1      28.541  50.608  -2.666  0.00  0.00    -0.060 A 
ATOM     36  CAK IYZ d   1      28.211  50.748  -4.147  0.00  0.00    -0.060 A 
ATOM     37  H1  IYZ d   1      28.818  51.495  -2.078  0.00  0.00     0.033 H 
ATOM     38  H2  IYZ d   1      29.114  49.739  -2.310  0.00  0.00     0.033 H 
ATOM     39  H3  IYZ d   1      28.546  49.980  -4.860  0.00  0.00     0.033 H 
ATOM     40  H4  IYZ d   1      28.250  51.736  -4.628  0.00  0.00     0.033 H 
ATOM     41  H5  IYZ d   1      26.575  49.465  -3.119  0.00  0.00     0.042 H 
ENDBRANCH  31  34
ENDBRANCH  29  31
ENDBRANCH   1  29
TORSDOF 6
