REMARK  1 active torsions:
REMARK  status: ('A' for Active; 'I' for Inactive)
REMARK    1  A    between atoms: C6_6  and  C7_7 
ROOT
ATOM      1  C1  IDZ d   1      12.969  -1.058  10.527  0.00  0.00    -0.055 A 
ATOM      2  C2  IDZ d   1      12.921  -2.289  11.198  0.00  0.00    -0.081 A 
ATOM      3  C3  IDZ d   1      14.070  -3.083  11.298  0.00  0.00    -0.082 A 
ATOM      4  C4  IDZ d   1      15.276  -2.651  10.747  0.00  0.00    -0.068 A 
ATOM      5  C5  IDZ d   1      15.322  -1.425  10.121  0.00  0.00     0.026 A 
ATOM      6  C6  IDZ d   1      16.302  -0.697   9.441  0.00  0.00     0.135 A 
ATOM      7  N16 IDZ d   1      14.555   0.458   9.304  0.00  0.00    -0.277 N 
ATOM      8  C17 IDZ d   1      14.183  -0.643   9.989  0.00  0.00     0.062 A 
ATOM      9  NAI IDZ d   1      15.771   0.445   8.983  0.00  0.00    -0.170 NA
ATOM     10  H1  IDZ d   1      12.081  -0.444  10.430  0.00  0.00     0.087 H 
ATOM     11  H2  IDZ d   1      11.991  -2.627  11.641  0.00  0.00     0.083 H 
ATOM     12  H3  IDZ d   1      14.022  -4.039  11.807  0.00  0.00     0.083 H 
ATOM     13  H4  IDZ d   1      16.163  -3.270  10.810  0.00  0.00     0.085 H 
ATOM     14  H9  IDZ d   1      13.912   1.227   9.069  0.00  0.00     0.189 HD
ENDROOT
BRANCH   6  15
ATOM     15  C7  IDZ d   1      17.624  -1.092   9.281  0.00  0.00     0.160 A 
ATOM     16  N8  IDZ d   1      18.549  -0.331   8.663  0.00  0.00    -0.227 NA
ATOM     17  C9  IDZ d   1      19.685  -0.991   8.694  0.00  0.00     0.086 A 
ATOM     18  C10 IDZ d   1      20.949  -0.695   8.182  0.00  0.00    -0.053 A 
ATOM     19  C14 IDZ d   1      19.441  -2.187   9.385  0.00  0.00     0.062 A 
ATOM     20  C11 IDZ d   1      21.999  -1.614   8.368  0.00  0.00    -0.081 A 
ATOM     21  H5  IDZ d   1      21.120   0.232   7.647  0.00  0.00     0.087 H 
ATOM     22  C12 IDZ d   1      21.750  -2.821   9.031  0.00  0.00    -0.081 A 
ATOM     23  H6  IDZ d   1      22.993  -1.388   8.000  0.00  0.00     0.083 H 
ATOM     24  C13 IDZ d   1      20.475  -3.115   9.549  0.00  0.00    -0.055 A 
ATOM     25  H7  IDZ d   1      22.552  -3.541   9.147  0.00  0.00     0.083 H 
ATOM     26  H8  IDZ d   1      20.296  -4.049  10.069  0.00  0.00     0.087 H 
ATOM     27  NAL IDZ d   1      18.149  -2.224   9.720  0.00  0.00    -0.337 N 
ATOM     28  H10 IDZ d   1      17.660  -2.981  10.219  0.00  0.00     0.167 HD
ENDBRANCH   6  15
TORSDOF 1
