REMARK  17 active torsions:
REMARK  status: ('A' for Active; 'I' for Inactive)
REMARK    1  A    between atoms: N1_1  and  CA1_2 
REMARK    2  A    between atoms: CA1_2  and  C1_3 
REMARK    3  A    between atoms: CA1_2  and  CB1_6 
REMARK    4  A    between atoms: CB1_6  and  CG1_7 
REMARK    5  A    between atoms: CG1_7  and  CD1_8 
REMARK    6  A    between atoms: N2_10  and  CA2_11 
REMARK    7  A    between atoms: CA2_11  and  C2_12 
REMARK    8  A    between atoms: CA2_11  and  CB2_14 
REMARK    9  A    between atoms: CB2_14  and  SG2_15 
REMARK   10  A    between atoms: SG2_15  and  C1S_16 
REMARK   11  A    between atoms: C1S_16  and  C2S_17 
REMARK   12  A    between atoms: C2S_17  and  C3S_18 
REMARK   13  A    between atoms: C3S_18  and  C4S_19 
REMARK   14  A    between atoms: C4S_19  and  C5S_20 
REMARK   15  A    between atoms: C5S_20  and  C6S_21 
REMARK   16  A    between atoms: N3_22  and  CA3_23 
REMARK   17  A    between atoms: CA3_23  and  C3_24 
ROOT
ATOM      1  CA2 GTX d   1     -12.444  32.453  -6.004  0.00  0.00     0.084 C 
ATOM      2  H10 GTX d   1     -11.672  32.902  -5.362  0.00  0.00     0.086 H 
ENDROOT
BRANCH   1   3
ATOM      3  N2  GTX d   1     -12.845  31.194  -5.394  0.00  0.00    -0.359 N 
ATOM      4  CD1 GTX d   1     -12.083  30.544  -4.511  0.00  0.00     0.152 C 
ATOM      5  OE1 GTX d   1     -10.890  31.081  -3.997  0.00  0.00    -0.177 OA
ATOM      6  H9  GTX d   1     -13.728  30.799  -5.647  0.00  0.00     0.162 HD
BRANCH   4   7
ATOM      7  CG1 GTX d   1     -12.551  29.178  -4.066  0.00  0.00    -0.001 C 
ATOM      8  H7  GTX d   1     -13.321  29.295  -3.289  0.00  0.00     0.045 H 
ATOM      9  H8  GTX d   1     -12.978  28.643  -4.927  0.00  0.00     0.045 H 
BRANCH   7  10
ATOM     10  CB1 GTX d   1     -11.381  28.367  -3.499  0.00  0.00    -0.022 C 
ATOM     11  H5  GTX d   1     -10.645  28.195  -4.298  0.00  0.00     0.037 H 
ATOM     12  H6  GTX d   1     -10.911  28.938  -2.685  0.00  0.00     0.037 H 
BRANCH  10  13
ATOM     13  CA1 GTX d   1     -11.848  27.019  -2.955  0.00  0.00     0.183 C 
ATOM     14  H4  GTX d   1     -12.736  27.171  -2.323  0.00  0.00     0.101 H 
BRANCH  13  15
ATOM     15  N1  GTX d   1     -10.802  26.401  -2.163  0.00  0.00    -0.065 N 
ATOM     16  H1  GTX d   1     -10.565  27.004  -1.391  0.00  0.00     0.275 HD
ATOM     17  H2  GTX d   1      -9.987  26.255  -2.738  0.00  0.00     0.275 HD
ATOM     18  H3  GTX d   1     -11.127  25.515  -1.810  0.00  0.00     0.275 HD
ENDBRANCH  13  15
BRANCH  13  19
ATOM     19  C1  GTX d   1     -12.202  26.125  -4.103  0.00  0.00     0.204 C 
ATOM     20  O11 GTX d   1     -11.312  25.512  -4.730  0.00  0.00    -0.646 OA
ATOM     21  O12 GTX d   1     -13.391  26.002  -4.453  0.00  0.00    -0.646 OA
ENDBRANCH  13  19
ENDBRANCH  10  13
ENDBRANCH   7  10
ENDBRANCH   4   7
ENDBRANCH   1   3
BRANCH   1  22
ATOM     22  C2  GTX d   1     -13.591  33.408  -6.084  0.00  0.00     0.175 C 
ATOM     23  O2  GTX d   1     -14.889  32.909  -6.287  0.00  0.00    -0.175 OA
ATOM     24  N3  GTX d   1     -13.306  34.703  -5.962  0.00  0.00    -0.360 N 
ATOM     25  H26 GTX d   1     -12.399  34.972  -5.638  0.00  0.00     0.162 HD
BRANCH  24  26
ATOM     26  CA3 GTX d   1     -14.273  35.736  -6.285  0.00  0.00     0.074 C 
ATOM     27  H27 GTX d   1     -15.075  35.302  -6.900  0.00  0.00     0.080 H 
ATOM     28  H28 GTX d   1     -13.772  36.537  -6.848  0.00  0.00     0.080 H 
BRANCH  26  29
ATOM     29  C3  GTX d   1     -14.870  36.312  -5.028  0.00  0.00     0.191 C 
ATOM     30  O31 GTX d   1     -15.833  37.104  -5.075  0.00  0.00    -0.647 OA
ATOM     31  O32 GTX d   1     -14.396  36.001  -3.917  0.00  0.00    -0.647 OA
ENDBRANCH  26  29
ENDBRANCH  24  26
ENDBRANCH   1  22
BRANCH   1  32
ATOM     32  CB2 GTX d   1     -11.836  32.250  -7.398  0.00  0.00     0.003 C 
ATOM     33  H11 GTX d   1     -11.197  33.115  -7.630  0.00  0.00     0.052 H 
ATOM     34  H12 GTX d   1     -12.654  32.192  -8.131  0.00  0.00     0.052 H 
BRANCH  32  35
ATOM     35  SG2 GTX d   1     -10.832  30.739  -7.533  0.00  0.00    -0.167 SA
BRANCH  35  36
ATOM     36  C1S GTX d   1      -9.423  31.575  -6.757  0.00  0.00    -0.023 C 
ATOM     37  H13 GTX d   1      -9.725  31.915  -5.755  0.00  0.00     0.049 H 
ATOM     38  H14 GTX d   1      -9.149  32.445  -7.372  0.00  0.00     0.049 H 
BRANCH  36  39
ATOM     39  C2S GTX d   1      -8.202  30.674  -6.617  0.00  0.00    -0.057 C 
ATOM     40  H15 GTX d   1      -8.467  29.649  -6.914  0.00  0.00     0.034 H 
ATOM     41  H16 GTX d   1      -7.863  30.676  -5.571  0.00  0.00     0.034 H 
BRANCH  39  42
ATOM     42  C3S GTX d   1      -7.083  31.190  -7.515  0.00  0.00    -0.064 C 
ATOM     43  H17 GTX d   1      -6.149  31.232  -6.936  0.00  0.00     0.033 H 
ATOM     44  H18 GTX d   1      -7.342  32.200  -7.866  0.00  0.00     0.033 H 
BRANCH  42  45
ATOM     45  C4S GTX d   1      -6.878  30.282  -8.722  0.00  0.00    -0.065 C 
ATOM     46  H19 GTX d   1      -7.841  29.830  -9.001  0.00  0.00     0.033 H 
ATOM     47  H20 GTX d   1      -6.162  29.489  -8.460  0.00  0.00     0.033 H 
BRANCH  45  48
ATOM     48  C5S GTX d   1      -6.335  31.075  -9.906  0.00  0.00    -0.069 C 
ATOM     49  H21 GTX d   1      -5.803  31.960  -9.528  0.00  0.00     0.032 H 
ATOM     50  H22 GTX d   1      -7.177  31.395 -10.537  0.00  0.00     0.032 H 
BRANCH  48  51
ATOM     51  C6S GTX d   1      -5.373  30.242 -10.749  0.00  0.00    -0.077 C 
ATOM     52  H23 GTX d   1      -5.004  30.847 -11.590  0.00  0.00     0.027 H 
ATOM     53  H24 GTX d   1      -5.898  29.356 -11.137  0.00  0.00     0.027 H 
ATOM     54  H25 GTX d   1      -4.524  29.922 -10.128  0.00  0.00     0.027 H 
ENDBRANCH  48  51
ENDBRANCH  45  48
ENDBRANCH  42  45
ENDBRANCH  39  42
ENDBRANCH  36  39
ENDBRANCH  35  36
ENDBRANCH  32  35
ENDBRANCH   1  32
TORSDOF 17
