REMARK  16 active torsions:
REMARK  status: ('A' for Active; 'I' for Inactive)
REMARK    1  A    between atoms: P_2  and  O27_5 
REMARK    2  A    between atoms: O27_5  and  C19_6 
REMARK    3  A    between atoms: C19_6  and  C18_7 
REMARK    4  A    between atoms: C18_7  and  C17_8 
REMARK    5  A    between atoms: C17_8  and  C16_9 
REMARK    6  A    between atoms: C16_9  and  C15_10 
REMARK    7  A    between atoms: C15_10  and  N5_11 
REMARK    8  A    between atoms: N7_18  and  C10_23 
REMARK    9  A    between atoms: C10_23  and  C11_24 
REMARK   10  A    between atoms: C11_24  and  O19_25 
REMARK   11  A    between atoms: C11_24  and  C12_26 
REMARK   12  A    between atoms: C12_26  and  O21_27 
REMARK   13  A    between atoms: C12_26  and  C13_28 
REMARK   14  A    between atoms: C13_28  and  O23_29 
REMARK   15  A    between atoms: C13_28  and  C14_30 
REMARK   16  A    between atoms: C14_30  and  O26_31 
ROOT
ATOM      1  N5  TP6 d   1     -22.956   0.333   4.439  0.00  0.00    -0.291 N 
ATOM      2  C9  TP6 d   1     -23.391  -0.841   4.917  0.00  0.00     0.152 A 
ATOM      3  C4  TP6 d   1     -23.086  -2.239   4.568  0.00  0.00     0.280 A 
ATOM      4  O2  TP6 d   1     -22.287  -2.526   3.662  0.00  0.00    -0.265 OA
ATOM      5  N3  TP6 d   1     -23.727  -3.206   5.266  0.00  0.00    -0.273 N 
ATOM      6  C6  TP6 d   1     -23.604   1.212   5.189  0.00  0.00     0.331 A 
ATOM      7  O4  TP6 d   1     -23.479   2.478   5.061  0.00  0.00    -0.246 OA
ATOM      8  N7  TP6 d   1     -24.415   0.722   6.122  0.00  0.00    -0.280 N 
ATOM      9  C8  TP6 d   1     -24.354  -0.595   6.000  0.00  0.00     0.148 A 
ATOM     10  N1  TP6 d   1     -24.927  -1.656   6.615  0.00  0.00    -0.292 N 
ATOM     11  C2  TP6 d   1     -24.607  -2.916   6.265  0.00  0.00     0.328 A 
ATOM     12  O1  TP6 d   1     -25.158  -3.850   6.858  0.00  0.00    -0.247 OA
ATOM     13  H11 TP6 d   1     -23.549  -4.164   5.041  0.00  0.00     0.173 HD
ATOM     14  H12 TP6 d   1     -25.598  -1.502   7.340  0.00  0.00     0.172 HD
ENDROOT
BRANCH   1  15
ATOM     15  C15 TP6 d   1     -21.978   0.607   3.390  0.00  0.00     0.005 C 
ATOM     16  H9  TP6 d   1     -22.139  -0.045   2.519  0.00  0.00     0.065 H 
ATOM     17  H10 TP6 d   1     -22.021   1.660   3.074  0.00  0.00     0.065 H 
BRANCH  15  18
ATOM     18  C16 TP6 d   1     -20.669   0.297   4.064  0.00  0.00    -0.050 C 
ATOM     19  H7  TP6 d   1     -20.598   0.987   4.918  0.00  0.00     0.035 H 
ATOM     20  H8  TP6 d   1     -20.756  -0.736   4.433  0.00  0.00     0.035 H 
BRANCH  18  21
ATOM     21  C17 TP6 d   1     -19.497   0.365   3.442  0.00  0.00    -0.062 C 
ATOM     22  H5  TP6 d   1     -18.870   1.037   4.046  0.00  0.00     0.033 H 
ATOM     23  H6  TP6 d   1     -19.078  -0.652   3.471  0.00  0.00     0.033 H 
BRANCH  21  24
ATOM     24  C18 TP6 d   1     -19.362   0.818   2.064  0.00  0.00    -0.044 C 
ATOM     25  H3  TP6 d   1     -18.410   0.424   1.679  0.00  0.00     0.036 H 
ATOM     26  H4  TP6 d   1     -20.196   0.386   1.492  0.00  0.00     0.036 H 
BRANCH  24  27
ATOM     27  C19 TP6 d   1     -19.367   2.128   1.846  0.00  0.00     0.032 C 
ATOM     28  H1  TP6 d   1     -20.334   2.516   2.199  0.00  0.00     0.075 H 
ATOM     29  H2  TP6 d   1     -18.555   2.564   2.447  0.00  0.00     0.075 H 
BRANCH  27  30
ATOM     30  O27 TP6 d   1     -19.189   2.588   0.480  0.00  0.00    -0.283 OA
BRANCH  30  31
ATOM     31  P   TP6 d   1     -18.437   3.990   0.253  0.00  0.00     0.422 P 
ATOM     32  O2P TP6 d   1     -18.191   3.962  -1.250  0.00  0.00    -0.617 OA
ATOM     33  O3P TP6 d   1     -17.151   3.958   1.051  0.00  0.00    -0.617 OA
ATOM     34  O1P TP6 d   1     -19.377   5.055   0.734  0.00  0.00    -0.617 OA
ENDBRANCH  30  31
ENDBRANCH  27  30
ENDBRANCH  24  27
ENDBRANCH  21  24
ENDBRANCH  18  21
ENDBRANCH  15  18
ENDBRANCH   1  15
BRANCH   8  35
ATOM     35  C10 TP6 d   1     -25.213   1.569   6.986  0.00  0.00     0.032 C 
ATOM     36  H13 TP6 d   1     -26.111   1.866   6.425  0.00  0.00     0.069 H 
ATOM     37  H14 TP6 d   1     -24.616   2.462   7.221  0.00  0.00     0.069 H 
BRANCH  35  38
ATOM     38  C11 TP6 d   1     -25.667   0.965   8.291  0.00  0.00     0.078 C 
ATOM     39  H15 TP6 d   1     -26.535   0.378   7.957  0.00  0.00     0.089 H 
BRANCH  38  40
ATOM     40  O19 TP6 d   1     -24.862  -0.070   8.906  0.00  0.00    -0.391 OA
ATOM     41  H16 TP6 d   1     -25.273  -0.350   9.716  0.00  0.00     0.210 HD
ENDBRANCH  38  40
BRANCH  38  42
ATOM     42  C12 TP6 d   1     -26.312   1.945   9.251  0.00  0.00     0.088 C 
ATOM     43  H17 TP6 d   1     -26.030   1.728  10.292  0.00  0.00     0.091 H 
BRANCH  42  44
ATOM     44  O21 TP6 d   1     -27.632   1.547   8.928  0.00  0.00    -0.390 OA
ATOM     45  H18 TP6 d   1     -27.788   1.694   8.003  0.00  0.00     0.210 HD
ENDBRANCH  42  44
BRANCH  42  46
ATOM     46  C13 TP6 d   1     -26.158   3.450   9.013  0.00  0.00     0.083 C 
ATOM     47  H19 TP6 d   1     -26.405   3.684   7.967  0.00  0.00     0.090 H 
BRANCH  46  48
ATOM     48  O23 TP6 d   1     -24.815   3.868   9.306  0.00  0.00    -0.391 OA
ATOM     49  H20 TP6 d   1     -24.735   4.802   9.154  0.00  0.00     0.210 HD
ENDBRANCH  46  48
BRANCH  46  50
ATOM     50  C14 TP6 d   1     -27.085   4.217   9.959  0.00  0.00     0.043 C 
ATOM     51  H21 TP6 d   1     -28.132   3.984   9.716  0.00  0.00     0.078 H 
ATOM     52  H22 TP6 d   1     -26.914   5.298   9.845  0.00  0.00     0.078 H 
BRANCH  50  53
ATOM     53  O26 TP6 d   1     -26.807   3.826  11.315  0.00  0.00    -0.398 OA
ATOM     54  H23 TP6 d   1     -26.955   2.893  11.411  0.00  0.00     0.209 HD
ENDBRANCH  50  53
ENDBRANCH  46  50
ENDBRANCH  42  46
ENDBRANCH  38  42
ENDBRANCH  35  38
ENDBRANCH   8  35
TORSDOF 16
