REMARK  11 active torsions:
REMARK  status: ('A' for Active; 'I' for Inactive)
REMARK    1  A    between atoms: C1_2  and  CA1_4 
REMARK    2  A    between atoms: CA1_4  and  N1_5 
REMARK    3  A    between atoms: CA1_4  and  CB1_6 
REMARK    4  A    between atoms: CB1_6  and  CG1_7 
REMARK    5  A    between atoms: CG1_7  and  CD1_8 
REMARK    6  A    between atoms: N2_10  and  CA2_11 
REMARK    7  A    between atoms: CA2_11  and  CB2_12 
REMARK    8  A    between atoms: CA2_11  and  C2_14 
REMARK    9  A    between atoms: CB2_12  and  SG2_13 
REMARK   10  A    between atoms: N3_16  and  CA3_17 
REMARK   11  A    between atoms: CA3_17  and  C3_18 
ROOT
ATOM      1  CD1 GSH d   1       6.253  10.394  42.822  0.00  0.00     0.152 C 
ATOM      2  OE1 GSH d   1       6.064   9.126  43.398  0.00  0.00    -0.177 OA
ATOM      3  N2  GSH d   1       7.281  10.676  42.032  0.00  0.00    -0.359 N 
ATOM      4  H9  GSH d   1       7.464  11.639  41.833  0.00  0.00     0.162 HD
ENDROOT
BRANCH   3   5
ATOM      5  CA2 GSH d   1       8.155   9.689  41.438  0.00  0.00     0.083 C 
ATOM      6  H10 GSH d   1       8.031   8.719  41.942  0.00  0.00     0.086 H 
BRANCH   5   7
ATOM      7  CB2 GSH d   1       7.922   9.542  39.943  0.00  0.00     0.000 C 
ATOM      8  H11 GSH d   1       8.635   8.806  39.543  0.00  0.00     0.052 H 
ATOM      9  H12 GSH d   1       8.091  10.516  39.460  0.00  0.00     0.052 H 
BRANCH   7  10
ATOM     10  SG2 GSH d   1       6.242   8.989  39.571  0.00  0.00    -0.180 SA
ATOM     11  H13 GSH d   1       6.130   8.905  38.573  0.00  0.00     0.101 HD
ENDBRANCH   7  10
ENDBRANCH   5   7
BRANCH   5  12
ATOM     12  C2  GSH d   1       9.533  10.204  41.585  0.00  0.00     0.175 C 
ATOM     13  O2  GSH d   1       9.697  11.596  41.499  0.00  0.00    -0.175 OA
ATOM     14  N3  GSH d   1      10.500   9.311  41.780  0.00  0.00    -0.360 N 
ATOM     15  H14 GSH d   1      10.277   8.444  42.225  0.00  0.00     0.162 HD
BRANCH  14  16
ATOM     16  CA3 GSH d   1      11.871   9.559  41.366  0.00  0.00     0.074 C 
ATOM     17  H15 GSH d   1      11.877  10.277  40.533  0.00  0.00     0.080 H 
ATOM     18  H16 GSH d   1      12.331   8.615  41.040  0.00  0.00     0.080 H 
BRANCH  16  19
ATOM     19  C3  GSH d   1      12.654  10.125  42.521  0.00  0.00     0.191 C 
ATOM     20  O31 GSH d   1      13.786  10.626  42.361  0.00  0.00    -0.647 OA
ATOM     21  O32 GSH d   1      12.163  10.101  43.665  0.00  0.00    -0.647 OA
ENDBRANCH  16  19
ENDBRANCH  14  16
ENDBRANCH   5  12
ENDBRANCH   3   5
BRANCH   1  22
ATOM     22  CG1 GSH d   1       5.274  11.526  43.041  0.00  0.00    -0.001 C 
ATOM     23  H7  GSH d   1       5.832  12.474  43.065  0.00  0.00     0.045 H 
ATOM     24  H8  GSH d   1       4.561  11.541  42.203  0.00  0.00     0.045 H 
BRANCH  22  25
ATOM     25  CB1 GSH d   1       4.496  11.388  44.338  0.00  0.00    -0.022 C 
ATOM     26  H5  GSH d   1       4.679  10.381  44.740  0.00  0.00     0.037 H 
ATOM     27  H6  GSH d   1       4.875  12.140  45.046  0.00  0.00     0.037 H 
BRANCH  25  28
ATOM     28  CA1 GSH d   1       2.975  11.581  44.205  0.00  0.00     0.183 C 
ATOM     29  H1  GSH d   1       2.606  10.642  43.768  0.00  0.00     0.101 H 
BRANCH  28  30
ATOM     30  C1  GSH d   1       2.481  12.683  43.308  0.00  0.00     0.204 C 
ATOM     31  O12 GSH d   1       3.062  13.777  43.115  0.00  0.00    -0.646 OA
ATOM     32  O11 GSH d   1       1.395  12.447  42.732  0.00  0.00    -0.646 OA
ENDBRANCH  28  30
BRANCH  28  33
ATOM     33  N1  GSH d   1       2.308  11.748  45.491  0.00  0.00    -0.065 N 
ATOM     34  H2  GSH d   1       2.613  11.025  46.124  0.00  0.00     0.275 HD
ATOM     35  H3  GSH d   1       1.310  11.683  45.363  0.00  0.00     0.275 HD
ATOM     36  H4  GSH d   1       2.539  12.651  45.875  0.00  0.00     0.275 HD
ENDBRANCH  28  33
ENDBRANCH  25  28
ENDBRANCH  22  25
ENDBRANCH   1  22
TORSDOF 11
