REMARK  4 active torsions:
REMARK  status: ('A' for Active; 'I' for Inactive)
REMARK    1  A    between atoms: C2_2  and  O2_7 
REMARK    2  A    between atoms: C3_3  and  O3_8 
REMARK    3  A    between atoms: C4_4  and  O4_9 
REMARK    4  A    between atoms: C6_6  and  O6_10 
ROOT
ATOM      1  C1  CTS d   1      -0.507  10.844  10.627  0.00  0.00     0.110 C 
ATOM      2  C2  CTS d   1       0.333  11.693   9.680  0.00  0.00     0.086 C 
ATOM      3  C3  CTS d   1      -0.273  11.917   8.297  0.00  0.00     0.088 C 
ATOM      4  C4  CTS d   1      -1.085  10.694   7.891  0.00  0.00     0.092 C 
ATOM      5  C5  CTS d   1      -2.328  10.659   8.782  0.00  0.00     0.155 C 
ATOM      6  C6  CTS d   1      -3.101   9.357   8.724  0.00  0.00     0.067 C 
ATOM      7  N   CTS d   1      -1.871  10.569  10.182  0.00  0.00    -0.059 N 
ATOM      8  C7  CTS d   1      -3.845   9.382  10.052  0.00  0.00    -0.016 C 
ATOM      9  C8  CTS d   1      -2.823   9.874  11.051  0.00  0.00     0.086 C 
ATOM     10  H1  CTS d   1      -0.565  11.369  11.592  0.00  0.00     0.080 H 
ATOM     11  H2  CTS d   1       0.006   9.880  10.764  0.00  0.00     0.080 H 
ATOM     12  H3  CTS d   1       1.302  11.191   9.543  0.00  0.00     0.089 H 
ATOM     13  H4  CTS d   1      -0.954  12.780   8.326  0.00  0.00     0.091 H 
ATOM     14  H5  CTS d   1      -0.487   9.779   8.016  0.00  0.00     0.090 H 
ATOM     15  H6  CTS d   1      -2.968  11.531   8.582  0.00  0.00     0.092 H 
ATOM     16  H7  CTS d   1      -3.758   9.304   7.844  0.00  0.00     0.086 H 
ATOM     17  H12 CTS d   1      -2.189  11.494  10.425  0.00  0.00     0.280 HD
ATOM     18  H13 CTS d   1      -4.196   8.374  10.320  0.00  0.00     0.039 H 
ATOM     19  H14 CTS d   1      -4.703  10.069  10.004  0.00  0.00     0.039 H 
ATOM     20  H15 CTS d   1      -3.275  10.561  11.782  0.00  0.00     0.076 H 
ATOM     21  H16 CTS d   1      -2.345   9.037  11.581  0.00  0.00     0.076 H 
ENDROOT
BRANCH   2  22
ATOM     22  O2  CTS d   1       0.542  12.951  10.304  0.00  0.00    -0.391 OA
ATOM     23  H8  CTS d   1      -0.289  13.404  10.388  0.00  0.00     0.210 HD
ENDBRANCH   2  22
BRANCH   3  24
ATOM     24  O3  CTS d   1       0.823  12.231   7.431  0.00  0.00    -0.390 OA
ATOM     25  H9  CTS d   1       0.495  12.400   6.556  0.00  0.00     0.210 HD
ENDBRANCH   3  24
BRANCH   4  26
ATOM     26  O4  CTS d   1      -1.521  10.818   6.539  0.00  0.00    -0.391 OA
ATOM     27  H10 CTS d   1      -2.067  10.074   6.314  0.00  0.00     0.210 HD
ENDBRANCH   4  26
BRANCH   6  28
ATOM     28  O6  CTS d   1      -2.250   8.196   8.824  0.00  0.00    -0.393 OA
ATOM     29  H11 CTS d   1      -1.629   8.197   8.105  0.00  0.00     0.210 HD
ENDBRANCH   6  28
TORSDOF 4
