REMARK  10 active torsions:
REMARK  status: ('A' for Active; 'I' for Inactive)
REMARK    1  A    between atoms: O3B_8  and  PG_1 
REMARK    2  A    between atoms: PB_5  and  O3B_8 
REMARK    3  A    between atoms: O3A_12  and  PB_5 
REMARK    4  A    between atoms: PA_9  and  O3A_12 
REMARK    5  A    between atoms: PA_9  and  O5_13 
REMARK    6  A    between atoms: O5_13  and  C5_14 
REMARK    7  A    between atoms: C5_14  and  C4_15 
REMARK    8  A    between atoms: C3_17  and  O3_18 
REMARK    9  A    between atoms: C2_19  and  O2_20 
REMARK   10  A    between atoms: C1_21  and  N9_22 
ROOT
ATOM      1  C4  ATP d   1     -18.858  48.692  -1.433  0.00  0.00     0.089 C 
ATOM      2  O4  ATP d   1     -17.448  48.646  -1.163  0.00  0.00    -0.353 OA
ATOM      3  C3  ATP d   1     -19.246  47.259  -1.787  0.00  0.00     0.091 C 
ATOM      4  C2  ATP d   1     -18.087  46.423  -1.277  0.00  0.00     0.105 C 
ATOM      5  C1  ATP d   1     -16.918  47.363  -1.508  0.00  0.00     0.139 C 
ATOM      6  H3  ATP d   1     -19.081  49.365  -2.274  0.00  0.00     0.090 H 
ATOM      7  H4  ATP d   1     -20.195  46.967  -1.314  0.00  0.00     0.091 H 
ATOM      8  H6  ATP d   1     -18.209  46.207  -0.205  0.00  0.00     0.093 H 
ATOM      9  H8  ATP d   1     -16.613  47.343  -2.564  0.00  0.00     0.122 H 
ENDROOT
BRANCH   1  10
ATOM     10  C5  ATP d   1     -19.563  49.197  -0.162  0.00  0.00     0.058 C 
ATOM     11  H1  ATP d   1     -19.117  50.151   0.156  0.00  0.00     0.079 H 
ATOM     12  H2  ATP d   1     -20.635  49.342  -0.364  0.00  0.00     0.079 H 
BRANCH  10  13
ATOM     13  O5  ATP d   1     -19.393  48.220   0.862  0.00  0.00    -0.287 OA
BRANCH  13  14
ATOM     14  PA  ATP d   1     -18.783  48.491   2.330  0.00  0.00     0.417 P 
ATOM     15  O1A ATP d   1     -18.192  47.191   2.783  0.00  0.00    -0.624 OA
ATOM     16  O2A ATP d   1     -17.936  49.731   2.358  0.00  0.00    -0.624 OA
BRANCH  14  17
ATOM     17  O3A ATP d   1     -20.150  48.792   3.123  0.00  0.00    -0.180 OA
BRANCH  17  18
ATOM     18  PB  ATP d   1     -20.467  48.744   4.701  0.00  0.00     0.428 P 
ATOM     19  O1B ATP d   1     -21.382  49.906   4.947  0.00  0.00    -0.624 OA
ATOM     20  O2B ATP d   1     -19.203  48.686   5.502  0.00  0.00    -0.624 OA
BRANCH  18  21
ATOM     21  O3B ATP d   1     -21.282  47.352   4.791  0.00  0.00    -0.173 OA
BRANCH  21  22
ATOM     22  PG  ATP d   1     -21.639  46.538   6.156  0.00  0.00     0.431 P 
ATOM     23  O1G ATP d   1     -20.370  46.439   6.959  0.00  0.00    -0.616 OA
ATOM     24  O2G ATP d   1     -22.104  45.209   5.609  0.00  0.00    -0.616 OA
ATOM     25  O3G ATP d   1     -22.751  47.351   6.794  0.00  0.00    -0.616 OA
ENDBRANCH  21  22
ENDBRANCH  18  21
ENDBRANCH  17  18
ENDBRANCH  14  17
ENDBRANCH  13  14
ENDBRANCH  10  13
ENDBRANCH   1  10
BRANCH   3  26
ATOM     26  O3  ATP d   1     -19.331  47.129  -3.213  0.00  0.00    -0.390 OA
ATOM     27  H5  ATP d   1     -19.573  46.237  -3.435  0.00  0.00     0.210 HD
ENDBRANCH   3  26
BRANCH   5  28
ATOM     28  N9  ATP d   1     -15.751  47.015  -0.666  0.00  0.00    -0.294 N 
ATOM     29  C8  ATP d   1     -15.671  47.130   0.674  0.00  0.00     0.071 A 
ATOM     30  N7  ATP d   1     -14.457  46.730   1.134  0.00  0.00    -0.236 NA
ATOM     31  H9  ATP d   1     -16.477  47.497   1.308  0.00  0.00     0.144 H 
ATOM     32  C5  ATP d   1     -13.728  46.353   0.066  0.00  0.00     0.149 A 
ATOM     33  C6  ATP d   1     -12.353  45.828  -0.153  0.00  0.00     0.155 A 
ATOM     34  C4  ATP d   1     -14.581  46.543  -1.123  0.00  0.00     0.167 A 
ATOM     35  N6  ATP d   1     -11.520  45.629   0.899  0.00  0.00    -0.382 N 
ATOM     36  N1  ATP d   1     -11.975  45.559  -1.429  0.00  0.00    -0.222 NA
ATOM     37  H10 ATP d   1     -10.569  45.265   0.742  0.00  0.00     0.157 HD
ATOM     38  H11 ATP d   1     -11.838  45.842   1.855  0.00  0.00     0.157 HD
ATOM     39  C2  ATP d   1     -12.809  45.761  -2.478  0.00  0.00     0.091 A 
ATOM     40  N3  ATP d   1     -14.070  46.237  -2.350  0.00  0.00    -0.222 NA
ATOM     41  H12 ATP d   1     -12.447  45.529  -3.473  0.00  0.00     0.146 H 
ENDBRANCH   5  28
BRANCH   4  42
ATOM     42  O2  ATP d   1     -17.927  45.187  -1.970  0.00  0.00    -0.388 OA
ATOM     43  H7  ATP d   1     -17.770  45.360  -2.891  0.00  0.00     0.210 HD
ENDBRANCH   4  42
TORSDOF 10
