REMARK  2 active torsions:
REMARK  status: ('A' for Active; 'I' for Inactive)
REMARK    1  A    between atoms: C7_13  and  C7M_14 
REMARK    2  A    between atoms: C8_15  and  C8M_16 
ROOT
ATOM      1  N1  LUM d   1       0.207  22.255  -2.710  0.00  0.00    -0.291 N 
ATOM      2  C2  LUM d   1      -0.475  21.939  -3.817  0.00  0.00     0.328 A 
ATOM      3  C10 LUM d   1       0.722  21.248  -1.928  0.00  0.00     0.167 A 
ATOM      4  O2  LUM d   1      -0.967  22.854  -4.540  0.00  0.00    -0.247 OA
ATOM      5  N3  LUM d   1      -0.673  20.633  -4.186  0.00  0.00    -0.273 N 
ATOM      6  C4  LUM d   1      -0.217  19.585  -3.459  0.00  0.00     0.282 A 
ATOM      7  O4  LUM d   1      -0.419  18.407  -3.851  0.00  0.00    -0.265 OA
ATOM      8  C4A LUM d   1       0.509  19.837  -2.298  0.00  0.00     0.171 A 
ATOM      9  N5  LUM d   1       1.008  18.835  -1.519  0.00  0.00    -0.237 NA
ATOM     10  C5A LUM d   1       1.709  19.171  -0.412  0.00  0.00     0.087 A 
ATOM     11  C6  LUM d   1       2.230  18.153   0.400  0.00  0.00    -0.047 A 
ATOM     12  C9A LUM d   1       1.918  20.513  -0.055  0.00  0.00     0.088 A 
ATOM     13  C7  LUM d   1       2.959  18.481   1.538  0.00  0.00    -0.054 A 
ATOM     14  C8  LUM d   1       3.166  19.797   1.886  0.00  0.00    -0.054 A 
ATOM     15  C9  LUM d   1       2.635  20.835   1.103  0.00  0.00    -0.047 A 
ATOM     16  N10 LUM d   1       1.433  21.512  -0.820  0.00  0.00    -0.226 NA
ATOM     17  H1  LUM d   1       0.341  23.212  -2.454  0.00  0.00     0.172 HD
ATOM     18  H2  LUM d   1      -1.177  20.446  -5.029  0.00  0.00     0.173 HD
ATOM     19  H3  LUM d   1       2.065  17.113   0.141  0.00  0.00     0.088 H 
ATOM     20  H10 LUM d   1       2.778  21.870   1.391  0.00  0.00     0.088 H 
ENDROOT
BRANCH  13  21
ATOM     21  C7M LUM d   1       3.530  17.345   2.383  0.00  0.00    -0.051 C 
ATOM     22  H4  LUM d   1       3.252  16.380   1.935  0.00  0.00     0.033 H 
ATOM     23  H5  LUM d   1       3.123  17.407   3.403  0.00  0.00     0.033 H 
ATOM     24  H6  LUM d   1       4.626  17.430   2.420  0.00  0.00     0.033 H 
ENDBRANCH  13  21
BRANCH  14  25
ATOM     25  C8M LUM d   1       3.958  20.123   3.145  0.00  0.00    -0.051 C 
ATOM     26  H7  LUM d   1       4.023  21.215   3.265  0.00  0.00     0.033 H 
ATOM     27  H8  LUM d   1       4.971  19.702   3.060  0.00  0.00     0.033 H 
ATOM     28  H9  LUM d   1       3.452  19.688   4.019  0.00  0.00     0.033 H 
ENDBRANCH  14  25
TORSDOF 2
