REMARK  11 active torsions:
REMARK  status: ('A' for Active; 'I' for Inactive)
REMARK    1  A    between atoms: C7_11  and  C7M_12 
REMARK    2  A    between atoms: C8_13  and  C8M_14 
REMARK    3  A    between atoms: N10_17  and  C1_19 
REMARK    4  A    between atoms: C1_19  and  C2_20 
REMARK    5  A    between atoms: C2_20  and  O2_21 
REMARK    6  A    between atoms: C2_20  and  C3_22 
REMARK    7  A    between atoms: C3_22  and  O3_23 
REMARK    8  A    between atoms: C3_22  and  C4_24 
REMARK    9  A    between atoms: C4_24  and  O4_25 
REMARK   10  A    between atoms: C4_24  and  C5_26 
REMARK   11  A    between atoms: C5_26  and  O5_27 
ROOT
ATOM      1  N1  RBF d   1       0.229  22.714  -2.893  0.00  0.00    -0.173 NA
ATOM      2  C2  RBF d   1      -0.465  22.331  -3.992  0.00  0.00     0.350 A 
ATOM      3  O2  RBF d   1      -0.923  23.247  -4.708  0.00  0.00    -0.244 OA
ATOM      4  N3  RBF d   1      -0.639  21.043  -4.326  0.00  0.00    -0.272 N 
ATOM      5  C4  RBF d   1      -0.195  20.031  -3.595  0.00  0.00     0.282 A 
ATOM      6  O4  RBF d   1      -0.358  18.840  -3.920  0.00  0.00    -0.265 OA
ATOM      7  C4A RBF d   1       0.567  20.357  -2.369  0.00  0.00     0.171 A 
ATOM      8  N5  RBF d   1       1.061  19.389  -1.581  0.00  0.00    -0.237 NA
ATOM      9  C5A RBF d   1       1.756  19.720  -0.453  0.00  0.00     0.085 A 
ATOM     10  C6  RBF d   1       2.252  18.710   0.355  0.00  0.00    -0.047 A 
ATOM     11  C7  RBF d   1       2.977  19.021   1.514  0.00  0.00    -0.054 A 
ATOM     12  C8  RBF d   1       3.192  20.443   1.874  0.00  0.00    -0.054 A 
ATOM     13  C9  RBF d   1       2.687  21.475   1.081  0.00  0.00    -0.048 A 
ATOM     14  C9A RBF d   1       1.969  21.145  -0.088  0.00  0.00     0.065 A 
ATOM     15  N10 RBF d   1       1.457  22.172  -0.922  0.00  0.00    -0.325 N 
ATOM     16  C10 RBF d   1       0.739  21.785  -2.065  0.00  0.00     0.170 A 
ATOM     17  H1  RBF d   1      -1.130  20.836  -5.172  0.00  0.00     0.174 HD
ATOM     18  H2  RBF d   1       2.079  17.673   0.090  0.00  0.00     0.088 H 
ATOM     19  H9  RBF d   1       2.844  22.511   1.358  0.00  0.00     0.087 H 
ENDROOT
BRANCH  15  20
ATOM     20  C1  RBF d   1       1.596  23.600  -0.593  0.00  0.00     0.028 C 
ATOM     21  H10 RBF d   1       1.929  23.675   0.453  0.00  0.00     0.069 H 
ATOM     22  H11 RBF d   1       0.606  24.068  -0.697  0.00  0.00     0.069 H 
BRANCH  20  23
ATOM     23  C2  RBF d   1       2.570  24.380  -1.447  0.00  0.00     0.078 C 
ATOM     24  H12 RBF d   1       2.554  23.985  -2.474  0.00  0.00     0.089 H 
BRANCH  23  25
ATOM     25  O2  RBF d   1       3.858  24.147  -0.886  0.00  0.00    -0.391 OA
ATOM     26  H13 RBF d   1       3.870  24.451   0.014  0.00  0.00     0.210 HD
ENDBRANCH  23  25
BRANCH  23  27
ATOM     27  C3  RBF d   1       2.177  25.863  -1.506  0.00  0.00     0.088 C 
ATOM     28  H14 RBF d   1       2.962  26.423  -2.036  0.00  0.00     0.091 H 
BRANCH  27  29
ATOM     29  O3  RBF d   1       2.080  26.382  -0.179  0.00  0.00    -0.390 OA
ATOM     30  H15 RBF d   1       2.920  26.293   0.257  0.00  0.00     0.210 HD
ENDBRANCH  27  29
BRANCH  27  31
ATOM     31  C4  RBF d   1       0.851  25.991  -2.317  0.00  0.00     0.083 C 
ATOM     32  H16 RBF d   1       0.183  25.190  -1.967  0.00  0.00     0.090 H 
BRANCH  31  33
ATOM     33  O4  RBF d   1       1.143  25.771  -3.698  0.00  0.00    -0.391 OA
ATOM     34  H17 RBF d   1       1.770  26.420  -3.995  0.00  0.00     0.210 HD
ENDBRANCH  31  33
BRANCH  31  35
ATOM     35  C5  RBF d   1       0.080  27.301  -2.183  0.00  0.00     0.043 C 
ATOM     36  H18 RBF d   1       0.747  28.138  -2.439  0.00  0.00     0.078 H 
ATOM     37  H19 RBF d   1      -0.263  27.411  -1.144  0.00  0.00     0.078 H 
BRANCH  35  38
ATOM     38  O5  RBF d   1      -1.066  27.325  -3.063  0.00  0.00    -0.398 OA
ATOM     39  H20 RBF d   1      -1.526  28.149  -2.959  0.00  0.00     0.209 HD
ENDBRANCH  35  38
ENDBRANCH  31  35
ENDBRANCH  27  31
ENDBRANCH  23  27
ENDBRANCH  20  23
ENDBRANCH  15  20
BRANCH  12  40
ATOM     40  C8M RBF d   1       3.966  20.782   3.135  0.00  0.00    -0.051 C 
ATOM     41  H6  RBF d   1       4.028  21.875   3.244  0.00  0.00     0.033 H 
ATOM     42  H7  RBF d   1       4.980  20.362   3.067  0.00  0.00     0.033 H 
ATOM     43  H8  RBF d   1       3.450  20.355   4.008  0.00  0.00     0.033 H 
ENDBRANCH  12  40
BRANCH  11  44
ATOM     44  C7M RBF d   1       3.533  17.889   2.372  0.00  0.00    -0.051 C 
ATOM     45  H3  RBF d   1       3.259  16.922   1.925  0.00  0.00     0.033 H 
ATOM     46  H4  RBF d   1       3.112  17.957   3.386  0.00  0.00     0.033 H 
ATOM     47  H5  RBF d   1       4.629  17.972   2.423  0.00  0.00     0.033 H 
ENDBRANCH  11  44
TORSDOF 11
