REMARK  3 active torsions:
REMARK  status: ('A' for Active; 'I' for Inactive)
REMARK    1  A    between atoms: C7_13  and  C7M_14 
REMARK    2  A    between atoms: C8_15  and  C8M_16 
REMARK    3  A    between atoms: N10_18  and  C1_19 
ROOT
ATOM      1  N1  LFN d   1       0.249  22.404  -2.679  0.00  0.00    -0.292 N 
ATOM      2  C2  LFN d   1      -0.462  22.087  -3.780  0.00  0.00     0.328 A 
ATOM      3  C10 LFN d   1       0.763  21.399  -1.881  0.00  0.00     0.146 A 
ATOM      4  O2  LFN d   1      -0.927  23.019  -4.484  0.00  0.00    -0.247 OA
ATOM      5  N3  LFN d   1      -0.675  20.796  -4.156  0.00  0.00    -0.273 N 
ATOM      6  C4  LFN d   1      -0.250  19.740  -3.468  0.00  0.00     0.282 A 
ATOM      7  O4  LFN d   1      -0.481  18.565  -3.851  0.00  0.00    -0.265 OA
ATOM      8  C4A LFN d   1       0.546  19.981  -2.249  0.00  0.00     0.169 A 
ATOM      9  N5  LFN d   1       1.034  18.965  -1.480  0.00  0.00    -0.237 NA
ATOM     10  C5A LFN d   1       1.761  19.272  -0.381  0.00  0.00     0.085 A 
ATOM     11  C6  LFN d   1       2.294  18.281   0.431  0.00  0.00    -0.047 A 
ATOM     12  C9A LFN d   1       1.983  20.708  -0.029  0.00  0.00     0.065 A 
ATOM     13  C7  LFN d   1       3.032  18.620   1.566  0.00  0.00    -0.054 A 
ATOM     14  C8  LFN d   1       3.265  20.034   1.910  0.00  0.00    -0.054 A 
ATOM     15  C9  LFN d   1       2.723  21.053   1.125  0.00  0.00    -0.049 A 
ATOM     16  N10 LFN d   1       1.473  21.675  -0.804  0.00  0.00    -0.333 N 
ATOM     17  H1  LFN d   1       0.404  23.363  -2.441  0.00  0.00     0.172 HD
ATOM     18  H2  LFN d   1      -1.182  20.631  -5.002  0.00  0.00     0.173 HD
ATOM     19  H3  LFN d   1       2.136  17.238   0.182  0.00  0.00     0.088 H 
ATOM     20  H10 LFN d   1       2.867  22.093   1.396  0.00  0.00     0.087 H 
ENDROOT
BRANCH  13  21
ATOM     21  C7M LFN d   1       3.618  17.516   2.443  0.00  0.00    -0.051 C 
ATOM     22  H4  LFN d   1       3.340  16.535   2.031  0.00  0.00     0.033 H 
ATOM     23  H5  LFN d   1       3.222  17.610   3.465  0.00  0.00     0.033 H 
ATOM     24  H6  LFN d   1       4.714  17.608   2.465  0.00  0.00     0.033 H 
ENDBRANCH  13  21
BRANCH  14  25
ATOM     25  C8M LFN d   1       4.058  20.388   3.160  0.00  0.00    -0.051 C 
ATOM     26  H7  LFN d   1       4.128  21.482   3.252  0.00  0.00     0.033 H 
ATOM     27  H8  LFN d   1       5.069  19.960   3.086  0.00  0.00     0.033 H 
ATOM     28  H9  LFN d   1       3.550  19.978   4.045  0.00  0.00     0.033 H 
ENDBRANCH  14  25
BRANCH  16  29
ATOM     29  C1  LFN d   1       1.699  23.098  -0.451  0.00  0.00    -0.012 C 
ATOM     30  H11 LFN d   1       1.210  23.743  -1.196  0.00  0.00     0.057 H 
ATOM     31  H12 LFN d   1       2.779  23.306  -0.439  0.00  0.00     0.057 H 
ATOM     32  H13 LFN d   1       1.276  23.301   0.544  0.00  0.00     0.057 H 
ENDBRANCH  16  29
TORSDOF 3
