REMARK  21 active torsions:
REMARK  status: ('A' for Active; 'I' for Inactive)
REMARK    1  A    between atoms: N_1  and  CA_2 
REMARK    2  A    between atoms: CA_2  and  C_3 
REMARK    3  A    between atoms: CA_2  and  CB_5 
REMARK       I    between atoms: C_3  and  N_9 
REMARK    4  A    between atoms: CB_5  and  CG_6 
REMARK    5  A    between atoms: CG_6  and  SD_7 
REMARK    6  A    between atoms: SD_7  and  CE_8 
REMARK    7  A    between atoms: N_9  and  CA_10 
REMARK    8  A    between atoms: CA_10  and  C_11 
REMARK    9  A    between atoms: CA_10  and  CB_13 
REMARK       I    between atoms: C_11  and  N_23 
REMARK   10  A    between atoms: CB_13  and  CG_14 
REMARK   11  A    between atoms: N_23  and  CA_24 
REMARK   12  A    between atoms: CA_24  and  C_25 
REMARK   13  A    between atoms: CA_24  and  CB_27 
REMARK       I    between atoms: C_25  and  N_34 
REMARK   14  A    between atoms: CB_27  and  CG_28 
REMARK   15  A    between atoms: CG_28  and  CD_29 
REMARK   16  A    between atoms: CD_29  and  NE_30 
REMARK       I    between atoms: NE_30  and  CZ_31 
REMARK       I    between atoms: CZ_31  and  NH1_32 
REMARK       I    between atoms: CZ_31  and  NH2_33 
REMARK   17  A    between atoms: CA_35  and  C_36 
REMARK       I    between atoms: C_36  and  N_41 
REMARK   18  A    between atoms: N_41  and  CA_42 
REMARK   19  A    between atoms: CA_42  and  C_43 
REMARK   20  A    between atoms: CA_42  and  CB_45 
REMARK   21  A    between atoms: CB_45  and  CG_46 
ROOT
ATOM      1  CA  ARG d   1     -20.446 -12.542  38.371  0.00  0.00     0.089 C 
ATOM      2  H23 ARG d   1     -20.836 -11.595  38.771  0.00  0.00     0.087 H 
ENDROOT
BRANCH   1   3
ATOM      3  N   ARG d   1     -20.660 -12.584  36.927  0.00  0.00    -0.346 N 
ATOM      4  C   TRP d   1     -21.563 -11.810  36.297  0.00  0.00     0.241 C 
ATOM      5  O   TRP d   1     -22.274 -10.964  36.880  0.00  0.00    -0.271 OA
ATOM      6  H22 ARG d   1     -20.110 -13.217  36.381  0.00  0.00     0.163 HD
BRANCH   4   7
ATOM      7  CA  TRP d   1     -21.678 -12.000  34.770  0.00  0.00     0.093 C 
ATOM      8  H13 TRP d   1     -21.059 -12.871  34.508  0.00  0.00     0.088 H 
BRANCH   7   9
ATOM      9  N   TRP d   1     -23.052 -12.315  34.343  0.00  0.00    -0.346 N 
ATOM     10  C   MET d   1     -23.570 -13.500  34.662  0.00  0.00     0.249 C 
ATOM     11  O   MET d   1     -22.922 -14.365  35.220  0.00  0.00    -0.271 OA
ATOM     12  H12 TRP d   1     -23.587 -11.650  33.822  0.00  0.00     0.163 HD
BRANCH  10  13
ATOM     13  CA  MET d   1     -24.995 -13.787  34.278  0.00  0.00     0.176 C 
ATOM     14  H4  MET d   1     -25.343 -12.999  33.594  0.00  0.00     0.099 H 
BRANCH  13  15
ATOM     15  N   MET d   1     -25.126 -15.124  33.576  0.00  0.00    -0.066 N 
ATOM     16  H1  MET d   1     -26.091 -15.283  33.334  0.00  0.00     0.275 HD
ATOM     17  H2  MET d   1     -24.808 -15.858  34.189  0.00  0.00     0.275 HD
ATOM     18  H3  MET d   1     -24.566 -15.120  32.738  0.00  0.00     0.275 HD
ENDBRANCH  13  15
BRANCH  13  19
ATOM     19  CB  MET d   1     -25.851 -13.769  35.534  0.00  0.00    -0.022 C 
ATOM     20  H5  MET d   1     -25.233 -14.115  36.375  0.00  0.00     0.037 H 
ATOM     21  H6  MET d   1     -26.691 -14.464  35.386  0.00  0.00     0.037 H 
BRANCH  19  22
ATOM     22  CG  MET d   1     -26.415 -12.420  35.890  0.00  0.00    -0.021 C 
ATOM     23  H7  MET d   1     -25.608 -11.683  35.765  0.00  0.00     0.049 H 
ATOM     24  H8  MET d   1     -26.716 -12.458  36.947  0.00  0.00     0.049 H 
BRANCH  22  25
ATOM     25  SD  MET d   1     -27.842 -11.829  34.940  0.00  0.00    -0.173 SA
BRANCH  25  26
ATOM     26  CE  MET d   1     -27.071 -11.482  33.328  0.00  0.00    -0.035 C 
ATOM     27  H9  MET d   1     -27.834 -11.107  32.630  0.00  0.00     0.041 H 
ATOM     28  H10 MET d   1     -26.630 -12.406  32.926  0.00  0.00     0.041 H 
ATOM     29  H11 MET d   1     -26.284 -10.724  33.454  0.00  0.00     0.041 H 
ENDBRANCH  25  26
ENDBRANCH  22  25
ENDBRANCH  19  22
ENDBRANCH  13  19
ENDBRANCH  10  13
ENDBRANCH   7   9
BRANCH   7  30
ATOM     30  CB  TRP d   1     -21.097 -10.799  34.021  0.00  0.00    -0.012 C 
ATOM     31  H14 TRP d   1     -21.829  -9.978  34.048  0.00  0.00     0.044 H 
ATOM     32  H15 TRP d   1     -20.911 -11.090  32.977  0.00  0.00     0.044 H 
BRANCH  30  33
ATOM     33  CG  TRP d   1     -19.806 -10.316  34.625  0.00  0.00    -0.028 A 
ATOM     34  CD1 TRP d   1     -18.576 -10.901  34.491  0.00  0.00    -0.015 A 
ATOM     35  NE1 TRP d   1     -17.643 -10.181  35.190  0.00  0.00    -0.365 N 
ATOM     36  H16 TRP d   1     -18.370 -11.802  33.916  0.00  0.00     0.112 H 
ATOM     37  CE2 TRP d   1     -18.248  -9.099  35.789  0.00  0.00     0.042 A 
ATOM     38  H17 TRP d   1     -16.642 -10.414  35.257  0.00  0.00     0.165 HD
ATOM     39  CD2 TRP d   1     -19.618  -9.151  35.456  0.00  0.00    -0.002 A 
ATOM     40  CZ2 TRP d   1     -17.701  -8.070  36.614  0.00  0.00    -0.056 A 
ATOM     41  CE3 TRP d   1     -20.480  -8.170  35.973  0.00  0.00    -0.070 A 
ATOM     42  CZ3 TRP d   1     -19.947  -7.130  36.778  0.00  0.00    -0.082 A 
ATOM     43  H18 TRP d   1     -21.542  -8.207  35.759  0.00  0.00     0.084 H 
ATOM     44  CH2 TRP d   1     -18.576  -7.085  37.090  0.00  0.00    -0.081 A 
ATOM     45  H20 TRP d   1     -20.607  -6.358  37.158  0.00  0.00     0.083 H 
ATOM     46  H21 TRP d   1     -18.192  -6.279  37.706  0.00  0.00     0.083 H 
ATOM     47  H19 TRP d   1     -16.646  -8.052  36.863  0.00  0.00     0.086 H 
ENDBRANCH  30  33
ENDBRANCH   7  30
ENDBRANCH   4   7
ENDBRANCH   1   3
BRANCH   1  48
ATOM     48  C   ARG d   1     -18.962 -12.632  38.617  0.00  0.00     0.243 C 
ATOM     49  O   ARG d   1     -18.399 -13.703  38.458  0.00  0.00    -0.271 OA
ATOM     50  N   PRO d   1     -18.324 -11.523  39.023  0.00  0.00    -0.337 N 
ATOM     51  CA  PRO d   1     -16.846 -11.483  39.099  0.00  0.00     0.091 C 
ATOM     52  CD  PRO d   1     -18.957 -10.221  39.369  0.00  0.00    -0.001 C 
ATOM     53  CB  PRO d   1     -16.547  -9.984  39.198  0.00  0.00    -0.036 C 
ATOM     54  H35 PRO d   1     -16.437 -11.894  38.164  0.00  0.00     0.087 H 
ATOM     55  CG  PRO d   1     -17.817  -9.360  39.849  0.00  0.00    -0.048 C 
ATOM     56  H36 PRO d   1     -16.376  -9.557  38.199  0.00  0.00     0.036 H 
ATOM     57  H37 PRO d   1     -15.663  -9.807  39.828  0.00  0.00     0.036 H 
ATOM     58  H38 PRO d   1     -17.951  -8.320  39.518  0.00  0.00     0.035 H 
ATOM     59  H39 PRO d   1     -17.744  -9.389  40.946  0.00  0.00     0.035 H 
ATOM     60  H40 PRO d   1     -19.706 -10.352  40.164  0.00  0.00     0.064 H 
ATOM     61  H41 PRO d   1     -19.435  -9.774  38.485  0.00  0.00     0.064 H 
BRANCH  51  62
ATOM     62  C   PRO d   1     -16.150 -12.226  40.273  0.00  0.00     0.241 C 
ATOM     63  O   PRO d   1     -14.889 -12.359  40.285  0.00  0.00    -0.271 OA
ATOM     64  N   TRP d   1     -16.933 -12.681  41.247  0.00  0.00    -0.344 N 
ATOM     65  H42 TRP d   1     -17.926 -12.637  41.141  0.00  0.00     0.163 HD
BRANCH  64  66
ATOM     66  CA  TRP d   1     -16.361 -13.248  42.476  0.00  0.00     0.100 C 
ATOM     67  H43 TRP d   1     -15.383 -12.771  42.637  0.00  0.00     0.090 H 
BRANCH  66  68
ATOM     68  C   TRP d   1     -16.120 -14.768  42.384  0.00  0.00     0.197 C 
ATOM     69  O   TRP d   1     -16.411 -15.470  41.399  0.00  0.00    -0.646 OA
ATOM     70  OXT TRP d   1     -15.623 -15.383  43.335  0.00  0.00    -0.646 OA
ENDBRANCH  66  68
BRANCH  66  71
ATOM     71  CB  TRP d   1     -17.261 -12.902  43.680  0.00  0.00    -0.011 C 
ATOM     72  H44 TRP d   1     -17.358 -11.808  43.734  0.00  0.00     0.044 H 
ATOM     73  H45 TRP d   1     -16.772 -13.272  44.593  0.00  0.00     0.044 H 
BRANCH  71  74
ATOM     74  CG  TRP d   1     -18.654 -13.500  43.612  0.00  0.00    -0.028 A 
ATOM     75  CD1 TRP d   1     -19.033 -14.729  44.060  0.00  0.00    -0.015 A 
ATOM     76  NE1 TRP d   1     -20.369 -14.929  43.836  0.00  0.00    -0.365 N 
ATOM     77  H46 TRP d   1     -18.367 -15.451  44.530  0.00  0.00     0.112 H 
ATOM     78  CE2 TRP d   1     -20.899 -13.805  43.250  0.00  0.00     0.042 A 
ATOM     79  H47 TRP d   1     -20.893 -15.785  44.069  0.00  0.00     0.165 HD
ATOM     80  CD2 TRP d   1     -19.848 -12.881  43.084  0.00  0.00    -0.002 A 
ATOM     81  CZ2 TRP d   1     -22.204 -13.544  42.809  0.00  0.00    -0.056 A 
ATOM     82  CE3 TRP d   1     -20.122 -11.647  42.480  0.00  0.00    -0.070 A 
ATOM     83  CZ3 TRP d   1     -21.425 -11.380  42.068  0.00  0.00    -0.082 A 
ATOM     84  H48 TRP d   1     -19.336 -10.915  42.336  0.00  0.00     0.084 H 
ATOM     85  CH2 TRP d   1     -22.447 -12.342  42.225  0.00  0.00    -0.081 A 
ATOM     86  H50 TRP d   1     -21.658 -10.421  41.621  0.00  0.00     0.083 H 
ATOM     87  H51 TRP d   1     -23.447 -12.116  41.872  0.00  0.00     0.083 H 
ATOM     88  H49 TRP d   1     -22.993 -14.277  42.930  0.00  0.00     0.086 H 
ENDBRANCH  71  74
ENDBRANCH  66  71
ENDBRANCH  64  66
ENDBRANCH  51  62
ENDBRANCH   1  48
BRANCH   1  89
ATOM     89  CB  ARG d   1     -21.144 -13.719  39.084  0.00  0.00    -0.036 C 
ATOM     90  H24 ARG d   1     -21.041 -13.573  40.169  0.00  0.00     0.036 H 
ATOM     91  H25 ARG d   1     -20.637 -14.649  38.789  0.00  0.00     0.036 H 
BRANCH  89  92
ATOM     92  CG  ARG d   1     -22.629 -13.862  38.761  0.00  0.00    -0.048 C 
ATOM     93  H26 ARG d   1     -22.749 -14.066  37.687  0.00  0.00     0.035 H 
ATOM     94  H27 ARG d   1     -23.148 -12.926  39.016  0.00  0.00     0.035 H 
BRANCH  92  95
ATOM     95  CD  ARG d   1     -23.241 -15.017  39.568  0.00  0.00     0.009 C 
ATOM     96  H28 ARG d   1     -22.913 -14.945  40.616  0.00  0.00     0.064 H 
ATOM     97  H29 ARG d   1     -22.907 -15.976  39.145  0.00  0.00     0.064 H 
BRANCH  95  98
ATOM     98  NE  ARG d   1     -24.698 -14.942  39.509  0.00  0.00    -0.227 N 
ATOM     99  CZ  ARG d   1     -25.495 -15.997  39.689  0.00  0.00     0.665 C 
ATOM    100  NH1 ARG d   1     -24.956 -17.183  39.961  0.00  0.00    -0.235 N 
ATOM    101  NH2 ARG d   1     -26.817 -15.869  39.615  0.00  0.00    -0.235 N 
ATOM    102  H31 ARG d   1     -25.562 -18.004  40.102  0.00  0.00     0.174 HD
ATOM    103  H32 ARG d   1     -23.933 -17.280  40.031  0.00  0.00     0.174 HD
ATOM    104  H33 ARG d   1     -27.235 -14.951  39.404  0.00  0.00     0.174 HD
ATOM    105  H34 ARG d   1     -27.423 -16.688  39.768  0.00  0.00     0.174 HD
ATOM    106  H30 ARG d   1     -25.133 -14.028  39.319  0.00  0.00     0.177 HD
ENDBRANCH  95  98
ENDBRANCH  92  95
ENDBRANCH  89  92
ENDBRANCH   1  89
TORSDOF 21
