REMARK  19 active torsions:
REMARK  status: ('A' for Active; 'I' for Inactive)
REMARK    1  A    between atoms: C22_18  and  C23_1 
REMARK    2  A    between atoms: C32_13  and  C33_7 
REMARK    3  A    between atoms: N24_41  and  C32_13 
REMARK    4  A    between atoms: O8_20  and  C7_14 
REMARK    5  A    between atoms: C4_15  and  C1_38 
REMARK    6  A    between atoms: N24_41  and  C4_15 
REMARK       I    between atoms: N1_17  and  C30_32 
REMARK    7  A    between atoms: C41_35  and  N1_17 
REMARK    8  A    between atoms: C1_38  and  C22_18 
REMARK    9  A    between atoms: C1_38  and  O6_19 
REMARK   10  A    between atoms: C30_32  and  O8_20 
REMARK       I    between atoms: C10_21  and  N12_23 
REMARK   11  A    between atoms: C1_38  and  C10_21 
REMARK   12  A    between atoms: N12_23  and  C51_24 
REMARK   13  A    between atoms: C59_30  and  O60_31 
REMARK   14  A    between atoms: C41_35  and  C42_36 
REMARK   15  A    between atoms: C45_40  and  C41_35 
REMARK   16  A    between atoms: C42_36  and  C43_37 
REMARK   17  A    between atoms: C42_36  and  C44_39 
REMARK   18  A    between atoms: C42_36  and  C86_45 
REMARK       I    between atoms: N47_43  and  C45_40 
REMARK   19  A    between atoms: N24_41  and  N47_43 
ROOT
ATOM      1  N24 1AH d   1      11.775  23.709   4.438  0.00  0.00     0.018 N 
ATOM      2  H38 1AH d   1      12.227  24.317   3.772  0.00  0.00     0.309 HD
ENDROOT
BRANCH   1   3
ATOM      3  C32 1AH d   1      10.749  22.935   3.671  0.00  0.00     0.128 C 
ATOM      4  H10 1AH d   1      11.270  22.256   2.981  0.00  0.00     0.086 H 
ATOM      5  H11 1AH d   1      10.153  22.347   4.384  0.00  0.00     0.086 H 
BRANCH   3   6
ATOM      6  C33 1AH d   1       9.827  23.791   2.881  0.00  0.00    -0.030 A 
ATOM      7  C34 1AH d   1      10.345  24.512   1.769  0.00  0.00    -0.074 A 
ATOM      8  C35 1AH d   1       9.482  25.357   1.020  0.00  0.00    -0.066 A 
ATOM      9  H6  1AH d   1      11.390  24.418   1.495  0.00  0.00     0.084 H 
ATOM     10  C36 1AH d   1       8.105  25.473   1.393  0.00  0.00     0.011 A 
ATOM     11  H7  1AH d   1       9.865  25.911   0.170  0.00  0.00     0.085 H 
ATOM     12  C37 1AH d   1       7.587  24.740   2.503  0.00  0.00    -0.066 A 
ATOM     13 BR   1AH d   1       6.972  26.617   0.419  0.00  0.00    -0.051 Br
ATOM     14  C38 1AH d   1       8.448  23.898   3.248  0.00  0.00    -0.074 A 
ATOM     15  H8  1AH d   1       6.541  24.827   2.774  0.00  0.00     0.085 H 
ATOM     16  H9  1AH d   1       8.064  23.337   4.093  0.00  0.00     0.084 H 
ENDBRANCH   3   6
ENDBRANCH   1   3
BRANCH   1  17
ATOM     17  C4  1AH d   1      12.690  22.649   4.639  0.00  0.00     0.141 C 
ATOM     18  H15 1AH d   1      12.081  21.837   5.064  0.00  0.00     0.085 H 
ATOM     19  H16 1AH d   1      13.016  22.371   3.626  0.00  0.00     0.085 H 
BRANCH  17  20
ATOM     20  C1  1AH d   1      13.990  22.640   5.481  0.00  0.00     0.168 C 
BRANCH  20  21
ATOM     21  C22 1AH d   1      13.867  22.952   7.024  0.00  0.00    -0.002 C 
ATOM     22  H18 1AH d   1      14.104  24.015   7.181  0.00  0.00     0.045 H 
ATOM     23  H19 1AH d   1      12.830  22.758   7.334  0.00  0.00     0.045 H 
BRANCH  21  24
ATOM     24  C23 1AH d   1      14.799  22.114   7.909  0.00  0.00    -0.055 A 
ATOM     25  C24 1AH d   1      14.284  20.972   8.623  0.00  0.00    -0.077 A 
ATOM     26  C25 1AH d   1      15.158  20.161   9.424  0.00  0.00    -0.082 A 
ATOM     27  H1  1AH d   1      13.231  20.724   8.555  0.00  0.00     0.084 H 
ATOM     28  C26 1AH d   1      16.557  20.490   9.516  0.00  0.00    -0.083 A 
ATOM     29  H2  1AH d   1      14.765  19.303   9.958  0.00  0.00     0.083 H 
ATOM     30  C27 1AH d   1      17.077  21.627   8.810  0.00  0.00    -0.082 A 
ATOM     31  H3  1AH d   1      17.218  19.878  10.119  0.00  0.00     0.083 H 
ATOM     32  C28 1AH d   1      16.208  22.441   8.008  0.00  0.00    -0.077 A 
ATOM     33  H4  1AH d   1      18.131  21.872   8.883  0.00  0.00     0.083 H 
ATOM     34  H5  1AH d   1      16.605  23.299   7.477  0.00  0.00     0.084 H 
ENDBRANCH  21  24
ENDBRANCH  20  21
BRANCH  20  35
ATOM     35  O6  1AH d   1      14.936  23.526   4.914  0.00  0.00    -0.378 OA
ATOM     36  H20 1AH d   1      14.645  24.422   5.041  0.00  0.00     0.211 HD
ENDBRANCH  20  35
BRANCH  20  37
ATOM     37  C10 1AH d   1      14.426  21.156   5.209  0.00  0.00     0.255 C 
ATOM     38  O11 1AH d   1      13.545  20.282   5.137  0.00  0.00    -0.270 OA
ATOM     39  N12 1AH d   1      15.720  20.804   5.114  0.00  0.00    -0.347 N 
ATOM     40  H21 1AH d   1      16.422  21.514   5.158  0.00  0.00     0.163 HD
BRANCH  39  41
ATOM     41  C51 1AH d   1      16.128  19.405   4.948  0.00  0.00     0.063 C 
ATOM     42  C52 1AH d   1      16.105  18.857   3.546  0.00  0.00    -0.027 A 
ATOM     43  C57 1AH d   1      17.128  17.901   3.423  0.00  0.00    -0.047 A 
ATOM     44  C53 1AH d   1      15.243  19.178   2.447  0.00  0.00    -0.074 A 
ATOM     45  C56 1AH d   1      17.353  17.211   2.198  0.00  0.00    -0.076 A 
ATOM     46  C58 1AH d   1      17.882  17.764   4.734  0.00  0.00    -0.014 C 
ATOM     47  C55 1AH d   1      16.502  17.521   1.081  0.00  0.00    -0.082 A 
ATOM     48  H28 1AH d   1      18.143  16.474   2.110  0.00  0.00     0.084 H 
ATOM     49  C54 1AH d   1      15.452  18.497   1.201  0.00  0.00    -0.082 A 
ATOM     50  H25 1AH d   1      16.654  17.012   0.136  0.00  0.00     0.083 H 
ATOM     51  H24 1AH d   1      14.818  18.718   0.350  0.00  0.00     0.083 H 
ATOM     52  C59 1AH d   1      17.564  19.104   5.434  0.00  0.00     0.063 C 
ATOM     53  H29 1AH d   1      18.963  17.650   4.563  0.00  0.00     0.044 H 
ATOM     54  H30 1AH d   1      17.512  16.910   5.320  0.00  0.00     0.044 H 
ATOM     55  H26 1AH d   1      17.622  19.039   6.530  0.00  0.00     0.087 H 
ATOM     56  H23 1AH d   1      14.455  19.915   2.554  0.00  0.00     0.084 H 
ATOM     57  H22 1AH d   1      15.426  18.813   5.553  0.00  0.00     0.084 H 
BRANCH  52  58
ATOM     58  O60 1AH d   1      18.493  20.060   4.925  0.00  0.00    -0.393 OA
ATOM     59  H27 1AH d   1      18.248  20.928   5.223  0.00  0.00     0.210 HD
ENDBRANCH  52  58
ENDBRANCH  39  41
ENDBRANCH  20  37
ENDBRANCH  17  20
ENDBRANCH   1  17
BRANCH   1  60
ATOM     60  N47 1AH d   1      11.360  24.631   5.395  0.00  0.00    -0.184 N 
ATOM     61  C45 1AH d   1      10.379  24.488   6.321  0.00  0.00     0.265 C 
ATOM     62  O46 1AH d   1      10.015  23.391   6.738  0.00  0.00    -0.269 OA
ATOM     63  H39 1AH d   1      11.844  25.506   5.401  0.00  0.00     0.197 HD
BRANCH  61  64
ATOM     64  C41 1AH d   1       9.718  25.797   6.850  0.00  0.00     0.099 C 
ATOM     65  H31 1AH d   1      10.220  26.640   6.352  0.00  0.00     0.088 H 
BRANCH  64  66
ATOM     66  N1  1AH d   1       8.298  25.779   6.446  0.00  0.00    -0.323 N 
ATOM     67  C30 1AH d   1       7.658  26.668   5.665  0.00  0.00     0.360 C 
ATOM     68  O3  1AH d   1       8.266  27.663   5.184  0.00  0.00    -0.239 OA
ATOM     69  H17 1AH d   1       7.749  25.019   6.793  0.00  0.00     0.165 HD
BRANCH  67  70
ATOM     70  O8  1AH d   1       6.344  26.427   5.432  0.00  0.00    -0.309 OA
BRANCH  70  71
ATOM     71  C7  1AH d   1       5.546  27.289   4.617  0.00  0.00     0.015 C 
ATOM     72  H12 1AH d   1       4.518  26.900   4.569  0.00  0.00     0.067 H 
ATOM     73  H13 1AH d   1       5.970  27.331   3.603  0.00  0.00     0.067 H 
ATOM     74  H14 1AH d   1       5.536  28.299   5.052  0.00  0.00     0.067 H 
ENDBRANCH  70  71
ENDBRANCH  67  70
ENDBRANCH  64  66
BRANCH  64  75
ATOM     75  C42 1AH d   1       9.800  26.062   8.398  0.00  0.00    -0.022 C 
BRANCH  75  76
ATOM     76  C43 1AH d   1       9.151  27.414   8.814  0.00  0.00    -0.067 C 
ATOM     77  H32 1AH d   1       9.239  27.543   9.903  0.00  0.00     0.028 H 
ATOM     78  H33 1AH d   1       8.088  27.414   8.529  0.00  0.00     0.028 H 
ATOM     79  H34 1AH d   1       9.667  28.241   8.304  0.00  0.00     0.028 H 
ENDBRANCH  75  76
BRANCH  75  80
ATOM     80  C44 1AH d   1      11.242  26.095   8.925  0.00  0.00    -0.067 C 
ATOM     81  H35 1AH d   1      11.752  25.157   8.658  0.00  0.00     0.028 H 
ATOM     82  H36 1AH d   1      11.230  26.207  10.019  0.00  0.00     0.028 H 
ATOM     83  H37 1AH d   1      11.777  26.944   8.476  0.00  0.00     0.028 H 
ENDBRANCH  75  80
BRANCH  75  84
ATOM     84  C86 1AH d   1       9.024  24.956   9.137  0.00  0.00    -0.067 C 
ATOM     85  H40 1AH d   1       7.989  24.924   8.766  0.00  0.00     0.028 H 
ATOM     86  H41 1AH d   1       9.021  25.169  10.216  0.00  0.00     0.028 H 
ATOM     87  H42 1AH d   1       9.508  23.985   8.956  0.00  0.00     0.028 H 
ENDBRANCH  75  84
ENDBRANCH  64  75
ENDBRANCH  61  64
ENDBRANCH   1  60
TORSDOF 19
