REMARK  20 active torsions:
REMARK  status: ('A' for Active; 'I' for Inactive)
REMARK    1  A    between atoms: C1_1  and  C2_2 
REMARK    2  A    between atoms: C1_1  and  C24_15 
REMARK    3  A    between atoms: C1_1  and  O36_22 
REMARK    4  A    between atoms: C41_23  and  C1_1 
REMARK       I    between atoms: C2_2  and  N4_4 
REMARK    5  A    between atoms: N4_4  and  C5_5 
REMARK    6  A    between atoms: C13_13  and  O14_14 
REMARK    7  A    between atoms: C24_15  and  C25_16 
REMARK    8  A    between atoms: N42_24  and  C41_23 
REMARK    9  A    between atoms: N42_24  and  N43_25 
REMARK   10  A    between atoms: C44_26  and  N42_24 
REMARK       I    between atoms: N43_25  and  C45_27 
REMARK   11  A    between atoms: C78_37  and  C44_26 
REMARK   12  A    between atoms: C45_27  and  C47_29 
REMARK   13  A    between atoms: C47_29  and  C48_30 
REMARK   14  A    between atoms: C47_29  and  N51_33 
REMARK   15  A    between atoms: C48_30  and  C49_31 
REMARK   16  A    between atoms: C48_30  and  C50_32 
REMARK   17  A    between atoms: C48_30  and  C92_44 
REMARK       I    between atoms: N51_33  and  C54_34 
REMARK   18  A    between atoms: C54_34  and  O56_36 
REMARK   19  A    between atoms: O56_36  and  C91_43 
REMARK   20  A    between atoms: C95_47  and  C81_40 
ROOT
ATOM      1  N42 4AH d   1      12.078  23.955   4.385  0.00  0.00     0.018 N 
ATOM      2  H21 4AH d   1      12.679  24.689   4.045  0.00  0.00     0.309 HD
ENDROOT
BRANCH   1   3
ATOM      3  C41 4AH d   1      13.031  22.948   4.745  0.00  0.00     0.141 C 
ATOM      4  H19 4AH d   1      12.400  22.162   5.185  0.00  0.00     0.085 H 
ATOM      5  H20 4AH d   1      13.410  22.611   3.769  0.00  0.00     0.085 H 
BRANCH   3   6
ATOM      6  C1  4AH d   1      14.307  22.911   5.643  0.00  0.00     0.168 C 
BRANCH   6   7
ATOM      7  C2  4AH d   1      14.579  21.377   5.386  0.00  0.00     0.255 C 
ATOM      8  O3  4AH d   1      13.633  20.562   5.403  0.00  0.00    -0.270 OA
ATOM      9  N4  4AH d   1      15.833  20.926   5.189  0.00  0.00    -0.347 N 
ATOM     10  H1  4AH d   1      16.587  21.582   5.177  0.00  0.00     0.163 HD
BRANCH   9  11
ATOM     11  C5  4AH d   1      16.129  19.496   4.990  0.00  0.00     0.063 C 
ATOM     12  C6  4AH d   1      16.089  18.995   3.574  0.00  0.00    -0.027 A 
ATOM     13  C7  4AH d   1      15.250  19.411   2.489  0.00  0.00    -0.074 A 
ATOM     14  C11 4AH d   1      17.054  17.978   3.412  0.00  0.00    -0.047 A 
ATOM     15  C8  4AH d   1      15.425  18.759   1.218  0.00  0.00    -0.082 A 
ATOM     16  H3  4AH d   1      14.508  20.191   2.621  0.00  0.00     0.084 H 
ATOM     17  C9  4AH d   1      16.412  17.725   1.062  0.00  0.00    -0.082 A 
ATOM     18  H4  4AH d   1      14.810  19.049   0.374  0.00  0.00     0.083 H 
ATOM     19  C10 4AH d   1      17.239  17.322   2.163  0.00  0.00    -0.076 A 
ATOM     20  H5  4AH d   1      16.533  17.243   0.099  0.00  0.00     0.083 H 
ATOM     21  H6  4AH d   1      17.982  16.541   2.047  0.00  0.00     0.084 H 
ATOM     22  C12 4AH d   1      17.799  17.732   4.704  0.00  0.00    -0.014 C 
ATOM     23  C13 4AH d   1      17.523  19.022   5.517  0.00  0.00     0.063 C 
ATOM     24  H7  4AH d   1      18.876  17.603   4.521  0.00  0.00     0.044 H 
ATOM     25  H8  4AH d   1      17.407  16.846   5.224  0.00  0.00     0.044 H 
ATOM     26  H9  4AH d   1      17.501  18.846   6.603  0.00  0.00     0.087 H 
ATOM     27  H2  4AH d   1      15.355  18.956   5.555  0.00  0.00     0.084 H 
BRANCH  23  28
ATOM     28  O14 4AH d   1      18.573  19.914   5.168  0.00  0.00    -0.393 OA
ATOM     29  H10 4AH d   1      18.461  20.732   5.637  0.00  0.00     0.210 HD
ENDBRANCH  23  28
ENDBRANCH   9  11
ENDBRANCH   6   7
BRANCH   6  30
ATOM     30  C24 4AH d   1      14.111  23.182   7.176  0.00  0.00    -0.002 C 
ATOM     31  H11 4AH d   1      13.057  22.985   7.421  0.00  0.00     0.045 H 
ATOM     32  H12 4AH d   1      14.338  24.242   7.362  0.00  0.00     0.045 H 
BRANCH  30  33
ATOM     33  C25 4AH d   1      14.973  22.347   8.118  0.00  0.00    -0.055 A 
ATOM     34  C26 4AH d   1      14.375  21.280   8.877  0.00  0.00    -0.077 A 
ATOM     35  C27 4AH d   1      15.173  20.477   9.745  0.00  0.00    -0.082 A 
ATOM     36  H13 4AH d   1      13.312  21.086   8.789  0.00  0.00     0.084 H 
ATOM     37  C28 4AH d   1      16.577  20.735   9.859  0.00  0.00    -0.083 A 
ATOM     38  H14 4AH d   1      14.719  19.675  10.316  0.00  0.00     0.083 H 
ATOM     39  C29 4AH d   1      17.178  21.798   9.106  0.00  0.00    -0.082 A 
ATOM     40  H15 4AH d   1      17.187  20.126  10.516  0.00  0.00     0.083 H 
ATOM     41  C30 4AH d   1      16.381  22.604   8.236  0.00  0.00    -0.077 A 
ATOM     42  H16 4AH d   1      18.241  21.991   9.197  0.00  0.00     0.083 H 
ATOM     43  H17 4AH d   1      16.837  23.406   7.667  0.00  0.00     0.084 H 
ENDBRANCH  30  33
ENDBRANCH   6  30
BRANCH   6  44
ATOM     44  O36 4AH d   1      15.412  23.717   5.222  0.00  0.00    -0.378 OA
ATOM     45  H18 4AH d   1      15.214  24.632   5.382  0.00  0.00     0.211 HD
ENDBRANCH   6  44
ENDBRANCH   3   6
ENDBRANCH   1   3
BRANCH   1  46
ATOM     46  N43 4AH d   1      11.414  24.711   5.321  0.00  0.00    -0.184 N 
ATOM     47  C45 4AH d   1      10.540  24.436   6.309  0.00  0.00     0.265 C 
ATOM     48  O46 4AH d   1      10.362  23.295   6.766  0.00  0.00    -0.269 OA
ATOM     49  H22 4AH d   1      11.628  25.686   5.254  0.00  0.00     0.197 HD
BRANCH  47  50
ATOM     50  C47 4AH d   1       9.762  25.660   6.829  0.00  0.00     0.099 C 
ATOM     51  H25 4AH d   1      10.254  26.546   6.401  0.00  0.00     0.088 H 
BRANCH  50  52
ATOM     52  C48 4AH d   1       9.690  25.905   8.376  0.00  0.00    -0.022 C 
BRANCH  52  53
ATOM     53  C49 4AH d   1       8.926  27.210   8.731  0.00  0.00    -0.067 C 
ATOM     54  H26 4AH d   1       8.903  27.336   9.823  0.00  0.00     0.028 H 
ATOM     55  H27 4AH d   1       7.897  27.148   8.348  0.00  0.00     0.028 H 
ATOM     56  H28 4AH d   1       9.437  28.070   8.273  0.00  0.00     0.028 H 
ENDBRANCH  52  53
BRANCH  52  57
ATOM     57  C50 4AH d   1      11.077  26.002   9.031  0.00  0.00    -0.067 C 
ATOM     58  H29 4AH d   1      11.654  25.094   8.804  0.00  0.00     0.028 H 
ATOM     59  H30 4AH d   1      10.962  26.100  10.120  0.00  0.00     0.028 H 
ATOM     60  H31 4AH d   1      11.608  26.882   8.638  0.00  0.00     0.028 H 
ENDBRANCH  52  57
BRANCH  52  61
ATOM     61  C92 4AH d   1       8.913  24.767   9.046  0.00  0.00    -0.067 C 
ATOM     62  H40 4AH d   1       7.916  24.684   8.588  0.00  0.00     0.028 H 
ATOM     63  H41 4AH d   1       8.806  24.979  10.120  0.00  0.00     0.028 H 
ATOM     64  H42 4AH d   1       9.458  23.821   8.911  0.00  0.00     0.028 H 
ENDBRANCH  52  61
ENDBRANCH  50  52
BRANCH  50  65
ATOM     65  N51 4AH d   1       8.392  25.586   6.293  0.00  0.00    -0.323 N 
ATOM     66  C54 4AH d   1       7.821  26.484   5.474  0.00  0.00     0.360 C 
ATOM     67  O55 4AH d   1       8.467  27.484   5.107  0.00  0.00    -0.239 OA
ATOM     68  H32 4AH d   1       7.839  24.798   6.563  0.00  0.00     0.165 HD
BRANCH  66  69
ATOM     69  O56 4AH d   1       6.544  26.254   5.089  0.00  0.00    -0.309 OA
BRANCH  69  70
ATOM     70  C91 4AH d   1       5.855  27.158   4.232  0.00  0.00     0.015 C 
ATOM     71  H37 4AH d   1       4.838  26.784   4.046  0.00  0.00     0.067 H 
ATOM     72  H38 4AH d   1       6.395  27.242   3.277  0.00  0.00     0.067 H 
ATOM     73  H39 4AH d   1       5.800  28.147   4.710  0.00  0.00     0.067 H 
ENDBRANCH  69  70
ENDBRANCH  66  69
ENDBRANCH  50  65
ENDBRANCH  47  50
ENDBRANCH   1  46
BRANCH   1  74
ATOM     74  C44 4AH d   1      11.548  23.428   3.108  0.00  0.00     0.128 C 
ATOM     75  H23 4AH d   1      11.872  22.382   3.006  0.00  0.00     0.086 H 
ATOM     76  H24 4AH d   1      11.971  24.025   2.287  0.00  0.00     0.086 H 
BRANCH  74  77
ATOM     77  C78 4AH d   1      10.034  23.470   2.997  0.00  0.00    -0.030 A 
ATOM     78  C79 4AH d   1       9.422  24.451   2.158  0.00  0.00    -0.074 A 
ATOM     79  C80 4AH d   1       7.999  24.518   2.051  0.00  0.00    -0.072 A 
ATOM     80  H33 4AH d   1      10.039  25.147   1.601  0.00  0.00     0.084 H 
ATOM     81  C81 4AH d   1       7.166  23.603   2.791  0.00  0.00    -0.025 A 
ATOM     82  H34 4AH d   1       7.542  25.262   1.409  0.00  0.00     0.084 H 
ATOM     83  C83 4AH d   1       7.791  22.617   3.632  0.00  0.00    -0.072 A 
ATOM     84  C82 4AH d   1       9.215  22.550   3.730  0.00  0.00    -0.074 A 
ATOM     85  H36 4AH d   1       7.178  21.921   4.194  0.00  0.00     0.084 H 
ATOM     86  H35 4AH d   1       9.678  21.800   4.361  0.00  0.00     0.084 H 
BRANCH  81  87
ATOM     87  C95 4AH d   1       5.677  23.682   2.684  0.00  0.00    -0.008 A 
ATOM     88  C94 4AH d   1       4.841  22.786   3.432  0.00  0.00    -0.070 A 
ATOM     89  C93 4AH d   1       3.421  22.855   3.340  0.00  0.00    -0.065 A 
ATOM     90  H44 4AH d   1       5.298  22.045   4.077  0.00  0.00     0.085 H 
ATOM     91  C98 4AH d   1       2.816  23.824   2.495  0.00  0.00     0.002 A 
ATOM     92  H43 4AH d   1       2.805  22.171   3.912  0.00  0.00     0.085 H 
ATOM     93  N97 4AH d   1       3.637  24.718   1.747  0.00  0.00    -0.272 NA
ATOM     94  H46 4AH d   1       1.736  23.883   2.420  0.00  0.00     0.114 H 
ATOM     95  C96 4AH d   1       5.056  24.654   1.837  0.00  0.00     0.012 A 
ATOM     96  H45 4AH d   1       5.667  25.342   1.264  0.00  0.00     0.116 H 
ENDBRANCH  81  87
ENDBRANCH  74  77
ENDBRANCH   1  74
TORSDOF 20
