REMARK  8 active torsions:
REMARK  status: ('A' for Active; 'I' for Inactive)
REMARK    1  A    between atoms: O6_1  and  C6_2 
REMARK    2  A    between atoms: C6_2  and  C5_3 
REMARK    3  A    between atoms: C4_4  and  O4_5 
REMARK    4  A    between atoms: C3_6  and  O3_7 
REMARK    5  A    between atoms: C2_8  and  O2_9 
REMARK    6  A    between atoms: C7_12  and  C9_15 
REMARK    7  A    between atoms: C9_15  and  C10_16 
REMARK    8  A    between atoms: C10_16  and  C14_17 
ROOT
ATOM      1  C5  PGI d   1      63.692 -71.172   8.312  0.00  0.00     0.065 C 
ATOM      2  C4  PGI d   1      64.910 -70.624   9.065  0.00  0.00     0.085 C 
ATOM      3  C3  PGI d   1      66.205 -71.006   8.288  0.00  0.00     0.093 C 
ATOM      4  C2  PGI d   1      66.206 -70.366   6.905  0.00  0.00     0.119 C 
ATOM      5  N1  PGI d   1      63.689 -70.546   6.969  0.00  0.00    -0.332 N 
ATOM      6  C8  PGI d   1      62.640 -70.211   6.202  0.00  0.00     0.005 A 
ATOM      7  C7  PGI d   1      63.133 -69.651   5.036  0.00  0.00     0.052 A 
ATOM      8  N2  PGI d   1      64.481 -69.656   5.174  0.00  0.00    -0.235 NA
ATOM      9  C1  PGI d   1      64.820 -70.197   6.354  0.00  0.00     0.138 A 
ATOM     10  H4  PGI d   1      63.805 -72.261   8.206  0.00  0.00     0.080 H 
ATOM     11  H5  PGI d   1      64.840 -69.527   9.093  0.00  0.00     0.090 H 
ATOM     12  H7  PGI d   1      66.199 -72.099   8.164  0.00  0.00     0.091 H 
ATOM     13  H9  PGI d   1      66.666 -69.369   6.979  0.00  0.00     0.099 H 
ATOM     14  H11 PGI d   1      61.590 -70.354   6.452  0.00  0.00     0.114 H 
ENDROOT
BRANCH   7  15
ATOM     15  C9  PGI d   1      62.315 -69.098   3.842  0.00  0.00    -0.020 C 
ATOM     16  H12 PGI d   1      61.248 -69.310   4.006  0.00  0.00     0.042 H 
ATOM     17  H13 PGI d   1      62.649 -69.590   2.917  0.00  0.00     0.042 H 
BRANCH  15  18
ATOM     18  C10 PGI d   1      62.513 -67.577   3.706  0.00  0.00    -0.036 C 
ATOM     19  H14 PGI d   1      63.591 -67.376   3.792  0.00  0.00     0.040 H 
ATOM     20  H15 PGI d   1      61.983 -67.100   4.543  0.00  0.00     0.040 H 
BRANCH  18  21
ATOM     21  C14 PGI d   1      62.024 -66.912   2.414  0.00  0.00    -0.058 A 
ATOM     22  C13 PGI d   1      62.015 -65.510   2.362  0.00  0.00    -0.077 A 
ATOM     23  C12 PGI d   1      61.580 -64.832   1.219  0.00  0.00    -0.082 A 
ATOM     24  H16 PGI d   1      62.351 -64.943   3.223  0.00  0.00     0.084 H 
ATOM     25  C11 PGI d   1      61.152 -65.577   0.112  0.00  0.00    -0.083 A 
ATOM     26  H17 PGI d   1      61.574 -63.748   1.190  0.00  0.00     0.083 H 
ATOM     27  C16 PGI d   1      61.158 -66.978   0.147  0.00  0.00    -0.082 A 
ATOM     28  H20 PGI d   1      60.813 -65.064  -0.781  0.00  0.00     0.083 H 
ATOM     29  C15 PGI d   1      61.591 -67.645   1.292  0.00  0.00    -0.077 A 
ATOM     30  H19 PGI d   1      60.826 -67.543  -0.716  0.00  0.00     0.083 H 
ATOM     31  H18 PGI d   1      61.594 -68.729   1.319  0.00  0.00     0.084 H 
ENDBRANCH  18  21
ENDBRANCH  15  18
ENDBRANCH   7  15
BRANCH   1  32
ATOM     32  C6  PGI d   1      62.381 -70.902   9.016  0.00  0.00     0.038 C 
ATOM     33  H2  PGI d   1      61.604 -71.565   8.607  0.00  0.00     0.077 H 
ATOM     34  H3  PGI d   1      62.499 -71.095  10.092  0.00  0.00     0.077 H 
BRANCH  32  35
ATOM     35  O6  PGI d   1      61.998 -69.554   8.820  0.00  0.00    -0.399 OA
ATOM     36  H1  PGI d   1      62.668 -68.981   9.174  0.00  0.00     0.209 HD
ENDBRANCH  32  35
ENDBRANCH   1  32
BRANCH   4  37
ATOM     37  O2  PGI d   1      67.004 -71.180   6.052  0.00  0.00    -0.385 OA
ATOM     38  H10 PGI d   1      66.633 -72.054   6.012  0.00  0.00     0.210 HD
ENDBRANCH   4  37
BRANCH   2  39
ATOM     39  O4  PGI d   1      64.915 -71.099  10.418  0.00  0.00    -0.391 OA
ATOM     40  H6  PGI d   1      64.123 -70.810  10.857  0.00  0.00     0.210 HD
ENDBRANCH   2  39
BRANCH   3  41
ATOM     41  O3  PGI d   1      67.438 -70.650   8.961  0.00  0.00    -0.390 OA
ATOM     42  H8  PGI d   1      67.478 -71.093   9.800  0.00  0.00     0.210 HD
ENDBRANCH   3  41
TORSDOF 8
