REMARK  5 active torsions:
REMARK  status: ('A' for Active; 'I' for Inactive)
REMARK    1  A    between atoms: C2_2  and  O2_12 
REMARK    2  A    between atoms: C3_4  and  O3_11 
REMARK    3  A    between atoms: C4_5  and  O4_13 
REMARK    4  A    between atoms: C5_6  and  C6_7 
REMARK    5  A    between atoms: C6_7  and  O6_14 
ROOT
ATOM      1  C1  GIM d   1      -0.970  10.949  10.644  0.00  0.00     0.138 A 
ATOM      2  C2  GIM d   1       0.072  11.706   9.809  0.00  0.00     0.119 C 
ATOM      3  N10 GIM d   1      -2.043  10.346  10.090  0.00  0.00    -0.332 N 
ATOM      4  C3  GIM d   1      -0.336  11.842   8.318  0.00  0.00     0.093 C 
ATOM      5  C4  GIM d   1      -1.104  10.582   7.778  0.00  0.00     0.085 C 
ATOM      6  C5  GIM d   1      -2.368  10.465   8.655  0.00  0.00     0.065 C 
ATOM      7  C7  GIM d   1      -1.956   9.934  12.289  0.00  0.00     0.019 A 
ATOM      8  C8  GIM d   1      -2.627   9.630  11.088  0.00  0.00    -0.001 A 
ATOM      9  N1  GIM d   1      -0.902  10.730  11.963  0.00  0.00    -0.243 NA
ATOM     10  H1  GIM d   1       0.931  11.020   9.780  0.00  0.00     0.099 H 
ATOM     11  H2  GIM d   1      -1.018  12.700   8.220  0.00  0.00     0.091 H 
ATOM     12  H3  GIM d   1      -0.482   9.679   7.868  0.00  0.00     0.090 H 
ATOM     13  H4  GIM d   1      -2.807  11.469   8.557  0.00  0.00     0.080 H 
ATOM     14  H7  GIM d   1      -2.229   9.596  13.288  0.00  0.00     0.117 H 
ATOM     15  H8  GIM d   1      -3.465   8.943  10.978  0.00  0.00     0.113 H 
ENDROOT
BRANCH   6  16
ATOM     16  C6  GIM d   1      -3.533   9.570   8.297  0.00  0.00     0.038 C 
ATOM     17  H5  GIM d   1      -3.811   9.659   7.236  0.00  0.00     0.077 H 
ATOM     18  H6  GIM d   1      -4.414   9.770   8.925  0.00  0.00     0.077 H 
BRANCH  16  19
ATOM     19  O6  GIM d   1      -2.936   8.287   8.594  0.00  0.00    -0.399 OA
ATOM     20  H12 GIM d   1      -2.166   8.164   8.052  0.00  0.00     0.209 HD
ENDBRANCH  16  19
ENDBRANCH   6  16
BRANCH   5  21
ATOM     21  O4  GIM d   1      -1.475  10.783   6.406  0.00  0.00    -0.391 OA
ATOM     22  H11 GIM d   1      -1.995  10.046   6.109  0.00  0.00     0.210 HD
ENDBRANCH   5  21
BRANCH   4  23
ATOM     23  O3  GIM d   1       0.877  12.143   7.595  0.00  0.00    -0.390 OA
ATOM     24  H9  GIM d   1       1.287  12.912   7.973  0.00  0.00     0.210 HD
ENDBRANCH   4  23
BRANCH   2  25
ATOM     25  O2  GIM d   1       0.610  12.866  10.418  0.00  0.00    -0.385 OA
ATOM     26  H10 GIM d   1      -0.031  13.566  10.384  0.00  0.00     0.210 HD
ENDBRANCH   2  25
TORSDOF 5
