REMARK  10 active torsions:
REMARK  status: ('A' for Active; 'I' for Inactive)
REMARK    1  A    between atoms: C2_2  and  C1_1 
REMARK    2  A    between atoms: C4_4  and  O4_15 
REMARK    3  A    between atoms: N5_12  and  C5_5 
REMARK    4  A    between atoms: C6_6  and  C7_7 
REMARK    5  A    between atoms: C7_7  and  C8_8 
REMARK    6  A    between atoms: C7_7  and  O7_17 
REMARK    7  A    between atoms: C8_8  and  C9_9 
REMARK    8  A    between atoms: C8_8  and  O8_18 
REMARK    9  A    between atoms: C9_9  and  O9_19 
REMARK   10  A    between atoms: C10_10  and  C11_11 
REMARK       I    between atoms: C10_10  and  N5_12 
ROOT
ATOM      1  C2  DAN d   1      59.921   5.585  30.239  0.00  0.00     0.144 C 
ATOM      2  C3  DAN d   1      60.448   6.720  29.734  0.00  0.00    -0.035 C 
ATOM      3  C4  DAN d   1      60.172   7.094  28.301  0.00  0.00     0.076 C 
ATOM      4  C5  DAN d   1      58.719   6.632  27.948  0.00  0.00     0.068 C 
ATOM      5  C6  DAN d   1      58.540   5.123  28.235  0.00  0.00     0.094 C 
ATOM      6  O6  DAN d   1      59.083   4.681  29.490  0.00  0.00    -0.335 OA
ATOM      7  H1  DAN d   1      61.069   7.361  30.358  0.00  0.00     0.085 H 
ATOM      8  H2  DAN d   1      60.888   6.601  27.628  0.00  0.00     0.092 H 
ATOM      9  H3  DAN d   1      58.031   7.193  28.598  0.00  0.00     0.081 H 
ATOM     10  H4  DAN d   1      59.101   4.609  27.441  0.00  0.00     0.091 H 
ENDROOT
BRANCH   5  11
ATOM     11  C7  DAN d   1      57.092   4.590  28.178  0.00  0.00     0.089 C 
ATOM     12  H5  DAN d   1      56.825   4.526  27.113  0.00  0.00     0.091 H 
BRANCH  11  13
ATOM     13  C8  DAN d   1      57.016   3.159  28.747  0.00  0.00     0.083 C 
ATOM     14  H6  DAN d   1      57.182   3.213  29.833  0.00  0.00     0.090 H 
BRANCH  13  15
ATOM     15  C9  DAN d   1      55.639   2.534  28.489  0.00  0.00     0.043 C 
ATOM     16  H7  DAN d   1      54.977   2.783  29.332  0.00  0.00     0.078 H 
ATOM     17  H8  DAN d   1      55.756   1.442  28.424  0.00  0.00     0.078 H 
BRANCH  15  18
ATOM     18  O9  DAN d   1      55.031   3.003  27.275  0.00  0.00    -0.398 OA
ATOM     19  H16 DAN d   1      54.918   3.945  27.322  0.00  0.00     0.209 HD
ENDBRANCH  15  18
ENDBRANCH  13  15
BRANCH  13  20
ATOM     20  O8  DAN d   1      58.018   2.302  28.170  0.00  0.00    -0.391 OA
ATOM     21  H15 DAN d   1      57.866   2.223  27.236  0.00  0.00     0.210 HD
ENDBRANCH  13  20
ENDBRANCH  11  13
BRANCH  11  22
ATOM     22  O7  DAN d   1      56.101   5.473  28.795  0.00  0.00    -0.390 OA
ATOM     23  H14 DAN d   1      56.255   5.515  29.731  0.00  0.00     0.210 HD
ENDBRANCH  11  22
ENDBRANCH   5  11
BRANCH   4  24
ATOM     24  N5  DAN d   1      58.327   6.887  26.557  0.00  0.00    -0.351 N 
ATOM     25  C10 DAN d   1      57.483   7.843  26.112  0.00  0.00     0.214 C 
ATOM     26  O10 DAN d   1      56.838   8.581  26.844  0.00  0.00    -0.274 OA
ATOM     27  H12 DAN d   1      58.728   6.288  25.864  0.00  0.00     0.163 HD
BRANCH  25  28
ATOM     28  C11 DAN d   1      57.402   7.976  24.621  0.00  0.00    -0.003 C 
ATOM     29  H9  DAN d   1      56.693   8.776  24.362  0.00  0.00     0.040 H 
ATOM     30  H10 DAN d   1      57.058   7.026  24.186  0.00  0.00     0.040 H 
ATOM     31  H11 DAN d   1      58.396   8.224  24.220  0.00  0.00     0.040 H 
ENDBRANCH  25  28
ENDBRANCH   4  24
BRANCH   3  32
ATOM     32  O4  DAN d   1      60.322   8.531  28.208  0.00  0.00    -0.389 OA
ATOM     33  H13 DAN d   1      61.215   8.770  28.429  0.00  0.00     0.210 HD
ENDBRANCH   3  32
BRANCH   1  34
ATOM     34  C1  DAN d   1      60.029   5.225  31.630  0.00  0.00     0.233 C 
ATOM     35  O1A DAN d   1      60.664   4.289  32.061  0.00  0.00    -0.642 OA
ATOM     36  O1B DAN d   1      59.350   5.882  32.427  0.00  0.00    -0.642 OA
ENDBRANCH   1  34
TORSDOF 10
