REMARK  8 active torsions:
REMARK  status: ('A' for Active; 'I' for Inactive)
REMARK    1  A    between atoms: N1_1  and  C3_2 
REMARK    2  A    between atoms: C3_2  and  C4_4 
REMARK    3  A    between atoms: C7_7  and  C10_10 
REMARK    4  A    between atoms: C17_17  and  C18_29 
REMARK    5  A    between atoms: N19_18  and  C23_22 
REMARK    6  A    between atoms: C23_22  and  C24_23 
REMARK    7  A    between atoms: C18_29  and  C41_30 
REMARK    8  A    between atoms: C18_29  and  C42_31 
ROOT
ATOM      1  C10 ESH d   1      15.793 -11.301  19.991  0.00  0.00     0.141 C 
ATOM      2  N11 ESH d   1      15.646 -12.372  18.970  0.00  0.00    -0.057 N 
ATOM      3  C12 ESH d   1      14.603 -12.051  17.951  0.00  0.00     0.085 C 
ATOM      4  C13 ESH d   1      15.328 -11.704  16.659  0.00  0.00    -0.040 C 
ATOM      5  C14 ESH d   1      16.816 -11.611  16.989  0.00  0.00    -0.036 C 
ATOM      6  C15 ESH d   1      16.940 -12.438  18.267  0.00  0.00     0.111 C 
ATOM      7  C16 ESH d   1      17.975 -12.019  19.300  0.00  0.00     0.008 C 
ATOM      8  C17 ESH d   1      18.940 -13.139  19.735  0.00  0.00     0.024 C 
ATOM      9  N19 ESH d   1      18.518 -13.453  21.088  0.00  0.00    -0.342 N 
ATOM     10  C20 ESH d   1      17.394 -12.689  21.514  0.00  0.00     0.227 C 
ATOM     11  O21 ESH d   1      16.800 -12.924  22.522  0.00  0.00    -0.273 OA
ATOM     12  C22 ESH d   1      17.201 -11.570  20.530  0.00  0.00     0.062 C 
ATOM     13  H9  ESH d   1      15.801 -10.326  19.481  0.00  0.00     0.093 H 
ATOM     14  H10 ESH d   1      15.429 -13.249  19.417  0.00  0.00     0.281 HD
ATOM     15  H11 ESH d   1      14.000 -11.195  18.286  0.00  0.00     0.076 H 
ATOM     16  H12 ESH d   1      13.949 -12.921  17.794  0.00  0.00     0.076 H 
ATOM     17  H13 ESH d   1      14.967 -10.740  16.271  0.00  0.00     0.035 H 
ATOM     18  H14 ESH d   1      15.157 -12.489  15.908  0.00  0.00     0.035 H 
ATOM     19  H15 ESH d   1      17.117 -10.568  17.163  0.00  0.00     0.036 H 
ATOM     20  H16 ESH d   1      17.427 -12.039  16.181  0.00  0.00     0.036 H 
ATOM     21  H17 ESH d   1      17.158 -13.475  17.970  0.00  0.00     0.085 H 
ATOM     22  H18 ESH d   1      18.565 -11.184  18.895  0.00  0.00     0.047 H 
ATOM     23  H19 ESH d   1      18.833 -14.012  19.075  0.00  0.00     0.074 H 
ATOM     24  H20 ESH d   1      17.606 -10.642  20.959  0.00  0.00     0.059 H 
ENDROOT
BRANCH   1  25
ATOM     25  C7  ESH d   1      14.684 -11.228  20.987  0.00  0.00    -0.027 A 
ATOM     26  C8  ESH d   1      14.429 -10.025  21.658  0.00  0.00    -0.074 A 
ATOM     27  C9  ESH d   1      13.416  -9.942  22.597  0.00  0.00    -0.069 A 
ATOM     28  H6  ESH d   1      15.031  -9.150  21.439  0.00  0.00     0.084 H 
ATOM     29  C4  ESH d   1      12.583 -11.007  22.877  0.00  0.00     0.007 A 
ATOM     30  H5  ESH d   1      13.272  -9.010  23.131  0.00  0.00     0.085 H 
ATOM     31  C5  ESH d   1      12.808 -12.204  22.178  0.00  0.00    -0.069 A 
ATOM     32  C6  ESH d   1      13.831 -12.301  21.255  0.00  0.00    -0.074 A 
ATOM     33  H8  ESH d   1      12.172 -13.062  22.365  0.00  0.00     0.085 H 
ATOM     34  H7  ESH d   1      13.976 -13.235  20.724  0.00  0.00     0.084 H 
BRANCH  29  35
ATOM     35  C3  ESH d   1      11.469 -10.910  23.858  0.00  0.00     0.102 C 
ATOM     36  N2  ESH d   1      10.698 -11.981  24.128  0.00  0.00    -0.385 N 
ATOM     37  H3  ESH d   1      10.872 -12.875  23.647  0.00  0.00     0.157 HD
ATOM     38  H4  ESH d   1       9.935 -11.906  24.816  0.00  0.00     0.157 HD
BRANCH  35  39
ATOM     39  N1  ESH d   1      11.213  -9.781  24.497  0.00  0.00    -0.385 N 
ATOM     40  H1  ESH d   1      11.784  -8.944  24.313  0.00  0.00     0.157 HD
ATOM     41  H2  ESH d   1      10.442  -9.739  25.179  0.00  0.00     0.157 HD
ENDBRANCH  35  39
ENDBRANCH  29  35
ENDBRANCH   1  25
BRANCH   8  42
ATOM     42  C18 ESH d   1      20.407 -12.696  19.752  0.00  0.00    -0.041 C 
ATOM     43  H27 ESH d   1      20.997 -13.547  20.123  0.00  0.00     0.042 H 
BRANCH  42  44
ATOM     44  C41 ESH d   1      20.695 -11.525  20.691  0.00  0.00    -0.071 C 
ATOM     45  H28 ESH d   1      21.764 -11.271  20.644  0.00  0.00     0.028 H 
ATOM     46  H29 ESH d   1      20.430 -11.807  21.721  0.00  0.00     0.028 H 
ATOM     47  H30 ESH d   1      20.098 -10.654  20.384  0.00  0.00     0.028 H 
ENDBRANCH  42  44
BRANCH  42  48
ATOM     48  C42 ESH d   1      20.859 -12.413  18.341  0.00  0.00    -0.071 C 
ATOM     49  H31 ESH d   1      20.633 -13.280  17.703  0.00  0.00     0.028 H 
ATOM     50  H32 ESH d   1      21.943 -12.226  18.334  0.00  0.00     0.028 H 
ATOM     51  H33 ESH d   1      20.331 -11.527  17.957  0.00  0.00     0.028 H 
ENDBRANCH  42  48
ENDBRANCH   8  42
BRANCH   9  52
ATOM     52  C23 ESH d   1      18.717 -14.800  21.670  0.00  0.00     0.022 C 
ATOM     53  H21 ESH d   1      19.130 -15.490  20.919  0.00  0.00     0.071 H 
ATOM     54  H22 ESH d   1      17.767 -15.201  22.053  0.00  0.00     0.071 H 
BRANCH  52  55
ATOM     55  C24 ESH d   1      19.709 -14.587  22.808  0.00  0.00    -0.040 A 
ATOM     56  C32 ESH d   1      19.272 -14.215  24.060  0.00  0.00    -0.074 A 
ATOM     57  C31 ESH d   1      20.144 -13.981  25.115  0.00  0.00    -0.061 A 
ATOM     58  H23 ESH d   1      18.207 -14.101  24.228  0.00  0.00     0.084 H 
ATOM     59  C30 ESH d   1      21.501 -14.139  24.887  0.00  0.00     0.034 A 
ATOM     60  H24 ESH d   1      19.773 -13.683  26.089  0.00  0.00     0.086 H 
ATOM     61  C26 ESH d   1      21.975 -14.513  23.641  0.00  0.00    -0.061 A 
ATOM     62 CL30 ESH d   1      22.648 -13.883  26.223  0.00  0.00    -0.084 Cl
ATOM     63  C25 ESH d   1      21.081 -14.734  22.596  0.00  0.00    -0.074 A 
ATOM     64  H25 ESH d   1      23.040 -14.634  23.479  0.00  0.00     0.086 H 
ATOM     65  H26 ESH d   1      21.451 -15.020  21.618  0.00  0.00     0.084 H 
ENDBRANCH  52  55
ENDBRANCH   9  52
TORSDOF 8
