REMARK  10 active torsions:
REMARK  status: ('A' for Active; 'I' for Inactive)
REMARK    1  A    between atoms: N1_1  and  C3_2 
REMARK    2  A    between atoms: C3_2  and  C4_4 
REMARK    3  A    between atoms: C7_7  and  C10_10 
REMARK    4  A    between atoms: C17_17  and  C18_31 
REMARK    5  A    between atoms: N19_18  and  C23_22 
REMARK    6  A    between atoms: C23_22  and  C24_23 
REMARK    7  A    between atoms: C30_26  and  O29_27 
REMARK    8  A    between atoms: O29_27  and  C28_28 
REMARK    9  A    between atoms: C18_31  and  C41_32 
REMARK   10  A    between atoms: C18_31  and  C42_33 
ROOT
ATOM      1  C10 348 d   1      15.733 -11.333  20.092  0.00  0.00     0.141 C 
ATOM      2  N11 348 d   1      15.565 -12.314  18.975  0.00  0.00    -0.057 N 
ATOM      3  C12 348 d   1      14.677 -11.787  17.914  0.00  0.00     0.085 C 
ATOM      4  C13 348 d   1      15.492 -11.765  16.613  0.00  0.00    -0.040 C 
ATOM      5  C14 348 d   1      16.955 -11.829  17.043  0.00  0.00    -0.036 C 
ATOM      6  C15 348 d   1      16.910 -12.534  18.395  0.00  0.00     0.111 C 
ATOM      7  C16 348 d   1      17.930 -12.066  19.432  0.00  0.00     0.008 C 
ATOM      8  C17 348 d   1      18.876 -13.208  19.845  0.00  0.00     0.024 C 
ATOM      9  N19 348 d   1      18.286 -13.620  21.142  0.00  0.00    -0.342 N 
ATOM     10  C20 348 d   1      17.308 -12.816  21.577  0.00  0.00     0.227 C 
ATOM     11  O21 348 d   1      16.668 -13.030  22.599  0.00  0.00    -0.273 OA
ATOM     12  C22 348 d   1      17.134 -11.635  20.662  0.00  0.00     0.062 C 
ATOM     13  H9  348 d   1      15.770 -10.328  19.647  0.00  0.00     0.093 H 
ATOM     14  H10 348 d   1      15.188 -13.178  19.331  0.00  0.00     0.281 HD
ATOM     15  H11 348 d   1      14.347 -10.769  18.169  0.00  0.00     0.076 H 
ATOM     16  H12 348 d   1      13.799 -12.439  17.798  0.00  0.00     0.076 H 
ATOM     17  H13 348 d   1      15.297 -10.838  16.053  0.00  0.00     0.035 H 
ATOM     18  H14 348 d   1      15.238 -12.633  15.986  0.00  0.00     0.035 H 
ATOM     19  H15 348 d   1      17.378 -10.819  17.143  0.00  0.00     0.036 H 
ATOM     20  H16 348 d   1      17.550 -12.406  16.320  0.00  0.00     0.036 H 
ATOM     21  H17 348 d   1      17.069 -13.609  18.222  0.00  0.00     0.085 H 
ATOM     22  H18 348 d   1      18.515 -11.225  19.033  0.00  0.00     0.047 H 
ATOM     23  H19 348 d   1      18.824 -14.037  19.123  0.00  0.00     0.074 H 
ATOM     24  H20 348 d   1      17.538 -10.731  21.141  0.00  0.00     0.059 H 
ENDROOT
BRANCH   1  25
ATOM     25  C7  348 d   1      14.608 -11.284  21.081  0.00  0.00    -0.027 A 
ATOM     26  C8  348 d   1      13.775 -12.382  21.302  0.00  0.00    -0.074 A 
ATOM     27  C9  348 d   1      12.722 -12.324  22.223  0.00  0.00    -0.069 A 
ATOM     28  H6  348 d   1      13.947 -13.299  20.749  0.00  0.00     0.084 H 
ATOM     29  C4  348 d   1      12.491 -11.141  22.938  0.00  0.00     0.007 A 
ATOM     30  H5  348 d   1      12.089 -13.189  22.382  0.00  0.00     0.085 H 
ATOM     31  C5  348 d   1      13.312 -10.038  22.716  0.00  0.00    -0.069 A 
ATOM     32  C6  348 d   1      14.367 -10.102  21.795  0.00  0.00    -0.074 A 
ATOM     33  H8  348 d   1      13.133  -9.119  23.262  0.00  0.00     0.085 H 
ATOM     34  H7  348 d   1      14.998  -9.235  21.635  0.00  0.00     0.084 H 
BRANCH  29  35
ATOM     35  C3  348 d   1      11.362 -11.083  23.936  0.00  0.00     0.102 C 
ATOM     36  N2  348 d   1      11.125  -9.977  24.615  0.00  0.00    -0.385 N 
ATOM     37  H3  348 d   1      11.719  -9.148  24.472  0.00  0.00     0.157 HD
ATOM     38  H4  348 d   1      10.346  -9.943  25.288  0.00  0.00     0.157 HD
BRANCH  35  39
ATOM     39  N1  348 d   1      10.579 -12.150  24.135  0.00  0.00    -0.385 N 
ATOM     40  H1  348 d   1      10.752 -13.020  23.612  0.00  0.00     0.157 HD
ATOM     41  H2  348 d   1       9.803 -12.101  24.811  0.00  0.00     0.157 HD
ENDBRANCH  35  39
ENDBRANCH  29  35
ENDBRANCH   1  25
BRANCH   8  42
ATOM     42  C18 348 d   1      20.355 -12.735  19.934  0.00  0.00    -0.041 C 
ATOM     43  H30 348 d   1      20.900 -13.579  20.383  0.00  0.00     0.042 H 
BRANCH  42  44
ATOM     44  C41 348 d   1      21.012 -12.466  18.579  0.00  0.00    -0.071 C 
ATOM     45  H31 348 d   1      22.050 -12.138  18.734  0.00  0.00     0.028 H 
ATOM     46  H32 348 d   1      20.454 -11.679  18.050  0.00  0.00     0.028 H 
ATOM     47  H33 348 d   1      21.004 -13.387  17.978  0.00  0.00     0.028 H 
ENDBRANCH  42  44
BRANCH  42  48
ATOM     48  C42 348 d   1      20.608 -11.531  20.842  0.00  0.00    -0.071 C 
ATOM     49  H34 348 d   1      20.142 -11.707  21.823  0.00  0.00     0.028 H 
ATOM     50  H35 348 d   1      20.173 -10.630  20.386  0.00  0.00     0.028 H 
ATOM     51  H36 348 d   1      21.691 -11.390  20.971  0.00  0.00     0.028 H 
ENDBRANCH  42  48
ENDBRANCH   8  42
BRANCH   9  52
ATOM     52  C23 348 d   1      18.765 -14.860  21.793  0.00  0.00     0.022 C 
ATOM     53  H21 348 d   1      19.347 -15.451  21.071  0.00  0.00     0.071 H 
ATOM     54  H22 348 d   1      17.902 -15.449  22.137  0.00  0.00     0.071 H 
BRANCH  52  55
ATOM     55  C24 348 d   1      19.643 -14.508  22.982  0.00  0.00    -0.040 A 
ATOM     56  C32 348 d   1      21.025 -14.392  22.823  0.00  0.00    -0.073 A 
ATOM     57  C31 348 d   1      21.850 -14.039  23.898  0.00  0.00    -0.050 A 
ATOM     58  H23 348 d   1      21.467 -14.578  21.851  0.00  0.00     0.084 H 
ATOM     59  C30 348 d   1      21.281 -13.797  25.149  0.00  0.00     0.068 A 
ATOM     60  H24 348 d   1      22.922 -13.954  23.759  0.00  0.00     0.087 H 
ATOM     61  C26 348 d   1      19.899 -13.922  25.316  0.00  0.00    -0.050 A 
ATOM     62  C25 348 d   1      19.079 -14.271  24.243  0.00  0.00    -0.073 A 
ATOM     63  H28 348 d   1      19.459 -13.746  26.291  0.00  0.00     0.087 H 
ATOM     64  H29 348 d   1      18.008 -14.359  24.384  0.00  0.00     0.084 H 
BRANCH  59  65
ATOM     65  O29 348 d   1      22.080 -13.451  26.211  0.00  0.00    -0.356 OA
BRANCH  65  66
ATOM     66  C28 348 d   1      21.613 -12.549  27.222  0.00  0.00     0.010 C 
ATOM     67  H25 348 d   1      22.400 -12.405  27.977  0.00  0.00     0.066 H 
ATOM     68  H26 348 d   1      20.717 -12.969  27.702  0.00  0.00     0.066 H 
ATOM     69  H27 348 d   1      21.364 -11.581  26.763  0.00  0.00     0.066 H 
ENDBRANCH  65  66
ENDBRANCH  59  65
ENDBRANCH  52  55
ENDBRANCH   9  52
TORSDOF 10
