REMARK  2 active torsions:
REMARK  status: ('A' for Active; 'I' for Inactive)
REMARK    1  A    between atoms: C3_3  and  O3_20 
REMARK    2  A    between atoms: C5_5  and  O4_21 
ROOT
ATOM      1  C1  P2N d   1     -18.219  34.380  -6.099  0.00  0.00     0.296 C 
ATOM      2  C2  P2N d   1     -18.190  33.498  -4.878  0.00  0.00     0.081 A 
ATOM      3  C3  P2N d   1     -17.266  32.446  -4.828  0.00  0.00     0.085 A 
ATOM      4  C4  P2N d   1     -17.228  31.587  -3.733  0.00  0.00    -0.016 A 
ATOM      5  C5  P2N d   1     -18.134  31.799  -2.703  0.00  0.00     0.090 A 
ATOM      6  C6  P2N d   1     -19.029  32.835  -2.757  0.00  0.00     0.075 A 
ATOM      7  C7  P2N d   1     -19.090  33.687  -3.850  0.00  0.00    -0.008 A 
ATOM      8  C8  P2N d   1     -20.105  34.821  -3.880  0.00  0.00     0.017 C 
ATOM      9  C9  P2N d   1     -21.532  34.412  -4.300  0.00  0.00     0.131 C 
ATOM     10  C10 P2N d   1     -21.944  32.992  -4.709  0.00  0.00    -0.009 C 
ATOM     11  C11 P2N d   1     -23.333  32.869  -5.349  0.00  0.00    -0.059 C 
ATOM     12  C12 P2N d   1     -23.459  31.798  -6.434  0.00  0.00    -0.062 C 
ATOM     13  C13 P2N d   1     -22.959  32.143  -7.856  0.00  0.00    -0.050 C 
ATOM     14  C14 P2N d   1     -22.402  33.533  -8.175  0.00  0.00    -0.106 C 
ATOM     15  C15 P2N d   1     -21.136  33.552  -8.558  0.00  0.00    -0.105 C 
ATOM     16  C16 P2N d   1     -20.298  34.751  -8.935  0.00  0.00    -0.030 C 
ATOM     17  C17 P2N d   1     -19.677  35.522  -7.764  0.00  0.00     0.032 C 
ATOM     18  O1  P2N d   1     -19.522  34.707  -6.599  0.00  0.00    -0.317 OA
ATOM     19  O2  P2N d   1     -17.225  34.730  -6.712  0.00  0.00    -0.259 OA
ATOM     20 CL1  P2N d   1     -20.129  33.053  -1.378  0.00  0.00    -0.081 Cl
ATOM     21  O5  P2N d   1     -22.339  35.308  -4.280  0.00  0.00    -0.298 OA
ATOM     22  H1  P2N d   1     -16.511  30.775  -3.686  0.00  0.00     0.092 H 
ATOM     23  H2  P2N d   1     -19.746  35.581  -4.590  0.00  0.00     0.051 H 
ATOM     24  H3  P2N d   1     -20.159  35.257  -2.872  0.00  0.00     0.051 H 
ATOM     25  H4  P2N d   1     -21.928  32.361  -3.808  0.00  0.00     0.044 H 
ATOM     26  H5  P2N d   1     -21.203  32.618  -5.431  0.00  0.00     0.044 H 
ATOM     27  H6  P2N d   1     -23.587  33.840  -5.799  0.00  0.00     0.033 H 
ATOM     28  H7  P2N d   1     -24.055  32.633  -4.553  0.00  0.00     0.033 H 
ATOM     29  H8  P2N d   1     -24.525  31.539  -6.516  0.00  0.00     0.033 H 
ATOM     30  H9  P2N d   1     -22.893  30.919  -6.093  0.00  0.00     0.033 H 
ATOM     31  H10 P2N d   1     -23.809  31.982  -8.535  0.00  0.00     0.038 H 
ATOM     32  H11 P2N d   1     -22.161  31.424  -8.091  0.00  0.00     0.038 H 
ATOM     33  H12 P2N d   1     -23.003  34.438  -8.093  0.00  0.00     0.076 H 
ATOM     34  H13 P2N d   1     -20.637  32.585  -8.608  0.00  0.00     0.076 H 
ATOM     35  H14 P2N d   1     -20.938  35.447  -9.497  0.00  0.00     0.042 H 
ATOM     36  H15 P2N d   1     -19.480  34.402  -9.582  0.00  0.00     0.042 H 
ATOM     37  H16 P2N d   1     -20.328  36.373  -7.516  0.00  0.00     0.075 H 
ATOM     38  H17 P2N d   1     -18.688  35.894  -8.070  0.00  0.00     0.075 H 
ENDROOT
BRANCH   3  39
ATOM     39  O3  P2N d   1     -16.396  32.276  -5.864  0.00  0.00    -0.360 OA
ATOM     40  H18 P2N d   1     -16.556  32.941  -6.523  0.00  0.00     0.217 HD
ENDBRANCH   3  39
BRANCH   5  41
ATOM     41  O4  P2N d   1     -18.156  30.981  -1.626  0.00  0.00    -0.359 OA
ATOM     42  H19 P2N d   1     -17.487  30.314  -1.723  0.00  0.00     0.217 HD
ENDBRANCH   5  41
TORSDOF 2
