REMARK  6 active torsions:
REMARK  status: ('A' for Active; 'I' for Inactive)
REMARK       I    between atoms: C15_1  and  N13_2 
REMARK       I    between atoms: C15_1  and  N15_7 
REMARK    1  A    between atoms: N13_2  and  C18_3 
REMARK    2  A    between atoms: C18_3  and  C19_4 
REMARK    3  A    between atoms: N15_7  and  C12_8 
REMARK    4  A    between atoms: C12_8  and  C23_9 
REMARK    5  A    between atoms: C12_8  and  C61_15 
REMARK    6  A    between atoms: N16_21  and  C46_22 
ROOT
ATOM      1  C46 GAS d   1      -7.243  39.255  16.565  0.00  0.00     0.049 A 
ATOM      2  C36 GAS d   1      -7.256  38.222  17.479  0.00  0.00    -0.055 A 
ATOM      3  C26 GAS d   1      -6.431  37.125  17.295  0.00  0.00    -0.061 A 
ATOM      4  C16 GAS d   1      -5.598  37.063  16.194  0.00  0.00     0.044 A 
ATOM      5  C17 GAS d   1      -4.697  35.872  15.968  0.00  0.00     0.099 C 
ATOM      6  N17 GAS d   1      -4.006  34.958  15.800  0.00  0.00    -0.191 NA
ATOM      7  C66 GAS d   1      -5.596  38.083  15.291  0.00  0.00    -0.061 A 
ATOM      8  C56 GAS d   1      -6.420  39.179  15.472  0.00  0.00    -0.055 A 
ATOM      9  H17 GAS d   1      -7.912  38.269  18.341  0.00  0.00     0.087 H 
ATOM     10  H18 GAS d   1      -6.439  36.315  18.015  0.00  0.00     0.085 H 
ATOM     11  H19 GAS d   1      -4.945  38.035  14.426  0.00  0.00     0.085 H 
ATOM     12  H20 GAS d   1      -6.415  39.983  14.745  0.00  0.00     0.087 H 
ENDROOT
BRANCH   1  13
ATOM     13  N16 GAS d   1      -8.102  40.452  16.753  0.00  0.00    -0.192 N 
ATOM     14  C15 GAS d   1      -9.236  40.666  17.336  0.00  0.00     0.675 C 
ATOM     15  N13 GAS d   1      -9.548  41.889  17.732  0.00  0.00    -0.216 N 
ATOM     16  N15 GAS d   1     -10.187  39.764  17.158  0.00  0.00    -0.214 N 
ATOM     17  H1  GAS d   1     -10.387  42.322  17.320  0.00  0.00     0.178 HD
ATOM     18  H4  GAS d   1      -9.976  38.978  16.527  0.00  0.00     0.178 HD
ATOM     19  H16 GAS d   1      -7.706  41.300  16.323  0.00  0.00     0.184 HD
BRANCH  15  20
ATOM     20  C18 GAS d   1      -8.798  42.671  18.704  0.00  0.00     0.089 C 
ATOM     21  H2  GAS d   1      -8.073  43.279  18.143  0.00  0.00     0.081 H 
ATOM     22  H3  GAS d   1      -8.260  41.960  19.348  0.00  0.00     0.081 H 
BRANCH  20  23
ATOM     23  C19 GAS d   1      -9.559  43.610  19.614  0.00  0.00     0.191 C 
ATOM     24  O29 GAS d   1      -8.923  44.493  20.231  0.00  0.00    -0.647 OA
ATOM     25  O39 GAS d   1     -10.802  43.659  19.468  0.00  0.00    -0.647 OA
ENDBRANCH  20  23
ENDBRANCH  15  20
BRANCH  16  26
ATOM     26  C12 GAS d   1     -11.510  39.783  17.777  0.00  0.00     0.077 C 
ATOM     27  H5  GAS d   1     -11.354  40.250  18.760  0.00  0.00     0.088 H 
BRANCH  26  28
ATOM     28  C23 GAS d   1     -12.437  40.612  17.142  0.00  0.00    -0.030 A 
ATOM     29  C13 GAS d   1     -12.706  40.449  15.779  0.00  0.00    -0.074 A 
ATOM     30  C63 GAS d   1     -13.427  41.402  15.102  0.00  0.00    -0.082 A 
ATOM     31  H6  GAS d   1     -12.345  39.570  15.257  0.00  0.00     0.084 H 
ATOM     32  C53 GAS d   1     -13.894  42.527  15.765  0.00  0.00    -0.083 A 
ATOM     33  H7  GAS d   1     -13.632  41.274  14.045  0.00  0.00     0.083 H 
ATOM     34  C43 GAS d   1     -13.654  42.701  17.114  0.00  0.00    -0.082 A 
ATOM     35  H8  GAS d   1     -14.453  43.278  15.219  0.00  0.00     0.083 H 
ATOM     36  C33 GAS d   1     -12.932  41.748  17.805  0.00  0.00    -0.074 A 
ATOM     37  H9  GAS d   1     -14.030  43.579  17.627  0.00  0.00     0.083 H 
ATOM     38  H10 GAS d   1     -12.746  41.877  18.865  0.00  0.00     0.084 H 
ENDBRANCH  26  28
BRANCH  26  39
ATOM     39  C61 GAS d   1     -11.982  38.500  18.062  0.00  0.00    -0.030 A 
ATOM     40  C11 GAS d   1     -13.213  38.043  17.618  0.00  0.00    -0.074 A 
ATOM     41  C21 GAS d   1     -13.567  36.707  17.787  0.00  0.00    -0.082 A 
ATOM     42  H11 GAS d   1     -13.902  38.728  17.138  0.00  0.00     0.084 H 
ATOM     43  C31 GAS d   1     -12.692  35.827  18.399  0.00  0.00    -0.083 A 
ATOM     44  H12 GAS d   1     -14.531  36.355  17.438  0.00  0.00     0.083 H 
ATOM     45  C41 GAS d   1     -11.472  36.284  18.847  0.00  0.00    -0.082 A 
ATOM     46  H13 GAS d   1     -12.964  34.785  18.525  0.00  0.00     0.083 H 
ATOM     47  C51 GAS d   1     -11.126  37.609  18.680  0.00  0.00    -0.074 A 
ATOM     48  H14 GAS d   1     -10.783  35.602  19.331  0.00  0.00     0.083 H 
ATOM     49  H15 GAS d   1     -10.165  37.957  19.040  0.00  0.00     0.084 H 
ENDBRANCH  26  39
ENDBRANCH  16  26
ENDBRANCH   1  13
TORSDOF 6
