REMARK  3 active torsions:
REMARK  status: ('A' for Active; 'I' for Inactive)
REMARK    1  A    between atoms: C2_3  and  C8_9 
REMARK    2  A    between atoms: C4_5  and  O1_11 
REMARK    3  A    between atoms: C7_8  and  C9_10 
ROOT
ATOM      1  C'  BAR d   1      32.334  30.611  44.401  0.00  0.00    -0.076 C 
ATOM      2  C1  BAR d   1      31.929  31.771  44.965  0.00  0.00    -0.086 C 
ATOM      3  C2  BAR d   1      31.024  31.883  46.171  0.00  0.00     0.071 C 
ATOM      4  C3  BAR d   1      31.122  30.557  46.915  0.00  0.00    -0.018 C 
ATOM      5  C4  BAR d   1      31.789  29.279  44.841  0.00  0.00     0.076 C 
ATOM      6  C5  BAR d   1      30.728  29.446  45.932  0.00  0.00     0.069 C 
ATOM      7  C6  BAR d   1      29.543  32.105  45.837  0.00  0.00    -0.012 C 
ATOM      8  C7  BAR d   1      28.877  30.910  45.131  0.00  0.00     0.124 C 
ATOM      9  O'  BAR d   1      29.380  29.634  45.502  0.00  0.00    -0.367 OA
ATOM     10  H1  BAR d   1      33.076  30.641  43.605  0.00  0.00     0.080 H 
ATOM     11  H2  BAR d   1      32.282  32.698  44.515  0.00  0.00     0.078 H 
ATOM     12  H3  BAR d   1      30.437  30.558  47.775  0.00  0.00     0.039 H 
ATOM     13  H4  BAR d   1      32.152  30.399  47.267  0.00  0.00     0.039 H 
ATOM     14  H5  BAR d   1      31.352  28.750  43.981  0.00  0.00     0.093 H 
ATOM     15  H6  BAR d   1      30.733  28.502  46.496  0.00  0.00     0.087 H 
ATOM     16  H7  BAR d   1      29.464  32.983  45.180  0.00  0.00     0.040 H 
ATOM     17  H8  BAR d   1      29.002  32.299  46.775  0.00  0.00     0.040 H 
ATOM     18  H9  BAR d   1      27.823  30.928  45.446  0.00  0.00     0.100 H 
ENDROOT
BRANCH   8  19
ATOM     19  C9  BAR d   1      28.884  31.050  43.615  0.00  0.00     0.203 C 
ATOM     20  O3  BAR d   1      28.728  32.161  43.125  0.00  0.00    -0.646 OA
ATOM     21  O2  BAR d   1      29.048  30.055  42.928  0.00  0.00    -0.646 OA
ENDBRANCH   8  19
BRANCH   3  22
ATOM     22  C8  BAR d   1      31.433  33.076  47.043  0.00  0.00     0.186 C 
ATOM     23  O5  BAR d   1      31.529  32.929  48.246  0.00  0.00    -0.647 OA
ATOM     24  O4  BAR d   1      31.661  34.167  46.525  0.00  0.00    -0.647 OA
ENDBRANCH   3  22
BRANCH   5  25
ATOM     25  O1  BAR d   1      32.870  28.550  45.367  0.00  0.00    -0.389 OA
ATOM     26  H10 BAR d   1      32.566  27.697  45.654  0.00  0.00     0.210 HD
ENDBRANCH   5  25
TORSDOF 3
