REMARK  7 active torsions:
REMARK  status: ('A' for Active; 'I' for Inactive)
REMARK    1  A    between atoms: C1_1  and  O7_7 
REMARK    2  A    between atoms: C4_4  and  C12_12 
REMARK    3  A    between atoms: O7_7  and  C8_8 
REMARK       I    between atoms: C12_12  and  N13_13 
REMARK    4  A    between atoms: N13_13  and  C15_15 
REMARK    5  A    between atoms: C15_15  and  C16_16 
REMARK    6  A    between atoms: C16_16  and  O17_17 
REMARK    7  A    between atoms: O17_17  and  P18_18 
ROOT
ATOM      1  C1  F6F d   1      51.720  23.878  14.421  0.00  0.00     0.078 A 
ATOM      2  C2  F6F d   1      50.465  23.658  15.088  0.00  0.00    -0.050 A 
ATOM      3  C3  F6F d   1      49.494  24.710  15.164  0.00  0.00    -0.065 A 
ATOM      4  C4  F6F d   1      49.746  26.011  14.569  0.00  0.00     0.032 A 
ATOM      5  C5  F6F d   1      51.007  26.246  13.888  0.00  0.00    -0.065 A 
ATOM      6  C6  F6F d   1      51.994  25.173  13.814  0.00  0.00    -0.050 A 
ATOM      7  H1  F6F d   1      50.252  22.694  15.535  0.00  0.00     0.087 H 
ATOM      8  H2  F6F d   1      48.555  24.531  15.675  0.00  0.00     0.085 H 
ATOM      9  H3  F6F d   1      51.214  27.210  13.438  0.00  0.00     0.085 H 
ATOM     10  H4  F6F d   1      52.936  25.341  13.305  0.00  0.00     0.087 H 
ENDROOT
BRANCH   4  11
ATOM     11  C12 F6F d   1      48.663  27.092  14.726  0.00  0.00     0.251 C 
ATOM     12  N13 F6F d   1      48.431  27.524  13.446  0.00  0.00    -0.355 N 
ATOM     13  H5  F6F d   1      48.979  27.241  12.659  0.00  0.00     0.162 HD
ATOM     14  O14 F6F d   1      47.664  26.746  15.343  0.00  0.00    -0.268 OA
BRANCH  12  15
ATOM     15  C15 F6F d   1      47.274  28.461  13.353  0.00  0.00     0.016 C 
ATOM     16  H6  F6F d   1      47.501  29.329  13.990  0.00  0.00     0.067 H 
ATOM     17  H7  F6F d   1      46.392  27.936  13.749  0.00  0.00     0.067 H 
BRANCH  15  18
ATOM     18  C16 F6F d   1      46.912  28.984  11.994  0.00  0.00     0.047 C 
ATOM     19  H8  F6F d   1      47.099  30.068  11.982  0.00  0.00     0.077 H 
ATOM     20  H9  F6F d   1      45.841  28.795  11.827  0.00  0.00     0.077 H 
BRANCH  18  21
ATOM     21  O17 F6F d   1      47.602  28.426  10.979  0.00  0.00    -0.281 OA
BRANCH  21  22
ATOM     22  P18 F6F d   1      47.913  29.593   9.878  0.00  0.00     0.422 P 
ATOM     23  O19 F6F d   1      48.213  28.938   8.547  0.00  0.00    -0.617 OA
ATOM     24  O20 F6F d   1      49.130  30.275  10.431  0.00  0.00    -0.617 OA
ATOM     25  O21 F6F d   1      46.600  30.337   9.745  0.00  0.00    -0.617 OA
ENDBRANCH  21  22
ENDBRANCH  18  21
ENDBRANCH  15  18
ENDBRANCH  12  15
ENDBRANCH   4  11
BRANCH   1  26
ATOM     26  O7  F6F d   1      52.712  22.925  14.327  0.00  0.00    -0.255 OA
BRANCH  26  27
ATOM     27  C8  F6F d   1      52.540  21.966  13.295  0.00  0.00     0.530 C 
ATOM     28  F9  F6F d   1      51.415  21.277  13.447  0.00  0.00    -0.144 F 
ATOM     29  F10 F6F d   1      53.542  21.101  13.304  0.00  0.00    -0.144 F 
ATOM     30  F11 F6F d   1      52.506  22.538  12.101  0.00  0.00    -0.144 F 
ENDBRANCH  26  27
ENDBRANCH   1  26
TORSDOF 7
