REMARK  6 active torsions:
REMARK  status: ('A' for Active; 'I' for Inactive)
REMARK    1  A    between atoms: S11_11  and  C3_3 
REMARK    2  A    between atoms: N1_17  and  S11_11 
REMARK    3  A    between atoms: C16_14  and  O17_15 
REMARK    4  A    between atoms: C18_16  and  C16_14 
REMARK    5  A    between atoms: O17_15  and  P_20 
REMARK    6  A    between atoms: C18_16  and  N1_17 
ROOT
ATOM      1  C1  F19 d   1      51.430  24.868  14.807  0.00  0.00    -0.071 C 
ATOM      2  C2  F19 d   1      50.578  25.879  15.267  0.00  0.00    -0.059 C 
ATOM      3  C3  F19 d   1      49.177  25.617  15.537  0.00  0.00     0.080 C 
ATOM      4  C4  F19 d   1      48.778  24.265  15.651  0.00  0.00    -0.050 C 
ATOM      5  C5  F19 d   1      49.612  23.180  15.162  0.00  0.00    -0.025 C 
ATOM      6  C6  F19 d   1      50.974  23.492  14.747  0.00  0.00    -0.026 C 
ATOM      7  C7  F19 d   1      51.855  22.459  14.287  0.00  0.00    -0.072 C 
ATOM      8  C8  F19 d   1      51.287  20.995  14.383  0.00  0.00    -0.082 C 
ATOM      9  C9  F19 d   1      50.004  20.658  14.931  0.00  0.00    -0.082 C 
ATOM     10  C10 F19 d   1      49.122  21.817  15.061  0.00  0.00    -0.072 C 
ATOM     11  H1  F19 d   1      52.438  25.115  14.493  0.00  0.00     0.084 H 
ATOM     12  H2  F19 d   1      50.972  26.876  15.424  0.00  0.00     0.085 H 
ATOM     13  H3  F19 d   1      47.826  24.032  16.115  0.00  0.00     0.087 H 
ATOM     14  H4  F19 d   1      52.845  22.672  13.900  0.00  0.00     0.084 H 
ATOM     15  H5  F19 d   1      51.906  20.187  14.010  0.00  0.00     0.083 H 
ATOM     16  H6  F19 d   1      49.719  19.652  15.218  0.00  0.00     0.083 H 
ATOM     17  H7  F19 d   1      48.051  21.651  15.083  0.00  0.00     0.084 H 
ENDROOT
BRANCH   3  18
ATOM     18  S11 F19 d   1      48.015  26.981  15.736  0.00  0.00     0.258 S 
ATOM     19  O12 F19 d   1      46.680  26.450  15.452  0.00  0.00    -0.201 OA
ATOM     20  O13 F19 d   1      48.149  27.485  17.082  0.00  0.00    -0.201 OA
BRANCH  18  21
ATOM     21  N1  F19 d   1      48.407  28.292  14.727  0.00  0.00    -0.313 N 
ATOM     22  H12 F19 d   1      48.377  29.227  15.079  0.00  0.00     0.172 HD
BRANCH  21  23
ATOM     23  C18 F19 d   1      48.788  28.037  13.341  0.00  0.00     0.023 C 
ATOM     24  H10 F19 d   1      49.853  28.276  13.202  0.00  0.00     0.068 H 
ATOM     25  H11 F19 d   1      48.616  26.977  13.101  0.00  0.00     0.068 H 
BRANCH  23  26
ATOM     26  C16 F19 d   1      47.951  28.905  12.426  0.00  0.00     0.048 C 
ATOM     27  H8  F19 d   1      46.923  28.962  12.814  0.00  0.00     0.077 H 
ATOM     28  H9  F19 d   1      48.383  29.916  12.383  0.00  0.00     0.077 H 
BRANCH  26  29
ATOM     29  O17 F19 d   1      47.935  28.342  11.125  0.00  0.00    -0.281 OA
BRANCH  29  30
ATOM     30  P   F19 d   1      47.792  29.357   9.863  0.00  0.00     0.422 P 
ATOM     31  O20 F19 d   1      46.686  30.228   9.730  0.00  0.00    -0.617 OA
ATOM     32  O21 F19 d   1      49.005  30.243  10.002  0.00  0.00    -0.617 OA
ATOM     33  O22 F19 d   1      47.899  28.546   8.655  0.00  0.00    -0.617 OA
ENDBRANCH  29  30
ENDBRANCH  26  29
ENDBRANCH  23  26
ENDBRANCH  21  23
ENDBRANCH  18  21
ENDBRANCH   3  18
TORSDOF 6
