REMARK  8 active torsions:
REMARK  status: ('A' for Active; 'I' for Inactive)
REMARK    1  A    between atoms: C1_1  and  O7_7 
REMARK    2  A    between atoms: C4_4  and  S12_12 
REMARK    3  A    between atoms: O7_7  and  C8_8 
REMARK    4  A    between atoms: S12_12  and  N13_13 
REMARK    5  A    between atoms: N13_13  and  C14_14 
REMARK    6  A    between atoms: C14_14  and  C15_15 
REMARK    7  A    between atoms: C15_15  and  O16_16 
REMARK    8  A    between atoms: O16_16  and  P17_17 
ROOT
ATOM      1  S12 F9F d   1      48.194  27.217  15.552  0.00  0.00     0.258 S 
ATOM      2  O21 F9F d   1      48.087  27.438  17.012  0.00  0.00    -0.201 OA
ATOM      3  O22 F9F d   1      46.879  26.904  14.932  0.00  0.00    -0.201 OA
ENDROOT
BRANCH   1   4
ATOM      4  C4  F9F d   1      49.241  25.773  15.312  0.00  0.00     0.079 A 
ATOM      5  C3  F9F d   1      48.908  24.584  15.947  0.00  0.00    -0.058 A 
ATOM      6  C2  F9F d   1      49.677  23.309  15.867  0.00  0.00    -0.049 A 
ATOM      7  H2  F9F d   1      48.010  24.582  16.554  0.00  0.00     0.086 H 
ATOM      8  C1  F9F d   1      50.867  23.397  15.009  0.00  0.00     0.078 A 
ATOM      9  H1  F9F d   1      49.387  22.405  16.391  0.00  0.00     0.087 H 
ATOM     10  C6  F9F d   1      51.274  24.602  14.316  0.00  0.00    -0.049 A 
ATOM     11  C5  F9F d   1      50.492  25.789  14.432  0.00  0.00    -0.058 A 
ATOM     12  H4  F9F d   1      52.172  24.602  13.710  0.00  0.00     0.087 H 
ATOM     13  H3  F9F d   1      50.780  26.691  13.904  0.00  0.00     0.086 H 
BRANCH   8  14
ATOM     14  O7  F9F d   1      51.789  22.345  14.763  0.00  0.00    -0.255 OA
BRANCH  14  15
ATOM     15  C8  F9F d   1      51.356  20.942  14.568  0.00  0.00     0.530 C 
ATOM     16  F9F F9F d   1      52.374  20.267  14.046  0.00  0.00    -0.144 F 
ATOM     17  F10 F9F d   1      50.380  20.830  13.630  0.00  0.00    -0.144 F 
ATOM     18  F11 F9F d   1      50.945  20.308  15.698  0.00  0.00    -0.144 F 
ENDBRANCH  14  15
ENDBRANCH   8  14
ENDBRANCH   1   4
BRANCH   1  19
ATOM     19  N13 F9F d   1      48.798  28.592  14.706  0.00  0.00    -0.313 N 
ATOM     20  H5  F9F d   1      49.017  29.440  15.188  0.00  0.00     0.172 HD
BRANCH  19  21
ATOM     21  C14 F9F d   1      48.981  28.475  13.241  0.00  0.00     0.023 C 
ATOM     22  H6  F9F d   1      49.140  27.420  12.974  0.00  0.00     0.068 H 
ATOM     23  H7  F9F d   1      49.855  29.067  12.932  0.00  0.00     0.068 H 
BRANCH  21  24
ATOM     24  C15 F9F d   1      47.814  28.964  12.575  0.00  0.00     0.048 C 
ATOM     25  H8  F9F d   1      47.842  30.063  12.536  0.00  0.00     0.077 H 
ATOM     26  H9  F9F d   1      46.914  28.640  13.118  0.00  0.00     0.077 H 
BRANCH  24  27
ATOM     27  O16 F9F d   1      47.794  28.439  11.259  0.00  0.00    -0.281 OA
BRANCH  27  28
ATOM     28  P17 F9F d   1      48.048  29.466  10.021  0.00  0.00     0.422 P 
ATOM     29  O18 F9F d   1      49.212  30.347  10.313  0.00  0.00    -0.617 OA
ATOM     30  O19 F9F d   1      48.289  28.646   8.826  0.00  0.00    -0.617 OA
ATOM     31  O20 F9F d   1      46.807  30.262   9.887  0.00  0.00    -0.617 OA
ENDBRANCH  27  28
ENDBRANCH  24  27
ENDBRANCH  21  24
ENDBRANCH  19  21
ENDBRANCH   1  19
TORSDOF 8
