REMARK  6 active torsions:
REMARK  status: ('A' for Active; 'I' for Inactive)
REMARK    1  A    between atoms: N19_3  and  C23_4 
REMARK    2  A    between atoms: C23_4  and  C24_5 
REMARK    3  A    between atoms: C17_12  and  C18_30 
REMARK    4  A    between atoms: C10_19  and  C7_20 
REMARK    5  A    between atoms: C4_23  and  C3_26 
REMARK    6  A    between atoms: C3_26  and  N1_27 
ROOT
ATOM      1  O21 F25 d   1      16.864 -12.817  22.565  0.00  0.00    -0.273 OA
ATOM      2  C20 F25 d   1      17.504 -12.527  21.609  0.00  0.00     0.227 C 
ATOM      3  N19 F25 d   1      18.548 -13.281  21.236  0.00  0.00    -0.337 N 
ATOM      4  C17 F25 d   1      19.115 -12.873  19.957  0.00  0.00     0.077 C 
ATOM      5  C16 F25 d   1      18.101 -11.830  19.441  0.00  0.00     0.013 C 
ATOM      6  C15 F25 d   1      17.126 -12.382  18.415  0.00  0.00     0.111 C 
ATOM      7  N11 F25 d   1      15.805 -12.324  19.069  0.00  0.00    -0.057 N 
ATOM      8  C12 F25 d   1      14.758 -12.093  18.053  0.00  0.00     0.085 C 
ATOM      9  C13 F25 d   1      15.507 -11.904  16.745  0.00  0.00    -0.040 C 
ATOM     10  C14 F25 d   1      16.962 -11.631  17.105  0.00  0.00    -0.036 C 
ATOM     11  C10 F25 d   1      15.898 -11.223  20.056  0.00  0.00     0.141 C 
ATOM     12  C22 F25 d   1      17.284 -11.392  20.653  0.00  0.00     0.063 C 
ATOM     13  H7  F25 d   1      19.191 -13.729  19.270  0.00  0.00     0.082 H 
ATOM     14  H8  F25 d   1      18.642 -10.977  19.006  0.00  0.00     0.048 H 
ATOM     15  H9  F25 d   1      17.410 -13.420  18.187  0.00  0.00     0.085 H 
ATOM     16  H10 F25 d   1      15.612 -13.191  19.545  0.00  0.00     0.281 HD
ATOM     17  H11 F25 d   1      14.175 -11.193  18.297  0.00  0.00     0.076 H 
ATOM     18  H12 F25 d   1      14.084 -12.960  17.990  0.00  0.00     0.076 H 
ATOM     19  H13 F25 d   1      15.088 -11.052  16.189  0.00  0.00     0.035 H 
ATOM     20  H14 F25 d   1      15.433 -12.814  16.132  0.00  0.00     0.035 H 
ATOM     21  H15 F25 d   1      17.642 -12.023  16.334  0.00  0.00     0.036 H 
ATOM     22  H16 F25 d   1      17.142 -10.554  17.239  0.00  0.00     0.036 H 
ATOM     23  H17 F25 d   1      15.874 -10.264  19.519  0.00  0.00     0.093 H 
ATOM     24  H26 F25 d   1      17.626 -10.446  21.098  0.00  0.00     0.059 H 
ENDROOT
BRANCH  11  25
ATOM     25  C7  F25 d   1      14.755 -11.193  21.013  0.00  0.00    -0.027 A 
ATOM     26  C8  F25 d   1      13.999 -12.307  21.323  0.00  0.00    -0.074 A 
ATOM     27  C9  F25 d   1      12.954 -12.212  22.237  0.00  0.00    -0.069 A 
ATOM     28  H18 F25 d   1      14.221 -13.258  20.853  0.00  0.00     0.084 H 
ATOM     29  C4  F25 d   1      12.625 -10.995  22.823  0.00  0.00     0.007 A 
ATOM     30  H19 F25 d   1      12.388 -13.100  22.496  0.00  0.00     0.085 H 
ATOM     31  C5  F25 d   1      13.374  -9.890  22.515  0.00  0.00    -0.069 A 
ATOM     32  C6  F25 d   1      14.429  -9.988  21.612  0.00  0.00    -0.074 A 
ATOM     33  H20 F25 d   1      13.144  -8.936  22.976  0.00  0.00     0.085 H 
ATOM     34  H21 F25 d   1      15.007  -9.103  21.373  0.00  0.00     0.084 H 
BRANCH  29  35
ATOM     35  C3  F25 d   1      11.479 -10.930  23.782  0.00  0.00     0.102 C 
ATOM     36  N2  F25 d   1      11.197  -9.819  24.440  0.00  0.00    -0.385 N 
ATOM     37  H24 F25 d   1      11.759  -8.970  24.282  0.00  0.00     0.157 HD
ATOM     38  H25 F25 d   1      10.415  -9.802  25.110  0.00  0.00     0.157 HD
BRANCH  35  39
ATOM     39  N1  F25 d   1      10.700 -11.988  24.045  0.00  0.00    -0.385 N 
ATOM     40  H22 F25 d   1       9.921 -11.900  24.713  0.00  0.00     0.157 HD
ATOM     41  H23 F25 d   1      10.881 -12.889  23.580  0.00  0.00     0.157 HD
ENDBRANCH  35  39
ENDBRANCH  29  35
ENDBRANCH  11  25
BRANCH   3  42
ATOM     42  C23 F25 d   1      18.959 -14.528  21.874  0.00  0.00     0.022 C 
ATOM     43  H1  F25 d   1      19.491 -15.147  21.137  0.00  0.00     0.071 H 
ATOM     44  H2  F25 d   1      18.063 -15.062  22.224  0.00  0.00     0.071 H 
BRANCH  42  45
ATOM     45  C24 F25 d   1      19.866 -14.279  23.046  0.00  0.00    -0.040 A 
ATOM     46  C32 F25 d   1      21.252 -14.356  22.899  0.00  0.00    -0.072 A 
ATOM     47  C31 F25 d   1      22.104 -14.121  23.965  0.00  0.00    -0.045 A 
ATOM     48  H3  F25 d   1      21.670 -14.605  21.930  0.00  0.00     0.084 H 
ATOM     49  C30 F25 d   1      21.567 -13.799  25.198  0.00  0.00     0.116 A 
ATOM     50  H4  F25 d   1      23.178 -14.189  23.835  0.00  0.00     0.088 H 
ATOM     51  F29 F25 d   1      22.366 -13.566  26.257  0.00  0.00    -0.206 F 
ATOM     52  C26 F25 d   1      20.191 -13.740  25.373  0.00  0.00    -0.045 A 
ATOM     53  C25 F25 d   1      19.353 -13.974  24.304  0.00  0.00    -0.072 A 
ATOM     54  H5  F25 d   1      19.777 -13.510  26.348  0.00  0.00     0.088 H 
ATOM     55  H6  F25 d   1      18.279 -13.920  24.445  0.00  0.00     0.084 H 
ENDBRANCH  42  45
ENDBRANCH   3  42
BRANCH   4  56
ATOM     56  C18 F25 d   1      20.481 -12.237  20.126  0.00  0.00     0.228 C 
ATOM     57  F33 F25 d   1      20.958 -11.879  18.894  0.00  0.00    -0.212 F 
ATOM     58  F32 F25 d   1      20.445 -11.085  20.857  0.00  0.00    -0.212 F 
ATOM     59  H27 F25 d   1      21.157 -12.960  20.606  0.00  0.00     0.148 H 
ENDBRANCH   4  56
TORSDOF 6
