REMARK  5 active torsions:
REMARK  status: ('A' for Active; 'I' for Inactive)
REMARK    1  A    between atoms: C8_9  and  S_12 
REMARK    2  A    between atoms: S_12  and  N1'_15 
REMARK    3  A    between atoms: N1'_15  and  C1'_16 
REMARK    4  A    between atoms: C1'_16  and  C2'_17 
REMARK    5  A    between atoms: C2'_17  and  N2'_18 
ROOT
ATOM      1  C1  CKI d   1     -26.036  52.544  48.707  0.00  0.00     0.014 A 
ATOM      2  N2  CKI d   1     -26.328  53.860  48.674  0.00  0.00    -0.272 NA
ATOM      3  C3  CKI d   1     -25.960  54.658  49.755  0.00  0.00     0.003 A 
ATOM      4  C4  CKI d   1     -25.262  54.186  50.905  0.00  0.00    -0.054 A 
ATOM      5  C5  CKI d   1     -24.245  52.174  52.021  0.00  0.00     0.045 A 
ATOM      6 CL5  CKI d   1     -23.754  53.072  53.316  0.00  0.00    -0.083 Cl
ATOM      7  C6  CKI d   1     -23.913  50.801  51.975  0.00  0.00    -0.060 A 
ATOM      8  C7  CKI d   1     -24.298  50.015  50.864  0.00  0.00    -0.058 A 
ATOM      9  C8  CKI d   1     -24.997  50.623  49.794  0.00  0.00     0.092 A 
ATOM     10  C9  CKI d   1     -25.332  51.998  49.813  0.00  0.00     0.017 A 
ATOM     11  C10 CKI d   1     -24.943  52.794  50.923  0.00  0.00     0.000 A 
ATOM     12  H1  CKI d   1     -26.339  51.902  47.888  0.00  0.00     0.116 H 
ATOM     13  H2  CKI d   1     -26.222  55.709  49.719  0.00  0.00     0.114 H 
ATOM     14  H3  CKI d   1     -24.989  54.846  51.720  0.00  0.00     0.087 H 
ATOM     15  H4  CKI d   1     -23.362  50.350  52.792  0.00  0.00     0.086 H 
ATOM     16  H5  CKI d   1     -24.060  48.958  50.832  0.00  0.00     0.086 H 
ENDROOT
BRANCH   9  17
ATOM     17  S   CKI d   1     -25.559  49.660  48.432  0.00  0.00     0.259 S 
ATOM     18  O2S CKI d   1     -26.912  49.647  48.661  0.00  0.00    -0.201 OA
ATOM     19  O1S CKI d   1     -24.903  48.427  48.452  0.00  0.00    -0.201 OA
BRANCH  17  20
ATOM     20  N1' CKI d   1     -25.444  50.418  46.910  0.00  0.00    -0.314 N 
ATOM     21  H6  CKI d   1     -26.209  51.036  46.730  0.00  0.00     0.172 HD
BRANCH  20  22
ATOM     22  C1' CKI d   1     -24.461  50.372  45.779  0.00  0.00     0.025 C 
ATOM     23  H7  CKI d   1     -23.477  50.693  46.153  0.00  0.00     0.067 H 
ATOM     24  H8  CKI d   1     -24.797  51.062  44.991  0.00  0.00     0.067 H 
BRANCH  22  25
ATOM     25  C2' CKI d   1     -24.323  48.946  45.169  0.00  0.00     0.095 C 
ATOM     26  H9  CKI d   1     -23.334  48.932  44.687  0.00  0.00     0.077 H 
ATOM     27  H10 CKI d   1     -25.107  48.884  44.400  0.00  0.00     0.077 H 
BRANCH  25  28
ATOM     28  N2' CKI d   1     -24.410  47.660  45.921  0.00  0.00    -0.078 N 
ATOM     29  H11 CKI d   1     -24.285  46.889  45.284  0.00  0.00     0.274 HD
ATOM     30  H12 CKI d   1     -25.314  47.589  46.362  0.00  0.00     0.274 HD
ATOM     31  H13 CKI d   1     -23.690  47.633  46.626  0.00  0.00     0.274 HD
ENDBRANCH  25  28
ENDBRANCH  22  25
ENDBRANCH  20  22
ENDBRANCH  17  20
ENDBRANCH   9  17
TORSDOF 5
