REMARK  4 active torsions:
REMARK  status: ('A' for Active; 'I' for Inactive)
REMARK    1  A    between atoms: C1_1  and  C2_4 
REMARK    2  A    between atoms: C2_4  and  O2_5 
REMARK    3  A    between atoms: C2_4  and  C3_6 
REMARK    4  A    between atoms: C3_6  and  C1'_7 
ROOT
ATOM      1  C1' HFA d   1      -2.478  30.181 -10.942  0.00  0.00    -0.055 A 
ATOM      2  C2' HFA d   1      -1.230  30.390 -11.576  0.00  0.00    -0.077 A 
ATOM      3  C3' HFA d   1      -0.948  29.873 -12.854  0.00  0.00    -0.082 A 
ATOM      4  C4' HFA d   1      -1.896  29.108 -13.544  0.00  0.00    -0.083 A 
ATOM      5  C5' HFA d   1      -3.143  28.879 -12.939  0.00  0.00    -0.082 A 
ATOM      6  C6' HFA d   1      -3.409  29.429 -11.685  0.00  0.00    -0.077 A 
ATOM      7  H5  HFA d   1      -0.469  30.965 -11.062  0.00  0.00     0.084 H 
ATOM      8  H6  HFA d   1       0.016  30.070 -13.310  0.00  0.00     0.083 H 
ATOM      9  H7  HFA d   1      -1.673  28.701 -14.524  0.00  0.00     0.083 H 
ATOM     10  H8  HFA d   1      -3.893  28.280 -13.443  0.00  0.00     0.083 H 
ATOM     11  H9  HFA d   1      -4.391  29.268 -11.256  0.00  0.00     0.084 H 
ENDROOT
BRANCH   1  12
ATOM     12  C3  HFA d   1      -2.697  30.808  -9.604  0.00  0.00    -0.008 C 
ATOM     13  H3  HFA d   1      -1.975  31.625  -9.454  0.00  0.00     0.044 H 
ATOM     14  H4  HFA d   1      -3.720  31.207  -9.544  0.00  0.00     0.044 H 
BRANCH  12  15
ATOM     15  C2  HFA d   1      -2.496  29.735  -8.525  0.00  0.00     0.122 C 
ATOM     16  H1  HFA d   1      -2.891  28.797  -8.943  0.00  0.00     0.100 H 
BRANCH  15  17
ATOM     17  C1  HFA d   1      -1.016  29.492  -8.258  0.00  0.00     0.203 C 
ATOM     18  O11 HFA d   1      -0.240  30.337  -7.757  0.00  0.00    -0.646 OA
ATOM     19  O12 HFA d   1      -0.737  28.352  -8.692  0.00  0.00    -0.646 OA
ENDBRANCH  15  17
BRANCH  15  20
ATOM     20  O2  HFA d   1      -3.143  29.951  -7.521  0.00  0.00    -0.385 OA
ATOM     21  H2  HFA d   1      -4.052  30.093  -7.756  0.00  0.00     0.210 HD
ENDBRANCH  15  20
ENDBRANCH  12  15
ENDBRANCH   1  12
TORSDOF 4
