REMARK  10 active torsions:
REMARK  status: ('A' for Active; 'I' for Inactive)
REMARK    1  A    between atoms: C2_2  and  NA2_3 
REMARK    2  A    between atoms: C9_13  and  C6_9 
REMARK    3  A    between atoms: N10_14  and  C9_13 
REMARK    4  A    between atoms: C14_18  and  N10_14 
REMARK    5  A    between atoms: C11_15  and  C_21 
REMARK    6  A    between atoms: N_23  and  CA_24 
REMARK    7  A    between atoms: CA_24  and  CB_25 
REMARK    8  A    between atoms: CA_24  and  CT_30 
REMARK    9  A    between atoms: CB_25  and  CG_26 
REMARK   10  A    between atoms: CG_26  and  CD_27 
ROOT
ATOM      1  C11 FOL d   1      30.751   5.745   6.177  0.00  0.00     0.018 A 
ATOM      2  C12 FOL d   1      31.726   4.899   6.782  0.00  0.00    -0.067 A 
ATOM      3  C13 FOL d   1      31.417   3.673   7.565  0.00  0.00    -0.057 A 
ATOM      4  C14 FOL d   1      29.999   3.301   7.726  0.00  0.00     0.028 A 
ATOM      5  C15 FOL d   1      29.117   4.092   7.167  0.00  0.00    -0.057 A 
ATOM      6  C16 FOL d   1      29.485   5.361   6.362  0.00  0.00    -0.067 A 
ATOM      7  H8  FOL d   1      32.769   5.169   6.662  0.00  0.00     0.085 H 
ATOM      8  H9  FOL d   1      32.207   3.073   8.002  0.00  0.00     0.086 H 
ATOM      9  H10 FOL d   1      28.068   3.843   7.275  0.00  0.00     0.086 H 
ATOM     10  H11 FOL d   1      28.689   5.959   5.934  0.00  0.00     0.085 H 
ENDROOT
BRANCH   4  11
ATOM     11  N10 FOL d   1      29.699   2.174   8.426  0.00  0.00    -0.384 N 
ATOM     12  H7  FOL d   1      30.473   1.628   8.831  0.00  0.00     0.160 HD
BRANCH  11  13
ATOM     13  C9  FOL d   1      28.243   1.670   8.645  0.00  0.00     0.034 C 
ATOM     14  H5  FOL d   1      28.271   0.857   9.385  0.00  0.00     0.073 H 
ATOM     15  H6  FOL d   1      27.649   2.506   9.041  0.00  0.00     0.073 H 
BRANCH  13  16
ATOM     16  C6  FOL d   1      27.594   1.182   7.480  0.00  0.00     0.070 A 
ATOM     17  N5  FOL d   1      28.370   1.046   6.335  0.00  0.00    -0.241 NA
ATOM     18  C4A FOL d   1      27.652   0.569   5.213  0.00  0.00     0.174 A 
ATOM     19  C4  FOL d   1      28.304   0.378   3.953  0.00  0.00     0.292 A 
ATOM     20  C8A FOL d   1      26.371   0.295   5.315  0.00  0.00     0.202 A 
ATOM     21  N3  FOL d   1      27.585  -0.050   2.965  0.00  0.00    -0.152 N 
ATOM     22  O4  FOL d   1      29.438   0.588   3.764  0.00  0.00    -0.265 OA
ATOM     23  C2  FOL d   1      26.271  -0.315   3.089  0.00  0.00     0.703 A 
ATOM     24  H3  FOL d   1      28.022  -0.189   2.076  0.00  0.00     0.187 HD
ATOM     25  N1  FOL d   1      25.713  -0.133   4.275  0.00  0.00    -0.043 NA
ATOM     26  N8  FOL d   1      25.626   0.432   6.472  0.00  0.00    -0.237 NA
ATOM     27  C7  FOL d   1      26.238   0.833   7.398  0.00  0.00     0.030 A 
ATOM     28  H4  FOL d   1      25.672   0.948   8.315  0.00  0.00     0.118 H 
BRANCH  23  29
ATOM     29  NA2 FOL d   1      25.741  -0.688   2.092  0.00  0.00    -0.233 N 
ATOM     30  H1  FOL d   1      24.736  -0.914   2.096  0.00  0.00     0.174 HD
ATOM     31  H2  FOL d   1      26.287  -0.785   1.224  0.00  0.00     0.174 HD
ENDBRANCH  23  29
ENDBRANCH  13  16
ENDBRANCH  11  13
ENDBRANCH   4  11
BRANCH   1  32
ATOM     32  C   FOL d   1      31.103   6.967   5.385  0.00  0.00     0.185 C 
ATOM     33  O   FOL d   1      32.205   7.775   5.679  0.00  0.00    -0.172 OA
ATOM     34  N   FOL d   1      30.334   7.271   4.358  0.00  0.00    -0.353 N 
ATOM     35  H12 FOL d   1      29.651   6.595   4.080  0.00  0.00     0.162 HD
BRANCH  34  36
ATOM     36  CA  FOL d   1      30.396   8.479   3.615  0.00  0.00     0.096 C 
ATOM     37  H13 FOL d   1      31.124   9.176   4.055  0.00  0.00     0.089 H 
BRANCH  36  38
ATOM     38  CB  FOL d   1      30.706   8.146   2.055  0.00  0.00    -0.028 C 
ATOM     39  H14 FOL d   1      29.985   8.675   1.415  0.00  0.00     0.037 H 
ATOM     40  H15 FOL d   1      30.621   7.062   1.885  0.00  0.00     0.037 H 
BRANCH  38  41
ATOM     41  CG  FOL d   1      32.023   8.575   1.743  0.00  0.00     0.018 C 
ATOM     42  H16 FOL d   1      32.755   7.792   1.990  0.00  0.00     0.049 H 
ATOM     43  H17 FOL d   1      32.272   9.495   2.292  0.00  0.00     0.049 H 
BRANCH  41  44
ATOM     44  CD  FOL d   1      32.003   8.794   0.478  0.00  0.00     0.172 C 
ATOM     45  OE1 FOL d   1      31.924  10.234   0.276  0.00  0.00    -0.648 OA
ATOM     46  OE2 FOL d   1      32.054   7.758  -0.359  0.00  0.00    -0.648 OA
ENDBRANCH  41  44
ENDBRANCH  38  41
ENDBRANCH  36  38
BRANCH  36  47
ATOM     47  CT  FOL d   1      29.078   9.043   3.508  0.00  0.00     0.196 C 
ATOM     48  O1  FOL d   1      27.958   8.315   3.516  0.00  0.00    -0.646 OA
ATOM     49  O2  FOL d   1      29.113  10.230   3.412  0.00  0.00    -0.646 OA
ENDBRANCH  36  47
ENDBRANCH  34  36
ENDBRANCH   1  32
TORSDOF 10
