REMARK  20 active torsions:
REMARK  status: ('A' for Active; 'I' for Inactive)
REMARK    1  A    between atoms: C3_3  and  C7_7 
REMARK    2  A    between atoms: C4_4  and  C27_27 
REMARK    3  A    between atoms: C7_7  and  C8_8 
REMARK    4  A    between atoms: C8_8  and  C9_9 
REMARK    5  A    between atoms: C9_9  and  C10_10 
REMARK    6  A    between atoms: C10_10  and  C11_11 
REMARK    7  A    between atoms: C11_11  and  C12_12 
REMARK    8  A    between atoms: C12_12  and  C13_13 
REMARK    9  A    between atoms: C13_13  and  C14_14 
REMARK   10  A    between atoms: C14_14  and  C15_15 
REMARK   11  A    between atoms: C15_15  and  C16_16 
REMARK       I    between atoms: C16_16  and  N17_17 
REMARK   12  A    between atoms: N17_17  and  C18_18 
REMARK   13  A    between atoms: C18_18  and  C20_20 
REMARK   14  A    between atoms: C18_18  and  C21_21 
REMARK   15  A    between atoms: C20_20  and  C23_23 
REMARK       I    between atoms: C21_21  and  N22_22 
REMARK   16  A    between atoms: N22_22  and  O32_32 
REMARK   17  A    between atoms: C23_23  and  C24_24 
REMARK   18  A    between atoms: C24_24  and  C25_25 
REMARK   19  A    between atoms: C25_25  and  N26_26 
REMARK   20  A    between atoms: C27_27  and  N28_28 
REMARK       I    between atoms: N28_28  and  C29_29 
REMARK       I    between atoms: C29_29  and  N30_30 
ROOT
ATOM      1  C12 FA4 d   1     -43.875  27.996 -16.229  0.00  0.00    -0.065 C 
ATOM      2  H15 FA4 d   1     -43.771  28.354 -15.194  0.00  0.00     0.033 H 
ATOM      3  H16 FA4 d   1     -44.750  27.334 -16.302  0.00  0.00     0.033 H 
ENDROOT
BRANCH   1   4
ATOM      4  C11 FA4 d   1     -42.629  27.187 -16.585  0.00  0.00    -0.065 C 
ATOM      5  H13 FA4 d   1     -42.707  26.819 -17.619  0.00  0.00     0.033 H 
ATOM      6  H14 FA4 d   1     -41.734  27.820 -16.488  0.00  0.00     0.033 H 
BRANCH   4   7
ATOM      7  C10 FA4 d   1     -42.533  26.004 -15.620  0.00  0.00    -0.065 C 
ATOM      8  H11 FA4 d   1     -42.911  26.334 -14.641  0.00  0.00     0.033 H 
ATOM      9  H12 FA4 d   1     -43.174  25.198 -16.008  0.00  0.00     0.033 H 
BRANCH   7  10
ATOM     10  C9  FA4 d   1     -41.135  25.432 -15.413  0.00  0.00    -0.065 C 
ATOM     11  H9  FA4 d   1     -40.618  25.443 -16.384  0.00  0.00     0.033 H 
ATOM     12  H10 FA4 d   1     -40.603  26.086 -14.707  0.00  0.00     0.033 H 
BRANCH  10  13
ATOM     13  C8  FA4 d   1     -41.078  23.997 -14.863  0.00  0.00    -0.061 C 
ATOM     14  H7  FA4 d   1     -41.608  23.339 -15.568  0.00  0.00     0.033 H 
ATOM     15  H8  FA4 d   1     -40.022  23.695 -14.803  0.00  0.00     0.033 H 
BRANCH  13  16
ATOM     16  C7  FA4 d   1     -41.710  23.813 -13.465  0.00  0.00    -0.040 C 
ATOM     17  H5  FA4 d   1     -41.087  24.326 -12.718  0.00  0.00     0.040 H 
ATOM     18  H6  FA4 d   1     -42.719  24.252 -13.465  0.00  0.00     0.040 H 
BRANCH  16  19
ATOM     19  C3  FA4 d   1     -41.809  22.327 -13.102  0.00  0.00    -0.050 A 
ATOM     20  C2  FA4 d   1     -40.688  21.761 -12.415  0.00  0.00    -0.076 A 
ATOM     21  C1  FA4 d   1     -40.671  20.393 -12.038  0.00  0.00    -0.082 A 
ATOM     22  H2  FA4 d   1     -39.837  22.389 -12.178  0.00  0.00     0.084 H 
ATOM     23  C6  FA4 d   1     -41.775  19.556 -12.339  0.00  0.00    -0.082 A 
ATOM     24  H1  FA4 d   1     -39.811  19.987 -11.518  0.00  0.00     0.083 H 
ATOM     25  C5  FA4 d   1     -42.899  20.079 -13.013  0.00  0.00    -0.075 A 
ATOM     26  H4  FA4 d   1     -41.756  18.511 -12.050  0.00  0.00     0.083 H 
ATOM     27  C4  FA4 d   1     -42.947  21.466 -13.407  0.00  0.00    -0.034 A 
ATOM     28  H3  FA4 d   1     -43.738  19.430 -13.238  0.00  0.00     0.084 H 
BRANCH  27  29
ATOM     29  C27 FA4 d   1     -44.196  21.961 -14.124  0.00  0.00     0.033 C 
ATOM     30  H37 FA4 d   1     -44.135  21.683 -15.187  0.00  0.00     0.072 H 
ATOM     31  H38 FA4 d   1     -44.253  23.056 -14.034  0.00  0.00     0.072 H 
BRANCH  29  32
ATOM     32  N28 FA4 d   1     -45.469  21.337 -13.511  0.00  0.00    -0.223 N 
ATOM     33  C29 FA4 d   1     -46.235  22.109 -12.579  0.00  0.00     0.665 C 
ATOM     34  N30 FA4 d   1     -45.687  23.275 -12.001  0.00  0.00    -0.235 N 
ATOM     35  N31 FA4 d   1     -47.424  21.748 -12.251  0.00  0.00    -0.235 N 
ATOM     36  H40 FA4 d   1     -46.241  23.827 -11.331  0.00  0.00     0.174 HD
ATOM     37  H41 FA4 d   1     -44.733  23.573 -12.249  0.00  0.00     0.174 HD
ATOM     38  H42 FA4 d   1     -47.837  20.900 -12.664  0.00  0.00     0.174 HD
ATOM     39  H43 FA4 d   1     -47.964  22.307 -11.575  0.00  0.00     0.174 HD
ATOM     40  H39 FA4 d   1     -45.762  20.383 -13.768  0.00  0.00     0.178 HD
ENDBRANCH  29  32
ENDBRANCH  27  29
ENDBRANCH  16  19
ENDBRANCH  13  16
ENDBRANCH  10  13
ENDBRANCH   7  10
ENDBRANCH   4   7
ENDBRANCH   1   4
BRANCH   1  41
ATOM     41  C13 FA4 d   1     -44.110  29.202 -17.133  0.00  0.00    -0.065 C 
ATOM     42  H17 FA4 d   1     -45.186  29.284 -17.345  0.00  0.00     0.033 H 
ATOM     43  H18 FA4 d   1     -43.561  29.053 -18.075  0.00  0.00     0.033 H 
BRANCH  41  44
ATOM     44  C14 FA4 d   1     -43.631  30.506 -16.479  0.00  0.00    -0.057 C 
ATOM     45  H19 FA4 d   1     -42.555  30.416 -16.269  0.00  0.00     0.033 H 
ATOM     46  H20 FA4 d   1     -44.178  30.644 -15.535  0.00  0.00     0.033 H 
BRANCH  44  47
ATOM     47  C15 FA4 d   1     -43.852  31.742 -17.352  0.00  0.00     0.009 C 
ATOM     48  H21 FA4 d   1     -43.452  32.618 -16.819  0.00  0.00     0.047 H 
ATOM     49  H22 FA4 d   1     -44.934  31.868 -17.505  0.00  0.00     0.047 H 
BRANCH  47  50
ATOM     50  C16 FA4 d   1     -43.184  31.665 -18.711  0.00  0.00     0.218 C 
ATOM     51  N17 FA4 d   1     -44.065  31.362 -19.741  0.00  0.00    -0.348 N 
ATOM     52  H23 FA4 d   1     -45.026  31.225 -19.500  0.00  0.00     0.163 HD
ATOM     53  O19 FA4 d   1     -41.984  31.847 -18.890  0.00  0.00    -0.274 OA
BRANCH  51  54
ATOM     54  C18 FA4 d   1     -43.692  31.226 -21.170  0.00  0.00     0.091 C 
ATOM     55  H24 FA4 d   1     -42.815  31.847 -21.404  0.00  0.00     0.087 H 
BRANCH  54  56
ATOM     56  C20 FA4 d   1     -44.913  31.693 -21.997  0.00  0.00    -0.038 C 
ATOM     57  H25 FA4 d   1     -45.379  32.544 -21.478  0.00  0.00     0.036 H 
ATOM     58  H26 FA4 d   1     -45.631  30.862 -22.056  0.00  0.00     0.036 H 
BRANCH  56  59
ATOM     59  C23 FA4 d   1     -44.555  32.136 -23.442  0.00  0.00    -0.061 C 
ATOM     60  H28 FA4 d   1     -43.464  32.268 -23.480  0.00  0.00     0.033 H 
ATOM     61  H29 FA4 d   1     -45.048  33.104 -23.616  0.00  0.00     0.033 H 
BRANCH  59  62
ATOM     62  C24 FA4 d   1     -44.943  31.208 -24.619  0.00  0.00    -0.043 C 
ATOM     63  H30 FA4 d   1     -45.799  30.591 -24.308  0.00  0.00     0.035 H 
ATOM     64  H31 FA4 d   1     -44.086  30.557 -24.846  0.00  0.00     0.035 H 
BRANCH  62  65
ATOM     65  C25 FA4 d   1     -45.331  31.971 -25.904  0.00  0.00     0.080 C 
ATOM     66  H32 FA4 d   1     -45.400  33.045 -25.678  0.00  0.00     0.075 H 
ATOM     67  H33 FA4 d   1     -46.307  31.608 -26.258  0.00  0.00     0.075 H 
BRANCH  65  68
ATOM     68  N26 FA4 d   1     -44.319  31.762 -26.969  0.00  0.00    -0.079 N 
ATOM     69  H34 FA4 d   1     -44.593  32.268 -27.797  0.00  0.00     0.274 HD
ATOM     70  H35 FA4 d   1     -44.254  30.779 -27.183  0.00  0.00     0.274 HD
ATOM     71  H36 FA4 d   1     -43.423  32.097 -26.651  0.00  0.00     0.274 HD
ENDBRANCH  65  68
ENDBRANCH  62  65
ENDBRANCH  59  62
ENDBRANCH  56  59
ENDBRANCH  54  56
BRANCH  54  72
ATOM     72  C21 FA4 d   1     -43.374  29.739 -21.449  0.00  0.00     0.263 C 
ATOM     73  N22 FA4 d   1     -42.289  29.250 -20.820  0.00  0.00    -0.236 N 
ATOM     74  H27 FA4 d   1     -41.748  29.819 -20.200  0.00  0.00     0.197 HD
ATOM     75  O33 FA4 d   1     -44.036  29.028 -22.205  0.00  0.00    -0.269 OA
BRANCH  73  76
ATOM     76  O32 FA4 d   1     -41.945  27.913 -21.066  0.00  0.00    -0.287 OA
ATOM     77  H44 FA4 d   1     -41.168  27.690 -20.567  0.00  0.00     0.244 HD
ENDBRANCH  73  76
ENDBRANCH  54  72
ENDBRANCH  51  54
ENDBRANCH  47  50
ENDBRANCH  44  47
ENDBRANCH  41  44
ENDBRANCH   1  41
TORSDOF 20
