REMARK  6 active torsions:
REMARK  status: ('A' for Active; 'I' for Inactive)
REMARK    1  A    between atoms: C10_10  and  C5_5 
REMARK    2  A    between atoms: C7_7  and  C14_13 
REMARK    3  A    between atoms: C8_8  and  N17_16 
REMARK    4  A    between atoms: N17_16  and  S18_17 
REMARK    5  A    between atoms: S18_17  and  C20_19 
REMARK    6  A    between atoms: C23_22  and  C25_24 
ROOT
ATOM      1  C7  FIH d   1       7.076  31.905  74.985  0.00  0.00     0.109 A 
ATOM      2  C8  FIH d   1       7.915  32.273  76.028  0.00  0.00     0.068 A 
ATOM      3  C9  FIH d   1       9.297  32.041  75.690  0.00  0.00    -0.038 A 
ATOM      4  C10 FIH d   1       9.482  31.507  74.415  0.00  0.00     0.018 A 
ATOM      5  S11 FIH d   1       7.957  31.300  73.667  0.00  0.00    -0.080 SA
ATOM      6  H5  FIH d   1      10.120  32.262  76.368  0.00  0.00     0.089 H 
ENDROOT
BRANCH   2   7
ATOM      7  N17 FIH d   1       7.461  32.824  77.308  0.00  0.00    -0.279 N 
ATOM      8  H6  FIH d   1       6.704  32.379  77.786  0.00  0.00     0.179 HD
BRANCH   7   9
ATOM      9  S18 FIH d   1       8.182  34.198  78.007  0.00  0.00     0.263 S 
ATOM     10  O26 FIH d   1       9.466  33.756  78.538  0.00  0.00    -0.200 OA
ATOM     11  O27 FIH d   1       7.274  34.633  79.065  0.00  0.00    -0.200 OA
BRANCH   9  12
ATOM     12  C20 FIH d   1       8.449  35.569  76.863  0.00  0.00     0.079 A 
ATOM     13  C19 FIH d   1       7.350  36.387  76.455  0.00  0.00    -0.060 A 
ATOM     14  C24 FIH d   1       7.567  37.464  75.552  0.00  0.00    -0.076 A 
ATOM     15  H7  FIH d   1       6.354  36.187  76.833  0.00  0.00     0.085 H 
ATOM     16  C23 FIH d   1       8.875  37.729  75.052  0.00  0.00    -0.062 A 
ATOM     17  H10 FIH d   1       6.734  38.086  75.243  0.00  0.00     0.084 H 
ATOM     18  C22 FIH d   1       9.968  36.915  75.458  0.00  0.00    -0.076 A 
ATOM     19  C21 FIH d   1       9.758  35.837  76.362  0.00  0.00    -0.060 A 
ATOM     20  H9  FIH d   1      10.963  37.116  75.078  0.00  0.00     0.084 H 
ATOM     21  H8  FIH d   1      10.593  35.218  76.671  0.00  0.00     0.085 H 
BRANCH  16  22
ATOM     22  C25 FIH d   1       9.103  38.867  74.094  0.00  0.00    -0.051 C 
ATOM     23  H11 FIH d   1      10.168  38.911  73.824  0.00  0.00     0.033 H 
ATOM     24  H12 FIH d   1       8.806  39.813  74.571  0.00  0.00     0.033 H 
ATOM     25  H13 FIH d   1       8.501  38.709  73.187  0.00  0.00     0.033 H 
ENDBRANCH  16  22
ENDBRANCH   9  12
ENDBRANCH   7   9
ENDBRANCH   2   7
BRANCH   1  26
ATOM     26  C14 FIH d   1       5.595  32.013  74.989  0.00  0.00     0.219 C 
ATOM     27  O15 FIH d   1       4.969  31.406  74.095  0.00  0.00    -0.643 OA
ATOM     28  O16 FIH d   1       5.048  32.711  75.869  0.00  0.00    -0.643 OA
ENDBRANCH   1  26
BRANCH   4  29
ATOM     29  C5  FIH d   1      10.739  31.136  73.700  0.00  0.00    -0.019 A 
ATOM     30  C4  FIH d   1      10.711  30.154  72.666  0.00  0.00    -0.069 A 
ATOM     31  C3  FIH d   1      11.885  29.790  71.962  0.00  0.00    -0.045 A 
ATOM     32  H3  FIH d   1       9.771  29.676  72.413  0.00  0.00     0.085 H 
ATOM     33  C2  FIH d   1      13.130  30.396  72.270  0.00  0.00     0.116 A 
ATOM     34  H2  FIH d   1      11.832  29.041  71.180  0.00  0.00     0.088 H 
ATOM     35  C1  FIH d   1      13.180  31.379  73.304  0.00  0.00    -0.045 A 
ATOM     36  F12 FIH d   1      14.210  30.053  71.611  0.00  0.00    -0.206 F 
ATOM     37  C6  FIH d   1      11.996  31.747  74.012  0.00  0.00    -0.069 A 
ATOM     38  H1  FIH d   1      14.124  31.850  73.553  0.00  0.00     0.088 H 
ATOM     39  H4  FIH d   1      12.049  32.496  74.793  0.00  0.00     0.085 H 
ENDBRANCH   4  29
TORSDOF 6
