REMARK  13 active torsions:
REMARK  status: ('A' for Active; 'I' for Inactive)
REMARK    1  A    between atoms: C3_3  and  N4_4 
REMARK    2  A    between atoms: N4_4  and  C5_5 
REMARK    3  A    between atoms: N4_4  and  C6_6 
REMARK    4  A    between atoms: C11_11  and  S14_14 
REMARK    5  A    between atoms: S14_14  and  N15_15 
REMARK    6  A    between atoms: N15_15  and  C16_16 
REMARK    7  A    between atoms: C16_16  and  C17_17 
REMARK    8  A    between atoms: C17_17  and  C18_18 
REMARK    9  A    between atoms: C18_18  and  C19_19 
REMARK   10  A    between atoms: C19_19  and  N20_20 
REMARK       I    between atoms: N20_20  and  C21_21 
REMARK   11  A    between atoms: C21_21  and  C23_23 
REMARK   12  A    between atoms: C23_23  and  C24_24 
REMARK   13  A    between atoms: C24_24  and  S25_25 
ROOT
ATOM      1  S14 C4H d   1      29.414  44.600  37.519  0.00  0.00     0.259 S 
ATOM      2  O26 C4H d   1      28.558  43.507  38.101  0.00  0.00    -0.201 OA
ATOM      3  O27 C4H d   1      29.009  45.908  38.076  0.00  0.00    -0.201 OA
ENDROOT
BRANCH   1   4
ATOM      4  C11 C4H d   1      29.202  44.654  35.755  0.00  0.00     0.090 A 
ATOM      5  C10 C4H d   1      29.767  45.772  34.940  0.00  0.00    -0.001 A 
ATOM      6  C1  C4H d   1      29.607  45.804  33.471  0.00  0.00    -0.003 A 
ATOM      7  C9  C4H d   1      30.507  46.838  35.581  0.00  0.00    -0.071 A 
ATOM      8  C2  C4H d   1      28.845  44.683  32.942  0.00  0.00    -0.070 A 
ATOM      9  C3  C4H d   1      30.205  46.953  32.694  0.00  0.00     0.021 A 
ATOM     10  C13 C4H d   1      28.303  43.631  33.719  0.00  0.00    -0.081 A 
ATOM     11  H1  C4H d   1      28.680  44.651  31.871  0.00  0.00     0.084 H 
ATOM     12  C12 C4H d   1      28.468  43.606  35.107  0.00  0.00    -0.059 A 
ATOM     13  H12 C4H d   1      27.753  42.834  33.231  0.00  0.00     0.083 H 
ATOM     14  H11 C4H d   1      28.043  42.798  35.691  0.00  0.00     0.085 H 
ATOM     15  C7  C4H d   1      30.915  47.955  33.430  0.00  0.00    -0.061 A 
ATOM     16  C8  C4H d   1      31.068  47.915  34.845  0.00  0.00    -0.080 A 
ATOM     17  H8  C4H d   1      31.356  48.782  32.885  0.00  0.00     0.086 H 
ATOM     18  H9  C4H d   1      31.610  48.702  35.357  0.00  0.00     0.083 H 
ATOM     19  H10 C4H d   1      30.637  46.813  36.657  0.00  0.00     0.084 H 
BRANCH   9  20
ATOM     20  N4  C4H d   1      30.124  47.132  31.146  0.00  0.00    -0.291 NA
BRANCH  20  21
ATOM     21  C5  C4H d   1      28.990  47.758  30.811  0.00  0.00    -0.029 C 
ATOM     22  H2  C4H d   1      28.946  47.877  29.718  0.00  0.00     0.048 H 
ATOM     23  H3  C4H d   1      28.963  48.748  31.289  0.00  0.00     0.048 H 
ATOM     24  H4  C4H d   1      28.129  47.163  31.150  0.00  0.00     0.048 H 
ENDBRANCH  20  21
BRANCH  20  25
ATOM     25  C6  C4H d   1      30.306  46.135  30.487  0.00  0.00    -0.029 C 
ATOM     26  H5  C4H d   1      31.247  45.657  30.798  0.00  0.00     0.048 H 
ATOM     27  H6  C4H d   1      30.366  46.405  29.422  0.00  0.00     0.048 H 
ATOM     28  H7  C4H d   1      29.471  45.436  30.641  0.00  0.00     0.048 H 
ENDBRANCH  20  25
ENDBRANCH   9  20
ENDBRANCH   1   4
BRANCH   1  29
ATOM     29  N15 C4H d   1      30.832  44.408  37.977  0.00  0.00    -0.315 N 
ATOM     30  H13 C4H d   1      31.079  44.673  38.909  0.00  0.00     0.172 HD
BRANCH  29  31
ATOM     31  C16 C4H d   1      31.876  43.839  37.094  0.00  0.00     0.003 C 
ATOM     32  H14 C4H d   1      32.656  44.596  36.921  0.00  0.00     0.065 H 
ATOM     33  H15 C4H d   1      31.422  43.554  36.133  0.00  0.00     0.065 H 
BRANCH  31  34
ATOM     34  C17 C4H d   1      32.527  42.566  37.758  0.00  0.00    -0.048 C 
ATOM     35  H16 C4H d   1      33.370  42.222  37.141  0.00  0.00     0.035 H 
ATOM     36  H17 C4H d   1      31.775  41.766  37.830  0.00  0.00     0.035 H 
BRANCH  34  37
ATOM     37  C18 C4H d   1      33.055  42.931  39.222  0.00  0.00    -0.049 C 
ATOM     38  H18 C4H d   1      32.194  43.225  39.840  0.00  0.00     0.035 H 
ATOM     39  H19 C4H d   1      33.753  43.777  39.140  0.00  0.00     0.035 H 
BRANCH  37  40
ATOM     40  C19 C4H d   1      33.768  41.785  39.906  0.00  0.00    -0.005 C 
ATOM     41  H20 C4H d   1      34.759  41.663  39.444  0.00  0.00     0.064 H 
ATOM     42  H21 C4H d   1      33.179  40.868  39.758  0.00  0.00     0.064 H 
BRANCH  40  43
ATOM     43  N20 C4H d   1      33.952  42.003  41.380  0.00  0.00    -0.361 N 
ATOM     44  C21 C4H d   1      33.167  41.130  42.308  0.00  0.00     0.218 C 
ATOM     45  O22 C4H d   1      32.408  40.278  41.845  0.00  0.00    -0.274 OA
ATOM     46  H22 C4H d   1      34.575  42.704  41.728  0.00  0.00     0.162 HD
BRANCH  44  47
ATOM     47  C23 C4H d   1      33.351  41.377  43.844  0.00  0.00     0.017 C 
ATOM     48  H23 C4H d   1      33.495  42.456  44.006  0.00  0.00     0.048 H 
ATOM     49  H24 C4H d   1      34.248  40.834  44.176  0.00  0.00     0.048 H 
BRANCH  47  50
ATOM     50  C24 C4H d   1      32.173  40.919  44.692  0.00  0.00    -0.018 C 
ATOM     51  H25 C4H d   1      32.550  40.792  45.718  0.00  0.00     0.049 H 
ATOM     52  H26 C4H d   1      31.856  39.943  44.295  0.00  0.00     0.049 H 
BRANCH  50  53
ATOM     53  S25 C4H d   1      30.676  41.952  44.806  0.00  0.00    -0.182 SA
ATOM     54  H27 C4H d   1      30.002  41.500  45.404  0.00  0.00     0.101 HD
ENDBRANCH  50  53
ENDBRANCH  47  50
ENDBRANCH  44  47
ENDBRANCH  40  43
ENDBRANCH  37  40
ENDBRANCH  34  37
ENDBRANCH  31  34
ENDBRANCH  29  31
ENDBRANCH   1  29
TORSDOF 13
