REMARK  11 active torsions:
REMARK  status: ('A' for Active; 'I' for Inactive)
REMARK    1  A    between atoms: C4_5  and  NA4_6 
REMARK    2  A    between atoms: C6_9  and  C9_13 
REMARK    3  A    between atoms: C9_13  and  N10_14 
REMARK    4  A    between atoms: N10_14  and  C14_19 
REMARK    5  A    between atoms: N10_14  and  CM_15 
REMARK    6  A    between atoms: C11_16  and  C_22 
REMARK       I    between atoms: C_22  and  N_24 
REMARK    7  A    between atoms: N_24  and  CA_25 
REMARK    8  A    between atoms: CA_25  and  CB_29 
REMARK    9  A    between atoms: CA_25  and  CT_26 
REMARK   10  A    between atoms: CB_29  and  CG_30 
REMARK   11  A    between atoms: CG_30  and  CD_31 
ROOT
ATOM      1  C11 MTX d   1      19.786  69.897  41.111  0.00  0.00     0.018 A 
ATOM      2  C12 MTX d   1      20.826  69.157  40.682  0.00  0.00    -0.067 A 
ATOM      3  C13 MTX d   1      21.481  68.536  41.432  0.00  0.00    -0.056 A 
ATOM      4  C14 MTX d   1      21.178  68.539  42.784  0.00  0.00     0.030 A 
ATOM      5  C15 MTX d   1      20.149  69.283  43.340  0.00  0.00    -0.056 A 
ATOM      6  C16 MTX d   1      19.455  69.911  42.468  0.00  0.00    -0.067 A 
ATOM      7  H11 MTX d   1      21.062  69.135  39.624  0.00  0.00     0.085 H 
ATOM      8  H12 MTX d   1      22.323  67.960  41.067  0.00  0.00     0.086 H 
ATOM      9  H13 MTX d   1      19.953  69.328  44.405  0.00  0.00     0.086 H 
ATOM     10  H14 MTX d   1      18.585  70.470  42.792  0.00  0.00     0.085 H 
ENDROOT
BRANCH   4  11
ATOM     11  N10 MTX d   1      22.074  67.722  43.532  0.00  0.00    -0.379 N 
BRANCH  11  12
ATOM     12  C9  MTX d   1      21.735  67.544  45.004  0.00  0.00     0.036 C 
ATOM     13  H6  MTX d   1      22.520  66.941  45.484  0.00  0.00     0.073 H 
ATOM     14  H7  MTX d   1      21.686  68.532  45.484  0.00  0.00     0.073 H 
BRANCH  12  15
ATOM     15  C6  MTX d   1      20.296  66.790  45.184  0.00  0.00     0.070 A 
ATOM     16  N5  MTX d   1      19.806  66.953  46.429  0.00  0.00    -0.242 NA
ATOM     17  C4A MTX d   1      18.574  66.298  46.644  0.00  0.00     0.151 A 
ATOM     18  C4  MTX d   1      17.950  66.514  47.949  0.00  0.00     0.173 A 
ATOM     19  C8A MTX d   1      18.030  65.710  45.769  0.00  0.00     0.201 A 
ATOM     20  N3  MTX d   1      16.683  66.021  48.056  0.00  0.00    -0.043 NA
ATOM     21  C2  MTX d   1      15.939  65.341  47.048  0.00  0.00     0.724 A 
ATOM     22  N1  MTX d   1      16.657  65.186  45.869  0.00  0.00    -0.041 NA
ATOM     23  NA2 MTX d   1      14.748  64.924  47.172  0.00  0.00    -0.231 N 
ATOM     24  H1  MTX d   1      14.287  64.441  46.388  0.00  0.00     0.174 HD
ATOM     25  H2  MTX d   1      14.241  65.068  48.057  0.00  0.00     0.174 HD
ATOM     26  N8  MTX d   1      18.637  65.581  44.462  0.00  0.00    -0.237 NA
ATOM     27  C7  MTX d   1      19.704  66.090  44.297  0.00  0.00     0.030 A 
ATOM     28  H5  MTX d   1      20.197  65.950  43.342  0.00  0.00     0.118 H 
BRANCH  18  29
ATOM     29  NA4 MTX d   1      18.622  67.212  49.007  0.00  0.00    -0.381 N 
ATOM     30  H3  MTX d   1      19.581  67.561  48.866  0.00  0.00     0.157 HD
ATOM     31  H4  MTX d   1      18.146  67.364  49.908  0.00  0.00     0.157 HD
ENDBRANCH  18  29
ENDBRANCH  12  15
ENDBRANCH  11  12
BRANCH  11  32
ATOM     32  CM  MTX d   1      23.148  66.886  43.050  0.00  0.00    -0.018 C 
ATOM     33  H8  MTX d   1      23.317  67.086  41.982  0.00  0.00     0.056 H 
ATOM     34  H9  MTX d   1      22.879  65.828  43.187  0.00  0.00     0.056 H 
ATOM     35  H10 MTX d   1      24.066  67.107  43.614  0.00  0.00     0.056 H 
ENDBRANCH  11  32
ENDBRANCH   4  11
BRANCH   1  36
ATOM     36  C   MTX d   1      18.973  70.650  40.199  0.00  0.00     0.185 C 
ATOM     37  N   MTX d   1      17.662  70.951  40.459  0.00  0.00    -0.353 N 
ATOM     38  H15 MTX d   1      17.188  70.449  41.183  0.00  0.00     0.162 HD
ATOM     39  O   MTX d   1      19.505  71.100  39.030  0.00  0.00    -0.172 OA
BRANCH  37  40
ATOM     40  CA  MTX d   1      16.959  71.936  39.749  0.00  0.00     0.096 C 
ATOM     41  H16 MTX d   1      17.603  72.428  39.005  0.00  0.00     0.089 H 
BRANCH  40  42
ATOM     42  CB  MTX d   1      15.670  71.349  39.160  0.00  0.00    -0.028 C 
ATOM     43  H17 MTX d   1      15.073  72.157  38.711  0.00  0.00     0.037 H 
ATOM     44  H18 MTX d   1      15.090  70.866  39.961  0.00  0.00     0.037 H 
BRANCH  42  45
ATOM     45  CG  MTX d   1      15.994  70.364  38.138  0.00  0.00     0.018 C 
ATOM     46  H19 MTX d   1      15.211  69.592  38.126  0.00  0.00     0.049 H 
ATOM     47  H20 MTX d   1      16.962  69.901  38.383  0.00  0.00     0.049 H 
BRANCH  45  48
ATOM     48  CD  MTX d   1      16.086  71.003  36.738  0.00  0.00     0.172 C 
ATOM     49  OE2 MTX d   1      15.469  72.227  36.429  0.00  0.00    -0.648 OA
ATOM     50  OE1 MTX d   1      16.895  70.242  35.892  0.00  0.00    -0.648 OA
ENDBRANCH  45  48
ENDBRANCH  42  45
ENDBRANCH  40  42
BRANCH  40  51
ATOM     51  CT  MTX d   1      16.305  72.888  40.717  0.00  0.00     0.196 C 
ATOM     52  O2  MTX d   1      15.823  73.984  40.198  0.00  0.00    -0.646 OA
ATOM     53  O1  MTX d   1      16.080  72.609  41.959  0.00  0.00    -0.646 OA
ENDBRANCH  40  51
ENDBRANCH  37  40
ENDBRANCH   1  36
TORSDOF 11
