REMARK  4 active torsions:
REMARK  status: ('A' for Active; 'I' for Inactive)
REMARK    1  A    between atoms: C1_1  and  O1_6 
REMARK    2  A    between atoms: C2_2  and  O2_7 
REMARK    3  A    between atoms: C3_3  and  O3_8 
REMARK    4  A    between atoms: C4_4  and  O4_9 
ROOT
ATOM      1  C1  RIP d   1      50.144  33.600  44.156  0.00  0.00     0.155 C 
ATOM      2  C2  RIP d   1      49.458  33.088  45.419  0.00  0.00     0.110 C 
ATOM      3  C3  RIP d   1      49.081  34.265  46.328  0.00  0.00     0.091 C 
ATOM      4  C4  RIP d   1      50.333  35.110  46.608  0.00  0.00     0.083 C 
ATOM      5  C5  RIP d   1      50.973  35.530  45.293  0.00  0.00     0.049 C 
ATOM      6  O5  RIP d   1      51.283  34.370  44.511  0.00  0.00    -0.356 OA
ATOM      7  H1  RIP d   1      49.436  34.233  43.601  0.00  0.00     0.133 H 
ATOM      8  H2  RIP d   1      50.152  32.426  45.959  0.00  0.00     0.094 H 
ATOM      9  H3  RIP d   1      48.685  33.881  47.279  0.00  0.00     0.091 H 
ATOM     10  H4  RIP d   1      51.051  34.499  47.175  0.00  0.00     0.090 H 
ATOM     11  H5  RIP d   1      51.898  36.089  45.499  0.00  0.00     0.078 H 
ATOM     12  H6  RIP d   1      50.274  36.170  44.735  0.00  0.00     0.078 H 
ENDROOT
BRANCH   1  13
ATOM     13  O1  RIP d   1      50.554  32.541  43.329  0.00  0.00    -0.369 OA
ATOM     14  H7  RIP d   1      51.177  31.998  43.797  0.00  0.00     0.212 HD
ENDBRANCH   1  13
BRANCH   2  15
ATOM     15  O2  RIP d   1      48.301  32.361  45.080  0.00  0.00    -0.388 OA
ATOM     16  H8  RIP d   1      48.539  31.634  44.517  0.00  0.00     0.210 HD
ENDBRANCH   2  15
BRANCH   3  17
ATOM     17  O3  RIP d   1      48.078  35.050  45.686  0.00  0.00    -0.390 OA
ATOM     18  H9  RIP d   1      47.839  35.778  46.248  0.00  0.00     0.210 HD
ENDBRANCH   3  17
BRANCH   4  19
ATOM     19  O4  RIP d   1      50.013  36.251  47.370  0.00  0.00    -0.391 OA
ATOM     20  H10 RIP d   1      49.614  35.982  48.189  0.00  0.00     0.210 HD
ENDBRANCH   4  19
TORSDOF 4
