REMARK  5 active torsions:
REMARK  status: ('A' for Active; 'I' for Inactive)
REMARK    1  A    between atoms: C1_3  and  C2_4 
REMARK    2  A    between atoms: C2_4  and  O2_5 
REMARK    3  A    between atoms: C2_4  and  C3_6 
REMARK    4  A    between atoms: C3_6  and  O3_7 
REMARK    5  A    between atoms: C3_6  and  C4_8 
ROOT
ATOM      1  C2  SRT d   1       8.800  34.238   9.460  0.00  0.00     0.153 C 
ATOM      2  H1  SRT d   1       7.776  34.564   9.224  0.00  0.00     0.105 H 
ENDROOT
BRANCH   1   3
ATOM      3  C1  SRT d   1       9.558  35.435   9.986  0.00  0.00     0.206 C 
ATOM      4  O1  SRT d   1      10.244  36.151   9.112  0.00  0.00    -0.646 OA
ATOM      5  O11 SRT d   1       9.559  35.797  11.167  0.00  0.00    -0.646 OA
ENDBRANCH   1   3
BRANCH   1   6
ATOM      6  O2  SRT d   1       9.420  33.760   8.291  0.00  0.00    -0.382 OA
ATOM      7  H2  SRT d   1      10.313  33.505   8.489  0.00  0.00     0.210 HD
ENDBRANCH   1   6
BRANCH   1   8
ATOM      8  C3  SRT d   1       8.719  33.050  10.437  0.00  0.00     0.153 C 
ATOM      9  H3  SRT d   1       9.575  32.382  10.260  0.00  0.00     0.105 H 
BRANCH   8  10
ATOM     10  O3  SRT d   1       8.741  33.495  11.772  0.00  0.00    -0.382 OA
ATOM     11  H4  SRT d   1       9.548  33.969  11.933  0.00  0.00     0.210 HD
ENDBRANCH   8  10
BRANCH   8  12
ATOM     12  C4  SRT d   1       7.449  32.303  10.225  0.00  0.00     0.206 C 
ATOM     13  O4  SRT d   1       7.483  31.072  10.208  0.00  0.00    -0.646 OA
ATOM     14  O41 SRT d   1       6.272  32.938  10.046  0.00  0.00    -0.646 OA
ENDBRANCH   8  12
ENDBRANCH   1   8
TORSDOF 5
