REMARK  8 active torsions:
REMARK  status: ('A' for Active; 'I' for Inactive)
REMARK    1  A    between atoms: N2_2  and  C13_9 
REMARK    2  A    between atoms: C5_5  and  C8_6 
REMARK       I    between atoms: C8_6  and  N10_8 
REMARK    3  A    between atoms: C13_9  and  C14_10 
REMARK    4  A    between atoms: C13_9  and  C18_12 
REMARK    5  A    between atoms: C14_10  and  O15_11 
REMARK    6  A    between atoms: C14_10  and  C9_24 
REMARK    7  A    between atoms: C18_12  and  C19_13 
REMARK    8  A    between atoms: C19_13  and  C22_14 
ROOT
ATOM      1  C18 FR6 d   1      50.671  57.460  20.678  0.00  0.00    -0.040 C 
ATOM      2  H8  FR6 d   1      50.933  56.850  19.800  0.00  0.00     0.036 H 
ATOM      3  H9  FR6 d   1      50.913  58.514  20.478  0.00  0.00     0.036 H 
ENDROOT
BRANCH   1   4
ATOM      4  C13 FR6 d   1      51.552  56.991  21.856  0.00  0.00     0.042 C 
ATOM      5  H5  FR6 d   1      51.102  57.434  22.757  0.00  0.00     0.077 H 
BRANCH   4   6
ATOM      6  N2  FR6 d   1      51.464  55.544  22.034  0.00  0.00    -0.342 N 
ATOM      7  C1  FR6 d   1      51.527  54.519  20.979  0.00  0.00     0.014 C 
ATOM      8  C5  FR6 d   1      51.536  53.332  21.609  0.00  0.00     0.141 C 
ATOM      9  H1  FR6 d   1      51.560  54.689  19.904  0.00  0.00     0.115 H 
ATOM     10  N4  FR6 d   1      51.481  53.584  23.065  0.00  0.00    -0.237 NA
ATOM     11  C3  FR6 d   1      51.338  54.918  23.205  0.00  0.00     0.067 C 
ATOM     12  H2  FR6 d   1      51.145  55.419  24.152  0.00  0.00     0.143 H 
BRANCH   8  13
ATOM     13  C8  FR6 d   1      51.570  51.965  21.007  0.00  0.00     0.269 C 
ATOM     14  O9  FR6 d   1      52.065  51.694  19.923  0.00  0.00    -0.266 OA
ATOM     15  N10 FR6 d   1      51.120  50.980  21.751  0.00  0.00    -0.365 N 
ATOM     16  H3  FR6 d   1      51.120  50.045  21.396  0.00  0.00     0.159 HD
ATOM     17  H4  FR6 d   1      50.777  51.165  22.672  0.00  0.00     0.159 HD
ENDBRANCH   8  13
ENDBRANCH   4   6
BRANCH   4  18
ATOM     18  C14 FR6 d   1      53.051  57.533  21.827  0.00  0.00     0.052 C 
ATOM     19  H6  FR6 d   1      52.914  58.622  21.903  0.00  0.00     0.085 H 
BRANCH  18  20
ATOM     20  O15 FR6 d   1      53.969  57.211  22.931  0.00  0.00    -0.394 OA
ATOM     21  H7  FR6 d   1      53.616  57.551  23.744  0.00  0.00     0.210 HD
ENDBRANCH  18  20
BRANCH  18  22
ATOM     22  C9  FR6 d   1      53.814  57.318  20.492  0.00  0.00    -0.051 C 
ATOM     23  H19 FR6 d   1      54.831  57.726  20.581  0.00  0.00     0.031 H 
ATOM     24  H20 FR6 d   1      53.282  57.833  19.679  0.00  0.00     0.031 H 
ATOM     25  H21 FR6 d   1      53.869  56.242  20.270  0.00  0.00     0.031 H 
ENDBRANCH  18  22
ENDBRANCH   4  18
ENDBRANCH   1   4
BRANCH   1  26
ATOM     26  C19 FR6 d   1      49.130  57.358  20.884  0.00  0.00    -0.038 C 
ATOM     27  H10 FR6 d   1      48.831  57.987  21.736  0.00  0.00     0.040 H 
ATOM     28  H11 FR6 d   1      48.855  56.312  21.086  0.00  0.00     0.040 H 
BRANCH  26  29
ATOM     29  C22 FR6 d   1      48.417  57.836  19.626  0.00  0.00    -0.047 A 
ATOM     30  C25 FR6 d   1      48.022  59.182  19.517  0.00  0.00    -0.076 A 
ATOM     31  C26 FR6 d   1      47.518  59.700  18.322  0.00  0.00    -0.082 A 
ATOM     32  H12 FR6 d   1      48.111  59.832  20.380  0.00  0.00     0.084 H 
ATOM     33  C27 FR6 d   1      47.504  58.903  17.176  0.00  0.00    -0.072 A 
ATOM     34  H13 FR6 d   1      47.140  60.715  18.285  0.00  0.00     0.083 H 
ATOM     35  C28 FR6 d   1      47.903  57.559  17.259  0.00  0.00    -0.025 A 
ATOM     36  H14 FR6 d   1      47.187  59.319  16.227  0.00  0.00     0.084 H 
ATOM     37  C29 FR6 d   1      48.388  57.027  18.465  0.00  0.00    -0.020 A 
ATOM     38  C2  FR6 d   1      47.762  56.765  16.108  0.00  0.00    -0.072 A 
ATOM     39  C4  FR6 d   1      48.678  55.642  18.524  0.00  0.00    -0.072 A 
ATOM     40  C7  FR6 d   1      48.520  54.842  17.377  0.00  0.00    -0.082 A 
ATOM     41  H16 FR6 d   1      49.021  55.199  19.452  0.00  0.00     0.084 H 
ATOM     42  C6  FR6 d   1      48.098  55.413  16.171  0.00  0.00    -0.082 A 
ATOM     43  H18 FR6 d   1      48.726  53.779  17.428  0.00  0.00     0.083 H 
ATOM     44  H17 FR6 d   1      48.032  54.800  15.279  0.00  0.00     0.083 H 
ATOM     45  H15 FR6 d   1      47.397  57.198  15.184  0.00  0.00     0.084 H 
ENDBRANCH  26  29
ENDBRANCH   1  26
TORSDOF 8
