REMARK  7 active torsions:
REMARK  status: ('A' for Active; 'I' for Inactive)
REMARK    1  A    between atoms: C22_1  and  O21_2 
REMARK    2  A    between atoms: O21_2  and  C20_3 
REMARK    3  A    between atoms: C20_3  and  O17_4 
REMARK    4  A    between atoms: O17_4  and  C14_5 
REMARK    5  A    between atoms: C08_16  and  O16_17 
REMARK    6  A    between atoms: C13_20  and  C18_21 
REMARK    7  A    between atoms: C18_21  and  C19_22 
ROOT
ATOM      1  C14 AB0 d   1      -0.233  -2.608  22.068  0.00  0.00     0.069 C 
ATOM      2  C15 AB0 d   1       0.134  -1.394  21.207  0.00  0.00    -0.012 C 
ATOM      3  C10 AB0 d   1       1.411  -0.728  21.730  0.00  0.00     0.069 C 
ATOM      4  O11 AB0 d   1       1.652   0.495  21.017  0.00  0.00    -0.371 OA
ATOM      5  C05 AB0 d   1       2.851   1.186  21.409  0.00  0.00     0.083 C 
ATOM      6  C06 AB0 d   1       2.870   2.369  20.433  0.00  0.00    -0.073 C 
ATOM      7  C07 AB0 d   1       3.727   3.436  20.680  0.00  0.00    -0.082 C 
ATOM      8  C01 AB0 d   1       4.524   3.773  21.769  0.00  0.00    -0.062 C 
ATOM      9  C02 AB0 d   1       4.733   3.113  22.974  0.00  0.00     0.013 C 
ATOM     10  O03 AB0 d   1       4.148   1.852  23.338  0.00  0.00    -0.352 OA
ATOM     11  C04 AB0 d   1       2.817   1.547  22.892  0.00  0.00     0.099 C 
ATOM     12  C08 AB0 d   1       2.463   0.296  23.702  0.00  0.00     0.091 C 
ATOM     13  C09 AB0 d   1       1.187  -0.374  23.192  0.00  0.00     0.091 C 
ATOM     14  O12 AB0 d   1       0.931  -1.578  23.931  0.00  0.00    -0.372 OA
ATOM     15  C13 AB0 d   1      -0.315  -2.162  23.521  0.00  0.00     0.073 C 
ATOM     16  H6  AB0 d   1       0.535  -3.387  21.954  0.00  0.00     0.087 H 
ATOM     17  H7  AB0 d   1      -0.691  -0.667  21.237  0.00  0.00     0.040 H 
ATOM     18  H8  AB0 d   1       0.296  -1.722  20.170  0.00  0.00     0.040 H 
ATOM     19  H9  AB0 d   1       2.268  -1.409  21.621  0.00  0.00     0.087 H 
ATOM     20  H10 AB0 d   1       3.734   0.553  21.237  0.00  0.00     0.093 H 
ATOM     21  H11 AB0 d   1       2.221   2.373  19.558  0.00  0.00     0.081 H 
ATOM     22  H12 AB0 d   1       3.786   4.149  19.858  0.00  0.00     0.083 H 
ATOM     23  H13 AB0 d   1       5.074   4.707  21.660  0.00  0.00     0.086 H 
ATOM     24  H14 AB0 d   1       5.392   3.589  23.699  0.00  0.00     0.122 H 
ATOM     25  H15 AB0 d   1       2.117   2.375  23.079  0.00  0.00     0.092 H 
ATOM     26  H16 AB0 d   1       3.292  -0.421  23.614  0.00  0.00     0.091 H 
ATOM     27  H18 AB0 d   1       0.334   0.313  23.292  0.00  0.00     0.091 H 
ATOM     28  H19 AB0 d   1      -1.113  -1.412  23.619  0.00  0.00     0.088 H 
ENDROOT
BRANCH   1  29
ATOM     29  O17 AB0 d   1      -1.515  -3.134  21.689  0.00  0.00    -0.359 OA
BRANCH  29  30
ATOM     30  C20 AB0 d   1      -1.390  -4.194  20.728  0.00  0.00     0.103 C 
ATOM     31  H4  AB0 d   1      -0.582  -4.871  21.042  0.00  0.00     0.117 H 
ATOM     32  H5  AB0 d   1      -2.337  -4.751  20.681  0.00  0.00     0.117 H 
BRANCH  30  33
ATOM     33  O21 AB0 d   1      -1.087  -3.672  19.426  0.00  0.00    -0.372 OA
BRANCH  33  34
ATOM     34  C22 AB0 d   1      -2.205  -2.941  18.914  0.00  0.00     0.006 C 
ATOM     35  H1  AB0 d   1      -1.960  -2.547  17.917  0.00  0.00     0.066 H 
ATOM     36  H2  AB0 d   1      -2.438  -2.106  19.591  0.00  0.00     0.066 H 
ATOM     37  H3  AB0 d   1      -3.077  -3.608  18.840  0.00  0.00     0.066 H 
ENDBRANCH  33  34
ENDBRANCH  30  33
ENDBRANCH  29  30
ENDBRANCH   1  29
BRANCH  15  38
ATOM     38  C18 AB0 d   1      -0.636  -3.354  24.425  0.00  0.00     0.042 C 
ATOM     39  H20 AB0 d   1       0.168  -4.100  24.338  0.00  0.00     0.053 H 
ATOM     40  H21 AB0 d   1      -1.589  -3.803  24.107  0.00  0.00     0.053 H 
BRANCH  38  41
ATOM     41  C19 AB0 d   1      -0.752  -2.907  25.883  0.00  0.00     0.175 C 
ATOM     42  O23 AB0 d   1      -1.454  -1.943  26.184  0.00  0.00    -0.648 OA
ATOM     43  O24 AB0 d   1      -0.135  -3.504  26.766  0.00  0.00    -0.648 OA
ENDBRANCH  38  41
ENDBRANCH  15  38
BRANCH  12  44
ATOM     44  O16 AB0 d   1       2.295   0.646  25.078  0.00  0.00    -0.390 OA
ATOM     45  H17 AB0 d   1       1.595   1.283  25.158  0.00  0.00     0.210 HD
ENDBRANCH  12  44
TORSDOF 7
