REMARK  8 active torsions:
REMARK  status: ('A' for Active; 'I' for Inactive)
REMARK    1  A    between atoms: O3A_8  and  PB_1 
REMARK    2  A    between atoms: PA_5  and  O3A_8 
REMARK    3  A    between atoms: PA_5  and  O5'_9 
REMARK    4  A    between atoms: O5'_9  and  C5'_10 
REMARK    5  A    between atoms: C5'_10  and  C4'_11 
REMARK    6  A    between atoms: C3'_13  and  O3'_14 
REMARK    7  A    between atoms: C2'_15  and  O2'_16 
REMARK    8  A    between atoms: C1'_17  and  N9_18 
ROOT
ATOM      1  C4' ADP d   1       5.713  -8.875  25.212  0.00  0.00     0.089 C 
ATOM      2  O4' ADP d   1       6.384  -9.320  24.011  0.00  0.00    -0.353 OA
ATOM      3  C3' ADP d   1       4.458  -9.775  25.339  0.00  0.00     0.091 C 
ATOM      4  C2' ADP d   1       4.748 -10.977  24.431  0.00  0.00     0.105 C 
ATOM      5  C1' ADP d   1       5.834 -10.509  23.476  0.00  0.00     0.139 C 
ATOM      6  H3  ADP d   1       5.362  -7.844  25.059  0.00  0.00     0.090 H 
ATOM      7  H4  ADP d   1       4.317 -10.119  26.374  0.00  0.00     0.091 H 
ATOM      8  H6  ADP d   1       5.114 -11.814  25.044  0.00  0.00     0.093 H 
ATOM      9  H8  ADP d   1       5.368 -10.272  22.508  0.00  0.00     0.122 H 
ENDROOT
BRANCH   5  10
ATOM     10  N9  ADP d   1       6.877 -11.565  23.229  0.00  0.00    -0.294 N 
ATOM     11  C8  ADP d   1       7.741 -12.138  24.106  0.00  0.00     0.071 A 
ATOM     12  N7  ADP d   1       8.536 -13.058  23.523  0.00  0.00    -0.236 NA
ATOM     13  H9  ADP d   1       7.787 -11.883  25.164  0.00  0.00     0.144 H 
ATOM     14  C5  ADP d   1       8.139 -13.056  22.221  0.00  0.00     0.149 A 
ATOM     15  C6  ADP d   1       8.599 -13.813  21.066  0.00  0.00     0.155 A 
ATOM     16  C4  ADP d   1       7.120 -12.129  22.022  0.00  0.00     0.167 A 
ATOM     17  N6  ADP d   1       9.529 -14.710  21.060  0.00  0.00    -0.382 N 
ATOM     18  N1  ADP d   1       7.926 -13.510  19.889  0.00  0.00    -0.222 NA
ATOM     19  H10 ADP d   1       9.778 -15.188  20.182  0.00  0.00     0.157 HD
ATOM     20  H11 ADP d   1      10.022 -14.947  21.933  0.00  0.00     0.157 HD
ATOM     21  C2  ADP d   1       6.910 -12.562  19.803  0.00  0.00     0.091 A 
ATOM     22  N3  ADP d   1       6.481 -11.859  20.855  0.00  0.00    -0.222 NA
ATOM     23  H12 ADP d   1       6.446 -12.386  18.839  0.00  0.00     0.146 H 
ENDBRANCH   5  10
BRANCH   4  24
ATOM     24  O2' ADP d   1       3.614 -11.430  23.668  0.00  0.00    -0.388 OA
ATOM     25  H7  ADP d   1       3.308 -10.726  23.109  0.00  0.00     0.210 HD
ENDBRANCH   4  24
BRANCH   1  26
ATOM     26  C5' ADP d   1       6.675  -8.827  26.390  0.00  0.00     0.058 C 
ATOM     27  H1  ADP d   1       6.109  -9.001  27.317  0.00  0.00     0.079 H 
ATOM     28  H2  ADP d   1       7.428  -9.619  26.266  0.00  0.00     0.079 H 
BRANCH  26  29
ATOM     29  O5' ADP d   1       7.359  -7.536  26.488  0.00  0.00    -0.287 OA
BRANCH  29  30
ATOM     30  PA  ADP d   1       8.328  -7.222  27.708  0.00  0.00     0.418 P 
ATOM     31  O1A ADP d   1       9.291  -6.207  27.131  0.00  0.00    -0.624 OA
ATOM     32  O2A ADP d   1       8.970  -8.439  28.327  0.00  0.00    -0.624 OA
BRANCH  30  33
ATOM     33  O3A ADP d   1       7.398  -6.514  28.759  0.00  0.00    -0.173 OA
BRANCH  33  34
ATOM     34  PB  ADP d   1       6.667  -5.082  28.758  0.00  0.00     0.431 P 
ATOM     35  O1B ADP d   1       6.830  -4.556  27.379  0.00  0.00    -0.616 OA
ATOM     36  O2B ADP d   1       7.375  -4.266  29.799  0.00  0.00    -0.616 OA
ATOM     37  O3B ADP d   1       5.152  -5.324  29.115  0.00  0.00    -0.616 OA
ENDBRANCH  33  34
ENDBRANCH  30  33
ENDBRANCH  29  30
ENDBRANCH  26  29
ENDBRANCH   1  26
BRANCH   3  38
ATOM     38  O3' ADP d   1       3.324  -8.982  24.946  0.00  0.00    -0.390 OA
ATOM     39  H5  ADP d   1       2.534  -9.506  25.012  0.00  0.00     0.210 HD
ENDBRANCH   3  38
TORSDOF 8
