REMARK  6 active torsions:
REMARK  status: ('A' for Active; 'I' for Inactive)
REMARK    1  A    between atoms: O2_1  and  C13_2 
REMARK    2  A    between atoms: C4_7  and  C2_8 
REMARK    3  A    between atoms: C2_8  and  C3_9 
REMARK    4  A    between atoms: C2_8  and  C5_10 
REMARK    5  A    between atoms: C2_8  and  C1_11 
REMARK    6  A    between atoms: C8_16  and  O1_17 
ROOT
ATOM      1  C2  2OH d   1     -16.478  -3.037 -27.356  0.00  0.00     0.007 C 
ENDROOT
BRANCH   1   2
ATOM      2  C4  2OH d   1     -16.241  -4.502 -27.023  0.00  0.00    -0.045 A 
ATOM      3  C11 2OH d   1     -15.184  -5.214 -27.612  0.00  0.00    -0.073 A 
ATOM      4  C12 2OH d   1     -14.926  -6.557 -27.324  0.00  0.00    -0.051 A 
ATOM      5  H3  2OH d   1     -14.542  -4.701 -28.319  0.00  0.00     0.084 H 
ATOM      6  C13 2OH d   1     -15.711  -7.225 -26.389  0.00  0.00     0.065 A 
ATOM      7  H2  2OH d   1     -14.118  -7.076 -27.827  0.00  0.00     0.087 H 
ATOM      8  C14 2OH d   1     -16.769  -6.536 -25.791  0.00  0.00    -0.051 A 
ATOM      9  C15 2OH d   1     -17.032  -5.193 -26.093  0.00  0.00    -0.073 A 
ATOM     10  H4  2OH d   1     -17.401  -7.052 -25.077  0.00  0.00     0.087 H 
ATOM     11  H5  2OH d   1     -17.854  -4.684 -25.604  0.00  0.00     0.084 H 
BRANCH   6  12
ATOM     12  O2  2OH d   1     -15.445  -8.504 -26.093  0.00  0.00    -0.361 OA
ATOM     13  H1  2OH d   1     -16.065  -8.813 -25.443  0.00  0.00     0.217 HD
ENDBRANCH   6  12
ENDBRANCH   1   2
BRANCH   1  14
ATOM     14  C3  2OH d   1     -17.815  -2.504 -26.837  0.00  0.00    -0.061 C 
ATOM     15  H6  2OH d   1     -17.871  -2.653 -25.749  0.00  0.00     0.029 H 
ATOM     16  H7  2OH d   1     -18.640  -3.045 -27.324  0.00  0.00     0.029 H 
ATOM     17  H8  2OH d   1     -17.895  -1.431 -27.065  0.00  0.00     0.029 H 
ENDBRANCH   1  14
BRANCH   1  18
ATOM     18  C5  2OH d   1     -15.406  -2.261 -26.598  0.00  0.00    -0.061 C 
ATOM     19  H9  2OH d   1     -14.411  -2.596 -26.925  0.00  0.00     0.029 H 
ATOM     20  H10 2OH d   1     -15.518  -2.441 -25.518  0.00  0.00     0.029 H 
ATOM     21  H11 2OH d   1     -15.517  -1.186 -26.804  0.00  0.00     0.029 H 
ENDBRANCH   1  18
BRANCH   1  22
ATOM     22  C1  2OH d   1     -16.413  -2.826 -28.856  0.00  0.00    -0.045 A 
ATOM     23  C10 2OH d   1     -17.458  -3.305 -29.639  0.00  0.00    -0.073 A 
ATOM     24  C9  2OH d   1     -17.456  -3.153 -31.014  0.00  0.00    -0.051 A 
ATOM     25  H12 2OH d   1     -18.291  -3.808 -29.162  0.00  0.00     0.084 H 
ATOM     26  C8  2OH d   1     -16.403  -2.522 -31.651  0.00  0.00     0.065 A 
ATOM     27  H13 2OH d   1     -18.287  -3.532 -31.598  0.00  0.00     0.087 H 
ATOM     28  C7  2OH d   1     -15.357  -2.041 -30.890  0.00  0.00    -0.051 A 
ATOM     29  C6  2OH d   1     -15.345  -2.193 -29.495  0.00  0.00    -0.073 A 
ATOM     30  H15 2OH d   1     -14.531  -1.537 -31.378  0.00  0.00     0.087 H 
ATOM     31  H14 2OH d   1     -14.509  -1.820 -28.915  0.00  0.00     0.084 H 
BRANCH  26  32
ATOM     32  O1  2OH d   1     -16.420  -2.382 -32.991  0.00  0.00    -0.361 OA
ATOM     33  H16 2OH d   1     -17.213  -2.772 -33.339  0.00  0.00     0.217 HD
ENDBRANCH  26  32
ENDBRANCH   1  22
TORSDOF 6
