REMARK  10 active torsions:
REMARK  status: ('A' for Active; 'I' for Inactive)
REMARK    1  A    between atoms: N5_8  and  C11_15 
REMARK    2  A    between atoms: C9_13  and  C6_9 
REMARK    3  A    between atoms: N10_14  and  C9_13 
REMARK    4  A    between atoms: C15_19  and  N10_14 
REMARK    5  A    between atoms: C12_16  and  C_22 
REMARK       I    between atoms: C_22  and  N_24 
REMARK    6  A    between atoms: N_24  and  CA_25 
REMARK    7  A    between atoms: CA_25  and  CB_26 
REMARK    8  A    between atoms: CA_25  and  CT_31 
REMARK    9  A    between atoms: CB_26  and  CG_27 
REMARK   10  A    between atoms: CG_27  and  CD_28 
ROOT
ATOM      1  C12 C2F d   1      -9.385  68.029 115.538  0.00  0.00     0.032 A 
ATOM      2  C13 C2F d   1      -9.498  67.652 116.909  0.00  0.00    -0.066 A 
ATOM      3  C14 C2F d   1      -9.284  68.603 117.928  0.00  0.00    -0.057 A 
ATOM      4  C15 C2F d   1      -8.954  69.938 117.590  0.00  0.00     0.028 A 
ATOM      5  C16 C2F d   1      -8.841  70.316 116.202  0.00  0.00    -0.057 A 
ATOM      6  C17 C2F d   1      -9.056  69.367 115.187  0.00  0.00    -0.066 A 
ATOM      7  H14 C2F d   1      -9.749  66.630 117.169  0.00  0.00     0.085 H 
ATOM      8  H15 C2F d   1      -9.372  68.312 118.969  0.00  0.00     0.086 H 
ATOM      9  H16 C2F d   1      -8.589  71.337 115.940  0.00  0.00     0.086 H 
ATOM     10  H17 C2F d   1      -8.972  69.653 114.145  0.00  0.00     0.085 H 
ENDROOT
BRANCH   4  11
ATOM     11  N10 C2F d   1      -8.758  70.816 118.618  0.00  0.00    -0.388 N 
ATOM     12  H10 C2F d   1      -8.651  70.431 119.567  0.00  0.00     0.159 HD
BRANCH  11  13
ATOM     13  C9  C2F d   1      -8.691  72.259 118.456  0.00  0.00     0.009 C 
ATOM     14  H8  C2F d   1      -8.226  72.689 119.355  0.00  0.00     0.066 H 
ATOM     15  H9  C2F d   1      -8.068  72.483 117.578  0.00  0.00     0.066 H 
BRANCH  13  16
ATOM     16  C6  C2F d   1     -10.083  72.924 118.255  0.00  0.00     0.029 C 
ATOM     17  N5  C2F d   1      -9.887  74.282 117.630  0.00  0.00    -0.272 NA
ATOM     18  C4A C2F d   1      -9.430  75.270 118.589  0.00  0.00     0.126 A 
ATOM     19  C4  C2F d   1      -8.668  76.492 118.187  0.00  0.00     0.285 A 
ATOM     20  C8A C2F d   1      -9.692  75.126 120.074  0.00  0.00     0.170 A 
ATOM     21  N3  C2F d   1      -8.275  77.367 119.157  0.00  0.00    -0.153 N 
ATOM     22  O4  C2F d   1      -8.399  76.700 116.987  0.00  0.00    -0.266 OA
ATOM     23  C2  C2F d   1      -8.549  77.176 120.491  0.00  0.00     0.703 A 
ATOM     24  H3  C2F d   1      -7.765  78.183 118.886  0.00  0.00     0.187 HD
ATOM     25  N1  C2F d   1      -9.239  76.083 120.934  0.00  0.00    -0.045 NA
ATOM     26  NA2 C2F d   1      -8.126  78.090 121.406  0.00  0.00    -0.233 N 
ATOM     27  H1  C2F d   1      -8.330  77.950 122.406  0.00  0.00     0.174 HD
ATOM     28  H2  C2F d   1      -7.602  78.922 121.099  0.00  0.00     0.174 HD
ATOM     29  N8  C2F d   1     -10.372  74.037 120.525  0.00  0.00    -0.371 N 
ATOM     30  C7  C2F d   1     -10.861  72.986 119.622  0.00  0.00     0.011 C 
ATOM     31  H7  C2F d   1     -10.550  73.946 121.535  0.00  0.00     0.161 HD
ATOM     32  H5  C2F d   1     -10.755  72.015 120.128  0.00  0.00     0.066 H 
ATOM     33  H6  C2F d   1     -11.924  73.175 119.410  0.00  0.00     0.066 H 
ATOM     34  H4  C2F d   1     -10.671  72.308 117.559  0.00  0.00     0.069 H 
BRANCH  17  35
ATOM     35  C11 C2F d   1     -11.139  74.752 116.987  0.00  0.00    -0.028 C 
ATOM     36  H11 C2F d   1     -10.972  75.743 116.539  0.00  0.00     0.048 H 
ATOM     37  H12 C2F d   1     -11.936  74.821 117.742  0.00  0.00     0.048 H 
ATOM     38  H13 C2F d   1     -11.438  74.041 116.203  0.00  0.00     0.048 H 
ENDBRANCH  17  35
ENDBRANCH  13  16
ENDBRANCH  11  13
ENDBRANCH   4  11
BRANCH   1  39
ATOM     39  C   C2F d   1      -9.612  67.004 114.471  0.00  0.00     0.252 C 
ATOM     40  O   C2F d   1      -8.888  67.004 113.487  0.00  0.00    -0.268 OA
ATOM     41  N   C2F d   1     -10.615  66.127 114.667  0.00  0.00    -0.342 N 
ATOM     42  H18 C2F d   1     -11.127  66.243 115.518  0.00  0.00     0.163 HD
BRANCH  41  43
ATOM     43  CA  C2F d   1     -11.062  65.027 113.809  0.00  0.00     0.097 C 
ATOM     44  H19 C2F d   1     -10.275  64.262 113.733  0.00  0.00     0.089 H 
BRANCH  43  45
ATOM     45  CB  C2F d   1     -12.325  64.430 114.448  0.00  0.00    -0.028 C 
ATOM     46  H20 C2F d   1     -13.206  64.689 113.843  0.00  0.00     0.037 H 
ATOM     47  H21 C2F d   1     -12.450  64.827 115.466  0.00  0.00     0.037 H 
BRANCH  45  48
ATOM     48  CG  C2F d   1     -12.161  62.908 114.501  0.00  0.00     0.018 C 
ATOM     49  H22 C2F d   1     -11.390  62.661 115.246  0.00  0.00     0.049 H 
ATOM     50  H23 C2F d   1     -11.841  62.552 113.510  0.00  0.00     0.049 H 
BRANCH  48  51
ATOM     51  CD  C2F d   1     -13.459  62.195 114.883  0.00  0.00     0.172 C 
ATOM     52  OE1 C2F d   1     -14.452  62.951 115.083  0.00  0.00    -0.648 OA
ATOM     53  OE2 C2F d   1     -13.529  60.946 115.004  0.00  0.00    -0.648 OA
ENDBRANCH  48  51
ENDBRANCH  45  48
ENDBRANCH  43  45
BRANCH  43  54
ATOM     54  CT  C2F d   1     -11.400  65.552 112.431  0.00  0.00     0.196 C 
ATOM     55  O1  C2F d   1     -12.043  66.618 112.325  0.00  0.00    -0.646 OA
ATOM     56  O2  C2F d   1     -11.019  64.910 111.438  0.00  0.00    -0.646 OA
ENDBRANCH  43  54
ENDBRANCH  41  43
ENDBRANCH   1  39
TORSDOF 10
