REMARK  5 active torsions:
REMARK  status: ('A' for Active; 'I' for Inactive)
REMARK    1  A    between atoms: P14_2  and  C8_5 
REMARK    2  A    between atoms: C8_5  and  P9_6 
REMARK    3  A    between atoms: C8_5  and  O13_10 
REMARK    4  A    between atoms: C8_5  and  C7_11 
REMARK    5  A    between atoms: C7_11  and  N15_12 
ROOT
ATOM      1  C8  ZOL d   1      28.638  46.114   5.841  0.00  0.00     0.301 C 
ENDROOT
BRANCH   1   2
ATOM      2  P14 ZOL d   1      29.531  44.949   4.696  0.00  0.00     0.311 P 
ATOM      3  O17 ZOL d   1      28.978  43.494   5.090  0.00  0.00    -0.637 OA
ATOM      4  O16 ZOL d   1      28.969  45.370   3.241  0.00  0.00    -0.637 OA
ATOM      5  O15 ZOL d   1      31.003  45.027   4.846  0.00  0.00    -0.637 OA
ENDBRANCH   1   2
BRANCH   1   6
ATOM      6  P9  ZOL d   1      26.820  45.744   5.616  0.00  0.00     0.311 P 
ATOM      7  O10 ZOL d   1      26.575  44.293   6.263  0.00  0.00    -0.637 OA
ATOM      8  O11 ZOL d   1      26.033  46.835   6.497  0.00  0.00    -0.637 OA
ATOM      9  O12 ZOL d   1      26.483  45.767   4.169  0.00  0.00    -0.637 OA
ENDBRANCH   1   6
BRANCH   1  10
ATOM     10  O13 ZOL d   1      28.914  47.452   5.415  0.00  0.00    -0.364 OA
ATOM     11  H1  ZOL d   1      28.608  47.569   4.523  0.00  0.00     0.212 HD
ENDBRANCH   1  10
BRANCH   1  12
ATOM     12  C7  ZOL d   1      29.106  45.865   7.278  0.00  0.00     0.054 C 
ATOM     13  H2  ZOL d   1      30.193  46.028   7.328  0.00  0.00     0.071 H 
ATOM     14  H3  ZOL d   1      28.878  44.823   7.547  0.00  0.00     0.071 H 
BRANCH  12  15
ATOM     15  N15 ZOL d   1      28.450  46.758   8.249  0.00  0.00    -0.346 N 
ATOM     16  C16 ZOL d   1      28.373  48.079   8.155  0.00  0.00     0.065 A 
ATOM     17  N17 ZOL d   1      27.766  48.495   9.268  0.00  0.00    -0.255 NA
ATOM     18  H4  ZOL d   1      28.733  48.699   7.335  0.00  0.00     0.143 H 
ATOM     19  C18 ZOL d   1      27.481  47.444  10.034  0.00  0.00     0.018 A 
ATOM     20  C19 ZOL d   1      27.908  46.356   9.396  0.00  0.00    -0.003 A 
ATOM     21  H5  ZOL d   1      26.989  47.469  11.005  0.00  0.00     0.117 H 
ATOM     22  H6  ZOL d   1      27.828  45.328   9.748  0.00  0.00     0.113 H 
ENDBRANCH  12  15
ENDBRANCH   1  12
TORSDOF 5
