REMARK  5 active torsions:
REMARK  status: ('A' for Active; 'I' for Inactive)
REMARK    1  A    between atoms: O_1  and  C9_2 
REMARK    2  A    between atoms: C9_2  and  C8_3 
REMARK    3  A    between atoms: C9_2  and  P1_13 
REMARK    4  A    between atoms: C9_2  and  P2_17 
REMARK    5  A    between atoms: C8_3  and  C2_4 
ROOT
ATOM      1  C2  M0N d   1      28.943  46.695   8.296  0.00  0.00     0.039 A 
ATOM      2  C1  M0N d   1      28.422  47.899   8.111  0.00  0.00     0.027 A 
ATOM      3  N1  M0N d   1      28.122  48.437   9.296  0.00  0.00    -0.241 NA
ATOM      4  C7  M0N d   1      28.451  47.592  10.270  0.00  0.00     0.133 A 
ATOM      5  C6  M0N d   1      28.372  47.669  11.654  0.00  0.00    -0.038 A 
ATOM      6  C5  M0N d   1      28.828  46.613  12.436  0.00  0.00    -0.078 A 
ATOM      7  C4  M0N d   1      29.363  45.474  11.837  0.00  0.00    -0.067 A 
ATOM      8  C3  M0N d   1      29.450  45.382  10.456  0.00  0.00    -0.013 A 
ATOM      9  N2  M0N d   1      28.991  46.449   9.668  0.00  0.00    -0.309 N 
ATOM     10  H4  M0N d   1      28.263  48.375   7.144  0.00  0.00     0.117 H 
ATOM     11  H5  M0N d   1      27.953  48.556  12.127  0.00  0.00     0.089 H 
ATOM     12  H6  M0N d   1      28.767  46.676  13.521  0.00  0.00     0.083 H 
ATOM     13  H7  M0N d   1      29.715  44.651  12.457  0.00  0.00     0.085 H 
ATOM     14  H8  M0N d   1      29.869  44.492   9.988  0.00  0.00     0.112 H 
ENDROOT
BRANCH   1  15
ATOM     15  C8  M0N d   1      29.425  45.676   7.253  0.00  0.00     0.030 C 
ATOM     16  H2  M0N d   1      30.524  45.692   7.224  0.00  0.00     0.049 H 
ATOM     17  H3  M0N d   1      29.081  44.675   7.551  0.00  0.00     0.049 H 
BRANCH  15  18
ATOM     18  C9  M0N d   1      28.891  45.984   5.855  0.00  0.00     0.290 C 
BRANCH  18  19
ATOM     19  O   M0N d   1      29.147  47.349   5.509  0.00  0.00    -0.365 OA
ATOM     20  H1  M0N d   1      28.840  47.513   4.625  0.00  0.00     0.212 HD
ENDBRANCH  18  19
BRANCH  18  21
ATOM     21  P1  M0N d   1      29.804  44.907   4.645  0.00  0.00     0.310 P 
ATOM     22  O2  M0N d   1      29.408  45.192   3.250  0.00  0.00    -0.637 OA
ATOM     23  O3  M0N d   1      31.375  45.148   4.907  0.00  0.00    -0.637 OA
ATOM     24  O1  M0N d   1      29.503  43.411   5.149  0.00  0.00    -0.637 OA
ENDBRANCH  18  21
BRANCH  18  25
ATOM     25  P2  M0N d   1      27.070  45.602   5.710  0.00  0.00     0.310 P 
ATOM     26  O5  M0N d   1      26.901  44.058   6.138  0.00  0.00    -0.637 OA
ATOM     27  O6  M0N d   1      26.744  45.652   4.138  0.00  0.00    -0.637 OA
ATOM     28  O4  M0N d   1      26.222  46.538   6.480  0.00  0.00    -0.637 OA
ENDBRANCH  18  25
ENDBRANCH  15  18
ENDBRANCH   1  15
TORSDOF 5
