REMARK  7 active torsions:
REMARK  status: ('A' for Active; 'I' for Inactive)
REMARK    1  A    between atoms: CAV_6  and  CAW_7 
REMARK    2  A    between atoms: CAX_12  and  CAY_13 
REMARK    3  A    between atoms: NAZ_18  and  CAU_19 
REMARK    4  A    between atoms: CAU_19  and  CBA_20 
REMARK    5  A    between atoms: CBA_20  and  PBB_21 
REMARK    6  A    between atoms: CBA_20  and  PBC_25 
REMARK    7  A    between atoms: CBA_20  and  OAC_29 
ROOT
ATOM      1  CAY 364 d   1      31.176  49.105   8.882  0.00  0.00    -0.010 A 
ATOM      2  CAT 364 d   1      30.928  48.042   8.019  0.00  0.00    -0.010 A 
ATOM      3  CAQ 364 d   1      30.364  49.290   9.996  0.00  0.00    -0.070 A 
ATOM      4  CAL 364 d   1      29.310  48.423  10.257  0.00  0.00    -0.067 A 
ATOM      5  CAR 364 d   1      29.060  47.355   9.403  0.00  0.00    -0.021 A 
ATOM      6  NAZ 364 d   1      29.873  47.158   8.280  0.00  0.00    -0.361 N 
ATOM      7  H10 364 d   1      31.552  47.898   7.144  0.00  0.00     0.112 H 
ATOM      8  H11 364 d   1      30.555  50.119  10.668  0.00  0.00     0.085 H 
ATOM      9  H12 364 d   1      28.682  48.580  11.127  0.00  0.00     0.085 H 
ATOM     10  H13 364 d   1      28.239  46.677   9.606  0.00  0.00     0.111 H 
ENDROOT
BRANCH   1  11
ATOM     11  CAX 364 d   1      32.271  49.935   8.665  0.00  0.00    -0.024 A 
ATOM     12  CAS 364 d   1      33.020  50.415   9.735  0.00  0.00    -0.061 A 
ATOM     13  CAW 364 d   1      34.092  51.275   9.514  0.00  0.00    -0.025 A 
ATOM     14  H6  364 d   1      32.767  50.117  10.746  0.00  0.00     0.086 H 
ATOM     15  CAO 364 d   1      34.409  51.659   8.214  0.00  0.00    -0.072 A 
ATOM     16  CAK 364 d   1      33.664  51.181   7.143  0.00  0.00    -0.081 A 
ATOM     17  H7  364 d   1      35.239  52.333   8.037  0.00  0.00     0.084 H 
ATOM     18  CAP 364 d   1      32.597  50.318   7.369  0.00  0.00    -0.072 A 
ATOM     19  H8  364 d   1      33.914  51.481   6.132  0.00  0.00     0.083 H 
ATOM     20  H9  364 d   1      32.018  49.943   6.533  0.00  0.00     0.084 H 
BRANCH  13  21
ATOM     21  CAV 364 d   1      34.846  51.757  10.576  0.00  0.00    -0.026 A 
ATOM     22  CAM 364 d   1      35.318  53.067  10.562  0.00  0.00    -0.072 A 
ATOM     23  CAI 364 d   1      36.137  53.531  11.584  0.00  0.00    -0.082 A 
ATOM     24  H1  364 d   1      35.045  53.729   9.748  0.00  0.00     0.084 H 
ATOM     25  CAH 364 d   1      36.488  52.682  12.629  0.00  0.00    -0.083 A 
ATOM     26  H2  364 d   1      36.502  54.552  11.567  0.00  0.00     0.083 H 
ATOM     27  CAJ 364 d   1      36.017  51.374  12.648  0.00  0.00    -0.082 A 
ATOM     28  H3  364 d   1      37.128  53.040  13.427  0.00  0.00     0.083 H 
ATOM     29  CAN 364 d   1      35.197  50.912  11.624  0.00  0.00    -0.072 A 
ATOM     30  H4  364 d   1      36.289  50.713  13.463  0.00  0.00     0.083 H 
ATOM     31  H5  364 d   1      34.831  49.892  11.643  0.00  0.00     0.084 H 
ENDBRANCH  13  21
ENDBRANCH   1  11
BRANCH   6  32
ATOM     32  CAU 364 d   1      29.679  45.955   7.437  0.00  0.00     0.053 C 
ATOM     33  H14 364 d   1      28.906  45.330   7.908  0.00  0.00     0.071 H 
ATOM     34  H15 364 d   1      30.630  45.403   7.407  0.00  0.00     0.071 H 
BRANCH  32  35
ATOM     35  CBA 364 d   1      29.248  46.237   5.994  0.00  0.00     0.301 C 
BRANCH  35  36
ATOM     36  PBB 364 d   1      29.259  44.591   5.111  0.00  0.00     0.311 P 
ATOM     37  OAD 364 d   1      29.039  44.884   3.544  0.00  0.00    -0.637 OA
ATOM     38  OAE 364 d   1      30.759  44.024   5.238  0.00  0.00    -0.637 OA
ATOM     39  OAA 364 d   1      28.257  43.644   5.650  0.00  0.00    -0.637 OA
ENDBRANCH  35  36
BRANCH  35  40
ATOM     40  PBC 364 d   1      27.566  47.045   5.907  0.00  0.00     0.311 P 
ATOM     41  OAF 364 d   1      26.477  46.017   6.500  0.00  0.00    -0.637 OA
ATOM     42  OAG 364 d   1      27.615  48.279   6.942  0.00  0.00    -0.637 OA
ATOM     43  OAB 364 d   1      27.242  47.504   4.538  0.00  0.00    -0.637 OA
ENDBRANCH  35  40
BRANCH  35  44
ATOM     44  OAC 364 d   1      30.186  47.117   5.364  0.00  0.00    -0.364 OA
ATOM     45  H16 364 d   1      30.182  47.955   5.811  0.00  0.00     0.212 HD
ENDBRANCH  35  44
ENDBRANCH  32  35
ENDBRANCH   6  32
TORSDOF 7
