REMARK  0 active torsions:
REMARK  status: ('A' for Active; 'I' for Inactive)
ROOT
ATOM      1  C1  A25 d   1      -0.722   8.062 -18.409  0.00  0.00    -0.047 A 
ATOM      2  C2  A25 d   1      -2.089   8.499 -18.299  0.00  0.00     0.095 A 
ATOM      3  C3  A25 d   1      -2.522   9.635 -19.055  0.00  0.00     0.071 A 
ATOM      4  C4  A25 d   1      -1.584  10.310 -19.900  0.00  0.00    -0.033 A 
ATOM      5  C5  A25 d   1      -0.253   9.853 -19.982  0.00  0.00     0.036 A 
ATOM      6  C6  A25 d   1       0.191   8.738 -19.249  0.00  0.00    -0.059 A 
ATOM      7 CL7  A25 d   1       0.858  10.687 -21.010  0.00  0.00    -0.084 Cl
ATOM      8  O8  A25 d   1      -3.067   7.888 -17.489  0.00  0.00    -0.349 OA
ATOM      9  C9  A25 d   1      -2.623   7.116 -16.381  0.00  0.00     0.026 C 
ATOM     10  N10 A25 d   1      -3.857  10.063 -18.946  0.00  0.00    -0.306 N 
ATOM     11  C11 A25 d   1      -4.491  11.021 -19.727  0.00  0.00     0.326 C 
ATOM     12  N12 A25 d   1      -5.798  11.277 -19.434  0.00  0.00    -0.292 N 
ATOM     13  O13 A25 d   1      -3.938  11.628 -20.638  0.00  0.00    -0.247 OA
ATOM     14  C14 A25 d   1      -6.640  10.753 -18.477  0.00  0.00     0.151 A 
ATOM     15  N15 A25 d   1      -6.313   9.512 -17.996  0.00  0.00    -0.204 NA
ATOM     16  C16 A25 d   1      -7.122   8.944 -17.044  0.00  0.00     0.184 A 
ATOM     17  C17 A25 d   1      -8.279   9.639 -16.568  0.00  0.00     0.053 A 
ATOM     18  N18 A25 d   1      -8.609  10.873 -17.040  0.00  0.00    -0.265 NA
ATOM     19  C19 A25 d   1      -7.798  11.426 -17.988  0.00  0.00     0.046 A 
ATOM     20  O20 A25 d   1      -6.712   7.672 -16.614  0.00  0.00    -0.333 OA
ATOM     21  C21 A25 d   1      -6.732   7.393 -15.207  0.00  0.00     0.028 C 
ATOM     22  C22 A25 d   1      -5.423   7.865 -14.549  0.00  0.00    -0.044 C 
ATOM     23  C23 A25 d   1      -3.750   6.204 -15.910  0.00  0.00    -0.045 C 
ATOM     24  C24 A25 d   1      -4.377   6.785 -14.637  0.00  0.00    -0.061 C 
ATOM     25  H1  A25 d   1      -0.388   7.202 -17.839  0.00  0.00     0.087 H 
ATOM     26  H2  A25 d   1      -1.897  11.173 -20.477  0.00  0.00     0.089 H 
ATOM     27  H3  A25 d   1       1.219   8.402 -19.327  0.00  0.00     0.086 H 
ATOM     28  H4  A25 d   1      -2.329   7.788 -15.561  0.00  0.00     0.075 H 
ATOM     29  H5  A25 d   1      -1.759   6.505 -16.683  0.00  0.00     0.075 H 
ATOM     30  H6  A25 d   1      -4.408   9.633 -18.231  0.00  0.00     0.171 HD
ATOM     31  H7  A25 d   1      -6.221  11.969 -20.018  0.00  0.00     0.172 HD
ATOM     32  H8  A25 d   1      -8.906   9.173 -15.816  0.00  0.00     0.121 H 
ATOM     33  H9  A25 d   1      -8.041  12.406 -18.381  0.00  0.00     0.120 H 
ATOM     34  H10 A25 d   1      -6.845   6.310 -15.054  0.00  0.00     0.075 H 
ATOM     35  H11 A25 d   1      -7.580   7.919 -14.745  0.00  0.00     0.075 H 
ATOM     36  H12 A25 d   1      -5.613   8.102 -13.492  0.00  0.00     0.036 H 
ATOM     37  H13 A25 d   1      -5.060   8.765 -15.067  0.00  0.00     0.036 H 
ATOM     38  H14 A25 d   1      -3.347   5.203 -15.697  0.00  0.00     0.036 H 
ATOM     39  H15 A25 d   1      -4.516   6.131 -16.696  0.00  0.00     0.036 H 
ATOM     40  H16 A25 d   1      -4.819   5.921 -14.120  0.00  0.00     0.033 H 
ATOM     41  H17 A25 d   1      -3.527   7.167 -14.052  0.00  0.00     0.033 H 
ENDROOT
TORSDOF 0
