REMARK  5 active torsions:
REMARK  status: ('A' for Active; 'I' for Inactive)
REMARK    1  A    between atoms: C3_3  and  O3_11 
REMARK    2  A    between atoms: C4_4  and  O4_12 
REMARK    3  A    between atoms: C5_5  and  C6_6 
REMARK    4  A    between atoms: C6_6  and  O6_14 
REMARK    5  A    between atoms: C7_7  and  C8_8 
ROOT
ATOM      1  C1  NGT d   1      23.281   6.487  40.375  0.00  0.00     0.112 C 
ATOM      2  C2  NGT d   1      24.702   6.750  39.814  0.00  0.00     0.094 C 
ATOM      3  C3  NGT d   1      25.308   8.019  40.392  0.00  0.00     0.087 C 
ATOM      4  C4  NGT d   1      24.377   9.257  40.322  0.00  0.00     0.089 C 
ATOM      5  C5  NGT d   1      23.091   8.821  41.027  0.00  0.00     0.087 C 
ATOM      6  C7  NGT d   1      25.069   5.138  41.521  0.00  0.00     0.064 C 
ATOM      7  N2  NGT d   1      25.501   5.639  40.367  0.00  0.00    -0.276 NA
ATOM      8  S1  NGT d   1      23.537   5.754  42.037  0.00  0.00    -0.081 SA
ATOM      9  O5  NGT d   1      22.500   7.672  40.391  0.00  0.00    -0.363 OA
ATOM     10  H1  NGT d   1      22.766   5.754  39.736  0.00  0.00     0.104 H 
ATOM     11  H2  NGT d   1      24.706   6.773  38.714  0.00  0.00     0.085 H 
ATOM     12  H3  NGT d   1      25.525   7.822  41.452  0.00  0.00     0.090 H 
ATOM     13  H4  NGT d   1      24.165   9.510  39.273  0.00  0.00     0.091 H 
ATOM     14  H5  NGT d   1      23.347   8.557  42.064  0.00  0.00     0.090 H 
ENDROOT
BRANCH   5  15
ATOM     15  C6  NGT d   1      22.042   9.935  41.052  0.00  0.00     0.043 C 
ATOM     16  H6  NGT d   1      22.475  10.836  41.511  0.00  0.00     0.078 H 
ATOM     17  H7  NGT d   1      21.172   9.606  41.640  0.00  0.00     0.078 H 
BRANCH  15  18
ATOM     18  O6  NGT d   1      21.632  10.230  39.726  0.00  0.00    -0.398 OA
ATOM     19  H13 NGT d   1      21.258   9.451  39.331  0.00  0.00     0.209 HD
ENDBRANCH  15  18
ENDBRANCH   5  15
BRANCH   4  20
ATOM     20  O4  NGT d   1      24.968  10.403  40.964  0.00  0.00    -0.390 OA
ATOM     21  H12 NGT d   1      24.354  11.127  40.945  0.00  0.00     0.210 HD
ENDBRANCH   4  20
BRANCH   3  22
ATOM     22  O3  NGT d   1      26.579   8.358  39.710  0.00  0.00    -0.391 OA
ATOM     23  H11 NGT d   1      27.164   7.610  39.743  0.00  0.00     0.210 HD
ENDBRANCH   3  22
BRANCH   6  24
ATOM     24  C8  NGT d   1      25.722   4.033  42.300  0.00  0.00    -0.030 C 
ATOM     25  H8  NGT d   1      26.681   3.771  41.830  0.00  0.00     0.036 H 
ATOM     26  H9  NGT d   1      25.064   3.151  42.307  0.00  0.00     0.036 H 
ATOM     27  H10 NGT d   1      25.899   4.367  43.333  0.00  0.00     0.036 H 
ENDBRANCH   6  24
TORSDOF 5
