REMARK  2 active torsions:
REMARK  status: ('A' for Active; 'I' for Inactive)
REMARK    1  A    between atoms: C5_7  and  S1_12 
REMARK    2  A    between atoms: S1_12  and  N2_15 
ROOT
ATOM      1  S1  HFS d   1       8.984   9.480   1.798  0.00  0.00     0.261 S 
ATOM      2  O2  HFS d   1       8.693   8.259   1.089  0.00  0.00    -0.200 OA
ATOM      3  O3  HFS d   1       9.052  10.684   1.004  0.00  0.00    -0.200 OA
ENDROOT
BRANCH   1   4
ATOM      4  C5  HFS d   1       7.784   9.751   3.120  0.00  0.00     0.090 A 
ATOM      5  C4  HFS d   1       6.270   9.829   2.930  0.00  0.00     0.004 A 
ATOM      6  C3  HFS d   1       5.628   9.686   1.610  0.00  0.00    -0.056 A 
ATOM      7  C9  HFS d   1       5.405  10.029   4.180  0.00  0.00     0.044 A 
ATOM      8  C2  HFS d   1       4.171   9.723   1.513  0.00  0.00    -0.019 A 
ATOM      9  H3  HFS d   1       6.235   9.554   0.716  0.00  0.00     0.086 H 
ATOM     10  N1  HFS d   1       3.418   9.896   2.691  0.00  0.00    -0.333 N 
ATOM     11  H2  HFS d   1       3.676   9.619   0.548  0.00  0.00     0.111 H 
ATOM     12  C1  HFS d   1       3.929  10.053   4.008  0.00  0.00     0.256 A 
ATOM     13  H1  HFS d   1       2.423   9.910   2.590  0.00  0.00     0.168 HD
ATOM     14  O1  HFS d   1       3.214  10.101   5.001  0.00  0.00    -0.267 OA
ATOM     15  C8  HFS d   1       6.026  10.162   5.488  0.00  0.00    -0.067 A 
ATOM     16  C7  HFS d   1       7.488  10.090   5.635  0.00  0.00    -0.080 A 
ATOM     17  H6  HFS d   1       5.406  10.316   6.364  0.00  0.00     0.085 H 
ATOM     18  C6  HFS d   1       8.348   9.882   4.476  0.00  0.00    -0.059 A 
ATOM     19  H5  HFS d   1       7.932  10.193   6.619  0.00  0.00     0.083 H 
ATOM     20  H4  HFS d   1       9.422   9.823   4.614  0.00  0.00     0.085 H 
ENDBRANCH   1   4
BRANCH   1  21
ATOM     21  N2  HFS d   1      10.627   9.153   2.463  0.00  0.00    -0.305 N 
ATOM     22  C10 HFS d   1      11.500  10.178   3.111  0.00  0.00     0.007 C 
ATOM     23  C11 HFS d   1      12.705  10.475   2.223  0.00  0.00    -0.027 C 
ATOM     24  H7  HFS d   1      11.849   9.798   4.082  0.00  0.00     0.065 H 
ATOM     25  H8  HFS d   1      10.924  11.102   3.264  0.00  0.00     0.065 H 
ATOM     26  C12 HFS d   1      13.705   9.315   2.228  0.00  0.00     0.083 C 
ATOM     27  H9  HFS d   1      13.207  11.381   2.593  0.00  0.00     0.037 H 
ATOM     28  H10 HFS d   1      12.357  10.643   1.193  0.00  0.00     0.037 H 
ATOM     29  N3  HFS d   1      13.175   8.111   1.549  0.00  0.00    -0.074 N 
ATOM     30  H11 HFS d   1      13.942   9.057   3.271  0.00  0.00     0.075 H 
ATOM     31  H12 HFS d   1      14.622   9.637   1.712  0.00  0.00     0.075 H 
ATOM     32  C13 HFS d   1      12.406   7.295   2.517  0.00  0.00     0.097 C 
ATOM     33  H13 HFS d   1      13.941   7.566   1.185  0.00  0.00     0.277 HD
ATOM     34  H14 HFS d   1      12.572   8.391   0.792  0.00  0.00     0.277 HD
ATOM     35  C14 HFS d   1      10.979   7.752   2.826  0.00  0.00     0.028 C 
ATOM     36  H15 HFS d   1      12.965   7.288   3.464  0.00  0.00     0.078 H 
ATOM     37  H16 HFS d   1      12.348   6.272   2.118  0.00  0.00     0.078 H 
ATOM     38  H17 HFS d   1      10.292   7.086   2.284  0.00  0.00     0.067 H 
ATOM     39  H18 HFS d   1      10.821   7.639   3.909  0.00  0.00     0.067 H 
ENDBRANCH   1  21
TORSDOF 2
