REMARK WARNING: 32 MAX_TORS EXCEEDED!!!
REMARK  47 active torsions:
REMARK  status: ('A' for Active; 'I' for Inactive)
REMARK    1  A    between atoms: C1_1  and  O1_7 
REMARK    2  A    between atoms: C2_2  and  O2_8 
REMARK    3  A    between atoms: C3_3  and  O3_9 
REMARK    4  A    between atoms: C4_4  and  O4_10 
REMARK    5  A    between atoms: C5_5  and  C6_6 
REMARK    6  A    between atoms: C6_6  and  O6_12 
REMARK    7  A    between atoms: O1_7  and  C1_13 
REMARK    8  A    between atoms: C1_13  and  C2_14 
REMARK    9  A    between atoms: C2_14  and  N2_15 
REMARK   10  A    between atoms: C2_14  and  C3_16 
REMARK   11  A    between atoms: C3_16  and  O3_17 
REMARK   12  A    between atoms: C3_16  and  C4_18 
REMARK   13  A    between atoms: C5_19  and  C6_20 
REMARK   14  A    between atoms: C6_20  and  C7_21 
REMARK   15  A    between atoms: C7_21  and  C8_22 
REMARK   16  A    between atoms: C8_22  and  C9_23 
REMARK   17  A    between atoms: C9_23  and  C10_24 
REMARK   18  A    between atoms: C10_24  and  C11_25 
REMARK   19  A    between atoms: C11_25  and  C12_26 
REMARK   20  A    between atoms: C12_26  and  C13_27 
REMARK   21  A    between atoms: C13_27  and  C14_28 
REMARK   22  A    between atoms: C14_28  and  C15_29 
REMARK   23  A    between atoms: C15_29  and  C16_30 
REMARK   24  A    between atoms: C16_30  and  C17_31 
REMARK   25  A    between atoms: C17_31  and  C18_32 
REMARK   26  A    between atoms: C1_34  and  C2_35 
REMARK   27  A    between atoms: C2_35  and  C3_36 
REMARK   28  A    between atoms: C3_36  and  C4_37 
REMARK   29  A    between atoms: C4_37  and  C5_38 
REMARK   30  A    between atoms: C5_38  and  C6_39 
REMARK   31  A    between atoms: C6_39  and  C7_40 
REMARK   32  A    between atoms: C7_40  and  C8_41 
REMARK   33  A    between atoms: C8_41  and  C9_42 
REMARK   34  A    between atoms: C9_42  and  C10_43 
REMARK   35  A    between atoms: C10_43  and  C11_44 
REMARK   36  A    between atoms: C11_44  and  C12_45 
REMARK   37  A    between atoms: C12_45  and  C13_46 
REMARK   38  A    between atoms: C13_46  and  C14_47 
REMARK   39  A    between atoms: C14_47  and  C15_48 
REMARK   40  A    between atoms: C16_49  and  C17_50 
REMARK   41  A    between atoms: C17_50  and  C18_51 
REMARK   42  A    between atoms: C18_51  and  C19_52 
REMARK   43  A    between atoms: C19_52  and  C20_53 
REMARK   44  A    between atoms: C20_53  and  C21_54 
REMARK   45  A    between atoms: C21_54  and  C22_55 
REMARK   46  A    between atoms: C22_55  and  C23_56 
REMARK   47  A    between atoms: C23_56  and  C24_57 
ROOT
ATOM      1  H14 GAL d   1      21.522  -3.775  19.318  0.00  0.00     0.080 H 
ATOM      2  C2  SPH d   1      21.458  -2.726  19.643  0.00  0.00     0.059 C 
ENDROOT
BRANCH   2   3
ATOM      3  C1  SPH d   1      22.543  -1.921  18.912  0.00  0.00     0.044 C 
ATOM      4  H12 GAL d   1      23.536  -2.291  19.208  0.00  0.00     0.077 H 
ATOM      5  H13 GAL d   1      22.417  -2.039  17.826  0.00  0.00     0.077 H 
BRANCH   3   6
ATOM      6  O1  GAL d   1      22.433  -0.614  19.239  0.00  0.00    -0.356 OA
BRANCH   6   7
ATOM      7  C1  GAL d   1      22.944   0.382  18.407  0.00  0.00     0.158 C 
ATOM      8  C2  GAL d   1      22.362   1.750  18.772  0.00  0.00     0.110 C 
ATOM      9  C3  GAL d   1      22.967   2.840  17.878  0.00  0.00     0.092 C 
ATOM     10  H2  GAL d   1      22.582   1.988  19.823  0.00  0.00     0.094 H 
ATOM     11  C4  GAL d   1      24.495   2.771  17.901  0.00  0.00     0.090 C 
ATOM     12  H3  GAL d   1      22.611   2.692  16.848  0.00  0.00     0.091 H 
ATOM     13  C5  GAL d   1      24.929   1.339  17.585  0.00  0.00     0.089 C 
ATOM     14  H4  GAL d   1      24.909   3.443  17.135  0.00  0.00     0.091 H 
ATOM     15  O5  GAL d   1      24.361   0.376  18.450  0.00  0.00    -0.348 OA
ATOM     16  H5  GAL d   1      24.570   1.116  16.570  0.00  0.00     0.090 H 
ATOM     17  H1  GAL d   1      22.638   0.154  17.375  0.00  0.00     0.133 H 
BRANCH   8  18
ATOM     18  O2  GAL d   1      20.969   1.633  18.589  0.00  0.00    -0.388 OA
ATOM     19  H8  GAL d   1      20.632   0.951  19.158  0.00  0.00     0.210 HD
ENDBRANCH   8  18
BRANCH   9  20
ATOM     20  O3  GAL d   1      22.580   4.115  18.326  0.00  0.00    -0.390 OA
ATOM     21  H9  GAL d   1      21.632   4.178  18.319  0.00  0.00     0.210 HD
ENDBRANCH   9  20
BRANCH  11  22
ATOM     22  O4  GAL d   1      24.929   3.209  19.182  0.00  0.00    -0.390 OA
ATOM     23  H10 GAL d   1      25.878   3.178  19.222  0.00  0.00     0.210 HD
ENDBRANCH  11  22
BRANCH  13  24
ATOM     24  C6  GAL d   1      26.460   1.189  17.577  0.00  0.00     0.043 C 
ATOM     25  H6  GAL d   1      26.840   1.239  18.608  0.00  0.00     0.078 H 
ATOM     26  H7  GAL d   1      26.907   1.999  16.982  0.00  0.00     0.078 H 
BRANCH  24  27
ATOM     27  O6  GAL d   1      26.798  -0.057  17.008  0.00  0.00    -0.398 OA
ATOM     28  H11 GAL d   1      26.467  -0.098  16.118  0.00  0.00     0.209 HD
ENDBRANCH  24  27
ENDBRANCH  13  24
ENDBRANCH   6   7
ENDBRANCH   3   6
ENDBRANCH   2   3
BRANCH   2  29
ATOM     29  N2  SPH d   1      20.208  -2.171  19.154  0.00  0.00    -0.362 N 
ATOM     30  C1  NER d   1      19.173  -2.664  18.632  0.00  0.00     0.151 C 
ATOM     31  O1  NER d   1      19.281  -4.082  18.461  0.00  0.00    -0.177 OA
ATOM     32  H15 GAL d   1      20.158  -1.177  19.254  0.00  0.00     0.162 HD
BRANCH  30  33
ATOM     33  C2  NER d   1      17.730  -2.256  18.348  0.00  0.00    -0.003 C 
ATOM     34  H47 GAL d   1      17.399  -2.732  17.413  0.00  0.00     0.045 H 
ATOM     35  H48 GAL d   1      17.680  -1.162  18.240  0.00  0.00     0.045 H 
BRANCH  33  36
ATOM     36  C3  NER d   1      16.808  -2.688  19.481  0.00  0.00    -0.058 C 
ATOM     37  H49 GAL d   1      16.985  -2.073  20.376  0.00  0.00     0.033 H 
ATOM     38  H50 GAL d   1      16.972  -3.748  19.726  0.00  0.00     0.033 H 
BRANCH  36  39
ATOM     39  C4  NER d   1      15.386  -2.475  18.961  0.00  0.00    -0.065 C 
ATOM     40  H51 GAL d   1      15.333  -2.812  17.915  0.00  0.00     0.033 H 
ATOM     41  H52 GAL d   1      15.143  -1.403  19.013  0.00  0.00     0.033 H 
BRANCH  39  42
ATOM     42  C5  NER d   1      14.370  -3.253  19.783  0.00  0.00    -0.065 C 
ATOM     43  H53 GAL d   1      14.273  -2.784  20.773  0.00  0.00     0.033 H 
ATOM     44  H54 GAL d   1      14.719  -4.289  19.900  0.00  0.00     0.033 H 
BRANCH  42  45
ATOM     45  C6  NER d   1      13.000  -3.260  19.095  0.00  0.00    -0.065 C 
ATOM     46  H55 GAL d   1      13.041  -3.903  18.204  0.00  0.00     0.033 H 
ATOM     47  H56 GAL d   1      12.735  -2.235  18.796  0.00  0.00     0.033 H 
BRANCH  45  48
ATOM     48  C7  NER d   1      11.952  -3.793  20.056  0.00  0.00    -0.065 C 
ATOM     49  H57 GAL d   1      10.995  -3.921  19.529  0.00  0.00     0.033 H 
ATOM     50  H58 GAL d   1      11.820  -3.089  20.890  0.00  0.00     0.033 H 
BRANCH  48  51
ATOM     51  C8  NER d   1      12.431  -5.134  20.586  0.00  0.00    -0.065 C 
ATOM     52  H59 GAL d   1      13.414  -5.009  21.064  0.00  0.00     0.033 H 
ATOM     53  H60 GAL d   1      12.516  -5.848  19.753  0.00  0.00     0.033 H 
BRANCH  51  54
ATOM     54  C9  NER d   1      11.435  -5.663  21.607  0.00  0.00    -0.065 C 
ATOM     55  H61 GAL d   1      10.437  -5.741  21.151  0.00  0.00     0.033 H 
ATOM     56  H62 GAL d   1      11.390  -4.986  22.473  0.00  0.00     0.033 H 
BRANCH  54  57
ATOM     57  C10 NER d   1      11.915  -7.047  22.052  0.00  0.00    -0.065 C 
ATOM     58  H63 GAL d   1      12.996  -7.003  22.252  0.00  0.00     0.033 H 
ATOM     59  H64 GAL d   1      11.721  -7.769  21.245  0.00  0.00     0.033 H 
BRANCH  57  60
ATOM     60  C11 NER d   1      11.197  -7.512  23.315  0.00  0.00    -0.065 C 
ATOM     61  H65 GAL d   1      10.264  -6.941  23.433  0.00  0.00     0.033 H 
ATOM     62  H66 GAL d   1      11.846  -7.338  24.186  0.00  0.00     0.033 H 
BRANCH  60  63
ATOM     63  C12 NER d   1      10.868  -8.999  23.222  0.00  0.00    -0.065 C 
ATOM     64  H67 GAL d   1      11.806  -9.552  23.067  0.00  0.00     0.033 H 
ATOM     65  H68 GAL d   1      10.204  -9.153  22.358  0.00  0.00     0.033 H 
BRANCH  63  66
ATOM     66  C13 NER d   1      10.179  -9.563  24.463  0.00  0.00    -0.062 C 
ATOM     67  H69 GAL d   1      10.743  -9.228  25.346  0.00  0.00     0.033 H 
ATOM     68  H70 GAL d   1      10.213 -10.661  24.401  0.00  0.00     0.033 H 
BRANCH  66  69
ATOM     69  C14 NER d   1       8.717  -9.146  24.650  0.00  0.00    -0.050 C 
ATOM     70  H71 GAL d   1       8.674  -8.050  24.727  0.00  0.00     0.038 H 
ATOM     71  H72 GAL d   1       8.343  -9.594  25.583  0.00  0.00     0.038 H 
BRANCH  69  72
ATOM     72  C15 NER d   1       7.808  -9.587  23.503  0.00  0.00    -0.107 C 
ATOM     73  C16 NER d   1       6.844  -8.875  22.909  0.00  0.00    -0.107 C 
ATOM     74  H74 GAL d   1       6.308  -9.385  22.110  0.00  0.00     0.076 H 
ATOM     75  H73 GAL d   1       7.963 -10.597  23.126  0.00  0.00     0.076 H 
BRANCH  73  76
ATOM     76  C17 NER d   1       6.393  -7.450  23.197  0.00  0.00    -0.050 C 
ATOM     77  H75 GAL d   1       7.006  -7.030  24.008  0.00  0.00     0.038 H 
ATOM     78  H76 GAL d   1       5.336  -7.456  23.501  0.00  0.00     0.038 H 
BRANCH  76  79
ATOM     79  C18 NER d   1       6.554  -6.596  21.949  0.00  0.00    -0.062 C 
ATOM     80  H77 GAL d   1       6.025  -7.081  21.115  0.00  0.00     0.033 H 
ATOM     81  H78 GAL d   1       7.624  -6.516  21.708  0.00  0.00     0.033 H 
BRANCH  79  82
ATOM     82  C19 NER d   1       5.986  -5.194  22.145  0.00  0.00    -0.065 C 
ATOM     83  H79 GAL d   1       6.187  -4.867  23.176  0.00  0.00     0.033 H 
ATOM     84  H80 GAL d   1       4.900  -5.221  21.974  0.00  0.00     0.033 H 
BRANCH  82  85
ATOM     85  C20 NER d   1       6.616  -4.200  21.177  0.00  0.00    -0.065 C 
ATOM     86  H81 GAL d   1       7.102  -4.752  20.359  0.00  0.00     0.033 H 
ATOM     87  H82 GAL d   1       7.368  -3.602  21.713  0.00  0.00     0.033 H 
BRANCH  85  88
ATOM     88  C21 NER d   1       5.563  -3.270  20.594  0.00  0.00    -0.065 C 
ATOM     89  H83 GAL d   1       4.576  -3.736  20.729  0.00  0.00     0.033 H 
ATOM     90  H84 GAL d   1       5.766  -3.146  19.520  0.00  0.00     0.033 H 
BRANCH  88  91
ATOM     91  C22 NER d   1       5.536  -1.891  21.241  0.00  0.00    -0.065 C 
ATOM     92  H85 GAL d   1       6.426  -1.323  20.934  0.00  0.00     0.033 H 
ATOM     93  H86 GAL d   1       5.529  -1.998  22.336  0.00  0.00     0.033 H 
BRANCH  91  94
ATOM     94  C23 NER d   1       4.280  -1.154  20.792  0.00  0.00    -0.069 C 
ATOM     95  H87 GAL d   1       3.741  -0.790  21.679  0.00  0.00     0.032 H 
ATOM     96  H88 GAL d   1       3.637  -1.849  20.232  0.00  0.00     0.032 H 
BRANCH  94  97
ATOM     97  C24 NER d   1       4.625   0.025  19.905  0.00  0.00    -0.077 C 
ATOM     98  H89 GAL d   1       3.700   0.536  19.598  0.00  0.00     0.027 H 
ATOM     99  H90 GAL d   1       5.161  -0.332  19.013  0.00  0.00     0.027 H 
ATOM    100  H91 GAL d   1       5.264   0.727  20.460  0.00  0.00     0.027 H 
ENDBRANCH  94  97
ENDBRANCH  91  94
ENDBRANCH  88  91
ENDBRANCH  85  88
ENDBRANCH  82  85
ENDBRANCH  79  82
ENDBRANCH  76  79
ENDBRANCH  73  76
ENDBRANCH  69  72
ENDBRANCH  66  69
ENDBRANCH  63  66
ENDBRANCH  60  63
ENDBRANCH  57  60
ENDBRANCH  54  57
ENDBRANCH  51  54
ENDBRANCH  48  51
ENDBRANCH  45  48
ENDBRANCH  42  45
ENDBRANCH  39  42
ENDBRANCH  36  39
ENDBRANCH  33  36
ENDBRANCH  30  33
ENDBRANCH   2  29
BRANCH   2 101
ATOM    101  C3  SPH d   1      21.610  -2.733  21.168  0.00  0.00     0.073 C 
ATOM    102  H16 GAL d   1      21.533  -1.684  21.491  0.00  0.00     0.092 H 
BRANCH 101 103
ATOM    103  O3  SPH d   1      22.970  -3.158  21.471  0.00  0.00    -0.390 OA
ATOM    104  H17 GAL d   1      23.585  -2.550  21.078  0.00  0.00     0.210 HD
ENDBRANCH 101 103
BRANCH 101 105
ATOM    105  C4  SPH d   1      20.505  -3.467  21.949  0.00  0.00    -0.077 C 
ATOM    106  C5  SPH d   1      19.610  -2.940  22.805  0.00  0.00    -0.104 C 
ATOM    107  H19 GAL d   1      19.419  -1.872  22.708  0.00  0.00     0.076 H 
ATOM    108  H18 GAL d   1      20.440  -4.542  21.790  0.00  0.00     0.080 H 
BRANCH 106 109
ATOM    109  C6  SPH d   1      18.822  -3.681  23.911  0.00  0.00    -0.050 C 
ATOM    110  H20 GAL d   1      18.479  -4.633  23.480  0.00  0.00     0.038 H 
ATOM    111  H21 GAL d   1      17.951  -3.057  24.160  0.00  0.00     0.038 H 
BRANCH 109 112
ATOM    112  C7  SPH d   1      19.536  -4.016  25.241  0.00  0.00    -0.062 C 
ATOM    113  H22 GAL d   1      18.775  -4.034  26.035  0.00  0.00     0.033 H 
ATOM    114  H23 GAL d   1      20.260  -3.213  25.445  0.00  0.00     0.033 H 
BRANCH 112 115
ATOM    115  C8  SPH d   1      20.294  -5.355  25.285  0.00  0.00    -0.065 C 
ATOM    116  H24 GAL d   1      20.680  -5.523  24.269  0.00  0.00     0.033 H 
ATOM    117  H25 GAL d   1      19.545  -6.124  25.525  0.00  0.00     0.033 H 
BRANCH 115 118
ATOM    118  C9  SPH d   1      21.478  -5.595  26.239  0.00  0.00    -0.065 C 
ATOM    119  H26 GAL d   1      21.935  -4.616  26.445  0.00  0.00     0.033 H 
ATOM    120  H27 GAL d   1      22.201  -6.233  25.709  0.00  0.00     0.033 H 
BRANCH 118 121
ATOM    121  C10 SPH d   1      21.191  -6.256  27.587  0.00  0.00    -0.065 C 
ATOM    122  H28 GAL d   1      20.904  -7.300  27.390  0.00  0.00     0.033 H 
ATOM    123  H29 GAL d   1      20.344  -5.723  28.044  0.00  0.00     0.033 H 
BRANCH 121 124
ATOM    124  C11 SPH d   1      22.329  -6.275  28.607  0.00  0.00    -0.065 C 
ATOM    125  H30 GAL d   1      22.952  -5.380  28.460  0.00  0.00     0.033 H 
ATOM    126  H31 GAL d   1      22.937  -7.176  28.442  0.00  0.00     0.033 H 
BRANCH 124 127
ATOM    127  C12 SPH d   1      21.813  -6.285  30.052  0.00  0.00    -0.065 C 
ATOM    128  H32 GAL d   1      20.832  -6.782  30.073  0.00  0.00     0.033 H 
ATOM    129  H33 GAL d   1      21.705  -5.246  30.396  0.00  0.00     0.033 H 
BRANCH 127 130
ATOM    130  C13 SPH d   1      22.755  -7.020  31.002  0.00  0.00    -0.065 C 
ATOM    131  H34 GAL d   1      23.755  -6.565  30.944  0.00  0.00     0.033 H 
ATOM    132  H35 GAL d   1      22.816  -8.077  30.705  0.00  0.00     0.033 H 
BRANCH 130 133
ATOM    133  C14 SPH d   1      22.246  -6.931  32.437  0.00  0.00    -0.065 C 
ATOM    134  H36 GAL d   1      21.167  -7.143  32.441  0.00  0.00     0.033 H 
ATOM    135  H37 GAL d   1      22.421  -5.911  32.809  0.00  0.00     0.033 H 
BRANCH 133 136
ATOM    136  C15 SPH d   1      22.940  -7.917  33.374  0.00  0.00    -0.065 C 
ATOM    137  H38 GAL d   1      23.812  -7.417  33.821  0.00  0.00     0.033 H 
ATOM    138  H39 GAL d   1      23.276  -8.781  32.783  0.00  0.00     0.033 H 
BRANCH 136 139
ATOM    139  C16 SPH d   1      22.039  -8.424  34.505  0.00  0.00    -0.065 C 
ATOM    140  H40 GAL d   1      22.480  -9.350  34.903  0.00  0.00     0.033 H 
ATOM    141  H41 GAL d   1      21.048  -8.642  34.080  0.00  0.00     0.033 H 
BRANCH 139 142
ATOM    142  C17 SPH d   1      21.851  -7.453  35.667  0.00  0.00    -0.069 C 
ATOM    143  H42 GAL d   1      20.937  -7.728  36.214  0.00  0.00     0.032 H 
ATOM    144  H43 GAL d   1      21.745  -6.435  35.264  0.00  0.00     0.032 H 
BRANCH 142 145
ATOM    145  C18 SPH d   1      23.018  -7.476  36.628  0.00  0.00    -0.077 C 
ATOM    146  H44 GAL d   1      22.835  -6.762  37.444  0.00  0.00     0.027 H 
ATOM    147  H45 GAL d   1      23.938  -7.195  36.094  0.00  0.00     0.027 H 
ATOM    148  H46 GAL d   1      23.130  -8.488  37.044  0.00  0.00     0.027 H 
ENDBRANCH 142 145
ENDBRANCH 139 142
ENDBRANCH 136 139
ENDBRANCH 133 136
ENDBRANCH 130 133
ENDBRANCH 127 130
ENDBRANCH 124 127
ENDBRANCH 121 124
ENDBRANCH 118 121
ENDBRANCH 115 118
ENDBRANCH 112 115
ENDBRANCH 109 112
ENDBRANCH 106 109
ENDBRANCH 101 105
ENDBRANCH   2 101
TORSDOF 47
