REMARK WARNING: 32 MAX_TORS EXCEEDED!!!
REMARK  40 active torsions:
REMARK  status: ('A' for Active; 'I' for Inactive)
REMARK    1  A    between atoms: C1_1  and  O1_7 
REMARK    2  A    between atoms: C2_2  and  O2_8 
REMARK    3  A    between atoms: C3_3  and  O3_9 
REMARK    4  A    between atoms: C4_4  and  O4_10 
REMARK    5  A    between atoms: C5_5  and  C6_6 
REMARK    6  A    between atoms: C6_6  and  O6_12 
REMARK    7  A    between atoms: O1_7  and  C1_13 
REMARK    8  A    between atoms: C1_13  and  C2_14 
REMARK    9  A    between atoms: C2_14  and  N2_15 
REMARK   10  A    between atoms: C2_14  and  C3_16 
REMARK   11  A    between atoms: C3_16  and  O3_17 
REMARK   12  A    between atoms: C3_16  and  C4_18 
REMARK   13  A    between atoms: C5_19  and  C6_20 
REMARK   14  A    between atoms: C6_20  and  C7_21 
REMARK   15  A    between atoms: C7_21  and  C8_22 
REMARK   16  A    between atoms: C8_22  and  C9_23 
REMARK   17  A    between atoms: C9_23  and  C10_24 
REMARK   18  A    between atoms: C10_24  and  C11_25 
REMARK   19  A    between atoms: C11_25  and  C12_26 
REMARK   20  A    between atoms: C12_26  and  C13_27 
REMARK   21  A    between atoms: C13_27  and  C14_28 
REMARK   22  A    between atoms: C14_28  and  C15_29 
REMARK   23  A    between atoms: C15_29  and  C16_30 
REMARK   24  A    between atoms: C16_30  and  C17_31 
REMARK   25  A    between atoms: C17_31  and  C18_32 
REMARK   26  A    between atoms: C1_33  and  C2_34 
REMARK   27  A    between atoms: C2_34  and  C3_35 
REMARK   28  A    between atoms: C3_35  and  C4_36 
REMARK   29  A    between atoms: C4_36  and  C5_37 
REMARK   30  A    between atoms: C5_37  and  C6_38 
REMARK   31  A    between atoms: C6_38  and  C7_39 
REMARK   32  A    between atoms: C7_39  and  C8_40 
REMARK   33  A    between atoms: C8_40  and  C9_41 
REMARK   34  A    between atoms: C10_42  and  C11_43 
REMARK   35  A    between atoms: C11_43  and  C12_44 
REMARK   36  A    between atoms: C13_45  and  C14_46 
REMARK   37  A    between atoms: C14_46  and  C15_47 
REMARK   38  A    between atoms: C15_47  and  C16_48 
REMARK   39  A    between atoms: C16_48  and  C17_49 
REMARK   40  A    between atoms: C17_49  and  C18_50 
ROOT
ATOM      1  H14 GAL d   1      21.681  -3.864  19.276  0.00  0.00     0.080 H 
ATOM      2  C2  SPH d   1      21.499  -2.813  19.544  0.00  0.00     0.059 C 
ENDROOT
BRANCH   2   3
ATOM      3  C1  SPH d   1      22.550  -1.935  18.880  0.00  0.00     0.044 C 
ATOM      4  H12 GAL d   1      23.543  -2.258  19.225  0.00  0.00     0.077 H 
ATOM      5  H13 GAL d   1      22.479  -2.068  17.790  0.00  0.00     0.077 H 
BRANCH   3   6
ATOM      6  O1  GAL d   1      22.404  -0.622  19.162  0.00  0.00    -0.356 OA
BRANCH   6   7
ATOM      7  C1  GAL d   1      22.898   0.390  18.312  0.00  0.00     0.158 C 
ATOM      8  C2  GAL d   1      22.277   1.735  18.658  0.00  0.00     0.110 C 
ATOM      9  C3  GAL d   1      22.933   2.813  17.787  0.00  0.00     0.092 C 
ATOM     10  H2  GAL d   1      22.460   1.965  19.718  0.00  0.00     0.094 H 
ATOM     11  C4  GAL d   1      24.469   2.758  17.853  0.00  0.00     0.090 C 
ATOM     12  H3  GAL d   1      22.642   2.618  16.744  0.00  0.00     0.091 H 
ATOM     13  C5  GAL d   1      24.913   1.346  17.493  0.00  0.00     0.089 C 
ATOM     14  H4  GAL d   1      24.893   3.476  17.135  0.00  0.00     0.091 H 
ATOM     15  O5  GAL d   1      24.309   0.404  18.369  0.00  0.00    -0.348 OA
ATOM     16  H5  GAL d   1      24.576   1.134  16.468  0.00  0.00     0.090 H 
ATOM     17  H1  GAL d   1      22.606   0.146  17.280  0.00  0.00     0.133 H 
BRANCH   8  18
ATOM     18  O2  GAL d   1      20.872   1.674  18.430  0.00  0.00    -0.388 OA
ATOM     19  H8  GAL d   1      20.492   1.000  18.981  0.00  0.00     0.210 HD
ENDBRANCH   8  18
BRANCH   9  20
ATOM     20  O3  GAL d   1      22.453   4.084  18.132  0.00  0.00    -0.390 OA
ATOM     21  H9  GAL d   1      21.504   4.087  18.082  0.00  0.00     0.210 HD
ENDBRANCH   9  20
BRANCH  11  22
ATOM     22  O4  GAL d   1      24.928   3.075  19.159  0.00  0.00    -0.390 OA
ATOM     23  H10 GAL d   1      24.562   2.457  19.781  0.00  0.00     0.210 HD
ENDBRANCH  11  22
BRANCH  13  24
ATOM     24  C6  GAL d   1      26.438   1.195  17.534  0.00  0.00     0.043 C 
ATOM     25  H6  GAL d   1      26.793   1.170  18.575  0.00  0.00     0.078 H 
ATOM     26  H7  GAL d   1      26.920   2.029  17.002  0.00  0.00     0.078 H 
BRANCH  24  27
ATOM     27  O6  GAL d   1      26.721  -0.032  16.887  0.00  0.00    -0.398 OA
ATOM     28  H11 GAL d   1      26.401   0.002  15.993  0.00  0.00     0.209 HD
ENDBRANCH  24  27
ENDBRANCH  13  24
ENDBRANCH   6   7
ENDBRANCH   3   6
ENDBRANCH   2   3
BRANCH   2  29
ATOM     29  N2  SPH d   1      20.200  -2.428  19.032  0.00  0.00    -0.362 N 
ATOM     30  C1  EIC d   1      19.001  -2.652  18.612  0.00  0.00     0.151 C 
ATOM     31  O1  EIC d   1      19.279  -4.016  18.239  0.00  0.00    -0.177 OA
ATOM     32  H15 GAL d   1      20.274  -1.433  18.969  0.00  0.00     0.162 HD
BRANCH  30  33
ATOM     33  C2  EIC d   1      17.547  -2.323  18.264  0.00  0.00    -0.003 C 
ATOM     34  H47 GAL d   1      17.230  -2.935  17.407  0.00  0.00     0.045 H 
ATOM     35  H48 GAL d   1      17.466  -1.257  18.004  0.00  0.00     0.045 H 
BRANCH  33  36
ATOM     36  C3  EIC d   1      16.645  -2.622  19.461  0.00  0.00    -0.058 C 
ATOM     37  H49 GAL d   1      16.831  -1.865  20.237  0.00  0.00     0.033 H 
ATOM     38  H50 GAL d   1      16.900  -3.618  19.851  0.00  0.00     0.033 H 
BRANCH  36  39
ATOM     39  C4  EIC d   1      15.151  -2.603  19.109  0.00  0.00    -0.065 C 
ATOM     40  H51 GAL d   1      15.028  -2.786  18.031  0.00  0.00     0.033 H 
ATOM     41  H52 GAL d   1      14.729  -1.620  19.364  0.00  0.00     0.033 H 
BRANCH  39  42
ATOM     42  C5  EIC d   1      14.417  -3.687  19.893  0.00  0.00    -0.065 C 
ATOM     43  H53 GAL d   1      14.499  -3.446  20.963  0.00  0.00     0.033 H 
ATOM     44  H54 GAL d   1      14.916  -4.647  19.694  0.00  0.00     0.033 H 
BRANCH  42  45
ATOM     45  C6  EIC d   1      12.934  -3.848  19.558  0.00  0.00    -0.065 C 
ATOM     46  H55 GAL d   1      12.820  -4.218  18.528  0.00  0.00     0.033 H 
ATOM     47  H56 GAL d   1      12.419  -2.881  19.659  0.00  0.00     0.033 H 
BRANCH  45  48
ATOM     48  C7  EIC d   1      12.341  -4.864  20.549  0.00  0.00    -0.062 C 
ATOM     49  H57 GAL d   1      12.965  -4.889  21.454  0.00  0.00     0.033 H 
ATOM     50  H58 GAL d   1      12.333  -5.859  20.081  0.00  0.00     0.033 H 
BRANCH  48  51
ATOM     51  C8  EIC d   1      10.918  -4.486  20.937  0.00  0.00    -0.050 C 
ATOM     52  H59 GAL d   1      10.321  -4.476  20.013  0.00  0.00     0.038 H 
ATOM     53  H60 GAL d   1      10.955  -3.472  21.361  0.00  0.00     0.038 H 
BRANCH  51  54
ATOM     54  C9  EIC d   1      10.180  -5.371  21.944  0.00  0.00    -0.106 C 
ATOM     55  C10 EIC d   1      10.541  -6.527  22.545  0.00  0.00    -0.103 C 
ATOM     56  H62 GAL d   1       9.811  -6.947  23.235  0.00  0.00     0.076 H 
ATOM     57  H61 GAL d   1       9.193  -5.006  22.225  0.00  0.00     0.076 H 
BRANCH  55  58
ATOM     58  C11 EIC d   1      11.830  -7.320  22.387  0.00  0.00    -0.035 C 
ATOM     59  H63 GAL d   1      12.675  -6.624  22.279  0.00  0.00     0.044 H 
ATOM     60  H64 GAL d   1      11.760  -7.954  21.491  0.00  0.00     0.044 H 
BRANCH  58  61
ATOM     61  C12 EIC d   1      12.055  -8.197  23.605  0.00  0.00    -0.103 C 
ATOM     62  C13 EIC d   1      11.330  -9.282  23.899  0.00  0.00    -0.106 C 
ATOM     63  H66 GAL d   1      11.583  -9.836  24.802  0.00  0.00     0.076 H 
ATOM     64  H65 GAL d   1      12.861  -7.925  24.285  0.00  0.00     0.076 H 
BRANCH  62  65
ATOM     65  C14 EIC d   1      10.179  -9.788  23.054  0.00  0.00    -0.050 C 
ATOM     66  H67 GAL d   1      10.257 -10.880  22.952  0.00  0.00     0.038 H 
ATOM     67  H68 GAL d   1      10.228  -9.323  22.058  0.00  0.00     0.038 H 
BRANCH  65  68
ATOM     68  C15 EIC d   1       8.842  -9.436  23.710  0.00  0.00    -0.062 C 
ATOM     69  H69 GAL d   1       9.028  -8.717  24.522  0.00  0.00     0.033 H 
ATOM     70  H70 GAL d   1       8.403 -10.355  24.127  0.00  0.00     0.033 H 
BRANCH  68  71
ATOM     71  C16 EIC d   1       7.840  -8.817  22.730  0.00  0.00    -0.065 C 
ATOM     72  H71 GAL d   1       7.377  -9.625  22.145  0.00  0.00     0.033 H 
ATOM     73  H72 GAL d   1       8.383  -8.139  22.055  0.00  0.00     0.033 H 
BRANCH  71  74
ATOM     74  C17 EIC d   1       6.731  -8.024  23.430  0.00  0.00    -0.069 C 
ATOM     75  H73 GAL d   1       7.152  -7.514  24.309  0.00  0.00     0.032 H 
ATOM     76  H74 GAL d   1       5.941  -8.718  23.752  0.00  0.00     0.032 H 
BRANCH  74  77
ATOM     77  C18 EIC d   1       6.133  -6.990  22.496  0.00  0.00    -0.077 C 
ATOM     78  H75 GAL d   1       5.341  -6.436  23.021  0.00  0.00     0.027 H 
ATOM     79  H76 GAL d   1       5.706  -7.494  21.616  0.00  0.00     0.027 H 
ATOM     80  H77 GAL d   1       6.918  -6.290  22.173  0.00  0.00     0.027 H 
ENDBRANCH  74  77
ENDBRANCH  71  74
ENDBRANCH  68  71
ENDBRANCH  65  68
ENDBRANCH  62  65
ENDBRANCH  58  61
ENDBRANCH  55  58
ENDBRANCH  51  54
ENDBRANCH  48  51
ENDBRANCH  45  48
ENDBRANCH  42  45
ENDBRANCH  39  42
ENDBRANCH  36  39
ENDBRANCH  33  36
ENDBRANCH  30  33
ENDBRANCH   2  29
BRANCH   2  81
ATOM     81  C3  SPH d   1      21.617  -2.679  21.057  0.00  0.00     0.073 C 
ATOM     82  H16 GAL d   1      21.530  -1.620  21.340  0.00  0.00     0.092 H 
BRANCH  81  83
ATOM     83  O3  SPH d   1      22.906  -3.195  21.413  0.00  0.00    -0.390 OA
ATOM     84  H17 GAL d   1      23.023  -3.131  22.354  0.00  0.00     0.210 HD
ENDBRANCH  81  83
BRANCH  81  85
ATOM     85  C4  SPH d   1      20.589  -3.483  21.810  0.00  0.00    -0.077 C 
ATOM     86  C5  SPH d   1      19.652  -2.883  22.540  0.00  0.00    -0.104 C 
ATOM     87  H19 GAL d   1      19.596  -1.796  22.578  0.00  0.00     0.076 H 
ATOM     88  H18 GAL d   1      20.613  -4.570  21.756  0.00  0.00     0.080 H 
BRANCH  86  89
ATOM     89  C6  SPH d   1      18.665  -3.727  23.317  0.00  0.00    -0.050 C 
ATOM     90  H20 GAL d   1      18.477  -4.669  22.781  0.00  0.00     0.038 H 
ATOM     91  H21 GAL d   1      17.719  -3.178  23.438  0.00  0.00     0.038 H 
BRANCH  89  92
ATOM     92  C7  SPH d   1      19.277  -4.027  24.704  0.00  0.00    -0.062 C 
ATOM     93  H22 GAL d   1      18.463  -4.088  25.441  0.00  0.00     0.033 H 
ATOM     94  H23 GAL d   1      19.955  -3.204  24.974  0.00  0.00     0.033 H 
BRANCH  92  95
ATOM     95  C8  SPH d   1      20.072  -5.351  24.737  0.00  0.00    -0.065 C 
ATOM     96  H24 GAL d   1      20.480  -5.533  23.732  0.00  0.00     0.033 H 
ATOM     97  H25 GAL d   1      19.379  -6.162  25.004  0.00  0.00     0.033 H 
BRANCH  95  98
ATOM     98  C9  SPH d   1      21.231  -5.364  25.733  0.00  0.00    -0.065 C 
ATOM     99  H26 GAL d   1      21.379  -4.346  26.122  0.00  0.00     0.033 H 
ATOM    100  H27 GAL d   1      22.143  -5.695  25.215  0.00  0.00     0.033 H 
BRANCH  98 101
ATOM    101  C10 SPH d   1      20.957  -6.302  26.898  0.00  0.00    -0.065 C 
ATOM    102  H28 GAL d   1      20.840  -7.322  26.504  0.00  0.00     0.033 H 
ATOM    103  H29 GAL d   1      20.022  -5.988  27.386  0.00  0.00     0.033 H 
BRANCH 101 104
ATOM    104  C11 SPH d   1      22.070  -6.311  27.944  0.00  0.00    -0.065 C 
ATOM    105  H30 GAL d   1      22.663  -5.391  27.836  0.00  0.00     0.033 H 
ATOM    106  H31 GAL d   1      22.714  -7.185  27.766  0.00  0.00     0.033 H 
BRANCH 104 107
ATOM    107  C12 SPH d   1      21.531  -6.382  29.379  0.00  0.00    -0.065 C 
ATOM    108  H32 GAL d   1      20.669  -7.065  29.395  0.00  0.00     0.033 H 
ATOM    109  H33 GAL d   1      21.206  -5.375  29.681  0.00  0.00     0.033 H 
BRANCH 107 110
ATOM    110  C13 SPH d   1      22.569  -6.883  30.391  0.00  0.00    -0.065 C 
ATOM    111  H34 GAL d   1      23.433  -6.203  30.390  0.00  0.00     0.033 H 
ATOM    112  H35 GAL d   1      22.897  -7.893  30.104  0.00  0.00     0.033 H 
BRANCH 110 113
ATOM    113  C14 SPH d   1      21.967  -6.930  31.798  0.00  0.00    -0.065 C 
ATOM    114  H36 GAL d   1      21.101  -7.609  31.785  0.00  0.00     0.033 H 
ATOM    115  H37 GAL d   1      21.635  -5.917  32.070  0.00  0.00     0.033 H 
BRANCH 113 116
ATOM    116  C15 SPH d   1      22.953  -7.420  32.859  0.00  0.00    -0.065 C 
ATOM    117  H38 GAL d   1      23.334  -6.544  33.404  0.00  0.00     0.033 H 
ATOM    118  H39 GAL d   1      23.786  -7.923  32.347  0.00  0.00     0.033 H 
BRANCH 116 119
ATOM    119  C16 SPH d   1      22.359  -8.396  33.878  0.00  0.00    -0.065 C 
ATOM    120  H40 GAL d   1      23.175  -8.987  34.319  0.00  0.00     0.033 H 
ATOM    121  H41 GAL d   1      21.659  -9.067  33.359  0.00  0.00     0.033 H 
BRANCH 119 122
ATOM    122  C17 SPH d   1      21.612  -7.680  34.997  0.00  0.00    -0.069 C 
ATOM    123  H42 GAL d   1      20.830  -8.347  35.388  0.00  0.00     0.032 H 
ATOM    124  H43 GAL d   1      21.148  -6.769  34.591  0.00  0.00     0.032 H 
BRANCH 122 125
ATOM    125  C18 SPH d   1      22.542  -7.294  36.131  0.00  0.00    -0.077 C 
ATOM    126  H44 GAL d   1      21.968  -6.781  36.917  0.00  0.00     0.027 H 
ATOM    127  H45 GAL d   1      23.325  -6.622  35.751  0.00  0.00     0.027 H 
ATOM    128  H46 GAL d   1      23.007  -8.199  36.548  0.00  0.00     0.027 H 
ENDBRANCH 122 125
ENDBRANCH 119 122
ENDBRANCH 116 119
ENDBRANCH 113 116
ENDBRANCH 110 113
ENDBRANCH 107 110
ENDBRANCH 104 107
ENDBRANCH 101 104
ENDBRANCH  98 101
ENDBRANCH  95  98
ENDBRANCH  92  95
ENDBRANCH  89  92
ENDBRANCH  86  89
ENDBRANCH  81  85
ENDBRANCH   2  81
TORSDOF 40
