REMARK  3 active torsions:
REMARK  status: ('A' for Active; 'I' for Inactive)
REMARK    1  A    between atoms: S1_3  and  C1_2 
REMARK    2  A    between atoms: CA3_6  and  S1_3 
REMARK    3  A    between atoms: CC5_20  and  CB4_13 
ROOT
ATOM      1  CA1 SB2 d   1      -2.457   5.380  22.995  0.00  0.00    -0.068 A 
ATOM      2  CA2 SB2 d   1      -2.038   6.673  23.485  0.00  0.00    -0.064 A 
ATOM      3  CA3 SB2 d   1      -2.204   7.844  22.625  0.00  0.00     0.031 A 
ATOM      4  CA4 SB2 d   1      -2.788   7.750  21.282  0.00  0.00    -0.064 A 
ATOM      5  CA5 SB2 d   1      -3.206   6.446  20.802  0.00  0.00    -0.068 A 
ATOM      6  CA6 SB2 d   1      -3.053   5.214  21.642  0.00  0.00     0.010 A 
ATOM      7  NC1 SB2 d   1      -3.278   2.793  21.987  0.00  0.00    -0.227 NA
ATOM      8  CC2 SB2 d   1      -3.449   3.912  21.177  0.00  0.00     0.139 A 
ATOM      9  NC3 SB2 d   1      -4.012   3.694  19.922  0.00  0.00    -0.338 N 
ATOM     10  CC4 SB2 d   1      -4.227   2.295  19.907  0.00  0.00     0.074 A 
ATOM     11  CC5 SB2 d   1      -3.757   1.724  21.220  0.00  0.00     0.097 A 
ATOM     12  CD1 SB2 d   1      -4.123   1.792  17.469  0.00  0.00    -0.068 A 
ATOM     13  CD2 SB2 d   1      -4.641   1.172  16.276  0.00  0.00    -0.045 A 
ATOM     14  CD3 SB2 d   1      -5.855   0.382  16.330  0.00  0.00     0.116 A 
ATOM     15  CD4 SB2 d   1      -6.579   0.200  17.601  0.00  0.00    -0.045 A 
ATOM     16  CD5 SB2 d   1      -6.061   0.824  18.811  0.00  0.00    -0.068 A 
ATOM     17  CD6 SB2 d   1      -4.805   1.642  18.762  0.00  0.00    -0.007 A 
ATOM     18  FD3 SB2 d   1      -6.298  -0.180  15.172  0.00  0.00    -0.206 F 
ATOM     19  H4  SB2 d   1      -2.334   4.509  23.629  0.00  0.00     0.085 H 
ATOM     20  H5  SB2 d   1      -1.607   6.774  24.475  0.00  0.00     0.085 H 
ATOM     21  H6  SB2 d   1      -2.904   8.633  20.664  0.00  0.00     0.085 H 
ATOM     22  H7  SB2 d   1      -3.639   6.361  19.812  0.00  0.00     0.085 H 
ATOM     23  H12 SB2 d   1      -4.221   4.383  19.185  0.00  0.00     0.167 HD
ATOM     24  H13 SB2 d   1      -3.214   2.380  17.412  0.00  0.00     0.085 H 
ATOM     25  H14 SB2 d   1      -4.120   1.297  15.334  0.00  0.00     0.088 H 
ATOM     26  H15 SB2 d   1      -7.487  -0.392  17.635  0.00  0.00     0.088 H 
ATOM     27  H16 SB2 d   1      -6.586   0.697  19.751  0.00  0.00     0.085 H 
ENDROOT
BRANCH  11  28
ATOM     28  CB4 SB2 d   1      -3.721   0.353  21.769  0.00  0.00    -0.002 A 
ATOM     29  CB3 SB2 d   1      -4.170   0.044  23.163  0.00  0.00    -0.054 A 
ATOM     30  CB2 SB2 d   1      -4.095  -1.345  23.627  0.00  0.00     0.003 A 
ATOM     31  H9  SB2 d   1      -4.541   0.828  23.813  0.00  0.00     0.087 H 
ATOM     32  NB1 SB2 d   1      -3.612  -2.339  22.772  0.00  0.00    -0.273 NA
ATOM     33  H8  SB2 d   1      -4.414  -1.600  24.631  0.00  0.00     0.114 H 
ATOM     34  CB6 SB2 d   1      -3.179  -2.119  21.467  0.00  0.00     0.003 A 
ATOM     35  CB5 SB2 d   1      -3.211  -0.784  20.912  0.00  0.00    -0.054 A 
ATOM     36  H11 SB2 d   1      -2.818  -2.947  20.868  0.00  0.00     0.114 H 
ATOM     37  H10 SB2 d   1      -2.875  -0.601  19.898  0.00  0.00     0.087 H 
ENDBRANCH  11  28
BRANCH   3  38
ATOM     38  S1  SB2 d   1      -1.673   9.411  23.244  0.00  0.00     0.045 S 
ATOM     39  O2  SB2 d   1      -0.330   9.260  24.128  0.00  0.00    -0.253 OA
BRANCH  38  40
ATOM     40  C1  SB2 d   1      -1.423  10.541  21.821  0.00  0.00    -0.004 C 
ATOM     41  H1  SB2 d   1      -2.357  10.618  21.245  0.00  0.00     0.045 H 
ATOM     42  H2  SB2 d   1      -0.625  10.146  21.175  0.00  0.00     0.045 H 
ATOM     43  H3  SB2 d   1      -1.137  11.537  22.190  0.00  0.00     0.045 H 
ENDBRANCH  38  40
ENDBRANCH   3  38
TORSDOF 3
