REMARK  11 active torsions:
REMARK  status: ('A' for Active; 'I' for Inactive)
REMARK    1  A    between atoms: N3B_8  and  PG_1 
REMARK    2  A    between atoms: PB_5  and  N3B_8 
REMARK    3  A    between atoms: O3A_12  and  PB_5 
REMARK    4  A    between atoms: PA_9  and  O3A_12 
REMARK    5  A    between atoms: O5'_23  and  PA_9 
REMARK    6  A    between atoms: C1'_31  and  N9_13 
REMARK    7  A    between atoms: C6_17  and  N6_18 
REMARK    8  A    between atoms: C5'_24  and  O5'_23 
REMARK    9  A    between atoms: C4'_25  and  C5'_24 
REMARK   10  A    between atoms: C3'_27  and  O3'_28 
REMARK   11  A    between atoms: C2'_29  and  O2'_30 
ROOT
ATOM      1  C4' ANP d   1      15.009  29.514  -5.209  0.00  0.00     0.089 C 
ATOM      2  O4' ANP d   1      14.632  29.445  -6.596  0.00  0.00    -0.353 OA
ATOM      3  C3' ANP d   1      13.773  30.021  -4.517  0.00  0.00     0.091 C 
ATOM      4  C2' ANP d   1      13.194  30.898  -5.566  0.00  0.00     0.105 C 
ATOM      5  C1' ANP d   1      13.582  30.267  -6.854  0.00  0.00     0.139 C 
ATOM      6  H8  ANP d   1      15.852  30.202  -5.047  0.00  0.00     0.090 H 
ATOM      7  H9  ANP d   1      13.079  29.196  -4.298  0.00  0.00     0.091 H 
ATOM      8  H11 ANP d   1      12.100  30.957  -5.472  0.00  0.00     0.093 H 
ATOM      9  H13 ANP d   1      13.929  31.076  -7.514  0.00  0.00     0.122 H 
ENDROOT
BRANCH   1  10
ATOM     10  C5' ANP d   1      15.400  28.097  -4.786  0.00  0.00     0.058 C 
ATOM     11  H6  ANP d   1      15.548  28.058  -3.697  0.00  0.00     0.079 H 
ATOM     12  H7  ANP d   1      14.611  27.388  -5.075  0.00  0.00     0.079 H 
BRANCH  10  13
ATOM     13  O5' ANP d   1      16.632  27.766  -5.463  0.00  0.00    -0.287 OA
BRANCH  13  14
ATOM     14  PA  ANP d   1      17.173  26.257  -5.344  0.00  0.00     0.417 P 
ATOM     15  O1A ANP d   1      18.521  26.174  -6.139  0.00  0.00    -0.624 OA
ATOM     16  O2A ANP d   1      16.142  25.276  -5.807  0.00  0.00    -0.624 OA
BRANCH  14  17
ATOM     17  O3A ANP d   1      17.484  26.052  -3.780  0.00  0.00    -0.186 OA
BRANCH  17  18
ATOM     18  PB  ANP d   1      17.164  24.815  -2.786  0.00  0.00     0.379 P 
ATOM     19  O1B ANP d   1      17.718  23.632  -3.350  0.00  0.00    -0.629 OA
ATOM     20  O2B ANP d   1      15.665  24.683  -2.585  0.00  0.00    -0.629 OA
BRANCH  18  21
ATOM     21  N3B ANP d   1      17.870  25.210  -1.314  0.00  0.00    -0.218 N 
ATOM     22  H1  ANP d   1      17.459  26.001  -0.860  0.00  0.00     0.179 HD
BRANCH  21  23
ATOM     23  PG  ANP d   1      19.126  24.524  -0.479  0.00  0.00     0.381 P 
ATOM     24  O1G ANP d   1      19.507  25.489   0.610  0.00  0.00    -0.622 OA
ATOM     25  O2G ANP d   1      18.661  23.206   0.060  0.00  0.00    -0.622 OA
ATOM     26  O3G ANP d   1      20.323  24.155  -1.387  0.00  0.00    -0.622 OA
ENDBRANCH  21  23
ENDBRANCH  18  21
ENDBRANCH  17  18
ENDBRANCH  14  17
ENDBRANCH  13  14
ENDBRANCH  10  13
ENDBRANCH   1  10
BRANCH   3  27
ATOM     27  O3' ANP d   1      14.113  30.652  -3.279  0.00  0.00    -0.390 OA
ATOM     28  H10 ANP d   1      14.695  31.384  -3.447  0.00  0.00     0.210 HD
ENDBRANCH   3  27
BRANCH   5  29
ATOM     29  N9  ANP d   1      12.527  29.535  -7.610  0.00  0.00    -0.294 N 
ATOM     30  C8  ANP d   1      12.585  29.081  -8.860  0.00  0.00     0.071 A 
ATOM     31  N7  ANP d   1      11.475  28.493  -9.273  0.00  0.00    -0.236 NA
ATOM     32  H2  ANP d   1      13.469  29.185  -9.487  0.00  0.00     0.144 H 
ATOM     33  C5  ANP d   1      10.622  28.561  -8.205  0.00  0.00     0.149 A 
ATOM     34  C6  ANP d   1       9.245  28.113  -8.004  0.00  0.00     0.155 A 
ATOM     35  C4  ANP d   1      11.264  29.207  -7.169  0.00  0.00     0.167 A 
ATOM     36  N1  ANP d   1       8.792  28.406  -6.754  0.00  0.00    -0.222 NA
ATOM     37  C2  ANP d   1       9.504  29.052  -5.769  0.00  0.00     0.091 A 
ATOM     38  N3  ANP d   1      10.745  29.467  -5.934  0.00  0.00    -0.222 NA
ATOM     39  H5  ANP d   1       9.023  29.228  -4.814  0.00  0.00     0.146 H 
BRANCH  34  40
ATOM     40  N6  ANP d   1       8.445  27.505  -8.797  0.00  0.00    -0.382 N 
ATOM     41  H3  ANP d   1       7.494  27.262  -8.483  0.00  0.00     0.157 HD
ATOM     42  H4  ANP d   1       8.752  27.258  -9.749  0.00  0.00     0.157 HD
ENDBRANCH  34  40
ENDBRANCH   5  29
BRANCH   4  43
ATOM     43  O2' ANP d   1      13.774  32.225  -5.462  0.00  0.00    -0.388 OA
ATOM     44  H12 ANP d   1      13.582  32.587  -4.605  0.00  0.00     0.210 HD
ENDBRANCH   4  43
TORSDOF 11
