REMARK  5 active torsions:
REMARK  status: ('A' for Active; 'I' for Inactive)
REMARK    1  A    between atoms: C14_1  and  C13_2 
REMARK    2  A    between atoms: C13_2  and  C15_3 
REMARK    3  A    between atoms: C12_4  and  C11_5 
REMARK    4  A    between atoms: C11_5  and  N10_6 
REMARK    5  A    between atoms: N10_6  and  C6_7 
ROOT
ATOM      1  C11 ZIP d   1     101.236  98.924  79.510  0.00  0.00     0.009 C 
ATOM      2  H8  ZIP d   1     101.326  99.589  78.639  0.00  0.00     0.070 H 
ATOM      3  H9  ZIP d   1     101.397  97.883  79.194  0.00  0.00     0.070 H 
ENDROOT
BRANCH   1   4
ATOM      4  C12 ZIP d   1      99.784  99.010  79.960  0.00  0.00    -0.085 C 
ATOM      5  C13 ZIP d   1      99.135  98.442  81.011  0.00  0.00    -0.090 C 
ATOM      6  H7  ZIP d   1      99.155  99.636  79.329  0.00  0.00     0.079 H 
BRANCH   5   7
ATOM      7  C14 ZIP d   1      98.546  97.033  80.888  0.00  0.00    -0.055 C 
ATOM      8  H1  ZIP d   1      98.065  96.753  81.837  0.00  0.00     0.033 H 
ATOM      9  H2  ZIP d   1      99.350  96.318  80.659  0.00  0.00     0.033 H 
ATOM     10  H3  ZIP d   1      97.800  97.017  80.080  0.00  0.00     0.033 H 
ENDBRANCH   5   7
BRANCH   5  11
ATOM     11  C15 ZIP d   1      98.440  99.280  82.065  0.00  0.00    -0.055 C 
ATOM     12  H4  ZIP d   1      98.905 100.276  82.107  0.00  0.00     0.033 H 
ATOM     13  H5  ZIP d   1      98.535  98.790  83.045  0.00  0.00     0.033 H 
ATOM     14  H6  ZIP d   1      97.375  99.383  81.808  0.00  0.00     0.033 H 
ENDBRANCH   5  11
ENDBRANCH   1   4
BRANCH   1  15
ATOM     15  N10 ZIP d   1     102.364  99.262  80.404  0.00  0.00    -0.369 N 
ATOM     16  H10 ZIP d   1     102.402  98.798  81.323  0.00  0.00     0.161 HD
BRANCH  15  17
ATOM     17  C6  ZIP d   1     103.411 100.192  80.082  0.00  0.00     0.158 A 
ATOM     18  C5  ZIP d   1     104.720 100.237  80.681  0.00  0.00     0.149 A 
ATOM     19  N9  ZIP d   1     105.329  99.463  81.692  0.00  0.00    -0.236 NA
ATOM     20  C4  ZIP d   1     105.620 101.216  80.309  0.00  0.00     0.162 A 
ATOM     21  C8  ZIP d   1     106.509 100.038  81.839  0.00  0.00     0.066 A 
ATOM     22  N7  ZIP d   1     106.773 101.065  80.990  0.00  0.00    -0.333 N 
ATOM     23  H12 ZIP d   1     107.224  99.710  82.592  0.00  0.00     0.143 H 
ATOM     24  H11 ZIP d   1     107.647 101.601  80.890  0.00  0.00     0.168 HD
ATOM     25  N3  ZIP d   1     105.229 102.155  79.294  0.00  0.00    -0.222 NA
ATOM     26  C2  ZIP d   1     104.039 102.005  78.748  0.00  0.00     0.091 A 
ATOM     27  N1  ZIP d   1     103.192 101.103  79.123  0.00  0.00    -0.222 NA
ATOM     28  H13 ZIP d   1     103.755 102.673  77.942  0.00  0.00     0.146 H 
ENDBRANCH  15  17
ENDBRANCH   1  15
TORSDOF 5
