REMARK  4 active torsions:
REMARK  status: ('A' for Active; 'I' for Inactive)
REMARK    1  A    between atoms: N_1  and  CA_2 
REMARK    2  A    between atoms: CA_2  and  C_3 
REMARK    3  A    between atoms: CA_2  and  CB_5 
REMARK    4  A    between atoms: CB_5  and  CG_6 
ROOT
ATOM      1  CB  DHI d   1      -0.669   4.703  11.005  0.00  0.00     0.013 C 
ATOM      2  H5  DHI d   1      -0.593   4.759   9.909  0.00  0.00     0.046 H 
ATOM      3  H6  DHI d   1      -0.367   5.666  11.443  0.00  0.00     0.046 H 
ENDROOT
BRANCH   1   4
ATOM      4  CA  DHI d   1       0.259   3.597  11.522  0.00  0.00     0.187 C 
ATOM      5  H4  DHI d   1       0.212   3.579  12.621  0.00  0.00     0.101 H 
BRANCH   4   6
ATOM      6  N   DHI d   1      -0.179   2.293  11.011  0.00  0.00    -0.065 N 
ATOM      7  H1  DHI d   1      -1.129   2.121  11.300  0.00  0.00     0.275 HD
ATOM      8  H2  DHI d   1       0.420   1.570  11.377  0.00  0.00     0.275 HD
ATOM      9  H3  DHI d   1      -0.129   2.293  10.004  0.00  0.00     0.275 HD
ENDBRANCH   4   6
BRANCH   4  10
ATOM     10  C   DHI d   1       1.692   3.884  11.100  0.00  0.00     0.204 C 
ATOM     11  O   DHI d   1       2.062   3.583   9.986  0.00  0.00    -0.646 OA
ATOM     12  OXT DHI d   1       2.552   4.469  11.946  0.00  0.00    -0.646 OA
ENDBRANCH   4  10
ENDBRANCH   1   4
BRANCH   1  13
ATOM     13  CG  DHI d   1      -2.093   4.405  11.391  0.00  0.00     0.053 A 
ATOM     14  ND1 DHI d   1      -2.878   3.486  10.805  0.00  0.00    -0.247 NA
ATOM     15  CE1 DHI d   1      -4.042   3.490  11.381  0.00  0.00     0.064 A 
ATOM     16  NE2 DHI d   1      -4.042   4.421  12.365  0.00  0.00    -0.359 N 
ATOM     17  H8  DHI d   1      -4.882   2.849  11.116  0.00  0.00     0.143 H 
ATOM     18  CD2 DHI d   1      -2.803   5.002  12.369  0.00  0.00     0.002 A 
ATOM     19  H9  DHI d   1      -4.827   4.649  12.992  0.00  0.00     0.166 HD
ATOM     20  H7  DHI d   1      -2.458   5.793  13.033  0.00  0.00     0.114 H 
ENDBRANCH   1  13
TORSDOF 4
