REMARK  11 active torsions:
REMARK  status: ('A' for Active; 'I' for Inactive)
REMARK    1  A    between atoms: C10_2  and  C12_3 
REMARK       I    between atoms: C10_2  and  N9_21 
REMARK    2  A    between atoms: C12_3  and  N20_4 
REMARK    3  A    between atoms: C12_3  and  C13_14 
REMARK    4  A    between atoms: N20_4  and  C21_5 
REMARK    5  A    between atoms: C13_14  and  C14_15 
REMARK    6  A    between atoms: N9_21  and  C8_22 
REMARK    7  A    between atoms: C8_22  and  C7_23 
REMARK    8  A    between atoms: C7_23  and  N_24 
REMARK    9  A    between atoms: N_24  and  C5_25 
REMARK   10  A    between atoms: C2_30  and  O_31 
REMARK   11  A    between atoms: O_31  and  C_32 
ROOT
ATOM      1  C12 GNF d   1      22.615  35.682  11.902  0.00  0.00     0.090 C 
ATOM      2  H1  GNF d   1      23.508  35.452  11.303  0.00  0.00     0.087 H 
ENDROOT
BRANCH   1   3
ATOM      3  C10 GNF d   1      22.098  37.054  11.564  0.00  0.00     0.240 C 
ATOM      4  O11 GNF d   1      21.096  37.436  12.157  0.00  0.00    -0.271 OA
ATOM      5  N9  GNF d   1      22.795  37.797  10.680  0.00  0.00    -0.358 N 
ATOM      6  H20 GNF d   1      23.610  37.394  10.264  0.00  0.00     0.162 HD
BRANCH   5   7
ATOM      7  C8  GNF d   1      22.427  39.158  10.296  0.00  0.00     0.010 C 
ATOM      8  H21 GNF d   1      22.662  39.828  11.136  0.00  0.00     0.066 H 
ATOM      9  H22 GNF d   1      21.345  39.180  10.102  0.00  0.00     0.066 H 
BRANCH   7  10
ATOM     10  C7  GNF d   1      23.154  39.684   9.040  0.00  0.00     0.007 C 
ATOM     11  H23 GNF d   1      24.240  39.578   9.180  0.00  0.00     0.066 H 
ATOM     12  H24 GNF d   1      22.905  40.746   8.897  0.00  0.00     0.066 H 
BRANCH  10  13
ATOM     13  N   GNF d   1      22.749  38.934   7.858  0.00  0.00    -0.388 N 
ATOM     14  H25 GNF d   1      23.459  38.487   7.261  0.00  0.00     0.159 HD
BRANCH  13  15
ATOM     15  C5  GNF d   1      21.433  38.826   7.547  0.00  0.00     0.028 A 
ATOM     16  C4  GNF d   1      20.973  37.706   6.835  0.00  0.00    -0.055 A 
ATOM     17  C3  GNF d   1      19.601  37.556   6.604  0.00  0.00    -0.049 A 
ATOM     18  H26 GNF d   1      21.674  36.965   6.468  0.00  0.00     0.087 H 
ATOM     19  C2  GNF d   1      18.718  38.499   7.132  0.00  0.00     0.068 A 
ATOM     20  H27 GNF d   1      19.229  36.719   6.023  0.00  0.00     0.087 H 
ATOM     21  C31 GNF d   1      19.156  39.590   7.839  0.00  0.00    -0.049 A 
ATOM     22  C30 GNF d   1      20.511  39.758   8.052  0.00  0.00    -0.055 A 
ATOM     23  H29 GNF d   1      18.447  40.312   8.226  0.00  0.00     0.087 H 
ATOM     24  H28 GNF d   1      20.865  40.615   8.613  0.00  0.00     0.087 H 
BRANCH  19  25
ATOM     25  O   GNF d   1      17.395  38.432   6.934  0.00  0.00    -0.356 OA
BRANCH  25  26
ATOM     26  C   GNF d   1      16.954  39.407   6.036  0.00  0.00     0.010 C 
ATOM     27  H30 GNF d   1      15.866  39.317   5.902  0.00  0.00     0.066 H 
ATOM     28  H31 GNF d   1      17.455  39.267   5.067  0.00  0.00     0.066 H 
ATOM     29  H32 GNF d   1      17.193  40.405   6.432  0.00  0.00     0.066 H 
ENDBRANCH  25  26
ENDBRANCH  19  25
ENDBRANCH  13  15
ENDBRANCH  10  13
ENDBRANCH   7  10
ENDBRANCH   5   7
ENDBRANCH   1   3
BRANCH   1  30
ATOM     30  N20 GNF d   1      22.956  35.768  13.301  0.00  0.00    -0.341 N 
ATOM     31  H2  GNF d   1      22.274  35.413  13.986  0.00  0.00     0.164 HD
BRANCH  30  32
ATOM     32  C21 GNF d   1      24.107  36.282  13.769  0.00  0.00     0.248 A 
ATOM     33  O29 GNF d   1      24.331  36.355  15.108  0.00  0.00    -0.276 OA
ATOM     34  C28 GNF d   1      25.605  36.935  15.151  0.00  0.00     0.108 A 
ATOM     35  C27 GNF d   1      26.312  37.236  16.302  0.00  0.00    -0.048 A 
ATOM     36  C23 GNF d   1      26.084  37.179  13.870  0.00  0.00     0.095 A 
ATOM     37  C26 GNF d   1      27.570  37.795  16.152  0.00  0.00    -0.080 A 
ATOM     38  H3  GNF d   1      25.897  37.041  17.284  0.00  0.00     0.087 H 
ATOM     39  C25 GNF d   1      28.079  38.037  14.870  0.00  0.00    -0.081 A 
ATOM     40  H4  GNF d   1      28.160  38.045  17.026  0.00  0.00     0.083 H 
ATOM     41  C24 GNF d   1      27.340  37.746  13.723  0.00  0.00    -0.052 A 
ATOM     42  H5  GNF d   1      29.071  38.461  14.766  0.00  0.00     0.083 H 
ATOM     43  H6  GNF d   1      27.740  37.959  12.738  0.00  0.00     0.087 H 
ATOM     44  N22 GNF d   1      25.117  36.761  12.999  0.00  0.00    -0.206 NA
ENDBRANCH  30  32
ENDBRANCH   1  30
BRANCH   1  45
ATOM     45  C13 GNF d   1      21.560  34.607  11.652  0.00  0.00    -0.035 C 
ATOM     46  H7  GNF d   1      21.757  34.162  10.665  0.00  0.00     0.037 H 
ATOM     47  H8  GNF d   1      20.574  35.095  11.644  0.00  0.00     0.037 H 
BRANCH  45  48
ATOM     48  C14 GNF d   1      21.517  33.470  12.684  0.00  0.00    -0.052 C 
ATOM     49  C19 GNF d   1      22.359  32.288  12.198  0.00  0.00    -0.062 C 
ATOM     50  C18 GNF d   1      22.238  31.117  13.166  0.00  0.00    -0.065 C 
ATOM     51  H10 GNF d   1      23.413  32.596  12.132  0.00  0.00     0.033 H 
ATOM     52  H11 GNF d   1      22.005  31.975  11.204  0.00  0.00     0.033 H 
ATOM     53  C17 GNF d   1      20.790  30.687  13.378  0.00  0.00    -0.065 C 
ATOM     54  H12 GNF d   1      22.664  31.414  14.136  0.00  0.00     0.033 H 
ATOM     55  H13 GNF d   1      22.804  30.265  12.762  0.00  0.00     0.033 H 
ATOM     56  C16 GNF d   1      19.815  31.600  12.646  0.00  0.00    -0.065 C 
ATOM     57  H14 GNF d   1      20.564  30.715  14.454  0.00  0.00     0.033 H 
ATOM     58  H15 GNF d   1      20.665  29.660  13.004  0.00  0.00     0.033 H 
ATOM     59  C15 GNF d   1      20.074  33.065  12.965  0.00  0.00    -0.062 C 
ATOM     60  H16 GNF d   1      18.789  31.344  12.950  0.00  0.00     0.033 H 
ATOM     61  H17 GNF d   1      19.926  31.445  11.563  0.00  0.00     0.033 H 
ATOM     62  H18 GNF d   1      19.406  33.685  12.349  0.00  0.00     0.033 H 
ATOM     63  H19 GNF d   1      19.858  33.239  14.030  0.00  0.00     0.033 H 
ATOM     64  H9  GNF d   1      21.956  33.837  13.623  0.00  0.00     0.040 H 
ENDBRANCH  45  48
ENDBRANCH   1  45
TORSDOF 11
