REMARK  12 active torsions:
REMARK  status: ('A' for Active; 'I' for Inactive)
REMARK    1  A    between atoms: C12_3  and  N1_4 
REMARK    2  A    between atoms: C15_9  and  O1_10 
REMARK    3  A    between atoms: O1_10  and  C1_11 
REMARK    4  A    between atoms: C2_13  and  O2_14 
REMARK    5  A    between atoms: C3_15  and  O3_16 
REMARK    6  A    between atoms: C4_17  and  O4_18 
REMARK    7  A    between atoms: C5_19  and  C6_20 
REMARK    8  A    between atoms: C6_20  and  S6_21 
REMARK    9  A    between atoms: S6_21  and  C7_22 
REMARK   10  A    between atoms: C10_25  and  O8_26 
REMARK   11  A    between atoms: C9_27  and  O7_28 
REMARK   12  A    between atoms: C8_29  and  O6_30 
ROOT
ATOM      1  C1  XTG d   1     143.790  62.849 132.701  0.00  0.00     0.164 C 
ATOM      2  O5  XTG d   1     144.605  62.295 133.747  0.00  0.00    -0.349 OA
ATOM      3  C2  XTG d   1     143.523  64.313 133.103  0.00  0.00     0.110 C 
ATOM      4  C3  XTG d   1     144.833  65.072 133.241  0.00  0.00     0.092 C 
ATOM      5  C4  XTG d   1     145.681  64.286 134.193  0.00  0.00     0.088 C 
ATOM      6  C5  XTG d   1     145.842  62.930 133.562  0.00  0.00     0.077 C 
ATOM      7  H5  XTG d   1     144.386  62.839 131.777  0.00  0.00     0.134 H 
ATOM      8  H6  XTG d   1     142.990  64.338 134.065  0.00  0.00     0.094 H 
ATOM      9  H8  XTG d   1     145.334  65.108 132.262  0.00  0.00     0.091 H 
ATOM     10  H10 XTG d   1     145.195  64.218 135.177  0.00  0.00     0.091 H 
ATOM     11  H12 XTG d   1     145.989  63.034 132.477  0.00  0.00     0.088 H 
ENDROOT
BRANCH   6  12
ATOM     12  C6  XTG d   1     147.105  62.356 134.111  0.00  0.00     0.006 C 
ATOM     13  H13 XTG d   1     147.640  63.154 134.647  0.00  0.00     0.053 H 
ATOM     14  H14 XTG d   1     147.718  62.006 133.267  0.00  0.00     0.053 H 
BRANCH  12  15
ATOM     15  S6  XTG d   1     146.870  60.970 135.251  0.00  0.00    -0.132 SA
BRANCH  15  16
ATOM     16  C7  XTG d   1     147.709  61.192 136.910  0.00  0.00     0.109 C 
ATOM     17  O9  XTG d   1     146.901  60.738 138.003  0.00  0.00    -0.370 OA
ATOM     18  C11 XTG d   1     146.778  59.287 138.082  0.00  0.00     0.047 C 
ATOM     19  C10 XTG d   1     148.102  58.495 138.118  0.00  0.00     0.083 C 
ATOM     20  H16 XTG d   1     146.208  58.950 137.204  0.00  0.00     0.078 H 
ATOM     21  H17 XTG d   1     146.217  59.046 138.997  0.00  0.00     0.078 H 
ATOM     22  C9  XTG d   1     149.079  59.022 137.036  0.00  0.00     0.090 C 
ATOM     23  H18 XTG d   1     148.572  58.605 139.106  0.00  0.00     0.090 H 
ATOM     24  C8  XTG d   1     149.120  60.582 137.112  0.00  0.00     0.096 C 
ATOM     25  H20 XTG d   1     148.666  58.762 136.050  0.00  0.00     0.091 H 
ATOM     26  H22 XTG d   1     149.455  60.822 138.132  0.00  0.00     0.092 H 
ATOM     27  H15 XTG d   1     147.829  62.279 137.024  0.00  0.00     0.104 H 
BRANCH  19  28
ATOM     28  O8  XTG d   1     147.775  57.096 137.888  0.00  0.00    -0.391 OA
ATOM     29  H19 XTG d   1     147.186  56.794 138.569  0.00  0.00     0.210 HD
ENDBRANCH  19  28
BRANCH  22  30
ATOM     30  O7  XTG d   1     150.365  58.339 137.141  0.00  0.00    -0.390 OA
ATOM     31  H21 XTG d   1     150.737  58.498 138.000  0.00  0.00     0.210 HD
ENDBRANCH  22  30
BRANCH  24  32
ATOM     32  O6  XTG d   1     149.997  61.292 136.208  0.00  0.00    -0.389 OA
ATOM     33  H23 XTG d   1     149.750  61.098 135.311  0.00  0.00     0.210 HD
ENDBRANCH  24  32
ENDBRANCH  15  16
ENDBRANCH  12  15
ENDBRANCH   6  12
BRANCH   5  34
ATOM     34  O4  XTG d   1     146.959  64.832 134.322  0.00  0.00    -0.390 OA
ATOM     35  H11 XTG d   1     146.891  65.722 134.648  0.00  0.00     0.210 HD
ENDBRANCH   5  34
BRANCH   1  36
ATOM     36  O1  XTG d   1     142.525  62.150 132.394  0.00  0.00    -0.318 OA
BRANCH  36  37
ATOM     37  C15 XTG d   1     142.550  60.789 132.331  0.00  0.00     0.072 A 
ATOM     38  C14 XTG d   1     141.386  60.115 132.666  0.00  0.00    -0.048 A 
ATOM     39  C13 XTG d   1     141.337  58.728 132.666  0.00  0.00    -0.048 A 
ATOM     40  H1  XTG d   1     140.500  60.680 132.932  0.00  0.00     0.087 H 
ATOM     41  C12 XTG d   1     142.467  57.986 132.327  0.00  0.00     0.103 A 
ATOM     42  H2  XTG d   1     140.417  58.220 132.931  0.00  0.00     0.087 H 
ATOM     43  C17 XTG d   1     143.630  58.674 131.972  0.00  0.00    -0.048 A 
ATOM     44  C16 XTG d   1     143.677  60.056 131.979  0.00  0.00    -0.048 A 
ATOM     45  H3  XTG d   1     144.513  58.114 131.685  0.00  0.00     0.087 H 
ATOM     46  H4  XTG d   1     144.594  60.568 131.710  0.00  0.00     0.087 H 
BRANCH  41  47
ATOM     47  N1  XTG d   1     142.446  56.630 132.306  0.00  0.00    -0.116 N 
ATOM     48  O10 XTG d   1     143.604  55.992 131.815  0.00  0.00    -0.532 OA
ATOM     49  O11 XTG d   1     141.318  55.826 132.756  0.00  0.00    -0.532 OA
ENDBRANCH  41  47
ENDBRANCH  36  37
ENDBRANCH   1  36
BRANCH   4  50
ATOM     50  O3  XTG d   1     144.625  66.378 133.662  0.00  0.00    -0.390 OA
ATOM     51  H9  XTG d   1     145.461  66.822 133.738  0.00  0.00     0.210 HD
ENDBRANCH   4  50
BRANCH   3  52
ATOM     52  O2  XTG d   1     142.728  64.901 132.113  0.00  0.00    -0.388 OA
ATOM     53  H7  XTG d   1     141.908  64.426 132.044  0.00  0.00     0.210 HD
ENDBRANCH   3  52
TORSDOF 12
