REMARK  8 active torsions:
REMARK  status: ('A' for Active; 'I' for Inactive)
REMARK    1  A    between atoms: C_2  and  CA_4 
REMARK    2  A    between atoms: CA_4  and  N_5 
REMARK    3  A    between atoms: CA_4  and  CB_6 
REMARK    4  A    between atoms: CB_6  and  N4_7 
REMARK    5  A    between atoms: N6_10  and  C17_16 
REMARK    6  A    between atoms: C2_13  and  C6_14 
REMARK    7  A    between atoms: C17_16  and  C18_17 
REMARK    8  A    between atoms: C19_21  and  C10_22 
ROOT
ATOM      1  N4  UBA d   1      -6.383  -3.415  15.734  0.00  0.00    -0.306 N 
ATOM      2  C5  UBA d   1      -5.310  -4.335  15.578  0.00  0.00     0.331 A 
ATOM      3  O8  UBA d   1      -5.570  -5.543  15.608  0.00  0.00    -0.246 OA
ATOM      4  N6  UBA d   1      -4.016  -3.853  15.408  0.00  0.00    -0.261 N 
ATOM      5  C1  UBA d   1      -3.760  -2.490  15.405  0.00  0.00     0.259 A 
ATOM      6  O7  UBA d   1      -2.603  -2.106  15.226  0.00  0.00    -0.267 OA
ATOM      7  C2  UBA d   1      -4.891  -1.542  15.563  0.00  0.00     0.022 A 
ATOM      8  C3  UBA d   1      -6.151  -2.093  15.733  0.00  0.00    -0.005 A 
ATOM      9  H10 UBA d   1      -6.995  -1.420  15.873  0.00  0.00     0.112 H 
ENDROOT
BRANCH   4  10
ATOM     10  C17 UBA d   1      -2.874  -4.723  15.185  0.00  0.00     0.033 C 
ATOM     11  H11 UBA d   1      -2.007  -4.116  14.883  0.00  0.00     0.072 H 
ATOM     12  H12 UBA d   1      -3.114  -5.442  14.387  0.00  0.00     0.072 H 
BRANCH  10  13
ATOM     13  C18 UBA d   1      -2.548  -5.460  16.427  0.00  0.00    -0.015 A 
ATOM     14  C23 UBA d   1      -2.836  -5.143  17.766  0.00  0.00    -0.067 A 
ATOM     15  C22 UBA d   1      -2.361  -6.058  18.725  0.00  0.00    -0.043 A 
ATOM     16  H13 UBA d   1      -3.390  -4.248  18.044  0.00  0.00     0.085 H 
ATOM     17  S20 UBA d   1      -1.522  -7.331  17.886  0.00  0.00    -0.095 SA
ATOM     18  H14 UBA d   1      -2.495  -5.982  19.803  0.00  0.00     0.095 H 
ATOM     19  C19 UBA d   1      -1.775  -6.700  16.319  0.00  0.00     0.089 A 
BRANCH  19  20
ATOM     20  C10 UBA d   1      -1.281  -7.379  15.112  0.00  0.00     0.217 C 
ATOM     21  O2  UBA d   1      -1.113  -6.718  14.051  0.00  0.00    -0.643 OA
ATOM     22  O1  UBA d   1      -1.049  -8.601  15.266  0.00  0.00    -0.643 OA
ENDBRANCH  19  20
ENDBRANCH  10  13
ENDBRANCH   4  10
BRANCH   1  23
ATOM     23  CB  UBA d   1      -7.716  -3.987  15.870  0.00  0.00     0.040 C 
ATOM     24  H5  UBA d   1      -7.684  -4.878  16.515  0.00  0.00     0.069 H 
ATOM     25  H6  UBA d   1      -8.406  -3.247  16.301  0.00  0.00     0.069 H 
BRANCH  23  26
ATOM     26  CA  UBA d   1      -8.173  -4.378  14.432  0.00  0.00     0.198 C 
ATOM     27  H1  UBA d   1      -7.574  -5.242  14.109  0.00  0.00     0.103 H 
BRANCH  26  28
ATOM     28  C   UBA d   1      -9.615  -4.776  14.469  0.00  0.00     0.206 C 
ATOM     29  OXT UBA d   1     -10.483  -4.174  13.751  0.00  0.00    -0.646 OA
ATOM     30  O   UBA d   1      -9.960  -5.719  15.214  0.00  0.00    -0.646 OA
ENDBRANCH  26  28
BRANCH  26  31
ATOM     31  N   UBA d   1      -7.991  -3.316  13.452  0.00  0.00    -0.064 N 
ATOM     32  H2  UBA d   1      -7.020  -3.046  13.425  0.00  0.00     0.275 HD
ATOM     33  H3  UBA d   1      -8.554  -2.521  13.710  0.00  0.00     0.275 HD
ATOM     34  H4  UBA d   1      -8.273  -3.646  12.542  0.00  0.00     0.275 HD
ENDBRANCH  26  31
ENDBRANCH  23  26
ENDBRANCH   1  23
BRANCH   7  35
ATOM     35  C6  UBA d   1      -4.633  -0.045  15.569  0.00  0.00    -0.045 C 
ATOM     36  H7  UBA d   1      -5.585   0.491  15.696  0.00  0.00     0.033 H 
ATOM     37  H8  UBA d   1      -4.170   0.251  14.616  0.00  0.00     0.033 H 
ATOM     38  H9  UBA d   1      -3.957   0.207  16.399  0.00  0.00     0.033 H 
ENDBRANCH   7  35
TORSDOF 8
