REMARK  7 active torsions:
REMARK  status: ('A' for Active; 'I' for Inactive)
REMARK    1  A    between atoms: C10_2  and  C22_4 
REMARK    2  A    between atoms: C21_9  and  C17_10 
REMARK    3  A    between atoms: C17_10  and  N6_11 
REMARK    4  A    between atoms: N4_18  and  CB_19 
REMARK    5  A    between atoms: CB_19  and  CA_20 
REMARK    6  A    between atoms: CA_20  and  N_21 
REMARK    7  A    between atoms: CA_20  and  C_22 
ROOT
ATOM      1  N6  UBC d   1      -4.301  -3.902  15.466  0.00  0.00    -0.262 N 
ATOM      2  C5  UBC d   1      -5.589  -4.439  15.596  0.00  0.00     0.331 A 
ATOM      3  O8  UBC d   1      -5.767  -5.679  15.644  0.00  0.00    -0.246 OA
ATOM      4  C1  UBC d   1      -4.141  -2.515  15.414  0.00  0.00     0.253 A 
ATOM      5  O7  UBC d   1      -2.990  -2.090  15.280  0.00  0.00    -0.268 OA
ATOM      6  C2  UBC d   1      -5.230  -1.663  15.506  0.00  0.00    -0.002 A 
ATOM      7  C3  UBC d   1      -6.503  -2.214  15.641  0.00  0.00    -0.011 A 
ATOM      8  N4  UBC d   1      -6.687  -3.543  15.698  0.00  0.00    -0.307 N 
ATOM      9  H7  UBC d   1      -5.094  -0.583  15.473  0.00  0.00     0.094 H 
ATOM     10  H8  UBC d   1      -7.366  -1.553  15.701  0.00  0.00     0.112 H 
ENDROOT
BRANCH   1  11
ATOM     11  C17 UBC d   1      -3.081  -4.713  15.331  0.00  0.00     0.032 C 
ATOM     12  H5  UBC d   1      -3.282  -5.534  14.627  0.00  0.00     0.072 H 
ATOM     13  H6  UBC d   1      -2.279  -4.075  14.931  0.00  0.00     0.072 H 
BRANCH  11  14
ATOM     14  C21 UBC d   1      -2.619  -5.303  16.637  0.00  0.00    -0.023 A 
ATOM     15  C22 UBC d   1      -1.885  -6.591  16.635  0.00  0.00     0.048 A 
ATOM     16  C23 UBC d   1      -1.468  -7.112  17.860  0.00  0.00    -0.066 A 
ATOM     17  C24 UBC d   1      -1.750  -6.409  19.039  0.00  0.00    -0.082 A 
ATOM     18  H1  UBC d   1      -0.930  -8.053  17.900  0.00  0.00     0.085 H 
ATOM     19  C25 UBC d   1      -2.436  -5.197  19.022  0.00  0.00    -0.082 A 
ATOM     20  H2  UBC d   1      -1.426  -6.819  19.989  0.00  0.00     0.083 H 
ATOM     21  C26 UBC d   1      -2.864  -4.642  17.826  0.00  0.00    -0.074 A 
ATOM     22  H3  UBC d   1      -2.638  -4.682  19.954  0.00  0.00     0.083 H 
ATOM     23  H4  UBC d   1      -3.389  -3.693  17.823  0.00  0.00     0.084 H 
BRANCH  15  24
ATOM     24  C10 UBC d   1      -1.611  -7.318  15.352  0.00  0.00     0.210 C 
ATOM     25  O1  UBC d   1      -1.269  -6.656  14.342  0.00  0.00    -0.644 OA
ATOM     26  O2  UBC d   1      -1.741  -8.566  15.340  0.00  0.00    -0.644 OA
ENDBRANCH  15  24
ENDBRANCH  11  14
ENDBRANCH   1  11
BRANCH   8  27
ATOM     27  CB  UBC d   1      -8.050  -4.079  15.810  0.00  0.00     0.040 C 
ATOM     28  H9  UBC d   1      -8.729  -3.309  16.206  0.00  0.00     0.069 H 
ATOM     29  H10 UBC d   1      -8.060  -4.955  16.476  0.00  0.00     0.069 H 
BRANCH  27  30
ATOM     30  CA  UBC d   1      -8.482  -4.488  14.386  0.00  0.00     0.198 C 
ATOM     31  H11 UBC d   1      -7.892  -5.365  14.082  0.00  0.00     0.103 H 
BRANCH  30  32
ATOM     32  N   UBC d   1      -8.256  -3.423  13.408  0.00  0.00    -0.064 N 
ATOM     33  H12 UBC d   1      -8.552  -3.736  12.497  0.00  0.00     0.275 HD
ATOM     34  H13 UBC d   1      -7.275  -3.193  13.382  0.00  0.00     0.275 HD
ATOM     35  H14 UBC d   1      -8.785  -2.607  13.672  0.00  0.00     0.275 HD
ENDBRANCH  30  32
BRANCH  30  36
ATOM     36  C   UBC d   1      -9.937  -4.863  14.407  0.00  0.00     0.206 C 
ATOM     37  O   UBC d   1     -10.721  -4.207  13.691  0.00  0.00    -0.646 OA
ATOM     38  OXT UBC d   1     -10.328  -5.808  15.136  0.00  0.00    -0.646 OA
ENDBRANCH  30  36
ENDBRANCH  27  30
ENDBRANCH   8  27
TORSDOF 7
