REMARK  9 active torsions:
REMARK  status: ('A' for Active; 'I' for Inactive)
REMARK    1  A    between atoms: S1_2  and  N3_5 
REMARK    2  A    between atoms: N3_5  and  C15_6 
REMARK       I    between atoms: N2_11  and  C7_12 
REMARK    3  A    between atoms: C7_12  and  O2_14 
REMARK    4  A    between atoms: O2_14  and  C8_15 
REMARK    5  A    between atoms: C8_15  and  C11_16 
REMARK    6  A    between atoms: C8_15  and  C10_17 
REMARK    7  A    between atoms: C8_15  and  C9_18 
REMARK    8  A    between atoms: C4_19  and  C5_20 
REMARK       I    between atoms: C5_20  and  N1_22 
REMARK    9  A    between atoms: N1_22  and  C6_23 
ROOT
ATOM      1  C15 1C2 d   1     -10.295  47.133  49.273  0.00  0.00     0.045 A 
ATOM      2  C16 1C2 d   1      -9.524  46.391  50.172  0.00  0.00    -0.056 A 
ATOM      3  C14 1C2 d   1     -11.684  46.959  49.273  0.00  0.00    -0.048 A 
ATOM      4  C13 1C2 d   1     -12.319  46.053  50.131  0.00  0.00    -0.032 A 
ATOM      5  C12 1C2 d   1     -13.825  45.876  50.112  0.00  0.00     0.025 C 
ATOM      6  N2  1C2 d   1     -14.371  45.304  51.359  0.00  0.00    -0.310 N 
ATOM      7  C7  1C2 d   1     -15.675  45.064  51.465  0.00  0.00     0.364 C 
ATOM      8  O3  1C2 d   1     -16.255  44.592  52.433  0.00  0.00    -0.238 OA
ATOM      9  C4  1C2 d   1     -13.495  44.984  52.480  0.00  0.00     0.098 C 
ATOM     10  C3  1C2 d   1     -12.218  44.343  51.928  0.00  0.00    -0.013 C 
ATOM     11  C2  1C2 d   1     -11.538  45.319  50.999  0.00  0.00    -0.048 A 
ATOM     12  C1  1C2 d   1     -10.151  45.474  51.030  0.00  0.00    -0.074 A 
ATOM     13  H2  1C2 d   1      -8.449  46.523  50.206  0.00  0.00     0.087 H 
ATOM     14  H3  1C2 d   1     -12.287  47.544  48.587  0.00  0.00     0.087 H 
ATOM     15  H4  1C2 d   1     -14.085  45.206  49.279  0.00  0.00     0.071 H 
ATOM     16  H5  1C2 d   1     -14.288  46.860  49.949  0.00  0.00     0.071 H 
ATOM     17  H15 1C2 d   1     -13.999  44.224  53.095  0.00  0.00     0.088 H 
ATOM     18  H20 1C2 d   1     -12.475  43.427  51.376  0.00  0.00     0.043 H 
ATOM     19  H21 1C2 d   1     -11.542  44.093  52.759  0.00  0.00     0.043 H 
ATOM     20  H22 1C2 d   1      -9.556  44.885  51.719  0.00  0.00     0.084 H 
ENDROOT
BRANCH   7  21
ATOM     21  O2  1C2 d   1     -16.398  45.430  50.275  0.00  0.00    -0.294 OA
BRANCH  21  22
ATOM     22  C8  1C2 d   1     -17.814  45.451  50.041  0.00  0.00     0.061 C 
BRANCH  22  23
ATOM     23  C11 1C2 d   1     -18.009  45.661  48.541  0.00  0.00    -0.048 C 
ATOM     24  H6  1C2 d   1     -19.084  45.684  48.311  0.00  0.00     0.031 H 
ATOM     25  H7  1C2 d   1     -17.534  44.836  47.990  0.00  0.00     0.031 H 
ATOM     26  H8  1C2 d   1     -17.549  46.614  48.241  0.00  0.00     0.031 H 
ENDBRANCH  22  23
BRANCH  22  27
ATOM     27  C10 1C2 d   1     -18.464  46.578  50.835  0.00  0.00    -0.048 C 
ATOM     28  H9  1C2 d   1     -19.548  46.582  50.646  0.00  0.00     0.031 H 
ATOM     29  H10 1C2 d   1     -18.034  47.541  50.523  0.00  0.00     0.031 H 
ATOM     30  H11 1C2 d   1     -18.279  46.424  51.908  0.00  0.00     0.031 H 
ENDBRANCH  22  27
BRANCH  22  31
ATOM     31  C9  1C2 d   1     -18.363  44.082  50.406  0.00  0.00    -0.048 C 
ATOM     32  H12 1C2 d   1     -19.450  44.066  50.237  0.00  0.00     0.031 H 
ATOM     33  H13 1C2 d   1     -18.154  43.873  51.465  0.00  0.00     0.031 H 
ATOM     34  H14 1C2 d   1     -17.883  43.316  49.780  0.00  0.00     0.031 H 
ENDBRANCH  22  31
ENDBRANCH  21  22
ENDBRANCH   7  21
BRANCH   9  35
ATOM     35  C5  1C2 d   1     -13.276  46.175  53.368  0.00  0.00     0.240 C 
ATOM     36  O1  1C2 d   1     -12.468  46.137  54.277  0.00  0.00    -0.271 OA
ATOM     37  N1  1C2 d   1     -13.998  47.264  53.128  0.00  0.00    -0.364 N 
ATOM     38  H16 1C2 d   1     -14.657  47.267  52.376  0.00  0.00     0.161 HD
BRANCH  37  39
ATOM     39  C6  1C2 d   1     -13.835  48.455  53.955  0.00  0.00    -0.018 C 
ATOM     40  H17 1C2 d   1     -14.515  49.243  53.601  0.00  0.00     0.056 H 
ATOM     41  H18 1C2 d   1     -12.796  48.810  53.886  0.00  0.00     0.056 H 
ATOM     42  H19 1C2 d   1     -14.071  48.210  55.001  0.00  0.00     0.056 H 
ENDBRANCH  37  39
ENDBRANCH   9  35
BRANCH   1  43
ATOM     43  N3  1C2 d   1      -9.698  48.046  48.444  0.00  0.00    -0.266 N 
ATOM     44  H1  1C2 d   1      -9.597  48.991  48.754  0.00  0.00     0.181 HD
BRANCH  43  45
ATOM     45  S1  1C2 d   1      -9.150  47.634  46.971  0.00  0.00     0.209 S 
ATOM     46  O6  1C2 d   1     -10.289  46.983  46.308  0.00  0.00    -0.578 OA
ATOM     47  O4  1C2 d   1      -8.061  46.676  47.153  0.00  0.00    -0.578 OA
ATOM     48  O5  1C2 d   1      -8.760  48.929  46.364  0.00  0.00    -0.578 OA
ENDBRANCH  43  45
ENDBRANCH   1  43
TORSDOF 9
