REMARK  2 active torsions:
REMARK  status: ('A' for Active; 'I' for Inactive)
REMARK    1  A    between atoms: C15_2  and  C6_4 
REMARK    2  A    between atoms: C3_8  and  C7_10 
ROOT
ATOM      1  C6  NON d   1      21.645  85.101  26.950  0.00  0.00     0.040 A 
ATOM      2  C1  NON d   1      20.965  86.132  26.259  0.00  0.00    -0.066 A 
ATOM      3  C5  NON d   1      22.323  84.079  26.236  0.00  0.00    -0.066 A 
ATOM      4  C4  NON d   1      22.336  84.092  24.917  0.00  0.00    -0.071 A 
ATOM      5  C3  NON d   1      21.639  85.124  24.154  0.00  0.00    -0.020 A 
ATOM      6  C2  NON d   1      20.961  86.145  24.889  0.00  0.00    -0.071 A 
ATOM      7  H1  NON d   1      20.449  86.909  26.812  0.00  0.00     0.085 H 
ATOM      8  H2  NON d   1      22.831  83.287  26.775  0.00  0.00     0.085 H 
ATOM      9  H3  NON d   1      22.878  83.317  24.386  0.00  0.00     0.084 H 
ATOM     10  H4  NON d   1      20.440  86.935  24.359  0.00  0.00     0.084 H 
ENDROOT
BRANCH   5  11
ATOM     11  C7  NON d   1      21.636  85.136  22.776  0.00  0.00     0.051 A 
ATOM     12  C12 NON d   1      21.638  83.908  21.955  0.00  0.00     0.130 A 
ATOM     13  F2  NON d   1      21.603  82.670  22.572  0.00  0.00    -0.205 F 
ATOM     14  C11 NON d   1      21.651  83.938  20.636  0.00  0.00    -0.045 A 
ATOM     15  C10 NON d   1      21.631  85.160  19.993  0.00  0.00    -0.077 A 
ATOM     16  H5  NON d   1      21.677  83.017  20.065  0.00  0.00     0.088 H 
ATOM     17  C9  NON d   1      21.613  86.370  20.710  0.00  0.00    -0.045 A 
ATOM     18  H6  NON d   1      21.629  85.187  18.909  0.00  0.00     0.083 H 
ATOM     19  C8  NON d   1      21.615  86.371  22.083  0.00  0.00     0.130 A 
ATOM     20  H7  NON d   1      21.597  87.311  20.173  0.00  0.00     0.088 H 
ATOM     21  F1  NON d   1      21.666  87.603  22.722  0.00  0.00    -0.205 F 
ENDBRANCH   5  11
BRANCH   1  22
ATOM     22  C15 NON d   1      21.643  85.098  28.436  0.00  0.00     0.209 C 
ATOM     23  O17 NON d   1      20.976  86.101  29.121  0.00  0.00    -0.644 OA
ATOM     24  O16 NON d   1      22.241  84.194  29.050  0.00  0.00    -0.644 OA
ENDBRANCH   1  22
TORSDOF 2
