REMARK  6 active torsions:
REMARK  status: ('A' for Active; 'I' for Inactive)
REMARK    1  A    between atoms: C5_1  and  N5_2 
REMARK    2  A    between atoms: C4_3  and  O4_4 
REMARK    3  A    between atoms: C3_5  and  O3_6 
REMARK    4  A    between atoms: C2_7  and  O2_8 
REMARK    5  A    between atoms: C1_9  and  S6_10 
REMARK    6  A    between atoms: S6_10  and  C7_11 
ROOT
ATOM      1  C5  MSN d   1      31.319  65.877   9.450  0.00  0.00     0.141 C 
ATOM      2  C4  MSN d   1      32.801  66.188   9.512  0.00  0.00     0.091 C 
ATOM      3  C3  MSN d   1      33.074  66.715   8.099  0.00  0.00     0.088 C 
ATOM      4  C2  MSN d   1      31.799  67.049   7.331  0.00  0.00     0.076 C 
ATOM      5  C1  MSN d   1      30.936  65.949   7.979  0.00  0.00     0.047 C 
ATOM      6  H1  MSN d   1      30.729  66.587  10.048  0.00  0.00     0.090 H 
ATOM      7  H5  MSN d   1      32.973  66.995  10.239  0.00  0.00     0.090 H 
ATOM      8  H7  MSN d   1      33.653  67.643   8.214  0.00  0.00     0.091 H 
ATOM      9  H9  MSN d   1      31.441  68.010   7.729  0.00  0.00     0.088 H 
ATOM     10  H11 MSN d   1      31.048  64.984   7.462  0.00  0.00     0.064 H 
ENDROOT
BRANCH   5  11
ATOM     11  S6  MSN d   1      29.232  66.518   8.017  0.00  0.00    -0.164 SA
BRANCH  11  12
ATOM     12  C7  MSN d   1      28.420  65.373   9.143  0.00  0.00    -0.034 C 
ATOM     13  H12 MSN d   1      27.357  65.641   9.235  0.00  0.00     0.041 H 
ATOM     14  H13 MSN d   1      28.899  65.429  10.132  0.00  0.00     0.041 H 
ATOM     15  H14 MSN d   1      28.508  64.349   8.751  0.00  0.00     0.041 H 
ENDBRANCH  11  12
ENDBRANCH   5  11
BRANCH   1  16
ATOM     16  N5  MSN d   1      31.148  64.508   9.944  0.00  0.00    -0.071 N 
ATOM     17  H2  MSN d   1      31.403  64.468  10.918  0.00  0.00     0.274 HD
ATOM     18  H3  MSN d   1      31.738  63.884   9.416  0.00  0.00     0.274 HD
ATOM     19  H4  MSN d   1      30.185  64.230   9.838  0.00  0.00     0.274 HD
ENDBRANCH   1  16
BRANCH   4  20
ATOM     20  O2  MSN d   1      31.766  67.289   5.923  0.00  0.00    -0.392 OA
ATOM     21  H10 MSN d   1      32.323  68.030   5.716  0.00  0.00     0.210 HD
ENDBRANCH   4  20
BRANCH   2  22
ATOM     22  O4  MSN d   1      33.622  65.088   9.913  0.00  0.00    -0.391 OA
ATOM     23  H6  MSN d   1      34.532  65.362   9.927  0.00  0.00     0.210 HD
ENDBRANCH   2  22
BRANCH   3  24
ATOM     24  O3  MSN d   1      33.836  65.824   7.291  0.00  0.00    -0.390 OA
ATOM     25  H8  MSN d   1      34.678  65.667   7.702  0.00  0.00     0.210 HD
ENDBRANCH   3  24
TORSDOF 6
