REMARK  16 active torsions:
REMARK  status: ('A' for Active; 'I' for Inactive)
REMARK    1  A    between atoms: C2_2  and  N1_1 
REMARK    2  A    between atoms: S8_8  and  C5_5 
REMARK    3  A    between atoms: N11_11  and  S8_8 
REMARK    4  A    between atoms: N11_11  and  C12_12 
REMARK    5  A    between atoms: C16_16  and  N11_11 
REMARK    6  A    between atoms: C12_12  and  C13_13 
REMARK    7  A    between atoms: C13_13  and  C14_14 
REMARK    8  A    between atoms: C13_13  and  C15_15 
REMARK    9  A    between atoms: C17_17  and  C16_16 
REMARK   10  A    between atoms: C17_17  and  O18_18 
REMARK   11  A    between atoms: C19_19  and  C17_17 
REMARK   12  A    between atoms: C19_19  and  N20_20 
REMARK   13  A    between atoms: C32_32  and  C19_19 
REMARK       I    between atoms: N20_20  and  C21_21 
REMARK   14  A    between atoms: C21_21  and  O23_23 
REMARK   15  A    between atoms: O23_23  and  C24_24 
REMARK   16  A    between atoms: C38_38  and  C32_32 
ROOT
ATOM      1  C19 017 d   1      15.061  22.943  17.010  0.00  0.00     0.044 C 
ATOM      2  H20 017 d   1      15.996  22.424  16.753  0.00  0.00     0.077 H 
ENDROOT
BRANCH   1   3
ATOM      3  C17 017 d   1      15.409  24.082  18.009  0.00  0.00     0.067 C 
ATOM      4  H18 017 d   1      15.758  23.594  18.931  0.00  0.00     0.088 H 
BRANCH   3   5
ATOM      5  C16 017 d   1      16.561  25.032  17.518  0.00  0.00     0.019 C 
ATOM      6  H16 017 d   1      16.338  25.418  16.512  0.00  0.00     0.061 H 
ATOM      7  H17 017 d   1      16.687  25.874  18.215  0.00  0.00     0.061 H 
BRANCH   5   8
ATOM      8  N11 017 d   1      17.820  24.171  17.490  0.00  0.00    -0.204 NA
BRANCH   8   9
ATOM      9  S8  017 d   1      18.408  23.846  15.812  0.00  0.00     0.243 S 
ATOM     10  O9  017 d   1      17.219  23.522  14.885  0.00  0.00    -0.206 OA
ATOM     11  O10 017 d   1      19.476  22.693  15.963  0.00  0.00    -0.206 OA
BRANCH   9  12
ATOM     12  C5  017 d   1      19.307  25.353  15.283  0.00  0.00     0.074 A 
ATOM     13  C4  017 d   1      18.575  26.290  14.549  0.00  0.00    -0.059 A 
ATOM     14  C3  017 d   1      19.220  27.451  14.128  0.00  0.00    -0.056 A 
ATOM     15  H4  017 d   1      17.531  26.118  14.313  0.00  0.00     0.086 H 
ATOM     16  C2  017 d   1      20.562  27.646  14.446  0.00  0.00     0.025 A 
ATOM     17  H3  017 d   1      18.681  28.198  13.557  0.00  0.00     0.086 H 
ATOM     18  C7  017 d   1      21.292  26.699  15.185  0.00  0.00    -0.056 A 
ATOM     19  C6  017 d   1      20.658  25.515  15.622  0.00  0.00    -0.059 A 
ATOM     20  H6  017 d   1      22.336  26.876  15.418  0.00  0.00     0.086 H 
ATOM     21  H5  017 d   1      21.192  24.765  16.194  0.00  0.00     0.086 H 
BRANCH  16  22
ATOM     22  N1  017 d   1      21.143  28.798  14.010  0.00  0.00    -0.399 N 
ATOM     23  H1  017 d   1      20.592  29.480  13.470  0.00  0.00     0.156 HD
ATOM     24  H2  017 d   1      22.133  28.987  14.220  0.00  0.00     0.156 HD
ENDBRANCH  16  22
ENDBRANCH   9  12
ENDBRANCH   8   9
BRANCH   8  25
ATOM     25  C12 017 d   1      18.842  24.572  18.506  0.00  0.00    -0.004 C 
ATOM     26  H7  017 d   1      18.849  25.669  18.593  0.00  0.00     0.058 H 
ATOM     27  H8  017 d   1      19.831  24.224  18.174  0.00  0.00     0.058 H 
BRANCH  25  28
ATOM     28  C13 017 d   1      18.532  23.958  19.897  0.00  0.00    -0.049 C 
ATOM     29  H9  017 d   1      17.631  24.416  20.332  0.00  0.00     0.040 H 
BRANCH  28  30
ATOM     30  C14 017 d   1      18.317  22.468  19.697  0.00  0.00    -0.072 C 
ATOM     31  H10 017 d   1      18.094  21.997  20.666  0.00  0.00     0.028 H 
ATOM     32  H11 017 d   1      19.227  22.020  19.272  0.00  0.00     0.028 H 
ATOM     33  H12 017 d   1      17.474  22.308  19.009  0.00  0.00     0.028 H 
ENDBRANCH  28  30
BRANCH  28  34
ATOM     34  C15 017 d   1      19.734  24.206  20.803  0.00  0.00    -0.072 C 
ATOM     35  H13 017 d   1      19.875  25.289  20.937  0.00  0.00     0.028 H 
ATOM     36  H14 017 d   1      20.635  23.773  20.344  0.00  0.00     0.028 H 
ATOM     37  H15 017 d   1      19.559  23.735  21.782  0.00  0.00     0.028 H 
ENDBRANCH  28  34
ENDBRANCH  25  28
ENDBRANCH   8  25
ENDBRANCH   5   8
ENDBRANCH   3   5
BRANCH   3  38
ATOM     38  O18 017 d   1      14.284  24.875  18.343  0.00  0.00    -0.392 OA
ATOM     39  H19 017 d   1      14.001  25.360  17.577  0.00  0.00     0.210 HD
ENDBRANCH   3  38
ENDBRANCH   1   3
BRANCH   1  40
ATOM     40  N20 017 d   1      14.147  22.038  17.666  0.00  0.00    -0.329 N 
ATOM     41  C21 017 d   1      14.461  20.788  18.062  0.00  0.00     0.361 C 
ATOM     42  O22 017 d   1      15.572  20.209  17.785  0.00  0.00    -0.238 OA
ATOM     43  H21 017 d   1      13.216  22.361  17.839  0.00  0.00     0.165 HD
BRANCH  41  44
ATOM     44  O23 017 d   1      13.409  20.196  18.820  0.00  0.00    -0.296 OA
BRANCH  44  45
ATOM     45  C24 017 d   1      13.514  18.741  19.015  0.00  0.00     0.078 C 
ATOM     46  C25 017 d   1      12.839  18.392  20.362  0.00  0.00     0.048 C 
ATOM     47  O26 017 d   1      11.410  18.626  20.159  0.00  0.00    -0.358 OA
ATOM     48  H23 017 d   1      13.224  19.040  21.163  0.00  0.00     0.078 H 
ATOM     49  H24 017 d   1      13.022  17.339  20.622  0.00  0.00     0.078 H 
ATOM     50  C27 017 d   1      11.195  18.208  18.822  0.00  0.00     0.137 C 
ATOM     51  O28 017 d   1      10.277  19.003  18.095  0.00  0.00    -0.361 OA
ATOM     52  C31 017 d   1      12.478  18.044  18.115  0.00  0.00     0.023 C 
ATOM     53  H25 017 d   1      10.741  17.208  18.884  0.00  0.00     0.129 H 
ATOM     54  C29 017 d   1      11.126  19.588  17.083  0.00  0.00     0.023 C 
ATOM     55  C30 017 d   1      12.214  18.570  16.726  0.00  0.00    -0.035 C 
ATOM     56  H26 017 d   1      11.589  20.507  17.471  0.00  0.00     0.074 H 
ATOM     57  H27 017 d   1      10.531  19.826  16.189  0.00  0.00     0.074 H 
ATOM     58  H28 017 d   1      13.102  19.047  16.286  0.00  0.00     0.037 H 
ATOM     59  H29 017 d   1      11.845  17.787  16.048  0.00  0.00     0.037 H 
ATOM     60  H30 017 d   1      12.756  16.983  18.032  0.00  0.00     0.051 H 
ATOM     61  H22 017 d   1      14.545  18.374  18.902  0.00  0.00     0.088 H 
ENDBRANCH  44  45
ENDBRANCH  41  44
ENDBRANCH   1  40
BRANCH   1  62
ATOM     62  C32 017 d   1      14.343  23.339  15.696  0.00  0.00    -0.020 C 
ATOM     63  H31 017 d   1      15.030  23.962  15.104  0.00  0.00     0.043 H 
ATOM     64  H32 017 d   1      13.449  23.924  15.957  0.00  0.00     0.043 H 
BRANCH  62  65
ATOM     65  C38 017 d   1      13.904  22.159  14.830  0.00  0.00    -0.056 A 
ATOM     66  C33 017 d   1      12.547  21.839  14.686  0.00  0.00    -0.077 A 
ATOM     67  C34 017 d   1      12.148  20.757  13.891  0.00  0.00    -0.082 A 
ATOM     68  H33 017 d   1      11.798  22.435  15.195  0.00  0.00     0.084 H 
ATOM     69  C35 017 d   1      13.125  19.989  13.236  0.00  0.00    -0.083 A 
ATOM     70  H34 017 d   1      11.097  20.515  13.782  0.00  0.00     0.083 H 
ATOM     71  C36 017 d   1      14.482  20.308  13.380  0.00  0.00    -0.082 A 
ATOM     72  H35 017 d   1      12.829  19.149  12.618  0.00  0.00     0.083 H 
ATOM     73  C37 017 d   1      14.881  21.394  14.177  0.00  0.00    -0.077 A 
ATOM     74  H36 017 d   1      15.231  19.711  12.872  0.00  0.00     0.083 H 
ATOM     75  H37 017 d   1      15.932  21.638  14.286  0.00  0.00     0.084 H 
ENDBRANCH  62  65
ENDBRANCH   1  62
TORSDOF 16
