REMARK  16 active torsions:
REMARK  status: ('A' for Active; 'I' for Inactive)
REMARK    1  A    between atoms: C2_2  and  N1_1 
REMARK    2  A    between atoms: S8_8  and  C5_5 
REMARK    3  A    between atoms: N11_11  and  S8_8 
REMARK    4  A    between atoms: N11_11  and  C12_12 
REMARK    5  A    between atoms: C16_16  and  N11_11 
REMARK    6  A    between atoms: C12_12  and  C13_13 
REMARK    7  A    between atoms: C13_13  and  C14_14 
REMARK    8  A    between atoms: C13_13  and  C15_15 
REMARK    9  A    between atoms: C17_17  and  C16_16 
REMARK   10  A    between atoms: C17_17  and  O18_18 
REMARK   11  A    between atoms: C19_19  and  C17_17 
REMARK   12  A    between atoms: C19_19  and  N20_20 
REMARK   13  A    between atoms: C32_32  and  C19_19 
REMARK       I    between atoms: N20_20  and  C21_21 
REMARK   14  A    between atoms: C21_21  and  O23_23 
REMARK   15  A    between atoms: O23_23  and  C24_24 
REMARK   16  A    between atoms: C38_38  and  C32_32 
ROOT
ATOM      1  C19 017 d   1      14.114  63.216  17.078  0.00  0.00     0.044 C 
ATOM      2  H20 017 d   1      13.188  63.729  16.778  0.00  0.00     0.077 H 
ENDROOT
BRANCH   1   3
ATOM      3  C17 017 d   1      13.753  62.097  18.113  0.00  0.00     0.071 C 
ATOM      4  H18 017 d   1      13.441  62.554  19.064  0.00  0.00     0.088 H 
BRANCH   3   5
ATOM      5  C16 017 d   1      12.614  61.177  17.566  0.00  0.00     0.031 C 
ATOM      6  H16 017 d   1      12.850  60.895  16.529  0.00  0.00     0.069 H 
ATOM      7  H17 017 d   1      12.557  60.272  18.188  0.00  0.00     0.069 H 
BRANCH   5   8
ATOM      8  N11 017 d   1      11.306  61.857  17.590  0.00  0.00    -0.304 N 
BRANCH   8   9
ATOM      9  S8  017 d   1      10.644  62.218  15.953  0.00  0.00     0.260 S 
ATOM     10  O9  017 d   1      11.853  62.498  15.029  0.00  0.00    -0.200 OA
ATOM     11  O10 017 d   1       9.662  63.393  16.179  0.00  0.00    -0.200 OA
BRANCH   9  12
ATOM     12  C5  017 d   1       9.766  60.715  15.428  0.00  0.00     0.079 A 
ATOM     13  C4  017 d   1      10.581  59.833  14.707  0.00  0.00    -0.058 A 
ATOM     14  C3  017 d   1      10.010  58.663  14.271  0.00  0.00    -0.056 A 
ATOM     15  H4  017 d   1      11.620  60.065  14.502  0.00  0.00     0.086 H 
ATOM     16  C2  017 d   1       8.673  58.423  14.571  0.00  0.00     0.025 A 
ATOM     17  H3  017 d   1      10.589  57.942  13.705  0.00  0.00     0.086 H 
ATOM     18  C7  017 d   1       7.837  59.282  15.292  0.00  0.00    -0.056 A 
ATOM     19  C6  017 d   1       8.429  60.481  15.734  0.00  0.00    -0.058 A 
ATOM     20  H6  017 d   1       6.800  59.040  15.497  0.00  0.00     0.086 H 
ATOM     21  H5  017 d   1       7.856  61.206  16.300  0.00  0.00     0.086 H 
BRANCH  16  22
ATOM     22  N1  017 d   1       8.199  57.263  14.113  0.00  0.00    -0.399 N 
ATOM     23  H1  017 d   1       8.813  56.629  13.582  0.00  0.00     0.156 HD
ATOM     24  H2  017 d   1       7.219  57.001  14.290  0.00  0.00     0.156 HD
ENDBRANCH  16  22
ENDBRANCH   9  12
ENDBRANCH   8   9
BRANCH   8  25
ATOM     25  C12 017 d   1      10.286  61.594  18.641  0.00  0.00     0.008 C 
ATOM     26  H7  017 d   1      10.136  60.510  18.748  0.00  0.00     0.066 H 
ATOM     27  H8  017 d   1       9.335  62.070  18.361  0.00  0.00     0.066 H 
BRANCH  25  28
ATOM     28  C13 017 d   1      10.792  62.188  19.986  0.00  0.00    -0.045 C 
ATOM     29  H9  017 d   1      11.815  61.841  20.193  0.00  0.00     0.041 H 
BRANCH  28  30
ATOM     30  C14 017 d   1      10.779  63.699  19.852  0.00  0.00    -0.072 C 
ATOM     31  H10 017 d   1      11.133  64.153  20.789  0.00  0.00     0.028 H 
ATOM     32  H11 017 d   1       9.754  64.040  19.643  0.00  0.00     0.028 H 
ATOM     33  H12 017 d   1      11.441  64.000  19.026  0.00  0.00     0.028 H 
ENDBRANCH  28  30
BRANCH  28  34
ATOM     34  C15 017 d   1       9.874  61.739  21.095  0.00  0.00    -0.072 C 
ATOM     35  H13 017 d   1       9.901  60.642  21.172  0.00  0.00     0.028 H 
ATOM     36  H14 017 d   1       8.847  62.066  20.876  0.00  0.00     0.028 H 
ATOM     37  H15 017 d   1      10.204  62.181  22.046  0.00  0.00     0.028 H 
ENDBRANCH  28  34
ENDBRANCH  25  28
ENDBRANCH   8  25
ENDBRANCH   5   8
ENDBRANCH   3   5
BRANCH   3  38
ATOM     38  O18 017 d   1      14.918  61.281  18.305  0.00  0.00    -0.392 OA
ATOM     39  H19 017 d   1      15.174  60.895  17.475  0.00  0.00     0.210 HD
ENDBRANCH   3  38
ENDBRANCH   1   3
BRANCH   1  40
ATOM     40  N20 017 d   1      14.971  64.131  17.772  0.00  0.00    -0.329 N 
ATOM     41  C21 017 d   1      14.630  65.388  18.105  0.00  0.00     0.361 C 
ATOM     42  O22 017 d   1      13.536  65.949  17.824  0.00  0.00    -0.238 OA
ATOM     43  H21 017 d   1      15.884  63.813  18.026  0.00  0.00     0.165 HD
BRANCH  41  44
ATOM     44  O23 017 d   1      15.742  65.916  18.815  0.00  0.00    -0.296 OA
BRANCH  44  45
ATOM     45  C24 017 d   1      15.631  67.385  19.022  0.00  0.00     0.078 C 
ATOM     46  C25 017 d   1      16.276  67.573  20.417  0.00  0.00     0.048 C 
ATOM     47  O26 017 d   1      17.703  67.492  20.220  0.00  0.00    -0.358 OA
ATOM     48  H23 017 d   1      15.941  66.780  21.101  0.00  0.00     0.078 H 
ATOM     49  H24 017 d   1      16.005  68.555  20.833  0.00  0.00     0.078 H 
ATOM     50  C27 017 d   1      17.945  67.923  18.890  0.00  0.00     0.137 C 
ATOM     51  O28 017 d   1      18.855  67.057  18.182  0.00  0.00    -0.361 OA
ATOM     52  C31 017 d   1      16.682  68.100  18.165  0.00  0.00     0.023 C 
ATOM     53  H25 017 d   1      18.427  68.910  18.952  0.00  0.00     0.129 H 
ATOM     54  C29 017 d   1      18.078  66.545  17.107  0.00  0.00     0.023 C 
ATOM     55  C30 017 d   1      17.033  67.625  16.763  0.00  0.00    -0.035 C 
ATOM     56  H26 017 d   1      17.576  65.615  17.411  0.00  0.00     0.074 H 
ATOM     57  H27 017 d   1      18.720  66.347  16.236  0.00  0.00     0.074 H 
ATOM     58  H28 017 d   1      16.161  67.200  16.244  0.00  0.00     0.037 H 
ATOM     59  H29 017 d   1      17.465  68.433  16.153  0.00  0.00     0.037 H 
ATOM     60  H30 017 d   1      16.396  69.160  18.103  0.00  0.00     0.051 H 
ATOM     61  H22 017 d   1      14.609  67.774  18.907  0.00  0.00     0.088 H 
ENDBRANCH  44  45
ENDBRANCH  41  44
ENDBRANCH   1  40
BRANCH   1  62
ATOM     62  C32 017 d   1      14.824  62.710  15.783  0.00  0.00    -0.020 C 
ATOM     63  H31 017 d   1      14.130  62.079  15.209  0.00  0.00     0.043 H 
ATOM     64  H32 017 d   1      15.711  62.122  16.059  0.00  0.00     0.043 H 
BRANCH  62  65
ATOM     65  C38 017 d   1      15.259  63.920  14.913  0.00  0.00    -0.056 A 
ATOM     66  C33 017 d   1      16.591  64.328  14.797  0.00  0.00    -0.077 A 
ATOM     67  C34 017 d   1      16.959  65.449  13.988  0.00  0.00    -0.082 A 
ATOM     68  H33 017 d   1      17.361  63.783  15.331  0.00  0.00     0.084 H 
ATOM     69  C35 017 d   1      15.941  66.122  13.321  0.00  0.00    -0.083 A 
ATOM     70  H34 017 d   1      17.993  65.762  13.898  0.00  0.00     0.083 H 
ATOM     71  C36 017 d   1      14.609  65.734  13.421  0.00  0.00    -0.082 A 
ATOM     72  H35 017 d   1      16.194  66.976  12.703  0.00  0.00     0.083 H 
ATOM     73  C37 017 d   1      14.289  64.642  14.218  0.00  0.00    -0.077 A 
ATOM     74  H36 017 d   1      13.835  66.274  12.887  0.00  0.00     0.083 H 
ATOM     75  H37 017 d   1      13.251  64.341  14.303  0.00  0.00     0.084 H 
ENDBRANCH  62  65
ENDBRANCH   1  62
TORSDOF 16
