REMARK  16 active torsions:
REMARK  status: ('A' for Active; 'I' for Inactive)
REMARK    1  A    between atoms: C2_2  and  N1_1 
REMARK    2  A    between atoms: S8_8  and  C5_5 
REMARK    3  A    between atoms: N11_11  and  S8_8 
REMARK    4  A    between atoms: N11_11  and  C12_12 
REMARK    5  A    between atoms: C16_16  and  N11_11 
REMARK    6  A    between atoms: C12_12  and  C13_13 
REMARK    7  A    between atoms: C13_13  and  C14_14 
REMARK    8  A    between atoms: C13_13  and  C15_15 
REMARK    9  A    between atoms: C17_17  and  C16_16 
REMARK   10  A    between atoms: C17_17  and  O18_18 
REMARK   11  A    between atoms: C19_19  and  C17_17 
REMARK   12  A    between atoms: C19_19  and  N20_20 
REMARK   13  A    between atoms: C32_32  and  C19_19 
REMARK       I    between atoms: N20_20  and  C21_21 
REMARK   14  A    between atoms: C21_21  and  O23_23 
REMARK   15  A    between atoms: O23_23  and  C24_24 
REMARK   16  A    between atoms: C38_38  and  C32_32 
ROOT
ATOM      1  C19 017 d   1      17.202  23.805  18.700  0.00  0.00     0.044 C 
ATOM      2  H20 017 d   1      17.535  22.870  18.226  0.00  0.00     0.077 H 
ENDROOT
BRANCH   1   3
ATOM      3  C17 017 d   1      15.688  23.974  18.397  0.00  0.00     0.071 C 
ATOM      4  H18 017 d   1      15.585  24.110  17.310  0.00  0.00     0.088 H 
BRANCH   3   5
ATOM      5  C16 017 d   1      14.733  22.800  18.847  0.00  0.00     0.031 C 
ATOM      6  H16 017 d   1      14.975  22.484  19.873  0.00  0.00     0.069 H 
ATOM      7  H17 017 d   1      13.683  23.124  18.801  0.00  0.00     0.069 H 
BRANCH   5   8
ATOM      8  N11 017 d   1      14.973  21.662  17.878  0.00  0.00    -0.304 N 
BRANCH   8   9
ATOM      9  S8  017 d   1      15.749  20.265  18.624  0.00  0.00     0.260 S 
ATOM     10  O9  017 d   1      16.786  20.757  19.627  0.00  0.00    -0.200 OA
ATOM     11  O10 017 d   1      16.263  19.417  17.436  0.00  0.00    -0.200 OA
BRANCH   9  12
ATOM     12  C5  017 d   1      14.540  19.225  19.517  0.00  0.00     0.079 C 
ATOM     13  C4  017 d   1      14.342  19.498  20.877  0.00  0.00    -0.058 C 
ATOM     14  C3  017 d   1      13.316  18.832  21.543  0.00  0.00    -0.056 C 
ATOM     15  H4  017 d   1      14.972  20.210  21.398  0.00  0.00     0.086 H 
ATOM     16  C2  017 d   1      12.443  18.007  20.838  0.00  0.00     0.025 C 
ATOM     17  H3  017 d   1      13.197  18.956  22.613  0.00  0.00     0.086 H 
ATOM     18  C7  017 d   1      12.582  17.836  19.438  0.00  0.00    -0.056 C 
ATOM     19  C6  017 d   1      13.635  18.483  18.740  0.00  0.00    -0.058 C 
ATOM     20  H6  017 d   1      11.882  17.209  18.898  0.00  0.00     0.086 H 
ATOM     21  H5  017 d   1      13.736  18.408  17.663  0.00  0.00     0.086 H 
BRANCH  16  22
ATOM     22  N1  017 d   1      11.393  17.408  21.482  0.00  0.00    -0.399 N 
ATOM     23  H1  017 d   1      11.279  17.523  22.499  0.00  0.00     0.156 HD
ATOM     24  H2  017 d   1      10.717  16.842  20.949  0.00  0.00     0.156 HD
ENDBRANCH  16  22
ENDBRANCH   9  12
ENDBRANCH   8   9
BRANCH   8  25
ATOM     25  C12 017 d   1      13.933  21.362  16.846  0.00  0.00     0.008 C 
ATOM     26  H7  017 d   1      12.941  21.356  17.322  0.00  0.00     0.066 H 
ATOM     27  H8  017 d   1      14.134  20.375  16.405  0.00  0.00     0.066 H 
BRANCH  25  28
ATOM     28  C13 017 d   1      13.956  22.427  15.736  0.00  0.00    -0.045 C 
ATOM     29  H9  017 d   1      13.810  23.408  16.212  0.00  0.00     0.041 H 
BRANCH  28  30
ATOM     30  C14 017 d   1      15.294  22.462  15.041  0.00  0.00    -0.072 C 
ATOM     31  H10 017 d   1      15.279  23.231  14.255  0.00  0.00     0.028 H 
ATOM     32  H11 017 d   1      15.498  21.480  14.589  0.00  0.00     0.028 H 
ATOM     33  H12 017 d   1      16.081  22.700  15.772  0.00  0.00     0.028 H 
ENDBRANCH  28  30
BRANCH  28  34
ATOM     34  C15 017 d   1      12.808  22.216  14.776  0.00  0.00    -0.072 C 
ATOM     35  H13 017 d   1      11.861  22.199  15.335  0.00  0.00     0.028 H 
ATOM     36  H14 017 d   1      12.941  21.259  14.250  0.00  0.00     0.028 H 
ATOM     37  H15 017 d   1      12.787  23.037  14.044  0.00  0.00     0.028 H 
ENDBRANCH  28  34
ENDBRANCH  25  28
ENDBRANCH   8  25
ENDBRANCH   5   8
ENDBRANCH   3   5
BRANCH   3  38
ATOM     38  O18 017 d   1      15.177  25.108  19.074  0.00  0.00    -0.392 OA
ATOM     39  H19 017 d   1      15.210  24.957  20.011  0.00  0.00     0.210 HD
ENDBRANCH   3  38
ENDBRANCH   1   3
BRANCH   1  40
ATOM     40  N20 017 d   1      17.917  24.921  18.112  0.00  0.00    -0.329 N 
ATOM     41  C21 017 d   1      18.657  24.706  16.998  0.00  0.00     0.361 C 
ATOM     42  O22 017 d   1      18.876  23.618  16.379  0.00  0.00    -0.238 OA
ATOM     43  H21 017 d   1      17.865  25.832  18.521  0.00  0.00     0.165 HD
BRANCH  41  44
ATOM     44  O23 017 d   1      19.182  25.929  16.551  0.00  0.00    -0.296 OA
BRANCH  44  45
ATOM     45  C24 017 d   1      20.289  25.887  15.589  0.00  0.00     0.078 C 
ATOM     46  C25 017 d   1      20.199  27.173  14.764  0.00  0.00     0.048 C 
ATOM     47  O26 017 d   1      20.712  28.225  15.615  0.00  0.00    -0.358 OA
ATOM     48  H23 017 d   1      19.154  27.379  14.488  0.00  0.00     0.078 H 
ATOM     49  H24 017 d   1      20.808  27.087  13.852  0.00  0.00     0.078 H 
ATOM     50  C27 017 d   1      21.662  27.563  16.455  0.00  0.00     0.137 C 
ATOM     51  O28 017 d   1      21.509  27.989  17.805  0.00  0.00    -0.361 OA
ATOM     52  C31 017 d   1      21.613  26.103  16.341  0.00  0.00     0.023 C 
ATOM     53  H25 017 d   1      22.663  27.876  16.122  0.00  0.00     0.129 H 
ATOM     54  C29 017 d   1      21.225  26.788  18.554  0.00  0.00     0.023 C 
ATOM     55  C30 017 d   1      21.809  25.606  17.737  0.00  0.00    -0.035 C 
ATOM     56  H26 017 d   1      20.139  26.665  18.676  0.00  0.00     0.074 H 
ATOM     57  H27 017 d   1      21.702  26.837  19.544  0.00  0.00     0.074 H 
ATOM     58  H28 017 d   1      21.251  24.675  17.917  0.00  0.00     0.037 H 
ATOM     59  H29 017 d   1      22.873  25.445  17.963  0.00  0.00     0.037 H 
ATOM     60  H30 017 d   1      22.433  25.710  15.723  0.00  0.00     0.051 H 
ATOM     61  H22 017 d   1      20.279  24.969  14.983  0.00  0.00     0.088 H 
ENDBRANCH  44  45
ENDBRANCH  41  44
ENDBRANCH   1  40
BRANCH   1  62
ATOM     62  C32 017 d   1      17.585  23.737  20.208  0.00  0.00    -0.020 C 
ATOM     63  H31 017 d   1      17.046  22.898  20.671  0.00  0.00     0.043 H 
ATOM     64  H32 017 d   1      17.283  24.678  20.691  0.00  0.00     0.043 H 
BRANCH  62  65
ATOM     65  C38 017 d   1      19.081  23.535  20.425  0.00  0.00    -0.056 A 
ATOM     66  C33 017 d   1      19.857  24.586  20.911  0.00  0.00    -0.077 A 
ATOM     67  C34 017 d   1      21.234  24.373  21.057  0.00  0.00    -0.082 A 
ATOM     68  H33 017 d   1      19.409  25.539  21.168  0.00  0.00     0.084 H 
ATOM     69  C35 017 d   1      21.830  23.171  20.682  0.00  0.00    -0.083 A 
ATOM     70  H34 017 d   1      21.850  25.162  21.472  0.00  0.00     0.083 H 
ATOM     71  C36 017 d   1      21.034  22.142  20.167  0.00  0.00    -0.082 A 
ATOM     72  H35 017 d   1      22.900  23.034  20.788  0.00  0.00     0.083 H 
ATOM     73  C37 017 d   1      19.668  22.330  19.999  0.00  0.00    -0.077 A 
ATOM     74  H36 017 d   1      21.485  21.194  19.898  0.00  0.00     0.083 H 
ATOM     75  H37 017 d   1      19.061  21.556  19.544  0.00  0.00     0.084 H 
ENDBRANCH  62  65
ENDBRANCH   1  62
TORSDOF 16
