REMARK  12 active torsions:
REMARK  status: ('A' for Active; 'I' for Inactive)
REMARK    1  A    between atoms: P1_1  and  C7_5 
REMARK    2  A    between atoms: C7_5  and  P8_6 
REMARK    3  A    between atoms: C7_5  and  O14_10 
REMARK    4  A    between atoms: C7_5  and  C16_11 
REMARK    5  A    between atoms: C16_11  and  C19_12 
REMARK    6  A    between atoms: C19_12  and  N22_13 
REMARK    7  A    between atoms: N22_13  and  C23_14 
REMARK    8  A    between atoms: N22_13  and  C39_19 
REMARK    9  A    between atoms: C23_14  and  C26_15 
REMARK   10  A    between atoms: C26_15  and  C29_16 
REMARK   11  A    between atoms: C29_16  and  C32_17 
REMARK   12  A    between atoms: C32_17  and  C35_18 
ROOT
ATOM      1  N22 BFQ d   1      14.182  80.568  25.615  0.00  0.00    -0.075 N 
ATOM      2  H6  BFQ d   1      13.551  81.278  25.276  0.00  0.00     0.279 HD
ENDROOT
BRANCH   1   3
ATOM      3  C19 BFQ d   1      14.131  79.474  24.599  0.00  0.00     0.087 C 
ATOM      4  H4  BFQ d   1      13.243  78.861  24.813  0.00  0.00     0.076 H 
ATOM      5  H5  BFQ d   1      14.024  79.942  23.610  0.00  0.00     0.076 H 
BRANCH   3   6
ATOM      6  C16 BFQ d   1      15.380  78.504  24.538  0.00  0.00     0.012 C 
ATOM      7  H2  BFQ d   1      15.483  78.128  23.509  0.00  0.00     0.042 H 
ATOM      8  H3  BFQ d   1      16.280  79.073  24.813  0.00  0.00     0.042 H 
BRANCH   6   9
ATOM      9  C7  BFQ d   1      15.246  77.284  25.504  0.00  0.00     0.286 C 
BRANCH   9  10
ATOM     10  P1  BFQ d   1      15.492  75.729  24.586  0.00  0.00     0.310 P 
ATOM     11  O2  BFQ d   1      16.877  75.601  24.048  0.00  0.00    -0.637 OA
ATOM     12  O3  BFQ d   1      15.181  74.555  25.579  0.00  0.00    -0.637 OA
ATOM     13  O5  BFQ d   1      14.375  75.669  23.460  0.00  0.00    -0.637 OA
ENDBRANCH   9  10
BRANCH   9  14
ATOM     14  P8  BFQ d   1      16.515  77.395  26.823  0.00  0.00     0.310 P 
ATOM     15  O9  BFQ d   1      17.920  77.327  26.352  0.00  0.00    -0.637 OA
ATOM     16  O10 BFQ d   1      16.153  78.736  27.604  0.00  0.00    -0.637 OA
ATOM     17  O12 BFQ d   1      16.166  76.203  27.818  0.00  0.00    -0.637 OA
ENDBRANCH   9  14
BRANCH   9  18
ATOM     18  O14 BFQ d   1      13.952  77.286  26.105  0.00  0.00    -0.365 OA
ATOM     19  H1  BFQ d   1      13.881  76.551  26.703  0.00  0.00     0.212 HD
ENDBRANCH   9  18
ENDBRANCH   6   9
ENDBRANCH   3   6
ENDBRANCH   1   3
BRANCH   1  20
ATOM     20  C23 BFQ d   1      15.494  81.228  25.741  0.00  0.00     0.083 C 
ATOM     21  H7  BFQ d   1      16.234  80.652  25.166  0.00  0.00     0.075 H 
ATOM     22  H8  BFQ d   1      15.782  81.238  26.803  0.00  0.00     0.075 H 
BRANCH  20  23
ATOM     23  C26 BFQ d   1      15.486  82.684  25.218  0.00  0.00    -0.042 C 
ATOM     24  H9  BFQ d   1      15.555  83.393  26.056  0.00  0.00     0.035 H 
ATOM     25  H10 BFQ d   1      14.568  82.881  24.646  0.00  0.00     0.035 H 
BRANCH  23  26
ATOM     26  C29 BFQ d   1      16.728  82.806  24.304  0.00  0.00    -0.064 C 
ATOM     27  H11 BFQ d   1      16.522  82.277  23.362  0.00  0.00     0.033 H 
ATOM     28  H12 BFQ d   1      17.582  82.333  24.811  0.00  0.00     0.033 H 
BRANCH  26  29
ATOM     29  C32 BFQ d   1      17.097  84.252  23.978  0.00  0.00    -0.069 C 
ATOM     30  H13 BFQ d   1      17.465  84.757  24.884  0.00  0.00     0.032 H 
ATOM     31  H14 BFQ d   1      16.215  84.785  23.594  0.00  0.00     0.032 H 
BRANCH  29  32
ATOM     32  C35 BFQ d   1      18.210  84.231  22.898  0.00  0.00    -0.077 C 
ATOM     33  H15 BFQ d   1      18.495  85.263  22.645  0.00  0.00     0.027 H 
ATOM     34  H16 BFQ d   1      17.837  83.722  21.997  0.00  0.00     0.027 H 
ATOM     35  H17 BFQ d   1      19.088  83.693  23.286  0.00  0.00     0.027 H 
ENDBRANCH  29  32
ENDBRANCH  26  29
ENDBRANCH  23  26
ENDBRANCH  20  23
ENDBRANCH   1  20
BRANCH   1  36
ATOM     36  C39 BFQ d   1      13.663  80.156  26.925  0.00  0.00     0.066 C 
ATOM     37  H18 BFQ d   1      12.686  79.668  26.795  0.00  0.00     0.068 H 
ATOM     38  H19 BFQ d   1      13.549  81.040  27.569  0.00  0.00     0.068 H 
ATOM     39  H20 BFQ d   1      14.366  79.450  27.392  0.00  0.00     0.068 H 
ENDBRANCH   1  36
TORSDOF 12
