REMARK  5 active torsions:
REMARK  status: ('A' for Active; 'I' for Inactive)
REMARK    1  A    between atoms: P14_2  and  C8_5 
REMARK    2  A    between atoms: C8_5  and  P9_6 
REMARK    3  A    between atoms: C8_5  and  O13_10 
REMARK    4  A    between atoms: C8_5  and  C7_11 
REMARK    5  A    between atoms: C7_11  and  N15_12 
ROOT
ATOM      1  C8  ZOL d   1      15.021  77.020  25.867  0.00  0.00     0.301 C 
ENDROOT
BRANCH   1   2
ATOM      2  P14 ZOL d   1      15.322  75.581  24.789  0.00  0.00     0.311 P 
ATOM      3  O17 ZOL d   1      16.678  75.621  24.176  0.00  0.00    -0.637 OA
ATOM      4  O16 ZOL d   1      15.124  74.277  25.668  0.00  0.00    -0.637 OA
ATOM      5  O15 ZOL d   1      14.130  75.557  23.733  0.00  0.00    -0.637 OA
ENDBRANCH   1   2
BRANCH   1   6
ATOM      6  P9  ZOL d   1      16.380  77.124  27.070  0.00  0.00     0.311 P 
ATOM      7  O10 ZOL d   1      16.006  78.329  28.057  0.00  0.00    -0.637 OA
ATOM      8  O11 ZOL d   1      16.200  75.834  27.979  0.00  0.00    -0.637 OA
ATOM      9  O12 ZOL d   1      17.726  77.205  26.452  0.00  0.00    -0.637 OA
ENDBRANCH   1   6
BRANCH   1  10
ATOM     10  O13 ZOL d   1      13.775  76.800  26.549  0.00  0.00    -0.364 OA
ATOM     11  H1  ZOL d   1      13.834  76.005  27.066  0.00  0.00     0.212 HD
ENDBRANCH   1  10
BRANCH   1  12
ATOM     12  C7  ZOL d   1      14.961  78.285  24.960  0.00  0.00     0.054 C 
ATOM     13  H2  ZOL d   1      14.173  78.115  24.212  0.00  0.00     0.071 H 
ATOM     14  H3  ZOL d   1      15.934  78.372  24.454  0.00  0.00     0.071 H 
BRANCH  12  15
ATOM     15  N15 ZOL d   1      14.685  79.574  25.598  0.00  0.00    -0.346 N 
ATOM     16  C16 ZOL d   1      13.650  79.879  26.332  0.00  0.00     0.065 A 
ATOM     17  N17 ZOL d   1      13.743  81.072  26.694  0.00  0.00    -0.255 NA
ATOM     18  H4  ZOL d   1      12.836  79.203  26.588  0.00  0.00     0.143 H 
ATOM     19  C18 ZOL d   1      14.948  81.667  26.173  0.00  0.00     0.018 A 
ATOM     20  C19 ZOL d   1      15.480  80.627  25.492  0.00  0.00    -0.003 A 
ATOM     21  H5  ZOL d   1      15.328  82.680  26.295  0.00  0.00     0.117 H 
ATOM     22  H6  ZOL d   1      16.419  80.652  24.941  0.00  0.00     0.113 H 
ENDBRANCH  12  15
ENDBRANCH   1  12
TORSDOF 5
