REMARK  18 active torsions:
REMARK  status: ('A' for Active; 'I' for Inactive)
REMARK    1  A    between atoms: N3_29  and  C26_5 
REMARK    2  A    between atoms: C16_9  and  C15_12 
REMARK    3  A    between atoms: C18_33  and  C16_9 
REMARK    4  A    between atoms: C16_9  and  N4_34 
REMARK    5  A    between atoms: C15_12  and  C17_10 
REMARK    6  A    between atoms: C17_10  and  C32_35 
REMARK       I    between atoms: C20_11  and  N3_29 
REMARK    7  A    between atoms: C19_31  and  C20_11 
REMARK    8  A    between atoms: C15_12  and  N2_38 
REMARK    9  A    between atoms: C12_13  and  C5_22 
REMARK       I    between atoms: N2_38  and  C12_13 
REMARK   10  A    between atoms: C11_16  and  C13_14 
REMARK   11  A    between atoms: C10_17  and  C14_15 
REMARK   12  A    between atoms: C8_19  and  C11_16 
REMARK   13  A    between atoms: C9_18  and  C10_17 
REMARK   14  A    between atoms: N1_41  and  C9_18 
REMARK   15  A    between atoms: N1_41  and  C8_19 
REMARK   16  A    between atoms: C3_24  and  C7_20 
REMARK       I    between atoms: C7_20  and  N1_41 
REMARK   17  A    between atoms: C19_31  and  C21_32 
REMARK   18  A    between atoms: C19_31  and  C18_33 
ROOT
ATOM      1  C15 FRP d   1      10.119  -3.029  48.310  0.00  0.00     0.043 C 
ATOM      2  H10 FRP d   1      10.340  -3.438  49.307  0.00  0.00     0.076 H 
ENDROOT
BRANCH   1   3
ATOM      3  C16 FRP d   1      11.370  -3.139  47.428  0.00  0.00     0.120 C 
ATOM      4  H7  FRP d   1      11.630  -4.204  47.342  0.00  0.00     0.087 H 
BRANCH   3   5
ATOM      5  C18 FRP d   1      12.566  -2.411  48.043  0.00  0.00    -0.026 C 
ATOM      6  H35 FRP d   1      12.398  -2.318  49.126  0.00  0.00     0.037 H 
ATOM      7  H36 FRP d   1      12.632  -1.409  47.594  0.00  0.00     0.037 H 
BRANCH   5   8
ATOM      8  C19 FRP d   1      13.894  -3.129  47.820  0.00  0.00     0.022 C 
ATOM      9  H31 FRP d   1      13.884  -3.575  46.815  0.00  0.00     0.054 H 
BRANCH   8  10
ATOM     10  C20 FRP d   1      14.104  -4.223  48.831  0.00  0.00     0.226 C 
ATOM     11  N3  FRP d   1      14.646  -5.345  48.345  0.00  0.00    -0.327 N 
ATOM     12  H30 FRP d   1      14.852  -5.344  47.366  0.00  0.00     0.169 HD
ATOM     13  O3  FRP d   1      13.796  -4.046  49.996  0.00  0.00    -0.273 OA
BRANCH  11  14
ATOM     14  C26 FRP d   1      14.953  -6.492  49.019  0.00  0.00     0.034 A 
ATOM     15  C27 FRP d   1      14.732  -6.662  50.387  0.00  0.00    -0.054 A 
ATOM     16  C22 FRP d   1      15.076  -7.862  51.010  0.00  0.00    -0.044 A 
ATOM     17  H4  FRP d   1      14.292  -5.859  50.967  0.00  0.00     0.087 H 
ATOM     18  C23 FRP d   1      15.642  -8.899  50.273  0.00  0.00     0.116 A 
ATOM     19  H6  FRP d   1      14.902  -7.988  52.072  0.00  0.00     0.088 H 
ATOM     20  C24 FRP d   1      15.869  -8.737  48.910  0.00  0.00    -0.044 A 
ATOM     21  F1  FRP d   1      15.974 -10.053  50.879  0.00  0.00    -0.206 F 
ATOM     22  C25 FRP d   1      15.522  -7.539  48.292  0.00  0.00    -0.054 A 
ATOM     23  H5  FRP d   1      16.314  -9.539  48.332  0.00  0.00     0.088 H 
ATOM     24  H29 FRP d   1      15.696  -7.417  47.229  0.00  0.00     0.087 H 
ENDBRANCH  11  14
ENDBRANCH   8  10
BRANCH   8  25
ATOM     25  C21 FRP d   1      15.050  -2.136  47.910  0.00  0.00    -0.065 C 
ATOM     26  H32 FRP d   1      14.902  -1.333  47.173  0.00  0.00     0.028 H 
ATOM     27  H33 FRP d   1      15.997  -2.656  47.701  0.00  0.00     0.028 H 
ATOM     28  H34 FRP d   1      15.084  -1.704  48.921  0.00  0.00     0.028 H 
ENDBRANCH   8  25
ENDBRANCH   5   8
ENDBRANCH   3   5
BRANCH   3  29
ATOM     29  N4  FRP d   1      11.100  -2.630  46.098  0.00  0.00    -0.073 N 
ATOM     30  H37 FRP d   1      10.310  -3.118  45.705  0.00  0.00     0.274 HD
ATOM     31  H38 FRP d   1      11.908  -2.773  45.513  0.00  0.00     0.274 HD
ATOM     32  H39 FRP d   1      10.893  -1.645  46.151  0.00  0.00     0.274 HD
ENDBRANCH   3  29
ENDBRANCH   1   3
BRANCH   1  33
ATOM     33  C17 FRP d   1       8.924  -3.769  47.691  0.00  0.00    -0.020 C 
ATOM     34  H8  FRP d   1       9.131  -4.849  47.727  0.00  0.00     0.043 H 
ATOM     35  H9  FRP d   1       8.825  -3.449  46.643  0.00  0.00     0.043 H 
BRANCH  33  36
ATOM     36  C32 FRP d   1       7.601  -3.513  48.395  0.00  0.00    -0.056 A 
ATOM     37  C31 FRP d   1       6.436  -3.443  47.633  0.00  0.00    -0.077 A 
ATOM     38  C30 FRP d   1       5.203  -3.214  48.244  0.00  0.00    -0.082 A 
ATOM     39  H1  FRP d   1       6.489  -3.567  46.557  0.00  0.00     0.084 H 
ATOM     40  C29 FRP d   1       5.125  -3.053  49.627  0.00  0.00    -0.083 A 
ATOM     41  H2  FRP d   1       4.303  -3.161  47.642  0.00  0.00     0.083 H 
ATOM     42  C28 FRP d   1       6.286  -3.124  50.396  0.00  0.00    -0.082 A 
ATOM     43  H41 FRP d   1       4.167  -2.874  50.102  0.00  0.00     0.083 H 
ATOM     44  C33 FRP d   1       7.518  -3.359  49.783  0.00  0.00    -0.077 A 
ATOM     45  H3  FRP d   1       6.232  -2.997  51.471  0.00  0.00     0.083 H 
ATOM     46  H40 FRP d   1       8.416  -3.423  50.386  0.00  0.00     0.084 H 
ENDBRANCH  33  36
ENDBRANCH   1  33
BRANCH   1  47
ATOM     47  N2  FRP d   1       9.712  -1.626  48.413  0.00  0.00    -0.350 N 
ATOM     48  C12 FRP d   1       9.980  -0.861  49.478  0.00  0.00     0.252 C 
ATOM     49  O2  FRP d   1      10.600  -1.274  50.447  0.00  0.00    -0.268 OA
ATOM     50  H42 FRP d   1       9.209  -1.220  47.650  0.00  0.00     0.163 HD
BRANCH  48  51
ATOM     51  C5  FRP d   1       9.481   0.554  49.483  0.00  0.00     0.033 A 
ATOM     52  C4  FRP d   1       8.356   0.852  48.726  0.00  0.00    -0.052 A 
ATOM     53  C3  FRP d   1       7.826   2.137  48.707  0.00  0.00     0.033 A 
ATOM     54  H25 FRP d   1       7.884   0.071  48.141  0.00  0.00     0.086 H 
ATOM     55  C2  FRP d   1       8.439   3.152  49.441  0.00  0.00    -0.068 A 
ATOM     56  C1  FRP d   1       9.570   2.858  50.208  0.00  0.00    -0.081 A 
ATOM     57  H27 FRP d   1       8.042   4.160  49.417  0.00  0.00     0.085 H 
ATOM     58  C6  FRP d   1      10.091   1.561  50.234  0.00  0.00    -0.068 A 
ATOM     59  H28 FRP d   1      10.046   3.641  50.787  0.00  0.00     0.083 H 
ATOM     60  H26 FRP d   1      10.965   1.338  50.835  0.00  0.00     0.085 H 
BRANCH  53  61
ATOM     61  C7  FRP d   1       6.620   2.368  47.844  0.00  0.00     0.253 C 
ATOM     62  O1  FRP d   1       6.785   3.006  46.819  0.00  0.00    -0.267 OA
ATOM     63  N1  FRP d   1       5.419   1.861  48.156  0.00  0.00    -0.348 N 
BRANCH  63  64
ATOM     64  C9  FRP d   1       4.271   2.073  47.278  0.00  0.00    -0.002 C 
ATOM     65  H21 FRP d   1       3.379   2.327  47.870  0.00  0.00     0.064 H 
ATOM     66  H22 FRP d   1       4.480   2.883  46.564  0.00  0.00     0.064 H 
BRANCH  64  67
ATOM     67  C10 FRP d   1       4.059   0.751  46.536  0.00  0.00    -0.053 C 
ATOM     68  H19 FRP d   1       4.251  -0.079  47.232  0.00  0.00     0.034 H 
ATOM     69  H20 FRP d   1       3.017   0.704  46.188  0.00  0.00     0.034 H 
BRANCH  67  70
ATOM     70  C14 FRP d   1       4.977   0.606  45.341  0.00  0.00    -0.075 C 
ATOM     71  H14 FRP d   1       4.785  -0.357  44.846  0.00  0.00     0.027 H 
ATOM     72  H15 FRP d   1       6.024   0.643  45.676  0.00  0.00     0.027 H 
ATOM     73  H16 FRP d   1       4.790   1.427  44.633  0.00  0.00     0.027 H 
ENDBRANCH  67  70
ENDBRANCH  64  67
ENDBRANCH  63  64
BRANCH  63  74
ATOM     74  C8  FRP d   1       5.140   1.081  49.364  0.00  0.00    -0.002 C 
ATOM     75  H23 FRP d   1       4.693   0.113  49.095  0.00  0.00     0.064 H 
ATOM     76  H24 FRP d   1       6.069   0.912  49.928  0.00  0.00     0.064 H 
BRANCH  74  77
ATOM     77  C11 FRP d   1       4.157   1.900  50.202  0.00  0.00    -0.053 C 
ATOM     78  H17 FRP d   1       3.414   2.354  49.531  0.00  0.00     0.034 H 
ATOM     79  H18 FRP d   1       3.650   1.227  50.909  0.00  0.00     0.034 H 
BRANCH  77  80
ATOM     80  C13 FRP d   1       4.843   3.000  50.984  0.00  0.00    -0.075 C 
ATOM     81  H11 FRP d   1       4.095   3.557  51.567  0.00  0.00     0.027 H 
ATOM     82  H12 FRP d   1       5.348   3.685  50.287  0.00  0.00     0.027 H 
ATOM     83  H13 FRP d   1       5.584   2.558  51.666  0.00  0.00     0.027 H 
ENDBRANCH  77  80
ENDBRANCH  74  77
ENDBRANCH  63  74
ENDBRANCH  53  61
ENDBRANCH  48  51
ENDBRANCH   1  47
TORSDOF 18
