REMARK  17 active torsions:
REMARK  status: ('A' for Active; 'I' for Inactive)
REMARK    1  A    between atoms: C_2  and  C2_4 
REMARK       I    between atoms: N_13  and  C_2 
REMARK    2  A    between atoms: CA_14  and  N_13 
REMARK    3  A    between atoms: C_15  and  CA_14 
REMARK    4  A    between atoms: CA_14  and  CB_17 
REMARK       I    between atoms: N_24  and  C_15 
REMARK    5  A    between atoms: CB_17  and  CG_18 
REMARK       I    between atoms: CG_18  and  ND2_20 
REMARK    6  A    between atoms: C_21  and  O_22 
REMARK    7  A    between atoms: CA_23  and  C_21 
REMARK    8  A    between atoms: C_21  and  CM_33 
REMARK    9  A    between atoms: CA_23  and  N_24 
REMARK   10  A    between atoms: CA_23  and  CB_25 
REMARK   11  A    between atoms: CB_25  and  CG_26 
REMARK   12  A    between atoms: CM_33  and  N1_32 
REMARK   13  A    between atoms: C2_34  and  C_35 
REMARK       I    between atoms: C_35  and  N_45 
REMARK   14  A    between atoms: N_45  and  C_46 
REMARK   15  A    between atoms: C_46  and  C1_47 
REMARK   16  A    between atoms: C_46  and  C2_48 
REMARK   17  A    between atoms: C_46  and  C3_49 
ROOT
ATOM      1  H13 QNC d   1      18.776  -0.609  14.646  0.00  0.00     0.088 H 
ATOM      2  C   HPH d   1      19.872  -0.522  14.625  0.00  0.00     0.078 C 
ENDROOT
BRANCH   2   3
ATOM      3  O   HPH d   1      20.126  -0.089  13.391  0.00  0.00    -0.392 OA
ATOM      4  H14 QNC d   1      21.063  -0.108  13.236  0.00  0.00     0.210 HD
ENDBRANCH   2   3
BRANCH   2   5
ATOM      5  CA  HPH d   1      20.329  -1.925  14.909  0.00  0.00     0.042 C 
ATOM      6  H15 QNC d   1      20.315  -2.068  16.000  0.00  0.00     0.077 H 
BRANCH   5   7
ATOM      7  N   HPH d   1      19.458  -2.943  14.344  0.00  0.00    -0.352 N 
ATOM      8  C   ASN d   1      18.615  -3.733  15.034  0.00  0.00     0.241 C 
ATOM      9  O   ASN d   1      18.535  -3.719  16.241  0.00  0.00    -0.271 OA
ATOM     10  H16 QNC d   1      19.488  -3.067  13.352  0.00  0.00     0.163 HD
BRANCH   8  11
ATOM     11  CA  ASN d   1      17.707  -4.613  14.209  0.00  0.00     0.097 C 
ATOM     12  H8  QNC d   1      17.352  -3.965  13.394  0.00  0.00     0.088 H 
BRANCH  11  13
ATOM     13  N   ASN d   1      18.529  -5.623  13.600  0.00  0.00    -0.342 N 
ATOM     14  C   QNC d   1      19.164  -6.306  12.643  0.00  0.00     0.271 C 
ATOM     15  O   QNC d   1      18.908  -5.798  11.563  0.00  0.00    -0.266 OA
ATOM     16  H7  QNC d   1      18.795  -6.151  14.407  0.00  0.00     0.163 HD
BRANCH  14  17
ATOM     17  C2  QNC d   1      20.069  -7.510  12.774  0.00  0.00     0.125 A 
ATOM     18  N1  QNC d   1      20.373  -8.125  13.949  0.00  0.00    -0.243 NA
ATOM     19  C8A QNC d   1      21.192  -9.214  13.974  0.00  0.00     0.068 A 
ATOM     20  C4A QNC d   1      21.770  -9.718  12.806  0.00  0.00    -0.007 A 
ATOM     21  C8  QNC d   1      21.501  -9.848  15.177  0.00  0.00    -0.054 A 
ATOM     22  C4  QNC d   1      21.476  -9.096  11.608  0.00  0.00    -0.068 A 
ATOM     23  C5  QNC d   1      22.608 -10.835  12.814  0.00  0.00    -0.071 A 
ATOM     24  C3  QNC d   1      20.624  -7.990  11.597  0.00  0.00    -0.049 A 
ATOM     25  H2  QNC d   1      21.904  -9.464  10.683  0.00  0.00     0.085 H 
ATOM     26  H1  QNC d   1      20.394  -7.501  10.658  0.00  0.00     0.087 H 
ATOM     27  C6  QNC d   1      22.906 -11.461  14.021  0.00  0.00    -0.082 A 
ATOM     28  H3  QNC d   1      23.024 -11.212  11.886  0.00  0.00     0.084 H 
ATOM     29  C7  QNC d   1      22.347 -10.958  15.195  0.00  0.00    -0.081 A 
ATOM     30  H4  QNC d   1      23.561 -12.324  14.048  0.00  0.00     0.083 H 
ATOM     31  H5  QNC d   1      22.574 -11.438  16.140  0.00  0.00     0.083 H 
ATOM     32  H6  QNC d   1      21.081  -9.476  16.105  0.00  0.00     0.087 H 
ENDBRANCH  14  17
ENDBRANCH  11  13
BRANCH  11  33
ATOM     33  CB  ASN d   1      16.434  -5.188  14.797  0.00  0.00     0.036 C 
ATOM     34  H9  QNC d   1      15.782  -4.394  15.192  0.00  0.00     0.051 H 
ATOM     35  H10 QNC d   1      16.654  -5.912  15.595  0.00  0.00     0.051 H 
BRANCH  33  36
ATOM     36  CG  ASN d   1      15.811  -5.864  13.600  0.00  0.00     0.217 C 
ATOM     37  OD1 ASN d   1      15.390  -5.198  12.658  0.00  0.00    -0.274 OA
ATOM     38  ND2 ASN d   1      15.783  -7.193  13.628  0.00  0.00    -0.370 N 
ATOM     39  H11 QNC d   1      15.383  -7.701  12.865  0.00  0.00     0.159 HD
ATOM     40  H12 QNC d   1      16.162  -7.685  14.412  0.00  0.00     0.159 HD
ENDBRANCH  33  36
ENDBRANCH  11  33
ENDBRANCH   8  11
ENDBRANCH   5   7
BRANCH   5  41
ATOM     41  CB  HPH d   1      21.789  -2.046  14.437  0.00  0.00    -0.020 C 
ATOM     42  H17 QNC d   1      22.418  -1.356  15.019  0.00  0.00     0.043 H 
ATOM     43  H18 QNC d   1      21.849  -1.785  13.370  0.00  0.00     0.043 H 
BRANCH  41  44
ATOM     44  CG  HPH d   1      22.284  -3.458  14.633  0.00  0.00    -0.056 A 
ATOM     45  CD1 HPH d   1      22.644  -3.913  15.900  0.00  0.00    -0.077 A 
ATOM     46  CE1 HPH d   1      23.074  -5.231  16.074  0.00  0.00    -0.082 A 
ATOM     47  H19 QNC d   1      22.590  -3.244  16.751  0.00  0.00     0.084 H 
ATOM     48  CZ  HPH d   1      23.151  -6.097  14.986  0.00  0.00    -0.083 A 
ATOM     49  H21 QNC d   1      23.349  -5.582  17.062  0.00  0.00     0.083 H 
ATOM     50  CE2 HPH d   1      22.790  -5.640  13.720  0.00  0.00    -0.082 A 
ATOM     51  H23 QNC d   1      23.489  -7.118  15.123  0.00  0.00     0.083 H 
ATOM     52  CD2 HPH d   1      22.368  -4.321  13.547  0.00  0.00    -0.077 A 
ATOM     53  H22 QNC d   1      22.837  -6.310  12.869  0.00  0.00     0.083 H 
ATOM     54  H20 QNC d   1      22.104  -3.967  12.557  0.00  0.00     0.084 H 
ENDBRANCH  41  44
ENDBRANCH   5  41
ENDBRANCH   2   5
BRANCH   2  55
ATOM     55  CM  DIQ d   1      20.128   0.390  15.580  0.00  0.00     0.110 C 
ATOM     56  H25 QNC d   1      20.015   1.373  15.100  0.00  0.00     0.080 H 
ATOM     57  H26 QNC d   1      21.179   0.242  15.869  0.00  0.00     0.080 H 
BRANCH  55  58
ATOM     58  N1  DIQ d   1      19.394   0.458  16.792  0.00  0.00    -0.055 N 
ATOM     59  C2  DIQ d   1      20.142   1.223  17.807  0.00  0.00     0.180 C 
ATOM     60  C3  DIQ d   1      19.338   1.460  19.088  0.00  0.00    -0.026 C 
ATOM     61  H27 QNC d   1      20.386   2.197  17.358  0.00  0.00     0.100 H 
ATOM     62  C3A DIQ d   1      17.974   2.109  18.835  0.00  0.00    -0.047 C 
ATOM     63  H28 QNC d   1      19.921   2.118  19.749  0.00  0.00     0.037 H 
ATOM     64  H29 QNC d   1      19.177   0.491  19.584  0.00  0.00     0.037 H 
ATOM     65  C4  DIQ d   1      17.137   2.106  20.112  0.00  0.00    -0.061 C 
ATOM     66  C7A DIQ d   1      17.307   1.358  17.703  0.00  0.00    -0.027 C 
ATOM     67  H30 QNC d   1      18.124   3.154  18.525  0.00  0.00     0.040 H 
ATOM     68  C5  DIQ d   1      16.668   0.698  20.452  0.00  0.00    -0.065 C 
ATOM     69  H31 QNC d   1      16.259   2.753  19.968  0.00  0.00     0.033 H 
ATOM     70  H32 QNC d   1      17.746   2.493  20.942  0.00  0.00     0.033 H 
ATOM     71  C6  DIQ d   1      15.975   0.047  19.265  0.00  0.00    -0.065 C 
ATOM     72  H33 QNC d   1      15.963   0.748  21.295  0.00  0.00     0.033 H 
ATOM     73  H34 QNC d   1      17.538   0.089  20.737  0.00  0.00     0.033 H 
ATOM     74  C7  DIQ d   1      16.985  -0.063  18.132  0.00  0.00    -0.060 C 
ATOM     75  H35 QNC d   1      15.122   0.664  18.946  0.00  0.00     0.033 H 
ATOM     76  H36 QNC d   1      15.618  -0.955  19.545  0.00  0.00     0.033 H 
ATOM     77  H37 QNC d   1      16.553  -0.625  17.291  0.00  0.00     0.033 H 
ATOM     78  H38 QNC d   1      17.896  -0.570  18.483  0.00  0.00     0.033 H 
ATOM     79  C8  DIQ d   1      18.212   1.271  16.499  0.00  0.00     0.088 C 
ATOM     80  H39 QNC d   1      16.379   1.880  17.427  0.00  0.00     0.043 H 
ATOM     81  H40 QNC d   1      17.659   0.815  15.665  0.00  0.00     0.076 H 
ATOM     82  H41 QNC d   1      18.533   2.284  16.216  0.00  0.00     0.076 H 
ATOM     83  H24 QNC d   1      19.154  -0.462  17.127  0.00  0.00     0.281 HD
BRANCH  59  84
ATOM     84  C   DIQ d   1      21.419   0.576  18.256  0.00  0.00     0.249 C 
ATOM     85  O   DIQ d   1      21.443  -0.638  18.353  0.00  0.00    -0.271 OA
ATOM     86  N   QNC d   1      22.424   1.433  18.512  0.00  0.00    -0.351 N 
ATOM     87  H42 QNC d   1      22.210   2.408  18.453  0.00  0.00     0.163 HD
BRANCH  86  88
ATOM     88  C   QNC d   1      23.789   1.083  18.865  0.00  0.00     0.022 C 
BRANCH  88  89
ATOM     89  C1  QNC d   1      24.626   2.360  18.980  0.00  0.00    -0.054 C 
ATOM     90  H43 QNC d   1      25.660   2.098  19.247  0.00  0.00     0.030 H 
ATOM     91  H44 QNC d   1      24.200   3.009  19.759  0.00  0.00     0.030 H 
ATOM     92  H45 QNC d   1      24.620   2.891  18.017  0.00  0.00     0.030 H 
ENDBRANCH  88  89
BRANCH  88  93
ATOM     93  C2  QNC d   1      23.852   0.284  20.162  0.00  0.00    -0.054 C 
ATOM     94  H46 QNC d   1      24.900   0.040  20.392  0.00  0.00     0.030 H 
ATOM     95  H47 QNC d   1      23.276  -0.646  20.048  0.00  0.00     0.030 H 
ATOM     96  H48 QNC d   1      23.426   0.881  20.982  0.00  0.00     0.030 H 
ENDBRANCH  88  93
BRANCH  88  97
ATOM     97  C3  QNC d   1      24.339   0.205  17.740  0.00  0.00    -0.054 C 
ATOM     98  H49 QNC d   1      25.375  -0.082  17.972  0.00  0.00     0.030 H 
ATOM     99  H50 QNC d   1      24.317   0.765  16.794  0.00  0.00     0.030 H 
ATOM    100  H51 QNC d   1      23.721  -0.700  17.645  0.00  0.00     0.030 H 
ENDBRANCH  88  97
ENDBRANCH  86  88
ENDBRANCH  59  84
ENDBRANCH  55  58
ENDBRANCH   2  55
TORSDOF 17
