REMARK  27 active torsions:
REMARK  status: ('A' for Active; 'I' for Inactive)
REMARK    1  A    between atoms: N4_20  and  C14_2 
REMARK    2  A    between atoms: C14_2  and  C15_21 
REMARK    3  A    between atoms: C14_2  and  C22_28 
REMARK    4  A    between atoms: C10_9  and  C11_5 
REMARK    5  A    between atoms: N1_12  and  C8_7 
REMARK    6  A    between atoms: C9_8  and  C10_9 
REMARK    7  A    between atoms: C9_8  and  C13_11 
REMARK    8  A    between atoms: N3_15  and  C9_8 
REMARK    9  A    between atoms: C10_9  and  C12_10 
REMARK       I    between atoms: C13_11  and  N4_20 
REMARK       I    between atoms: C1_17  and  N1_12 
REMARK   10  A    between atoms: N1_12  and  C2_18 
REMARK   11  A    between atoms: C2_18  and  C3_14 
REMARK       I    between atoms: N3_15  and  C1_17 
REMARK   12  A    between atoms: C15_21  and  C16_22 
REMARK   13  A    between atoms: C22_28  and  O3_29 
REMARK   14  A    between atoms: C22_28  and  C23_30 
REMARK   15  A    between atoms: C23_30  and  O4_31 
REMARK   16  A    between atoms: C23_30  and  C24_32 
REMARK   17  A    between atoms: C24_32  and  C25_33 
REMARK   18  A    between atoms: C24_32  and  N5_40 
REMARK   19  A    between atoms: C25_33  and  C26_34 
REMARK       I    between atoms: N5_40  and  C32_41 
REMARK   20  A    between atoms: C32_41  and  C33_43 
REMARK   21  A    between atoms: C33_43  and  C34_44 
REMARK   22  A    between atoms: C33_43  and  N6_47 
REMARK   23  A    between atoms: C34_44  and  C35_45 
REMARK   24  A    between atoms: C34_44  and  C36_46 
REMARK       I    between atoms: N6_47  and  C37_48 
REMARK       I    between atoms: C37_48  and  N7_50 
REMARK   25  A    between atoms: N7_50  and  C38_51 
REMARK   26  A    between atoms: N7_50  and  C39_52 
REMARK   27  A    between atoms: C39_52  and  C40_53 
ROOT
ATOM      1  C23  AI d   1      20.671 -36.385  14.774  0.00  0.00     0.081 C 
ATOM      2  H30  AI d   1      21.494 -36.001  15.395  0.00  0.00     0.090 H 
ENDROOT
BRANCH   1   3
ATOM      3  C22  AI d   1      21.098 -36.351  13.282  0.00  0.00     0.082 C 
ATOM      4  H28  AI d   1      20.454 -37.045  12.722  0.00  0.00     0.090 H 
BRANCH   3   5
ATOM      5  C14  AI d   1      22.598 -36.741  13.028  0.00  0.00     0.043 C 
ATOM      6  H2   AI d   1      22.766 -37.769  13.382  0.00  0.00     0.077 H 
BRANCH   5   7
ATOM      7  N4   AI d   1      22.764 -36.685  11.581  0.00  0.00    -0.352 N 
ATOM      8  C13  AI d   1      23.020 -37.830  10.915  0.00  0.00     0.241 C 
ATOM      9  O2   AI d   1      23.135 -38.956  11.448  0.00  0.00    -0.271 OA
ATOM     10  H20  AI d   1      22.690 -35.816  11.092  0.00  0.00     0.163 HD
BRANCH   8  11
ATOM     11  C9   AI d   1      23.158 -37.674   9.401  0.00  0.00     0.093 C 
ATOM     12  H12  AI d   1      22.638 -36.752   9.102  0.00  0.00     0.088 H 
BRANCH  11  13
ATOM     13  C10  AI d   1      22.543 -38.838   8.544  0.00  0.00    -0.033 C 
ATOM     14  H13  AI d   1      23.055 -39.770   8.825  0.00  0.00     0.042 H 
BRANCH  13  15
ATOM     15  C11  AI d   1      22.718 -38.611   7.025  0.00  0.00    -0.071 C 
ATOM     16  H5   AI d   1      22.271 -39.452   6.475  0.00  0.00     0.028 H 
ATOM     17  H6   AI d   1      23.790 -38.544   6.785  0.00  0.00     0.028 H 
ATOM     18  H7   AI d   1      22.218 -37.676   6.734  0.00  0.00     0.028 H 
ENDBRANCH  13  15
BRANCH  13  19
ATOM     19  C12  AI d   1      21.018 -39.004   8.798  0.00  0.00    -0.071 C 
ATOM     20  H14  AI d   1      20.631 -39.827   8.180  0.00  0.00     0.028 H 
ATOM     21  H15  AI d   1      20.499 -38.071   8.534  0.00  0.00     0.028 H 
ATOM     22  H16  AI d   1      20.846 -39.231   9.860  0.00  0.00     0.028 H 
ENDBRANCH  13  19
ENDBRANCH  11  13
BRANCH  11  23
ATOM     23  N3   AI d   1      24.610 -37.501   9.164  0.00  0.00    -0.329 N 
ATOM     24  C1   AI d   1      25.129 -36.332   8.674  0.00  0.00     0.319 C 
ATOM     25  N1   AI d   1      26.490 -36.229   8.468  0.00  0.00    -0.333 N 
ATOM     26  O1   AI d   1      24.364 -35.375   8.418  0.00  0.00    -0.247 OA
ATOM     27  H17  AI d   1      25.229 -38.260   9.368  0.00  0.00     0.165 HD
BRANCH  25  28
ATOM     28  C8   AI d   1      27.405 -37.351   8.764  0.00  0.00    -0.014 C 
ATOM     29  H9   AI d   1      28.438 -37.054   8.528  0.00  0.00     0.056 H 
ATOM     30  H10  AI d   1      27.126 -38.223   8.154  0.00  0.00     0.056 H 
ATOM     31  H11  AI d   1      27.333 -37.611   9.830  0.00  0.00     0.056 H 
ENDBRANCH  25  28
BRANCH  25  32
ATOM     32  C2   AI d   1      27.112 -34.994   7.934  0.00  0.00     0.038 C 
ATOM     33  H18  AI d   1      26.418 -34.536   7.213  0.00  0.00     0.074 H 
ATOM     34  H19  AI d   1      28.046 -35.266   7.421  0.00  0.00     0.074 H 
BRANCH  32  35
ATOM     35  C3   AI d   1      27.430 -33.980   9.003  0.00  0.00     0.052 A 
ATOM     36  C7   AI d   1      28.776 -33.798   9.442  0.00  0.00    -0.058 A 
ATOM     37  C6   AI d   1      29.035 -32.822  10.462  0.00  0.00    -0.080 A 
ATOM     38  H8   AI d   1      29.583 -34.383   9.015  0.00  0.00     0.086 H 
ATOM     39  C5   AI d   1      27.986 -32.035  11.044  0.00  0.00    -0.066 A 
ATOM     40  H4   AI d   1      30.053 -32.675  10.803  0.00  0.00     0.083 H 
ATOM     41  C4   AI d   1      26.646 -32.226  10.596  0.00  0.00     0.003 A 
ATOM     42  H3   AI d   1      28.209 -31.305  11.814  0.00  0.00     0.085 H 
ATOM     43  N2   AI d   1      26.387 -33.195   9.583  0.00  0.00    -0.264 NA
ATOM     44  H1   AI d   1      25.836 -31.643  11.019  0.00  0.00     0.114 H 
ENDBRANCH  32  35
ENDBRANCH  25  32
ENDBRANCH  11  23
ENDBRANCH   8  11
ENDBRANCH   5   7
BRANCH   5  45
ATOM     45  C15  AI d   1      23.646 -35.802  13.748  0.00  0.00    -0.020 C 
ATOM     46  H21  AI d   1      23.454 -35.841  14.831  0.00  0.00     0.043 H 
ATOM     47  H22  AI d   1      23.492 -34.775  13.385  0.00  0.00     0.043 H 
BRANCH  45  48
ATOM     48  C16  AI d   1      25.098 -36.175  13.511  0.00  0.00    -0.056 A 
ATOM     49  C17  AI d   1      25.693 -37.269  14.236  0.00  0.00    -0.077 A 
ATOM     50  C18  AI d   1      27.065 -37.613  14.005  0.00  0.00    -0.082 A 
ATOM     51  H23  AI d   1      25.105 -37.830  14.954  0.00  0.00     0.084 H 
ATOM     52  C19  AI d   1      27.841 -36.872  13.056  0.00  0.00    -0.083 A 
ATOM     53  H24  AI d   1      27.516 -38.435  14.549  0.00  0.00     0.083 H 
ATOM     54  C20  AI d   1      27.243 -35.783  12.337  0.00  0.00    -0.082 A 
ATOM     55  H25  AI d   1      28.878 -37.133  12.881  0.00  0.00     0.083 H 
ATOM     56  C21  AI d   1      25.871 -35.425  12.555  0.00  0.00    -0.077 A 
ATOM     57  H26  AI d   1      27.835 -35.225  11.621  0.00  0.00     0.083 H 
ATOM     58  H27  AI d   1      25.423 -34.603  12.009  0.00  0.00     0.084 H 
ENDBRANCH  45  48
ENDBRANCH   5  45
ENDBRANCH   3   5
BRANCH   3  59
ATOM     59  O3   AI d   1      20.921 -35.010  12.783  0.00  0.00    -0.391 OA
ATOM     60  H29  AI d   1      20.021 -34.739  12.920  0.00  0.00     0.210 HD
ENDBRANCH   3  59
ENDBRANCH   1   3
BRANCH   1  61
ATOM     61  O4   AI d   1      19.504 -35.587  15.005  0.00  0.00    -0.391 OA
ATOM     62  H31  AI d   1      19.685 -34.686  14.764  0.00  0.00     0.210 HD
ENDBRANCH   1  61
BRANCH   1  63
ATOM     63  C24  AI d   1      20.373 -37.875  15.157  0.00  0.00     0.040 C 
ATOM     64  H32  AI d   1      21.143 -38.511  14.695  0.00  0.00     0.076 H 
BRANCH  63  65
ATOM     65  C25  AI d   1      18.991 -38.355  14.657  0.00  0.00    -0.040 C 
ATOM     66  H33  AI d   1      18.967 -38.246  13.563  0.00  0.00     0.036 H 
ATOM     67  H34  AI d   1      18.222 -37.709  15.107  0.00  0.00     0.036 H 
BRANCH  65  68
ATOM     68  C26  AI d   1      18.650 -39.804  14.996  0.00  0.00    -0.052 C 
ATOM     69  C27  AI d   1      17.101 -40.049  15.046  0.00  0.00    -0.062 C 
ATOM     70  C28  AI d   1      16.690 -41.564  15.186  0.00  0.00    -0.065 C 
ATOM     71  H36  AI d   1      16.660 -39.656  14.118  0.00  0.00     0.033 H 
ATOM     72  H37  AI d   1      16.693 -39.500  15.907  0.00  0.00     0.033 H 
ATOM     73  C29  AI d   1      17.908 -42.491  15.495  0.00  0.00    -0.065 C 
ATOM     74  H38  AI d   1      16.228 -41.892  14.243  0.00  0.00     0.033 H 
ATOM     75  H39  AI d   1      15.960 -41.657  16.004  0.00  0.00     0.033 H 
ATOM     76  C30  AI d   1      19.053 -42.309  14.432  0.00  0.00    -0.065 C 
ATOM     77  H40  AI d   1      17.572 -43.538  15.483  0.00  0.00     0.033 H 
ATOM     78  H41  AI d   1      18.302 -42.243  16.491  0.00  0.00     0.033 H 
ATOM     79  C31  AI d   1      19.306 -40.815  13.997  0.00  0.00    -0.062 C 
ATOM     80  H42  AI d   1      18.785 -42.888  13.536  0.00  0.00     0.033 H 
ATOM     81  H43  AI d   1      19.986 -42.706  14.860  0.00  0.00     0.033 H 
ATOM     82  H44  AI d   1      20.390 -40.632  13.964  0.00  0.00     0.033 H 
ATOM     83  H45  AI d   1      18.877 -40.657  12.996  0.00  0.00     0.033 H 
ATOM     84  H35  AI d   1      19.056 -40.010  15.998  0.00  0.00     0.040 H 
ENDBRANCH  65  68
ENDBRANCH  63  65
BRANCH  63  85
ATOM     85  N5   AI d   1      20.455 -38.017  16.617  0.00  0.00    -0.352 N 
ATOM     86  C32  AI d   1      21.336 -38.863  17.188  0.00  0.00     0.241 C 
ATOM     87  O5   AI d   1      22.147 -39.593  16.588  0.00  0.00    -0.271 OA
ATOM     88  H46  AI d   1      19.846 -37.476  17.198  0.00  0.00     0.163 HD
BRANCH  86  89
ATOM     89  C33  AI d   1      21.269 -38.882  18.730  0.00  0.00     0.093 C 
ATOM     90  H47  AI d   1      20.826 -37.937  19.076  0.00  0.00     0.088 H 
BRANCH  89  91
ATOM     91  C34  AI d   1      22.650 -39.038  19.458  0.00  0.00    -0.033 C 
ATOM     92  H48  AI d   1      23.111 -39.982  19.132  0.00  0.00     0.042 H 
BRANCH  91  93
ATOM     93  C35  AI d   1      22.484 -39.052  20.971  0.00  0.00    -0.071 C 
ATOM     94  H49  AI d   1      23.470 -39.162  21.447  0.00  0.00     0.028 H 
ATOM     95  H50  AI d   1      21.840 -39.895  21.262  0.00  0.00     0.028 H 
ATOM     96  H51  AI d   1      22.023 -38.108  21.298  0.00  0.00     0.028 H 
ENDBRANCH  91  93
BRANCH  91  97
ATOM     97  C36  AI d   1      23.590 -37.873  19.130  0.00  0.00    -0.071 C 
ATOM     98  H52  AI d   1      23.743 -37.820  18.042  0.00  0.00     0.028 H 
ATOM     99  H53  AI d   1      24.558 -38.031  19.629  0.00  0.00     0.028 H 
ATOM    100  H54  AI d   1      23.145 -36.932  19.484  0.00  0.00     0.028 H 
ENDBRANCH  91  97
ENDBRANCH  89  91
BRANCH  89 101
ATOM    101  N6   AI d   1      20.344 -39.997  19.034  0.00  0.00    -0.329 N 
ATOM    102  C37  AI d   1      19.100 -39.826  19.567  0.00  0.00     0.319 C 
ATOM    103  O6   AI d   1      18.682 -38.679  19.827  0.00  0.00    -0.247 OA
ATOM    104  N7   AI d   1      18.318 -40.943  19.809  0.00  0.00    -0.333 N 
ATOM    105  H55  AI d   1      20.648 -40.929  18.837  0.00  0.00     0.165 HD
BRANCH 104 106
ATOM    106  C38  AI d   1      18.778 -42.316  19.514  0.00  0.00    -0.014 C 
ATOM    107  H56  AI d   1      17.991 -43.033  19.788  0.00  0.00     0.056 H 
ATOM    108  H57  AI d   1      19.688 -42.531  20.094  0.00  0.00     0.056 H 
ATOM    109  H58  AI d   1      18.998 -42.406  18.440  0.00  0.00     0.056 H 
ENDBRANCH 104 106
BRANCH 104 110
ATOM    110  C39  AI d   1      16.955 -40.829  20.392  0.00  0.00     0.038 C 
ATOM    111  H59  AI d   1      16.959 -40.032  21.150  0.00  0.00     0.074 H 
ATOM    112  H60  AI d   1      16.692 -41.785  20.868  0.00  0.00     0.074 H 
BRANCH 110 113
ATOM    113  C40  AI d   1      15.912 -40.502  19.347  0.00  0.00     0.052 A 
ATOM    114  C41  AI d   1      15.052 -41.532  18.860  0.00  0.00    -0.058 A 
ATOM    115  C44  AI d   1      14.072 -41.177  17.867  0.00  0.00    -0.080 A 
ATOM    116  H61  AI d   1      15.134 -42.549  19.226  0.00  0.00     0.086 H 
ATOM    117  C43  AI d   1      13.947 -39.834  17.366  0.00  0.00    -0.066 A 
ATOM    118  H64  AI d   1      13.408 -41.944  17.485  0.00  0.00     0.083 H 
ATOM    119  C42  AI d   1      14.815 -38.822  17.866  0.00  0.00     0.003 A 
ATOM    120  H63  AI d   1      13.201 -39.595  16.617  0.00  0.00     0.085 H 
ATOM    121  N8   AI d   1      15.786 -39.170  18.849  0.00  0.00    -0.264 NA
ATOM    122  H62  AI d   1      14.738 -37.803  17.505  0.00  0.00     0.114 H 
ENDBRANCH 110 113
ENDBRANCH 104 110
ENDBRANCH  89 101
ENDBRANCH  86  89
ENDBRANCH  63  85
ENDBRANCH   1  63
TORSDOF 27
