REMARK  5 active torsions:
REMARK  status: ('A' for Active; 'I' for Inactive)
REMARK    1  A    between atoms: C1'_10  and  C8_9 
REMARK    2  A    between atoms: C1B_22  and  C5'_14 
REMARK    3  A    between atoms: C6'_15  and  O6'_16 
REMARK    4  A    between atoms: C51_17  and  N52_18 
REMARK    5  A    between atoms: C5B_26  and  C51_17 
REMARK       I    between atoms: N52_18  and  C53_19 
REMARK       I    between atoms: C53_19  and  N54_21 
ROOT
ATOM      1  C1' 7NH d   1      51.512  -8.300   9.414  0.00  0.00     0.025 A 
ATOM      2  C2' 7NH d   1      52.293  -9.438   9.218  0.00  0.00    -0.068 A 
ATOM      3  C3' 7NH d   1      53.465  -9.389   8.504  0.00  0.00    -0.081 A 
ATOM      4  C4' 7NH d   1      53.878  -8.188   7.971  0.00  0.00    -0.070 A 
ATOM      5  C5' 7NH d   1      53.133  -7.010   8.137  0.00  0.00     0.008 A 
ATOM      6  C6' 7NH d   1      51.953  -7.097   8.859  0.00  0.00     0.089 A 
ATOM      7  H6  7NH d   1      51.968 -10.383   9.639  0.00  0.00     0.085 H 
ATOM      8  H7  7NH d   1      54.058 -10.285   8.361  0.00  0.00     0.083 H 
ATOM      9  H8  7NH d   1      54.804  -8.152   7.408  0.00  0.00     0.085 H 
ENDROOT
BRANCH   5  10
ATOM     10  C1B 7NH d   1      53.604  -5.831   7.591  0.00  0.00    -0.023 A 
ATOM     11  C2B 7NH d   1      52.756  -4.944   6.921  0.00  0.00    -0.072 A 
ATOM     12  C3B 7NH d   1      53.237  -3.776   6.344  0.00  0.00    -0.082 A 
ATOM     13  H15 7NH d   1      51.699  -5.173   6.850  0.00  0.00     0.084 H 
ATOM     14  C4B 7NH d   1      54.591  -3.482   6.435  0.00  0.00    -0.075 A 
ATOM     15  H16 7NH d   1      52.563  -3.101   5.828  0.00  0.00     0.083 H 
ATOM     16  C5B 7NH d   1      55.454  -4.346   7.094  0.00  0.00    -0.040 A 
ATOM     17  H17 7NH d   1      54.976  -2.572   5.989  0.00  0.00     0.084 H 
ATOM     18  C6B 7NH d   1      54.959  -5.504   7.667  0.00  0.00    -0.065 A 
ATOM     19  H18 7NH d   1      55.638  -6.171   8.186  0.00  0.00     0.085 H 
BRANCH  16  20
ATOM     20  C51 7NH d   1      56.938  -4.035   7.166  0.00  0.00     0.021 C 
ATOM     21  H10 7NH d   1      57.465  -4.641   6.414  0.00  0.00     0.071 H 
ATOM     22  H11 7NH d   1      57.089  -2.967   6.948  0.00  0.00     0.071 H 
BRANCH  20  23
ATOM     23  N52 7NH d   1      57.503  -4.337   8.511  0.00  0.00    -0.339 N 
ATOM     24  C53 7NH d   1      58.349  -5.315   8.690  0.00  0.00     0.314 C 
ATOM     25  O53 7NH d   1      58.714  -6.048   7.796  0.00  0.00    -0.248 OA
ATOM     26  N54 7NH d   1      58.819  -5.523   9.890  0.00  0.00    -0.352 N 
ATOM     27  H13 7NH d   1      59.468  -6.266  10.051  0.00  0.00     0.160 HD
ATOM     28  H14 7NH d   1      58.530  -4.939  10.648  0.00  0.00     0.160 HD
ATOM     29  H12 7NH d   1      57.228  -3.779   9.294  0.00  0.00     0.164 HD
ENDBRANCH  20  23
ENDBRANCH  16  20
ENDBRANCH   5  10
BRANCH   6  30
ATOM     30  O6' 7NH d   1      51.182  -5.968   9.009  0.00  0.00    -0.359 OA
ATOM     31  H9  7NH d   1      50.411  -6.178   9.522  0.00  0.00     0.217 HD
ENDBRANCH   6  30
BRANCH   1  32
ATOM     32  C8  7NH d   1      50.355  -8.416  10.149  0.00  0.00     0.046 A 
ATOM     33  N3  7NH d   1      49.516  -7.403  10.296  0.00  0.00    -0.355 N 
ATOM     34  C4  7NH d   1      48.461  -7.744  11.012  0.00  0.00     0.045 A 
ATOM     35  H4  7NH d   1      49.668  -6.464   9.900  0.00  0.00     0.166 HD
ATOM     36  C3  7NH d   1      47.403  -6.986  11.362  0.00  0.00    -0.039 A 
ATOM     37  C5  7NH d   1      48.606  -9.028  11.354  0.00  0.00     0.010 A 
ATOM     38  C2  7NH d   1      46.413  -7.611  12.128  0.00  0.00     0.004 A 
ATOM     39  H2  7NH d   1      47.323  -5.946  11.066  0.00  0.00     0.089 H 
ATOM     40  N1  7NH d   1      46.613  -8.903  12.441  0.00  0.00    -0.272 NA
ATOM     41  H1  7NH d   1      45.527  -7.079  12.454  0.00  0.00     0.114 H 
ATOM     42  C6  7NH d   1      47.649  -9.667  12.106  0.00  0.00     0.014 A 
ATOM     43  H3  7NH d   1      47.732 -10.707  12.401  0.00  0.00     0.116 H 
ATOM     44  CN4 7NH d   1      49.764  -9.456  10.835  0.00  0.00    -0.043 A 
ATOM     45  H5  7NH d   1      50.172 -10.460  10.938  0.00  0.00     0.088 H 
ENDBRANCH   1  32
TORSDOF 5
