REMARK  27 active torsions:
REMARK  status: ('A' for Active; 'I' for Inactive)
REMARK    1  A    between atoms: C1_1  and  C2_2 
REMARK       I    between atoms: C2_2  and  N4_4 
REMARK    2  A    between atoms: N4_4  and  C5_5 
REMARK    3  A    between atoms: C5_5  and  C6_6 
REMARK    4  A    between atoms: C5_5  and  C17_17 
REMARK    5  A    between atoms: C6_6  and  C7_7 
REMARK       I    between atoms: C17_17  and  N19_19 
REMARK    6  A    between atoms: N19_19  and  C20_20 
REMARK    7  A    between atoms: C20_20  and  C21_21 
REMARK    8  A    between atoms: C20_20  and  C23_23 
REMARK       I    between atoms: C21_21  and  N26_26 
REMARK    9  A    between atoms: C23_23  and  C24_24 
REMARK   10  A    between atoms: C23_23  and  C25_25 
REMARK   11  A    between atoms: N26_26  and  C27_27 
REMARK   12  A    between atoms: C27_27  and  C28_28 
REMARK   13  A    between atoms: C27_27  and  C32_32 
REMARK   14  A    between atoms: C28_28  and  C29_29 
REMARK   15  A    between atoms: C29_29  and  C30_30 
REMARK   16  A    between atoms: C29_29  and  C31_31 
REMARK   17  A    between atoms: C32_32  and  C33_33 
REMARK   18  A    between atoms: C32_32  and  O34_34 
REMARK   19  A    between atoms: C33_33  and  C35_35 
REMARK       I    between atoms: C35_35  and  N37_37 
REMARK   20  A    between atoms: N37_37  and  C38_38 
REMARK   21  A    between atoms: C38_38  and  C39_39 
REMARK   22  A    between atoms: C38_38  and  C41_41 
REMARK   23  A    between atoms: C39_39  and  C40_40 
REMARK       I    between atoms: C41_41  and  N43_43 
REMARK   24  A    between atoms: N43_43  and  C44_44 
REMARK   25  A    between atoms: C44_44  and  C45_45 
REMARK   26  A    between atoms: C44_44  and  C56_56 
REMARK   27  A    between atoms: C45_45  and  C46_46 
REMARK       I    between atoms: C56_56  and  N58_58 
ROOT
ATOM      1  C27 LP1 d   1       1.328  18.393  -0.166  0.00  0.00     0.037 C 
ATOM      2  H25 LP1 d   1       1.054  19.420  -0.449  0.00  0.00     0.076 H 
ENDROOT
BRANCH   1   3
ATOM      3  N26 LP1 d   1       1.706  18.437   1.214  0.00  0.00    -0.352 N 
ATOM      4  C21 LP1 d   1       1.700  19.467   2.031  0.00  0.00     0.241 C 
ATOM      5  O22 LP1 d   1       1.310  20.571   1.655  0.00  0.00    -0.271 OA
ATOM      6  H24 LP1 d   1       2.015  17.571   1.608  0.00  0.00     0.163 HD
BRANCH   4   7
ATOM      7  C20 LP1 d   1       2.169  19.155   3.458  0.00  0.00     0.092 C 
ATOM      8  H16 LP1 d   1       2.266  18.064   3.559  0.00  0.00     0.088 H 
BRANCH   7   9
ATOM      9  N19 LP1 d   1       3.473  19.714   3.587  0.00  0.00    -0.346 N 
ATOM     10  C17 LP1 d   1       4.545  19.167   4.062  0.00  0.00     0.241 C 
ATOM     11  O18 LP1 d   1       4.651  18.027   4.470  0.00  0.00    -0.271 OA
ATOM     12  H15 LP1 d   1       3.573  20.656   3.267  0.00  0.00     0.163 HD
BRANCH  10  13
ATOM     13  C5  LP1 d   1       5.818  20.025   3.942  0.00  0.00     0.093 C 
ATOM     14  H5  LP1 d   1       5.582  21.086   3.774  0.00  0.00     0.088 H 
BRANCH  13  15
ATOM     15  N4  LP1 d   1       6.614  19.895   5.170  0.00  0.00    -0.348 N 
ATOM     16  C2  LP1 d   1       6.863  20.986   5.895  0.00  0.00     0.214 C 
ATOM     17  O3  LP1 d   1       6.456  22.118   5.597  0.00  0.00    -0.274 OA
ATOM     18  H4  LP1 d   1       6.963  19.003   5.457  0.00  0.00     0.163 HD
BRANCH  16  19
ATOM     19  C1  LP1 d   1       7.674  20.710   7.154  0.00  0.00    -0.003 C 
ATOM     20  H1  LP1 d   1       7.920  19.639   7.204  0.00  0.00     0.040 H 
ATOM     21  H2  LP1 d   1       7.085  20.993   8.039  0.00  0.00     0.040 H 
ATOM     22  H3  LP1 d   1       8.603  21.299   7.128  0.00  0.00     0.040 H 
ENDBRANCH  16  19
ENDBRANCH  13  15
BRANCH  13  23
ATOM     23  C6  LP1 d   1       6.475  19.405   2.694  0.00  0.00    -0.013 C 
ATOM     24  H6  LP1 d   1       5.688  19.193   1.956  0.00  0.00     0.043 H 
ATOM     25  H7  LP1 d   1       6.964  18.465   2.989  0.00  0.00     0.043 H 
BRANCH  23  26
ATOM     26  C7  LP1 d   1       7.498  20.288   2.053  0.00  0.00    -0.045 A 
ATOM     27  C8  LP1 d   1       7.541  21.630   2.368  0.00  0.00    -0.076 A 
ATOM     28  C9  LP1 d   1       8.512  22.458   1.812  0.00  0.00    -0.082 A 
ATOM     29  H8  LP1 d   1       6.812  22.044   3.055  0.00  0.00     0.084 H 
ATOM     30  C10 LP1 d   1       9.459  21.950   0.934  0.00  0.00    -0.072 A 
ATOM     31  H9  LP1 d   1       8.529  23.511   2.068  0.00  0.00     0.083 H 
ATOM     32  C12 LP1 d   1       9.434  20.579   0.610  0.00  0.00    -0.025 A 
ATOM     33  H10 LP1 d   1      10.210  22.601   0.502  0.00  0.00     0.084 H 
ATOM     34  C11 LP1 d   1       8.441  19.746   1.182  0.00  0.00    -0.020 A 
ATOM     35  C14 LP1 d   1      10.401  20.033  -0.246  0.00  0.00    -0.072 A 
ATOM     36  C13 LP1 d   1       8.441  18.382   0.877  0.00  0.00    -0.072 A 
ATOM     37  C15 LP1 d   1       9.372  17.878   0.007  0.00  0.00    -0.082 A 
ATOM     38  H11 LP1 d   1       7.706  17.724   1.328  0.00  0.00     0.084 H 
ATOM     39  C16 LP1 d   1      10.328  18.696  -0.539  0.00  0.00    -0.082 A 
ATOM     40  H13 LP1 d   1       9.353  16.825  -0.252  0.00  0.00     0.083 H 
ATOM     41  H14 LP1 d   1      11.051  18.270  -1.226  0.00  0.00     0.083 H 
ATOM     42  H12 LP1 d   1      11.186  20.652  -0.665  0.00  0.00     0.084 H 
ENDBRANCH  23  26
ENDBRANCH  13  23
ENDBRANCH  10  13
ENDBRANCH   7   9
BRANCH   7  43
ATOM     43  C23 LP1 d   1       1.130  19.604   4.519  0.00  0.00    -0.033 C 
ATOM     44  H17 LP1 d   1       1.087  20.702   4.574  0.00  0.00     0.042 H 
BRANCH  43  45
ATOM     45  C24 LP1 d   1      -0.224  19.002   4.195  0.00  0.00    -0.071 C 
ATOM     46  H18 LP1 d   1      -0.958  19.323   4.949  0.00  0.00     0.028 H 
ATOM     47  H19 LP1 d   1      -0.148  17.905   4.200  0.00  0.00     0.028 H 
ATOM     48  H20 LP1 d   1      -0.548  19.342   3.200  0.00  0.00     0.028 H 
ENDBRANCH  43  45
BRANCH  43  49
ATOM     49  C25 LP1 d   1       1.467  18.983   5.869  0.00  0.00    -0.071 C 
ATOM     50  H21 LP1 d   1       2.445  19.354   6.209  0.00  0.00     0.028 H 
ATOM     51  H22 LP1 d   1       1.504  17.888   5.770  0.00  0.00     0.028 H 
ATOM     52  H23 LP1 d   1       0.695  19.259   6.603  0.00  0.00     0.028 H 
ENDBRANCH  43  49
ENDBRANCH   7  43
ENDBRANCH   4   7
ENDBRANCH   1   3
BRANCH   1  53
ATOM     53  C28 LP1 d   1       2.603  18.032  -0.985  0.00  0.00    -0.041 C 
ATOM     54  H26 LP1 d   1       2.393  18.164  -2.057  0.00  0.00     0.036 H 
ATOM     55  H27 LP1 d   1       2.872  16.983  -0.791  0.00  0.00     0.036 H 
BRANCH  53  56
ATOM     56  C29 LP1 d   1       3.811  18.959  -0.577  0.00  0.00    -0.059 C 
ATOM     57  H28 LP1 d   1       3.814  19.049   0.519  0.00  0.00     0.038 H 
BRANCH  56  58
ATOM     58  C30 LP1 d   1       5.107  18.356  -0.957  0.00  0.00    -0.073 C 
ATOM     59  H29 LP1 d   1       5.925  19.027  -0.658  0.00  0.00     0.028 H 
ATOM     60  H30 LP1 d   1       5.136  18.205  -2.046  0.00  0.00     0.028 H 
ATOM     61  H31 LP1 d   1       5.224  17.387  -0.449  0.00  0.00     0.028 H 
ENDBRANCH  56  58
BRANCH  56  62
ATOM     62  C31 LP1 d   1       3.567  20.330  -1.135  0.00  0.00    -0.073 C 
ATOM     63  H32 LP1 d   1       2.584  20.693  -0.799  0.00  0.00     0.028 H 
ATOM     64  H33 LP1 d   1       3.587  20.287  -2.234  0.00  0.00     0.028 H 
ATOM     65  H34 LP1 d   1       4.351  21.015  -0.781  0.00  0.00     0.028 H 
ENDBRANCH  56  62
ENDBRANCH  53  56
ENDBRANCH   1  53
BRANCH   1  66
ATOM     66  C32 LP1 d   1       0.055  17.528  -0.486  0.00  0.00     0.063 C 
ATOM     67  H35 LP1 d   1       0.117  17.215  -1.539  0.00  0.00     0.086 H 
BRANCH  66  68
ATOM     68  C33 LP1 d   1      -1.261  18.292  -0.281  0.00  0.00     0.035 C 
ATOM     69  H36 LP1 d   1      -1.235  18.751   0.718  0.00  0.00     0.051 H 
ATOM     70  H37 LP1 d   1      -2.086  17.566  -0.329  0.00  0.00     0.051 H 
BRANCH  68  71
ATOM     71  C35 LP1 d   1      -1.545  19.398  -1.302  0.00  0.00     0.220 C 
ATOM     72  O36 LP1 d   1      -1.076  20.551  -1.310  0.00  0.00    -0.274 OA
ATOM     73  N37 LP1 d   1      -2.362  18.946  -2.247  0.00  0.00    -0.348 N 
ATOM     74  H39 LP1 d   1      -2.725  18.020  -2.143  0.00  0.00     0.163 HD
BRANCH  73  75
ATOM     75  C38 LP1 d   1      -2.765  19.698  -3.418  0.00  0.00     0.089 C 
ATOM     76  H40 LP1 d   1      -2.730  20.776  -3.200  0.00  0.00     0.087 H 
BRANCH  75  77
ATOM     77  C39 LP1 d   1      -1.769  19.353  -4.545  0.00  0.00    -0.041 C 
ATOM     78  H41 LP1 d   1      -1.900  18.287  -4.781  0.00  0.00     0.036 H 
ATOM     79  H42 LP1 d   1      -0.757  19.518  -4.148  0.00  0.00     0.036 H 
BRANCH  77  80
ATOM     80  C40 LP1 d   1      -1.870  20.113  -5.840  0.00  0.00    -0.074 C 
ATOM     81  H43 LP1 d   1      -1.098  19.755  -6.537  0.00  0.00     0.027 H 
ATOM     82  H44 LP1 d   1      -1.721  21.186  -5.648  0.00  0.00     0.027 H 
ATOM     83  H45 LP1 d   1      -2.865  19.954  -6.282  0.00  0.00     0.027 H 
ENDBRANCH  77  80
ENDBRANCH  75  77
BRANCH  75  84
ATOM     84  C41 LP1 d   1      -4.171  19.316  -3.845  0.00  0.00     0.241 C 
ATOM     85  O42 LP1 d   1      -4.465  18.105  -3.890  0.00  0.00    -0.271 OA
ATOM     86  N43 LP1 d   1      -5.046  20.303  -4.092  0.00  0.00    -0.346 N 
ATOM     87  H46 LP1 d   1      -4.746  21.253  -4.005  0.00  0.00     0.163 HD
BRANCH  86  88
ATOM     88  C44 LP1 d   1      -6.414  20.028  -4.482  0.00  0.00     0.093 C 
ATOM     89  H47 LP1 d   1      -6.420  18.950  -4.699  0.00  0.00     0.088 H 
BRANCH  88  90
ATOM     90  C45 LP1 d   1      -7.486  20.200  -3.381  0.00  0.00    -0.013 C 
ATOM     91  H48 LP1 d   1      -7.646  19.230  -2.887  0.00  0.00     0.043 H 
ATOM     92  H49 LP1 d   1      -8.425  20.532  -3.849  0.00  0.00     0.043 H 
BRANCH  90  93
ATOM     93  C46 LP1 d   1      -7.071  21.225  -2.329  0.00  0.00    -0.045 A 
ATOM     94  C47 LP1 d   1      -7.475  22.549  -2.453  0.00  0.00    -0.076 A 
ATOM     95  C48 LP1 d   1      -7.085  23.513  -1.512  0.00  0.00    -0.082 A 
ATOM     96  H50 LP1 d   1      -8.100  22.841  -3.289  0.00  0.00     0.084 H 
ATOM     97  C49 LP1 d   1      -6.267  23.169  -0.457  0.00  0.00    -0.072 A 
ATOM     98  H51 LP1 d   1      -7.429  24.536  -1.615  0.00  0.00     0.083 H 
ATOM     99  C51 LP1 d   1      -5.826  21.851  -0.303  0.00  0.00    -0.025 A 
ATOM    100  H52 LP1 d   1      -5.964  23.925   0.258  0.00  0.00     0.084 H 
ATOM    101  C50 LP1 d   1      -6.235  20.874  -1.264  0.00  0.00    -0.020 A 
ATOM    102  C53 LP1 d   1      -4.980  21.485   0.751  0.00  0.00    -0.072 A 
ATOM    103  C52 LP1 d   1      -5.788  19.550  -1.129  0.00  0.00    -0.072 A 
ATOM    104  C54 LP1 d   1      -4.946  19.211  -0.081  0.00  0.00    -0.082 A 
ATOM    105  H53 LP1 d   1      -6.100  18.795  -1.842  0.00  0.00     0.084 H 
ATOM    106  C55 LP1 d   1      -4.554  20.166   0.834  0.00  0.00    -0.082 A 
ATOM    107  H55 LP1 d   1      -4.594  18.191   0.020  0.00  0.00     0.083 H 
ATOM    108  H56 LP1 d   1      -3.893  19.878   1.643  0.00  0.00     0.083 H 
ATOM    109  H54 LP1 d   1      -4.664  22.216   1.487  0.00  0.00     0.084 H 
ENDBRANCH  90  93
ENDBRANCH  88  90
BRANCH  88 110
ATOM    110  C56 LP1 d   1      -6.808  20.691  -5.793  0.00  0.00     0.238 C 
ATOM    111  O57 LP1 d   1      -6.314  21.779  -6.136  0.00  0.00    -0.271 OA
ATOM    112  N58 LP1 d   1      -7.708  20.111  -6.559  0.00  0.00    -0.368 N 
ATOM    113  H57 LP1 d   1      -7.977  20.535  -7.424  0.00  0.00     0.159 HD
ATOM    114  H58 LP1 d   1      -8.123  19.246  -6.276  0.00  0.00     0.159 HD
ENDBRANCH  88 110
ENDBRANCH  86  88
ENDBRANCH  75  84
ENDBRANCH  73  75
ENDBRANCH  68  71
ENDBRANCH  66  68
BRANCH  66 115
ATOM    115  O34 LP1 d   1       0.001  16.361   0.343  0.00  0.00    -0.393 OA
ATOM    116  H38 LP1 d   1      -0.096  16.623   1.251  0.00  0.00     0.210 HD
ENDBRANCH  66 115
ENDBRANCH   1  66
TORSDOF 27
