REMARK  1 active torsions:
REMARK  status: ('A' for Active; 'I' for Inactive)
REMARK    1  A    between atoms: C1_2  and  N2_10 
ROOT
ATOM      1  N1  270 d   1      32.042  20.796  83.233  0.00  0.00    -0.063 NA
ATOM      2  C1  270 d   1      32.857  21.558  84.005  0.00  0.00     0.699 A 
ATOM      3  C2  270 d   1      30.832  20.793  83.794  0.00  0.00     0.103 A 
ATOM      4  C3  270 d   1      29.606  20.167  83.416  0.00  0.00    -0.052 A 
ATOM      5  C4  270 d   1      28.447  20.362  84.248  0.00  0.00    -0.081 A 
ATOM      6  C5  270 d   1      28.537  21.173  85.434  0.00  0.00    -0.081 A 
ATOM      7  C6  270 d   1      29.779  21.796  85.800  0.00  0.00    -0.054 A 
ATOM      8  C7  270 d   1      30.921  21.594  84.961  0.00  0.00     0.078 A 
ATOM      9  N3  270 d   1      32.182  22.051  85.065  0.00  0.00    -0.188 N 
ATOM     10  H1  270 d   1      29.549  19.558  82.521  0.00  0.00     0.087 H 
ATOM     11  H2  270 d   1      27.505  19.897  83.981  0.00  0.00     0.083 H 
ATOM     12  H3  270 d   1      27.661  21.315  86.056  0.00  0.00     0.083 H 
ATOM     13  H4  270 d   1      29.850  22.406  86.693  0.00  0.00     0.087 H 
ATOM     14  H5  270 d   1      32.558  22.658  85.807  0.00  0.00     0.184 HD
ENDROOT
BRANCH   2  15
ATOM     15  N2  270 d   1      34.158  21.787  83.745  0.00  0.00    -0.233 N 
ATOM     16  H6  270 d   1      34.598  21.371  82.912  0.00  0.00     0.174 HD
ATOM     17  H7  270 d   1      34.714  22.378  84.380  0.00  0.00     0.174 HD
ENDBRANCH   2  15
TORSDOF 1
