REMARK  5 active torsions:
REMARK  status: ('A' for Active; 'I' for Inactive)
REMARK    1  A    between atoms: C1_15  and  N9_1 
REMARK    2  A    between atoms: C5_11  and  O5_12 
REMARK    3  A    between atoms: C4_13  and  C5_11 
REMARK    4  A    between atoms: C2_16  and  O2_17 
REMARK    5  A    between atoms: C3_18  and  O3_19 
ROOT
ATOM      1  C4  NOS d   1      32.337  60.363  13.037  0.00  0.00     0.088 C 
ATOM      2  O4  NOS d   1      32.264  60.465  11.603  0.00  0.00    -0.353 OA
ATOM      3  C1  NOS d   1      33.581  60.246  11.059  0.00  0.00     0.139 C 
ATOM      4  C2  NOS d   1      34.509  59.953  12.243  0.00  0.00     0.105 C 
ATOM      5  C3  NOS d   1      33.793  60.699  13.367  0.00  0.00     0.091 C 
ATOM      6  H7  NOS d   1      32.092  59.347  13.380  0.00  0.00     0.090 H 
ATOM      7  H8  NOS d   1      33.581  59.396  10.361  0.00  0.00     0.122 H 
ATOM      8  H9  NOS d   1      35.529  60.331  12.083  0.00  0.00     0.093 H 
ATOM      9  H11 NOS d   1      33.992  61.781  13.369  0.00  0.00     0.091 H 
ENDROOT
BRANCH   3  10
ATOM     10  N9  NOS d   1      33.977  61.489  10.345  0.00  0.00    -0.294 N 
ATOM     11  C4  NOS d   1      34.728  61.534   9.243  0.00  0.00     0.169 A 
ATOM     12  N3  NOS d   1      35.352  60.558   8.564  0.00  0.00    -0.223 NA
ATOM     13  C5  NOS d   1      34.797  62.863   8.839  0.00  0.00     0.172 A 
ATOM     14  C2  NOS d   1      36.058  60.816   7.474  0.00  0.00     0.069 A 
ATOM     15  N1  NOS d   1      36.166  62.133   7.005  0.00  0.00    -0.316 N 
ATOM     16  H1  NOS d   1      36.554  60.006   6.942  0.00  0.00     0.143 H 
ATOM     17  C6  NOS d   1      35.530  63.176   7.697  0.00  0.00     0.279 A 
ATOM     18  H2  NOS d   1      36.695  62.329   6.179  0.00  0.00     0.170 HD
ATOM     19  O6  NOS d   1      35.630  64.338   7.300  0.00  0.00    -0.265 OA
ATOM     20  N7  NOS d   1      34.085  63.574   9.713  0.00  0.00    -0.234 NA
ATOM     21  C8  NOS d   1      33.596  62.735  10.626  0.00  0.00     0.071 A 
ATOM     22  H3  NOS d   1      32.978  63.024  11.475  0.00  0.00     0.144 H 
ENDBRANCH   3  10
BRANCH   4  23
ATOM     23  O2  NOS d   1      34.530  58.540  12.479  0.00  0.00    -0.388 OA
ATOM     24  H10 NOS d   1      34.849  58.095  11.703  0.00  0.00     0.210 HD
ENDBRANCH   4  23
BRANCH   1  25
ATOM     25  C5  NOS d   1      31.341  61.363  13.636  0.00  0.00     0.043 C 
ATOM     26  H4  NOS d   1      30.327  61.104  13.297  0.00  0.00     0.078 H 
ATOM     27  H5  NOS d   1      31.388  61.300  14.733  0.00  0.00     0.078 H 
BRANCH  25  28
ATOM     28  O5  NOS d   1      31.638  62.705  13.234  0.00  0.00    -0.398 OA
ATOM     29  H6  NOS d   1      32.511  62.937  13.528  0.00  0.00     0.209 HD
ENDBRANCH  25  28
ENDBRANCH   1  25
BRANCH   5  30
ATOM     30  O3  NOS d   1      34.172  60.097  14.608  0.00  0.00    -0.390 OA
ATOM     31  H12 NOS d   1      33.737  60.547  15.323  0.00  0.00     0.210 HD
ENDBRANCH   5  30
TORSDOF 5
