REMARK  6 active torsions:
REMARK  status: ('A' for Active; 'I' for Inactive)
REMARK    1  A    between atoms: O5_1  and  C5_2 
REMARK    2  A    between atoms: C5_2  and  C4_3 
REMARK    3  A    between atoms: C3_5  and  O3_6 
REMARK    4  A    between atoms: C2_7  and  O2_8 
REMARK    5  A    between atoms: C1_9  and  N9_10 
REMARK    6  A    between atoms: C2_17  and  N2_18 
ROOT
ATOM      1  C4  GMP d   1      32.124  60.123  13.050  0.00  0.00     0.088 C 
ATOM      2  O4  GMP d   1      32.041  60.240  11.620  0.00  0.00    -0.353 OA
ATOM      3  C3  GMP d   1      33.573  60.490  13.373  0.00  0.00     0.091 C 
ATOM      4  C2  GMP d   1      34.289  59.751  12.245  0.00  0.00     0.105 C 
ATOM      5  C1  GMP d   1      33.358  60.054  11.068  0.00  0.00     0.139 C 
ATOM      6  H4  GMP d   1      31.905  59.096  13.376  0.00  0.00     0.090 H 
ATOM      7  H5  GMP d   1      33.753  61.575  13.362  0.00  0.00     0.091 H 
ATOM      8  H7  GMP d   1      35.314  60.118  12.086  0.00  0.00     0.093 H 
ATOM      9  H9  GMP d   1      33.371  59.215  10.357  0.00  0.00     0.122 H 
ENDROOT
BRANCH   5  10
ATOM     10  N9  GMP d   1      33.721  61.309  10.368  0.00  0.00    -0.293 N 
ATOM     11  C8  GMP d   1      33.378  62.554  10.698  0.00  0.00     0.071 A 
ATOM     12  N7  GMP d   1      33.861  63.399   9.790  0.00  0.00    -0.234 NA
ATOM     13  H10 GMP d   1      32.794  62.836  11.573  0.00  0.00     0.144 H 
ATOM     14  C5  GMP d   1      34.517  62.694   8.871  0.00  0.00     0.173 A 
ATOM     15  C6  GMP d   1      35.193  63.009   7.697  0.00  0.00     0.292 A 
ATOM     16  C4  GMP d   1      34.420  61.358   9.241  0.00  0.00     0.186 A 
ATOM     17  O6  GMP d   1      35.347  64.175   7.328  0.00  0.00    -0.265 OA
ATOM     18  N1  GMP d   1      35.736  61.972   6.934  0.00  0.00    -0.152 N 
ATOM     19  C2  GMP d   1      35.603  60.642   7.358  0.00  0.00     0.703 A 
ATOM     20  H11 GMP d   1      36.220  62.179   6.084  0.00  0.00     0.187 HD
ATOM     21  N3  GMP d   1      34.952  60.376   8.497  0.00  0.00    -0.044 NA
BRANCH  19  22
ATOM     22  N2  GMP d   1      36.122  59.657   6.633  0.00  0.00    -0.233 N 
ATOM     23  H12 GMP d   1      36.024  58.681   6.946  0.00  0.00     0.174 HD
ATOM     24  H13 GMP d   1      36.623  59.870   5.758  0.00  0.00     0.174 HD
ENDBRANCH  19  22
ENDBRANCH   5  10
BRANCH   4  25
ATOM     25  O2  GMP d   1      34.283  58.339  12.480  0.00  0.00    -0.388 OA
ATOM     26  H8  GMP d   1      34.727  58.154  13.299  0.00  0.00     0.210 HD
ENDBRANCH   4  25
BRANCH   1  27
ATOM     27  C5  GMP d   1      31.124  61.089  13.697  0.00  0.00     0.043 C 
ATOM     28  H2  GMP d   1      30.112  60.839  13.347  0.00  0.00     0.078 H 
ATOM     29  H3  GMP d   1      31.174  60.972  14.790  0.00  0.00     0.078 H 
BRANCH  27  30
ATOM     30  O5  GMP d   1      31.404  62.454  13.365  0.00  0.00    -0.398 OA
ATOM     31  H1  GMP d   1      32.275  62.681  13.669  0.00  0.00     0.209 HD
ENDBRANCH  27  30
ENDBRANCH   1  27
BRANCH   3  32
ATOM     32  O3  GMP d   1      33.959  59.916  14.627  0.00  0.00    -0.390 OA
ATOM     33  H6  GMP d   1      33.393  60.248  15.314  0.00  0.00     0.210 HD
ENDBRANCH   3  32
TORSDOF 6
