REMARK  6 active torsions:
REMARK  status: ('A' for Active; 'I' for Inactive)
REMARK    1  A    between atoms: O5_1  and  C5_2 
REMARK    2  A    between atoms: C5_2  and  C4_3 
REMARK    3  A    between atoms: C3_5  and  O3_6 
REMARK    4  A    between atoms: C2_7  and  O2_8 
REMARK    5  A    between atoms: C1_9  and  N9_10 
REMARK    6  A    between atoms: C6_14  and  N6_15 
ROOT
ATOM      1  C4  ADN d   1      31.913  60.025  13.066  0.00  0.00     0.088 C 
ATOM      2  O4  ADN d   1      31.739  60.032  11.608  0.00  0.00    -0.353 OA
ATOM      3  C3  ADN d   1      33.442  60.237  13.324  0.00  0.00     0.091 C 
ATOM      4  C2  ADN d   1      34.028  59.472  12.115  0.00  0.00     0.105 C 
ATOM      5  C1  ADN d   1      33.053  59.838  10.988  0.00  0.00     0.139 C 
ATOM      6  H4  ADN d   1      31.613  59.044  13.463  0.00  0.00     0.090 H 
ATOM      7  H5  ADN d   1      33.706  61.304  13.272  0.00  0.00     0.091 H 
ATOM      8  H7  ADN d   1      35.053  59.800  11.886  0.00  0.00     0.093 H 
ATOM      9  H9  ADN d   1      33.002  59.015  10.260  0.00  0.00     0.122 H 
ENDROOT
BRANCH   5  10
ATOM     10  N9  ADN d   1      33.493  61.072  10.289  0.00  0.00    -0.294 N 
ATOM     11  C8  ADN d   1      33.109  62.377  10.552  0.00  0.00     0.071 A 
ATOM     12  N7  ADN d   1      33.656  63.201   9.701  0.00  0.00    -0.236 NA
ATOM     13  H10 ADN d   1      32.441  62.675  11.359  0.00  0.00     0.144 H 
ATOM     14  C5  ADN d   1      34.405  62.490   8.831  0.00  0.00     0.149 A 
ATOM     15  C6  ADN d   1      35.195  62.823   7.719  0.00  0.00     0.155 A 
ATOM     16  C4  ADN d   1      34.320  61.113   9.193  0.00  0.00     0.167 A 
ATOM     17  N1  ADN d   1      35.757  61.826   7.011  0.00  0.00    -0.222 NA
ATOM     18  C2  ADN d   1      35.669  60.528   7.400  0.00  0.00     0.091 A 
ATOM     19  N3  ADN d   1      34.981  60.174   8.466  0.00  0.00    -0.222 NA
ATOM     20  H13 ADN d   1      36.176  59.766   6.820  0.00  0.00     0.146 H 
BRANCH  15  21
ATOM     21  N6  ADN d   1      35.394  64.154   7.388  0.00  0.00    -0.382 N 
ATOM     22  H11 ADN d   1      35.973  64.401   6.573  0.00  0.00     0.157 HD
ATOM     23  H12 ADN d   1      34.963  64.896   7.957  0.00  0.00     0.157 HD
ENDBRANCH  15  21
ENDBRANCH   5  10
BRANCH   4  24
ATOM     24  O2  ADN d   1      34.009  58.048  12.361  0.00  0.00    -0.388 OA
ATOM     25  H8  ADN d   1      34.372  57.593  11.610  0.00  0.00     0.210 HD
ENDBRANCH   4  24
BRANCH   1  26
ATOM     26  C5  ADN d   1      31.052  61.097  13.743  0.00  0.00     0.043 C 
ATOM     27  H2  ADN d   1      29.988  60.874  13.573  0.00  0.00     0.078 H 
ATOM     28  H3  ADN d   1      31.257  61.104  14.824  0.00  0.00     0.078 H 
BRANCH  26  29
ATOM     29  O5  ADN d   1      31.363  62.367  13.194  0.00  0.00    -0.398 OA
ATOM     30  H1  ADN d   1      32.282  62.558  13.341  0.00  0.00     0.209 HD
ENDBRANCH  26  29
ENDBRANCH   1  26
BRANCH   3  31
ATOM     31  O3  ADN d   1      33.865  59.729  14.610  0.00  0.00    -0.390 OA
ATOM     32  H6  ADN d   1      33.388  60.177  15.299  0.00  0.00     0.210 HD
ENDBRANCH   3  31
TORSDOF 6
