REMARK  5 active torsions:
REMARK  status: ('A' for Active; 'I' for Inactive)
REMARK    1  A    between atoms: C9_2  and  C8_4 
REMARK       I    between atoms: N_8  and  C4_9 
REMARK    2  A    between atoms: C4_9  and  C2_11 
REMARK    3  A    between atoms: C2_11  and  C3_12 
REMARK    4  A    between atoms: C2_11  and  C1_13 
REMARK    5  A    between atoms: C1_13  and  S_14 
ROOT
ATOM      1  C8  MCO d   1      11.580  27.556  34.539  0.00  0.00     0.098 A 
ATOM      2  C7  MCO d   1      10.117  27.499  34.954  0.00  0.00    -0.035 A 
ATOM      3  C6  MCO d   1       9.265  28.203  33.929  0.00  0.00    -0.048 A 
ATOM      4  C5  MCO d   1      10.211  28.578  32.802  0.00  0.00    -0.001 A 
ATOM      5  N   MCO d   1      11.546  28.173  33.187  0.00  0.00    -0.337 N 
ATOM      6  C4  MCO d   1      12.647  28.338  32.413  0.00  0.00     0.225 C 
ATOM      7  O1  MCO d   1      13.763  27.965  32.767  0.00  0.00    -0.273 OA
ATOM      8  H1  MCO d   1      12.042  26.559  34.493  0.00  0.00     0.089 H 
ATOM      9  H2  MCO d   1       9.995  27.992  35.930  0.00  0.00     0.036 H 
ATOM     10  H3  MCO d   1       9.801  26.448  35.032  0.00  0.00     0.036 H 
ATOM     11  H4  MCO d   1       8.808  29.105  34.363  0.00  0.00     0.035 H 
ATOM     12  H5  MCO d   1       8.475  27.532  33.560  0.00  0.00     0.035 H 
ATOM     13  H6  MCO d   1      10.183  29.665  32.637  0.00  0.00     0.064 H 
ATOM     14  H7  MCO d   1       9.915  28.060  31.878  0.00  0.00     0.064 H 
ENDROOT
BRANCH   1  15
ATOM     15  C9  MCO d   1      12.255  28.395  35.599  0.00  0.00     0.196 C 
ATOM     16  O2  MCO d   1      12.461  27.884  36.735  0.00  0.00    -0.646 OA
ATOM     17  O3  MCO d   1      12.465  29.610  35.368  0.00  0.00    -0.646 OA
ENDBRANCH   1  15
BRANCH   6  18
ATOM     18  C2  MCO d   1      12.553  28.989  31.043  0.00  0.00     0.028 C 
ATOM     19  H8  MCO d   1      11.493  29.153  30.800  0.00  0.00     0.055 H 
BRANCH  18  20
ATOM     20  C3  MCO d   1      13.174  28.045  29.999  0.00  0.00    -0.064 C 
ATOM     21  H9  MCO d   1      13.111  28.508  29.003  0.00  0.00     0.028 H 
ATOM     22  H10 MCO d   1      12.627  27.091  29.996  0.00  0.00     0.028 H 
ATOM     23  H11 MCO d   1      14.229  27.862  30.252  0.00  0.00     0.028 H 
ENDBRANCH  18  20
BRANCH  18  24
ATOM     24  C1  MCO d   1      13.279  30.331  31.005  0.00  0.00    -0.015 C 
ATOM     25  H12 MCO d   1      13.236  30.720  29.977  0.00  0.00     0.049 H 
ATOM     26  H13 MCO d   1      14.328  30.166  31.291  0.00  0.00     0.049 H 
BRANCH  24  27
ATOM     27  S   MCO d   1      12.573  31.572  32.116  0.00  0.00    -0.181 SA
ATOM     28  H14 MCO d   1      13.099  32.428  32.039  0.00  0.00     0.101 HD
ENDBRANCH  24  27
ENDBRANCH  18  24
ENDBRANCH   6  18
TORSDOF 5
