REMARK  6 active torsions:
REMARK  status: ('A' for Active; 'I' for Inactive)
REMARK    1  A    between atoms: C1_1  and  C2_4 
REMARK    2  A    between atoms: C2_4  and  C3_5 
REMARK    3  A    between atoms: C3_5  and  O7_6 
REMARK    4  A    between atoms: C3_5  and  C4_7 
REMARK    5  A    between atoms: C3_5  and  C6_11 
REMARK    6  A    between atoms: C4_7  and  C5_8 
ROOT
ATOM      1  C3  CIT d   1      36.110  65.742-151.245  0.00  0.00     0.164 C 
ENDROOT
BRANCH   1   2
ATOM      2  C2  CIT d   1      35.557  64.831-150.144  0.00  0.00     0.054 C 
ATOM      3  H1  CIT d   1      34.954  64.040-150.613  0.00  0.00     0.054 H 
ATOM      4  H2  CIT d   1      36.402  64.377-149.606  0.00  0.00     0.054 H 
BRANCH   2   5
ATOM      5  C1  CIT d   1      34.689  65.575-149.145  0.00  0.00     0.176 C 
ATOM      6  O1  CIT d   1      33.932  66.480-149.561  0.00  0.00    -0.648 OA
ATOM      7  O2  CIT d   1      34.749  65.239-147.944  0.00  0.00    -0.648 OA
ENDBRANCH   2   5
ENDBRANCH   1   2
BRANCH   1   8
ATOM      8  O7  CIT d   1      35.011  66.327-151.952  0.00  0.00    -0.378 OA
ATOM      9  H3  CIT d   1      34.482  66.835-151.348  0.00  0.00     0.211 HD
ENDBRANCH   1   8
BRANCH   1  10
ATOM     10  C4  CIT d   1      36.969  64.906-152.202  0.00  0.00     0.054 C 
ATOM     11  H4  CIT d   1      37.629  64.258-151.607  0.00  0.00     0.054 H 
ATOM     12  H5  CIT d   1      37.578  65.587-152.814  0.00  0.00     0.054 H 
BRANCH  10  13
ATOM     13  C5  CIT d   1      36.137  64.034-153.127  0.00  0.00     0.176 C 
ATOM     14  O3  CIT d   1      36.112  64.318-154.343  0.00  0.00    -0.648 OA
ATOM     15  O4  CIT d   1      35.502  63.073-152.642  0.00  0.00    -0.648 OA
ENDBRANCH  10  13
ENDBRANCH   1  10
BRANCH   1  16
ATOM     16  C6  CIT d   1      36.959  66.861-150.643  0.00  0.00     0.210 C 
ATOM     17  O5  CIT d   1      37.951  66.527-149.966  0.00  0.00    -0.646 OA
ATOM     18  O6  CIT d   1      36.635  68.053-150.864  0.00  0.00    -0.646 OA
ENDBRANCH   1  16
TORSDOF 6
