REMARK  1 active torsions:
REMARK  status: ('A' for Active; 'I' for Inactive)
REMARK    1  A    between atoms: C1_2  and  N2_10 
ROOT
ATOM      1  N1  270 d   1      44.420  -2.376  25.681  0.00  0.00    -0.063 NA
ATOM      2  C1  270 d   1      44.121  -3.608  25.347  0.00  0.00     0.699 A 
ATOM      3  C2  270 d   1      44.143  -2.266  26.943  0.00  0.00     0.103 A 
ATOM      4  C3  270 d   1      44.282  -1.167  27.760  0.00  0.00    -0.052 A 
ATOM      5  C4  270 d   1      43.905  -1.349  29.098  0.00  0.00    -0.081 A 
ATOM      6  C5  270 d   1      43.411  -2.595  29.545  0.00  0.00    -0.081 A 
ATOM      7  C6  270 d   1      43.286  -3.706  28.668  0.00  0.00    -0.054 A 
ATOM      8  C7  270 d   1      43.670  -3.478  27.369  0.00  0.00     0.078 A 
ATOM      9  N3  270 d   1      43.657  -4.303  26.363  0.00  0.00    -0.188 N 
ATOM     10  H1  270 d   1      44.659  -0.220  27.392  0.00  0.00     0.087 H 
ATOM     11  H2  270 d   1      43.993  -0.525  29.797  0.00  0.00     0.083 H 
ATOM     12  H3  270 d   1      43.120  -2.706  30.583  0.00  0.00     0.083 H 
ATOM     13  H4  270 d   1      42.913  -4.668  29.001  0.00  0.00     0.087 H 
ATOM     14  H5  270 d   1      43.350  -5.286  26.362  0.00  0.00     0.184 HD
ENDROOT
BRANCH   2  15
ATOM     15  N2  270 d   1      44.367  -4.097  24.171  0.00  0.00    -0.233 N 
ATOM     16  H6  270 d   1      44.730  -3.487  23.425  0.00  0.00     0.174 HD
ATOM     17  H7  270 d   1      44.199  -5.096  23.983  0.00  0.00     0.174 HD
ENDBRANCH   2  15
TORSDOF 1
