REMARK  13 active torsions:
REMARK  status: ('A' for Active; 'I' for Inactive)
REMARK    1  A    between atoms: C7_1  and  O4_2 
REMARK    2  A    between atoms: O4_2  and  C6_3 
REMARK    3  A    between atoms: C6_3  and  C5_5 
REMARK    4  A    between atoms: C4_6  and  O2_7 
REMARK    5  A    between atoms: C2_9  and  O1_10 
REMARK    6  A    between atoms: C8_13  and  C9_14 
REMARK    7  A    between atoms: C9_14  and  C10_15 
REMARK    8  A    between atoms: C10_15  and  C11_16 
REMARK       I    between atoms: C11_16  and  N1_18 
REMARK    9  A    between atoms: N1_18  and  C12_19 
REMARK   10  A    between atoms: C17_21  and  O8_22 
REMARK   11  A    between atoms: C15_23  and  O7_24 
REMARK   12  A    between atoms: O7_24  and  C16_25 
REMARK   13  A    between atoms: C13_27  and  O6_28 
ROOT
ATOM      1  C10 RDA d   1      21.683  34.457   4.591  0.00  0.00     0.013 C 
ATOM      2  H9  RDA d   1      22.004  33.650   3.916  0.00  0.00     0.047 H 
ATOM      3  H10 RDA d   1      21.551  34.055   5.606  0.00  0.00     0.047 H 
ENDROOT
BRANCH   1   4
ATOM      4  C9  RDA d   1      20.342  35.008   4.099  0.00  0.00    -0.030 C 
ATOM      5  H7  RDA d   1      19.992  35.779   4.801  0.00  0.00     0.041 H 
ATOM      6  H8  RDA d   1      20.482  35.455   3.104  0.00  0.00     0.041 H 
BRANCH   4   7
ATOM      7  C8  RDA d   1      19.286  33.900   4.005  0.00  0.00    -0.014 A 
ATOM      8  C5  RDA d   1      18.324  33.730   5.000  0.00  0.00     0.080 A 
ATOM      9  C4  RDA d   1      17.356  32.733   4.906  0.00  0.00     0.085 A 
ATOM     10  C3  RDA d   1      17.331  31.879   3.809  0.00  0.00    -0.016 A 
ATOM     11  C2  RDA d   1      18.287  32.034   2.810  0.00  0.00     0.090 A 
ATOM     12  H5  RDA d   1      16.577  31.104   3.733  0.00  0.00     0.092 H 
ATOM     13  C1  RDA d   1      19.247  33.035   2.911  0.00  0.00     0.074 A 
ATOM     14 CL   RDA d   1      20.387  33.207   1.621  0.00  0.00    -0.081 Cl
BRANCH   8  15
ATOM     15  C6  RDA d   1      18.363  34.603   6.258  0.00  0.00     0.296 C 
ATOM     16  O3  RDA d   1      17.324  35.064   6.728  0.00  0.00    -0.259 OA
BRANCH  15  17
ATOM     17  O4  RDA d   1      19.570  34.898   6.815  0.00  0.00    -0.322 OA
BRANCH  17  18
ATOM     18  C7  RDA d   1      19.439  35.715   7.983  0.00  0.00     0.013 C 
ATOM     19  H1  RDA d   1      20.436  35.926   8.396  0.00  0.00     0.067 H 
ATOM     20  H2  RDA d   1      18.835  35.186   8.735  0.00  0.00     0.067 H 
ATOM     21  H3  RDA d   1      18.945  36.661   7.715  0.00  0.00     0.067 H 
ENDBRANCH  17  18
ENDBRANCH  15  17
ENDBRANCH   8  15
BRANCH   9  22
ATOM     22  O2  RDA d   1      16.443  32.569   5.900  0.00  0.00    -0.360 OA
ATOM     23  H4  RDA d   1      15.861  31.852   5.679  0.00  0.00     0.217 HD
ENDBRANCH   9  22
BRANCH  11  24
ATOM     24  O1  RDA d   1      18.299  31.187   1.746  0.00  0.00    -0.359 OA
ATOM     25  H6  RDA d   1      18.427  30.297   2.053  0.00  0.00     0.217 HD
ENDBRANCH  11  24
ENDBRANCH   4   7
ENDBRANCH   1   4
BRANCH   1  26
ATOM     26  C11 RDA d   1      22.769  35.534   4.624  0.00  0.00     0.222 C 
ATOM     27  O5  RDA d   1      23.291  35.933   3.584  0.00  0.00    -0.273 OA
ATOM     28  N1  RDA d   1      23.065  35.993   5.839  0.00  0.00    -0.325 N 
ATOM     29  H11 RDA d   1      22.555  35.618   6.613  0.00  0.00     0.169 HD
BRANCH  28  30
ATOM     30  C12 RDA d   1      23.991  36.916   6.097  0.00  0.00     0.071 A 
ATOM     31  C18 RDA d   1      24.808  37.445   5.101  0.00  0.00    -0.020 A 
ATOM     32  C17 RDA d   1      25.814  38.353   5.421  0.00  0.00     0.101 A 
ATOM     33  H12 RDA d   1      24.660  37.148   4.069  0.00  0.00     0.091 H 
ATOM     34  C15 RDA d   1      26.010  38.742   6.743  0.00  0.00     0.104 A 
ATOM     35  C14 RDA d   1      25.190  38.219   7.741  0.00  0.00    -0.014 A 
ATOM     36  C13 RDA d   1      24.186  37.312   7.418  0.00  0.00     0.095 A 
ATOM     37  H17 RDA d   1      25.335  38.520   8.772  0.00  0.00     0.092 H 
BRANCH  32  38
ATOM     38  O8  RDA d   1      26.540  38.802   4.533  0.00  0.00    -0.358 OA
ATOM     39  H13 RDA d   1      27.169  39.403   4.914  0.00  0.00     0.217 HD
ENDBRANCH  32  38
BRANCH  34  40
ATOM     40  O7  RDA d   1      27.015  39.599   7.065  0.00  0.00    -0.353 OA
BRANCH  40  41
ATOM     41  C16 RDA d   1      26.575  40.961   7.032  0.00  0.00     0.010 C 
ATOM     42  H14 RDA d   1      27.412  41.623   7.297  0.00  0.00     0.066 H 
ATOM     43  H15 RDA d   1      25.756  41.099   7.753  0.00  0.00     0.066 H 
ATOM     44  H16 RDA d   1      26.219  41.207   6.021  0.00  0.00     0.066 H 
ENDBRANCH  40  41
ENDBRANCH  34  40
BRANCH  36  45
ATOM     45  O6  RDA d   1      23.461  36.862   8.305  0.00  0.00    -0.358 OA
ATOM     46  H18 RDA d   1      23.001  37.577   8.729  0.00  0.00     0.217 HD
ENDBRANCH  36  45
ENDBRANCH  28  30
ENDBRANCH   1  26
TORSDOF 13
