REMARK  27 active torsions:
REMARK  status: ('A' for Active; 'I' for Inactive)
REMARK    1  A    between atoms: C18_2  and  C16_3 
REMARK       I    between atoms: C18_2  and  N2_25 
REMARK    2  A    between atoms: C16_3  and  C17_4 
REMARK    3  A    between atoms: C16_3  and  C15_5 
REMARK    4  A    between atoms: C15_5  and  O4_6 
REMARK    5  A    between atoms: C15_5  and  C14_7 
REMARK    6  A    between atoms: C14_7  and  N1_8 
REMARK       I    between atoms: N1_8  and  C13_9 
REMARK    7  A    between atoms: C13_9  and  C12_11 
REMARK    8  A    between atoms: C12_11  and  C11_12 
REMARK    9  A    between atoms: C9_13  and  C10_14 
REMARK   10  A    between atoms: C6_18  and  C5_19 
REMARK   11  A    between atoms: C5_19  and  C4_20 
REMARK   12  A    between atoms: C4_20  and  C3_22 
REMARK   13  A    between atoms: C2_23  and  C1_24 
REMARK   14  A    between atoms: N2_25  and  C19_26 
REMARK   15  A    between atoms: C19_26  and  C20_27 
REMARK   16  A    between atoms: C20_27  and  C21_28 
REMARK   17  A    between atoms: C21_28  and  C22_29 
REMARK   18  A    between atoms: C23_30  and  C24_31 
REMARK   19  A    between atoms: C31_39  and  C32_41 
REMARK   20  A    between atoms: C32_41  and  C33_42 
REMARK   21  A    between atoms: C33_42  and  C34_43 
REMARK   22  A    between atoms: C34_43  and  C35_44 
REMARK   23  A    between atoms: C34_43  and  C36_45 
REMARK   24  A    between atoms: C37_46  and  C38_47 
REMARK   25  A    between atoms: C37_46  and  C39_48 
REMARK   26  A    between atoms: C39_48  and  C40_49 
REMARK   27  A    between atoms: C39_48  and  O8_50 
ROOT
ATOM      1  C20 BID d   1      11.582 -16.168  36.589  0.00  0.00    -0.048 C 
ATOM      2  H32 BID d   1      12.071 -17.047  36.143  0.00  0.00     0.035 H 
ATOM      3  H33 BID d   1      11.030 -15.621  35.811  0.00  0.00     0.035 H 
ENDROOT
BRANCH   1   4
ATOM      4  C19 BID d   1      12.648 -15.254  37.170  0.00  0.00    -0.005 C 
ATOM      5  H30 BID d   1      12.172 -14.423  37.711  0.00  0.00     0.064 H 
ATOM      6  H31 BID d   1      13.290 -15.821  37.860  0.00  0.00     0.064 H 
BRANCH   4   7
ATOM      7  N2  BID d   1      13.446 -14.733  36.067  0.00  0.00    -0.361 N 
ATOM      8  C18 BID d   1      14.145 -13.613  36.117  0.00  0.00     0.224 C 
ATOM      9  O5  BID d   1      14.206 -12.903  37.106  0.00  0.00    -0.273 OA
ATOM     10  H29 BID d   1      13.466 -15.258  35.216  0.00  0.00     0.162 HD
BRANCH   8  11
ATOM     11  C16 BID d   1      14.910 -13.210  34.888  0.00  0.00     0.046 C 
ATOM     12  H1  BID d   1      14.767 -13.996  34.132  0.00  0.00     0.058 H 
BRANCH  11  13
ATOM     13  C17 BID d   1      14.289 -11.909  34.328  0.00  0.00    -0.062 C 
ATOM     14  H2  BID d   1      13.210 -12.055  34.172  0.00  0.00     0.028 H 
ATOM     15  H3  BID d   1      14.767 -11.657  33.370  0.00  0.00     0.028 H 
ATOM     16  H4  BID d   1      14.448 -11.089  35.044  0.00  0.00     0.028 H 
ENDBRANCH  11  13
BRANCH  11  17
ATOM     17  C15 BID d   1      16.420 -13.111  35.142  0.00  0.00     0.062 C 
ATOM     18  H5  BID d   1      16.929 -12.983  34.175  0.00  0.00     0.086 H 
BRANCH  17  19
ATOM     19  O4  BID d   1      16.702 -11.969  35.946  0.00  0.00    -0.393 OA
ATOM     20  H6  BID d   1      16.248 -12.048  36.777  0.00  0.00     0.210 HD
ENDBRANCH  17  19
BRANCH  17  21
ATOM     21  C14 BID d   1      16.936 -14.407  35.785  0.00  0.00     0.020 C 
ATOM     22  H7  BID d   1      16.655 -15.257  35.146  0.00  0.00     0.068 H 
ATOM     23  H8  BID d   1      16.470 -14.522  36.775  0.00  0.00     0.068 H 
BRANCH  21  24
ATOM     24  N1  BID d   1      18.390 -14.398  35.946  0.00  0.00    -0.359 N 
ATOM     25  C13 BID d   1      19.253 -14.895  35.072  0.00  0.00     0.220 C 
ATOM     26  O3  BID d   1      18.850 -15.355  34.004  0.00  0.00    -0.274 OA
ATOM     27  H9  BID d   1      18.761 -13.986  36.778  0.00  0.00     0.162 HD
BRANCH  25  28
ATOM     28  C12 BID d   1      20.727 -14.818  35.396  0.00  0.00     0.034 C 
ATOM     29  H10 BID d   1      20.850 -14.379  36.397  0.00  0.00     0.051 H 
ATOM     30  H11 BID d   1      21.224 -14.178  34.652  0.00  0.00     0.051 H 
BRANCH  28  31
ATOM     31  C11 BID d   1      21.376 -16.195  35.376  0.00  0.00     0.050 C 
ATOM     32  C9  BID d   1      22.871 -16.135  35.689  0.00  0.00    -0.032 C 
ATOM     33  C8  BID d   1      23.122 -15.801  37.153  0.00  0.00    -0.058 C 
ATOM     34  H13 BID d   1      23.283 -17.138  35.504  0.00  0.00     0.043 H 
ATOM     35  C7  BID d   1      22.406 -16.797  38.037  0.00  0.00    -0.040 C 
ATOM     36  H17 BID d   1      22.747 -14.789  37.366  0.00  0.00     0.033 H 
ATOM     37  H18 BID d   1      24.202 -15.843  37.357  0.00  0.00     0.033 H 
ATOM     38  C6  BID d   1      20.919 -16.869  37.713  0.00  0.00     0.045 C 
ATOM     39  H19 BID d   1      22.528 -16.494  39.087  0.00  0.00     0.036 H 
ATOM     40  H20 BID d   1      22.852 -17.791  37.888  0.00  0.00     0.036 H 
ATOM     41  O2  BID d   1      20.706 -17.056  36.309  0.00  0.00    -0.379 OA
ATOM     42  H21 BID d   1      20.426 -15.941  38.038  0.00  0.00     0.083 H 
ATOM     43  H12 BID d   1      21.257 -16.615  34.366  0.00  0.00     0.084 H 
BRANCH  32  44
ATOM     44  C10 BID d   1      23.606 -15.171  34.782  0.00  0.00    -0.070 C 
ATOM     45  H14 BID d   1      24.674 -15.162  35.045  0.00  0.00     0.028 H 
ATOM     46  H15 BID d   1      23.190 -14.161  34.907  0.00  0.00     0.028 H 
ATOM     47  H16 BID d   1      23.488 -15.490  33.736  0.00  0.00     0.028 H 
ENDBRANCH  32  44
BRANCH  38  48
ATOM     48  C5  BID d   1      20.328 -18.063  38.459  0.00  0.00     0.018 C 
ATOM     49  H22 BID d   1      20.845 -18.167  39.424  0.00  0.00     0.048 H 
ATOM     50  H23 BID d   1      20.489 -18.970  37.857  0.00  0.00     0.048 H 
BRANCH  48  51
ATOM     51  C4  BID d   1      18.843 -17.910  38.718  0.00  0.00     0.151 C 
ATOM     52  O1  BID d   1      18.351 -16.798  38.761  0.00  0.00    -0.293 OA
BRANCH  51  53
ATOM     53  C3  BID d   1      17.956 -19.077  38.935  0.00  0.00    -0.043 C 
ATOM     54  C2  BID d   1      18.394 -20.338  38.917  0.00  0.00    -0.103 C 
ATOM     55  H25 BID d   1      19.448 -20.545  38.739  0.00  0.00     0.076 H 
ATOM     56  H24 BID d   1      16.898 -18.898  39.118  0.00  0.00     0.088 H 
BRANCH  54  57
ATOM     57  C1  BID d   1      17.429 -21.479  39.143  0.00  0.00    -0.060 C 
ATOM     58  H26 BID d   1      17.972 -22.434  39.092  0.00  0.00     0.032 H 
ATOM     59  H27 BID d   1      16.649 -21.459  38.368  0.00  0.00     0.032 H 
ATOM     60  H28 BID d   1      16.963 -21.375  40.134  0.00  0.00     0.032 H 
ENDBRANCH  54  57
ENDBRANCH  51  53
ENDBRANCH  48  51
ENDBRANCH  38  48
ENDBRANCH  28  31
ENDBRANCH  25  28
ENDBRANCH  21  24
ENDBRANCH  17  21
ENDBRANCH  11  17
ENDBRANCH   8  11
ENDBRANCH   4   7
ENDBRANCH   1   4
BRANCH   1  61
ATOM     61  C21 BID d   1      10.596 -16.639  37.657  0.00  0.00    -0.039 C 
ATOM     62  H34 BID d   1      10.123 -15.765  38.129  0.00  0.00     0.036 H 
ATOM     63  H35 BID d   1      11.134 -17.221  38.420  0.00  0.00     0.036 H 
BRANCH  61  64
ATOM     64  C22 BID d   1       9.528 -17.507  37.023  0.00  0.00     0.045 C 
ATOM     65  C23 BID d   1       8.439 -17.969  37.993  0.00  0.00    -0.032 C 
ATOM     66  C25 BID d   1       7.549 -18.977  37.271  0.00  0.00    -0.055 C 
ATOM     67  H37 BID d   1       8.925 -18.489  38.831  0.00  0.00     0.043 H 
ATOM     68  C26 BID d   1       8.376 -20.114  36.674  0.00  0.00    -0.012 C 
ATOM     69  H41 BID d   1       7.008 -18.464  36.462  0.00  0.00     0.033 H 
ATOM     70  H42 BID d   1       6.827 -19.396  37.987  0.00  0.00     0.033 H 
ATOM     71  C27 BID d   1       9.471 -19.569  35.758  0.00  0.00     0.165 C 
ATOM     72  H43 BID d   1       7.715 -20.773  36.092  0.00  0.00     0.041 H 
ATOM     73  H44 BID d   1       8.841 -20.688  37.489  0.00  0.00     0.041 H 
ATOM     74  O6  BID d   1      10.218 -18.653  36.548  0.00  0.00    -0.349 OA
ATOM     75  C28 BID d   1      10.453 -20.651  35.320  0.00  0.00    -0.013 C 
ATOM     76  O7  BID d   1       8.885 -18.971  34.597  0.00  0.00    -0.350 OA
ATOM     77  C29 BID d   1      11.497 -20.119  34.343  0.00  0.00    -0.058 C 
ATOM     78  H45 BID d   1       9.892 -21.462  34.833  0.00  0.00     0.041 H 
ATOM     79  H46 BID d   1      10.968 -21.044  36.209  0.00  0.00     0.041 H 
ATOM     80  C30 BID d   1      10.776 -19.476  33.166  0.00  0.00    -0.041 C 
ATOM     81  H47 BID d   1      12.126 -20.947  33.985  0.00  0.00     0.033 H 
ATOM     82  H48 BID d   1      12.127 -19.371  34.845  0.00  0.00     0.033 H 
ATOM     83  C31 BID d   1       9.860 -18.389  33.699  0.00  0.00     0.042 C 
ATOM     84  H49 BID d   1      10.182 -20.235  32.635  0.00  0.00     0.036 H 
ATOM     85  H50 BID d   1      11.511 -19.037  32.476  0.00  0.00     0.036 H 
ATOM     86  H51 BID d   1      10.459 -17.636  34.233  0.00  0.00     0.083 H 
ATOM     87  H36 BID d   1       9.057 -16.963  36.191  0.00  0.00     0.084 H 
BRANCH  65  88
ATOM     88  C24 BID d   1       7.667 -16.786  38.583  0.00  0.00    -0.071 C 
ATOM     89  H38 BID d   1       6.896 -17.159  39.273  0.00  0.00     0.028 H 
ATOM     90  H39 BID d   1       7.189 -16.218  37.771  0.00  0.00     0.028 H 
ATOM     91  H40 BID d   1       8.361 -16.131  39.129  0.00  0.00     0.028 H 
ENDBRANCH  65  88
BRANCH  83  92
ATOM     92  C32 BID d   1       9.110 -17.736  32.569  0.00  0.00    -0.040 C 
ATOM     93  H52 BID d   1       8.387 -18.458  32.162  0.00  0.00     0.036 H 
ATOM     94  H53 BID d   1       9.829 -17.455  31.785  0.00  0.00     0.036 H 
BRANCH  92  95
ATOM     95  C33 BID d   1       8.355 -16.485  33.012  0.00  0.00    -0.057 C 
ATOM     96  H54 BID d   1       9.060 -15.817  33.529  0.00  0.00     0.034 H 
ATOM     97  H55 BID d   1       7.558 -16.787  33.708  0.00  0.00     0.034 H 
BRANCH  95  98
ATOM     98  C34 BID d   1       7.717 -15.712  31.847  0.00  0.00    -0.041 C 
ATOM     99  H56 BID d   1       8.496 -15.526  31.093  0.00  0.00     0.045 H 
BRANCH  98 100
ATOM    100  C35 BID d   1       7.138 -14.360  32.275  0.00  0.00    -0.070 C 
ATOM    101  H57 BID d   1       6.698 -13.857  31.402  0.00  0.00     0.028 H 
ATOM    102  H58 BID d   1       7.940 -13.734  32.693  0.00  0.00     0.028 H 
ATOM    103  H59 BID d   1       6.361 -14.519  33.037  0.00  0.00     0.028 H 
ENDBRANCH  98 100
BRANCH  98 104
ATOM    104  C36 BID d   1       6.624 -16.556  31.222  0.00  0.00    -0.095 C 
ATOM    105  C37 BID d   1       6.648 -17.036  29.961  0.00  0.00    -0.059 C 
ATOM    106  H60 BID d   1       5.756 -16.792  31.835  0.00  0.00     0.077 H 
BRANCH 105 107
ATOM    107  C38 BID d   1       7.760 -16.764  28.973  0.00  0.00    -0.052 C 
ATOM    108  H61 BID d   1       8.535 -16.149  29.454  0.00  0.00     0.033 H 
ATOM    109  H62 BID d   1       7.354 -16.228  28.103  0.00  0.00     0.033 H 
ATOM    110  H63 BID d   1       8.200 -17.717  28.644  0.00  0.00     0.033 H 
ENDBRANCH 105 107
BRANCH 105 111
ATOM    111  C39 BID d   1       5.500 -17.872  29.454  0.00  0.00     0.053 C 
ATOM    112  H64 BID d   1       4.690 -17.874  30.198  0.00  0.00     0.089 H 
BRANCH 111 113
ATOM    113  C40 BID d   1       5.974 -19.301  29.220  0.00  0.00    -0.049 C 
ATOM    114  H65 BID d   1       5.136 -19.910  28.850  0.00  0.00     0.031 H 
ATOM    115  H66 BID d   1       6.345 -19.724  30.165  0.00  0.00     0.031 H 
ATOM    116  H67 BID d   1       6.784 -19.302  28.475  0.00  0.00     0.031 H 
ENDBRANCH 111 113
BRANCH 111 117
ATOM    117  O8  BID d   1       5.018 -17.311  28.227  0.00  0.00    -0.392 OA
ATOM    118  H68 BID d   1       4.724 -16.421  28.381  0.00  0.00     0.210 HD
ENDBRANCH 111 117
ENDBRANCH 105 111
ENDBRANCH  98 104
ENDBRANCH  95  98
ENDBRANCH  92  95
ENDBRANCH  83  92
ENDBRANCH  61  64
ENDBRANCH   1  61
TORSDOF 27
