REMARK  6 active torsions:
REMARK  status: ('A' for Active; 'I' for Inactive)
REMARK    1  A    between atoms: P_1  and  O5_5 
REMARK    2  A    between atoms: O5_5  and  C5_6 
REMARK    3  A    between atoms: C5_6  and  C4_7 
REMARK    4  A    between atoms: C3_9  and  O3_10 
REMARK    5  A    between atoms: C2_11  and  O2_12 
REMARK    6  A    between atoms: C1_13  and  N9_14 
ROOT
ATOM      1  C4  5GP d   1      14.556  17.037   5.545  0.00  0.00     0.089 A 
ATOM      2  O4  5GP d   1      15.768  17.201   4.783  0.00  0.00    -0.353 OA
ATOM      3  C3  5GP d   1      14.377  18.382   6.303  0.00  0.00     0.091 A 
ATOM      4  C2  5GP d   1      15.537  19.245   5.895  0.00  0.00     0.105 A 
ATOM      5  C1  5GP d   1      16.347  18.502   4.867  0.00  0.00     0.139 A 
ATOM      6  H3  5GP d   1      14.617  16.209   6.266  0.00  0.00     0.090 H 
ATOM      7  H4  5GP d   1      13.430  18.866   6.024  0.00  0.00     0.091 H 
ATOM      8  H6  5GP d   1      15.123  20.152   5.430  0.00  0.00     0.093 H 
ATOM      9  H8  5GP d   1      17.401  18.488   5.183  0.00  0.00     0.122 H 
ENDROOT
BRANCH   5  10
ATOM     10  N9  5GP d   1      16.241  18.901   3.415  0.00  0.00    -0.293 N 
ATOM     11  C8  5GP d   1      15.709  18.392   2.266  0.00  0.00     0.071 A 
ATOM     12  N7  5GP d   1      15.876  19.114   1.188  0.00  0.00    -0.234 NA
ATOM     13  H9  5GP d   1      15.177  17.442   2.248  0.00  0.00     0.144 H 
ATOM     14  C5  5GP d   1      16.580  20.214   1.599  0.00  0.00     0.173 A 
ATOM     15  C6  5GP d   1      17.080  21.334   0.993  0.00  0.00     0.292 A 
ATOM     16  C4  5GP d   1      16.806  20.078   3.000  0.00  0.00     0.186 A 
ATOM     17  O6  5GP d   1      16.936  21.531  -0.232  0.00  0.00    -0.265 OA
ATOM     18  N1  5GP d   1      17.795  22.330   1.743  0.00  0.00    -0.152 N 
ATOM     19  C2  5GP d   1      18.017  22.199   3.142  0.00  0.00     0.703 A 
ATOM     20  H10 5GP d   1      18.146  23.137   1.268  0.00  0.00     0.187 HD
ATOM     21  N2  5GP d   1      18.675  23.120   3.829  0.00  0.00    -0.233 N 
ATOM     22  N3  5GP d   1      17.522  21.062   3.792  0.00  0.00    -0.044 NA
ATOM     23  H11 5GP d   1      18.822  23.000   4.841  0.00  0.00     0.174 HD
ATOM     24  H12 5GP d   1      19.040  23.956   3.351  0.00  0.00     0.174 HD
ENDBRANCH   5  10
BRANCH   4  25
ATOM     25  O2  5GP d   1      16.400  19.666   6.947  0.00  0.00    -0.388 OA
ATOM     26  H7  5GP d   1      16.774  18.904   7.373  0.00  0.00     0.210 HD
ENDBRANCH   4  25
BRANCH   1  27
ATOM     27  C5  5GP d   1      13.547  16.726   4.483  0.00  0.00     0.059 C 
ATOM     28  H1  5GP d   1      12.564  16.644   4.970  0.00  0.00     0.079 H 
ATOM     29  H2  5GP d   1      13.537  17.568   3.775  0.00  0.00     0.079 H 
BRANCH  27  30
ATOM     30  O5  5GP d   1      13.759  15.546   3.743  0.00  0.00    -0.280 OA
BRANCH  30  31
ATOM     31  P   5GP d   1      12.659  14.474   3.503  0.00  0.00     0.422 P 
ATOM     32  O1P 5GP d   1      12.232  13.934   4.931  0.00  0.00    -0.617 OA
ATOM     33  O2P 5GP d   1      13.178  13.379   2.665  0.00  0.00    -0.617 OA
ATOM     34  O3P 5GP d   1      11.467  15.168   3.013  0.00  0.00    -0.617 OA
ENDBRANCH  30  31
ENDBRANCH  27  30
ENDBRANCH   1  27
BRANCH   3  35
ATOM     35  O3  5GP d   1      14.382  18.094   7.759  0.00  0.00    -0.390 OA
ATOM     36  H5  5GP d   1      15.208  17.690   7.998  0.00  0.00     0.210 HD
ENDBRANCH   3  35
TORSDOF 6
