REMARK  7 active torsions:
REMARK  status: ('A' for Active; 'I' for Inactive)
REMARK    1  A    between atoms: PAR_2  and  CAL_5 
REMARK    2  A    between atoms: CAL_5  and  CAP_6 
REMARK       I    between atoms: CAP_6  and  NAN_8 
REMARK    3  A    between atoms: NAN_8  and  CAJ_9 
REMARK    4  A    between atoms: CAJ_9  and  CAI_10 
REMARK    5  A    between atoms: CAI_10  and  NAM_11 
REMARK       I    between atoms: NAM_11  and  CAO_12 
REMARK    6  A    between atoms: CAO_12  and  CAK_14 
REMARK    7  A    between atoms: CAK_14  and  PAQ_15 
ROOT
ATOM      1  CAJ EOP d   1      41.156  28.478  16.757  0.00  0.00     0.010 C 
ATOM      2  H4  EOP d   1      41.095  27.509  16.241  0.00  0.00     0.066 H 
ATOM      3  H5  EOP d   1      40.808  29.275  16.083  0.00  0.00     0.066 H 
ENDROOT
BRANCH   1   4
ATOM      4  NAN EOP d   1      42.566  28.738  17.104  0.00  0.00    -0.359 N 
ATOM      5  CAP EOP d   1      43.110  29.949  17.157  0.00  0.00     0.230 C 
ATOM      6  OAB EOP d   1      42.507  30.991  16.930  0.00  0.00    -0.273 OA
ATOM      7  H3  EOP d   1      43.149  27.953  17.313  0.00  0.00     0.162 HD
BRANCH   5   8
ATOM      8  CAL EOP d   1      44.613  29.973  17.483  0.00  0.00     0.112 C 
ATOM      9  H1  EOP d   1      45.094  29.174  16.900  0.00  0.00     0.068 H 
ATOM     10  H2  EOP d   1      45.009  30.949  17.165  0.00  0.00     0.068 H 
BRANCH   8  11
ATOM     11  PAR EOP d   1      45.064  29.736  19.219  0.00  0.00     0.268 P 
ATOM     12  OAD EOP d   1      43.900  28.845  19.886  0.00  0.00    -0.639 OA
ATOM     13  OAH EOP d   1      44.999  31.181  19.928  0.00  0.00    -0.639 OA
ATOM     14  OAG EOP d   1      46.399  29.113  19.364  0.00  0.00    -0.639 OA
ENDBRANCH   8  11
ENDBRANCH   5   8
ENDBRANCH   1   4
BRANCH   1  15
ATOM     15  CAI EOP d   1      40.237  28.438  17.979  0.00  0.00     0.010 C 
ATOM     16  H6  EOP d   1      40.831  28.261  18.888  0.00  0.00     0.066 H 
ATOM     17  H7  EOP d   1      39.495  27.634  17.863  0.00  0.00     0.066 H 
BRANCH  15  18
ATOM     18  NAM EOP d   1      39.555  29.736  18.074  0.00  0.00    -0.359 N 
ATOM     19  CAO EOP d   1      39.329  30.401  19.206  0.00  0.00     0.230 C 
ATOM     20  OAA EOP d   1      38.859  31.539  19.229  0.00  0.00    -0.273 OA
ATOM     21  H8  EOP d   1      39.236  30.153  17.223  0.00  0.00     0.162 HD
BRANCH  19  22
ATOM     22  CAK EOP d   1      39.808  29.737  20.498  0.00  0.00     0.112 C 
ATOM     23  H9  EOP d   1      39.860  28.648  20.355  0.00  0.00     0.068 H 
ATOM     24  H10 EOP d   1      39.105  29.967  21.313  0.00  0.00     0.068 H 
BRANCH  22  25
ATOM     25  PAQ EOP d   1      41.448  30.372  20.916  0.00  0.00     0.268 P 
ATOM     26  OAF EOP d   1      41.192  31.560  21.973  0.00  0.00    -0.639 OA
ATOM     27  OAE EOP d   1      42.012  31.059  19.572  0.00  0.00    -0.639 OA
ATOM     28  OAC EOP d   1      42.353  29.325  21.440  0.00  0.00    -0.639 OA
ENDBRANCH  22  25
ENDBRANCH  19  22
ENDBRANCH  15  18
ENDBRANCH   1  15
TORSDOF 7
