REMARK  6 active torsions:
REMARK  status: ('A' for Active; 'I' for Inactive)
REMARK    1  A    between atoms: PAU_2  and  CAM_5 
REMARK    2  A    between atoms: CAM_5  and  CAQ_6 
REMARK       I    between atoms: CAQ_6  and  NAO_8 
REMARK    3  A    between atoms: NAO_8  and  CAS_9 
REMARK    4  A    between atoms: CAT_14  and  NAP_15 
REMARK       I    between atoms: NAP_15  and  CAR_16 
REMARK    5  A    between atoms: CAR_16  and  CAN_18 
REMARK    6  A    between atoms: CAN_18  and  PAV_19 
ROOT
ATOM      1  CAS EOB d   1      39.305  30.095  19.274  0.00  0.00     0.036 A 
ATOM      2  CAL EOB d   1      39.579  28.973  18.499  0.00  0.00    -0.031 A 
ATOM      3  CAJ EOB d   1      40.154  31.201  19.180  0.00  0.00    -0.057 A 
ATOM      4  CAI EOB d   1      41.243  31.181  18.320  0.00  0.00    -0.079 A 
ATOM      5  CAK EOB d   1      41.499  30.058  17.541  0.00  0.00    -0.057 A 
ATOM      6  CAT EOB d   1      40.664  28.943  17.630  0.00  0.00     0.036 A 
ATOM      7  H4  EOB d   1      38.934  28.105  18.574  0.00  0.00     0.090 H 
ATOM      8  H5  EOB d   1      39.961  32.081  19.783  0.00  0.00     0.086 H 
ATOM      9  H6  EOB d   1      41.896  32.044  18.255  0.00  0.00     0.083 H 
ATOM     10  H7  EOB d   1      42.346  30.048  16.865  0.00  0.00     0.086 H 
ENDROOT
BRANCH   1  11
ATOM     11  NAO EOB d   1      38.248  30.196  20.082  0.00  0.00    -0.327 N 
ATOM     12  CAQ EOB d   1      37.305  29.289  20.334  0.00  0.00     0.235 C 
ATOM     13  OAA EOB d   1      36.364  29.517  21.098  0.00  0.00    -0.273 OA
ATOM     14  H3  EOB d   1      38.151  31.068  20.562  0.00  0.00     0.169 HD
BRANCH  12  15
ATOM     15  CAM EOB d   1      37.403  27.919  19.650  0.00  0.00     0.112 C 
ATOM     16  H1  EOB d   1      36.399  27.614  19.319  0.00  0.00     0.068 H 
ATOM     17  H2  EOB d   1      38.067  28.004  18.777  0.00  0.00     0.068 H 
BRANCH  15  18
ATOM     18  PAU EOB d   1      38.062  26.655  20.767  0.00  0.00     0.268 P 
ATOM     19  OAF EOB d   1      39.663  26.705  20.587  0.00  0.00    -0.639 OA
ATOM     20  OAE EOB d   1      37.595  25.227  20.184  0.00  0.00    -0.639 OA
ATOM     21  OAC EOB d   1      37.626  26.858  22.175  0.00  0.00    -0.639 OA
ENDBRANCH  15  18
ENDBRANCH  12  15
ENDBRANCH   1  11
BRANCH   6  22
ATOM     22  NAP EOB d   1      40.883  27.827  16.934  0.00  0.00    -0.327 N 
ATOM     23  CAR EOB d   1      41.835  27.608  16.029  0.00  0.00     0.235 C 
ATOM     24  OAB EOB d   1      41.973  26.533  15.444  0.00  0.00    -0.273 OA
ATOM     25  H8  EOB d   1      40.260  27.066  17.112  0.00  0.00     0.169 HD
BRANCH  23  26
ATOM     26  CAN EOB d   1      42.792  28.764  15.721  0.00  0.00     0.112 C 
ATOM     27  H9  EOB d   1      42.333  29.708  16.050  0.00  0.00     0.068 H 
ATOM     28  H10 EOB d   1      42.971  28.802  14.636  0.00  0.00     0.068 H 
BRANCH  26  29
ATOM     29  PAV EOB d   1      44.371  28.549  16.572  0.00  0.00     0.268 P 
ATOM     30  OAH EOB d   1      44.792  30.022  17.063  0.00  0.00    -0.639 OA
ATOM     31  OAG EOB d   1      45.421  28.119  15.430  0.00  0.00    -0.639 OA
ATOM     32  OAD EOB d   1      44.292  27.588  17.701  0.00  0.00    -0.639 OA
ENDBRANCH  26  29
ENDBRANCH  23  26
ENDBRANCH   6  22
TORSDOF 6
