REMARK  7 active torsions:
REMARK  status: ('A' for Active; 'I' for Inactive)
REMARK    1  A    between atoms: PAX_2  and  CAN_5 
REMARK    2  A    between atoms: CAN_5  and  CAS_6 
REMARK       I    between atoms: CAS_6  and  NAP_8 
REMARK    3  A    between atoms: NAP_8  and  CAU_9 
REMARK    4  A    between atoms: CAW_12  and  CAR_13 
REMARK    5  A    between atoms: CAV_17  and  NAQ_18 
REMARK       I    between atoms: NAQ_18  and  CAT_19 
REMARK    6  A    between atoms: CAT_19  and  CAO_21 
REMARK    7  A    between atoms: CAO_21  and  PAY_22 
ROOT
ATOM      1  CAU EOZ d   1      39.802  29.776  18.944  0.00  0.00     0.037 A 
ATOM      2  CAK EOZ d   1      40.545  29.813  17.772  0.00  0.00    -0.031 A 
ATOM      3  CAL EOZ d   1      40.470  29.899  20.167  0.00  0.00    -0.041 A 
ATOM      4  CAW EOZ d   1      41.850  30.098  20.192  0.00  0.00     0.045 A 
ATOM      5  CAM EOZ d   1      42.584  30.107  19.011  0.00  0.00    -0.041 A 
ATOM      6  CAV EOZ d   1      41.934  29.949  17.790  0.00  0.00     0.037 A 
ATOM      7  H4  EOZ d   1      40.034  29.734  16.819  0.00  0.00     0.090 H 
ATOM      8  H5  EOZ d   1      39.914  29.840  21.096  0.00  0.00     0.088 H 
ATOM      9  H6  EOZ d   1      43.660  30.237  19.041  0.00  0.00     0.088 H 
ENDROOT
BRANCH   1  10
ATOM     10  NAP EOZ d   1      38.521  29.446  18.804  0.00  0.00    -0.327 N 
ATOM     11  CAS EOZ d   1      37.612  29.048  19.692  0.00  0.00     0.235 C 
ATOM     12  OAB EOZ d   1      36.416  28.891  19.389  0.00  0.00    -0.273 OA
ATOM     13  H3  EOZ d   1      38.180  29.508  17.866  0.00  0.00     0.169 HD
BRANCH  11  14
ATOM     14  CAN EOZ d   1      38.040  28.808  21.131  0.00  0.00     0.112 C 
ATOM     15  H1  EOZ d   1      38.983  29.334  21.342  0.00  0.00     0.068 H 
ATOM     16  H2  EOZ d   1      37.261  29.158  21.825  0.00  0.00     0.068 H 
BRANCH  14  17
ATOM     17  PAX EOZ d   1      38.268  27.016  21.291  0.00  0.00     0.268 P 
ATOM     18  OAD EOZ d   1      37.002  26.305  20.593  0.00  0.00    -0.639 OA
ATOM     19  OAH EOZ d   1      39.519  26.638  20.347  0.00  0.00    -0.639 OA
ATOM     20  OAG EOZ d   1      38.432  26.562  22.691  0.00  0.00    -0.639 OA
ENDBRANCH  14  17
ENDBRANCH  11  14
ENDBRANCH   1  10
BRANCH   6  21
ATOM     21  NAQ EOZ d   1      42.674  29.694  16.717  0.00  0.00    -0.327 N 
ATOM     22  CAT EOZ d   1      42.144  29.248  15.577  0.00  0.00     0.235 C 
ATOM     23  OAC EOZ d   1      40.947  28.999  15.429  0.00  0.00    -0.273 OA
ATOM     24  H7  EOZ d   1      43.662  29.841  16.765  0.00  0.00     0.169 HD
BRANCH  22  25
ATOM     25  CAO EOZ d   1      43.151  29.004  14.449  0.00  0.00     0.112 C 
ATOM     26  H8  EOZ d   1      43.755  28.118  14.696  0.00  0.00     0.068 H 
ATOM     27  H9  EOZ d   1      43.807  29.882  14.361  0.00  0.00     0.068 H 
BRANCH  25  28
ATOM     28  PAY EOZ d   1      42.324  28.727  12.858  0.00  0.00     0.268 P 
ATOM     29  OAI EOZ d   1      41.323  27.481  13.095  0.00  0.00    -0.639 OA
ATOM     30  OAE EOZ d   1      43.453  28.201  11.831  0.00  0.00    -0.639 OA
ATOM     31  OAJ EOZ d   1      41.637  29.943  12.357  0.00  0.00    -0.639 OA
ENDBRANCH  25  28
ENDBRANCH  22  25
ENDBRANCH   6  21
BRANCH   4  32
ATOM     32  CAR EOZ d   1      42.587  30.407  21.499  0.00  0.00     0.209 C 
ATOM     33  OAA EOZ d   1      43.835  30.348  21.485  0.00  0.00    -0.644 OA
ATOM     34  OAF EOZ d   1      41.907  30.718  22.505  0.00  0.00    -0.644 OA
ENDBRANCH   4  32
TORSDOF 7
