REMARK  3 active torsions:
REMARK  status: ('A' for Active; 'I' for Inactive)
REMARK    1  A    between atoms: O2_1  and  C9_2 
REMARK    2  A    between atoms: C12_8  and  C3_10 
REMARK    3  A    between atoms: C6_15  and  O1_16 
ROOT
ATOM      1  C9  PCQ d   1      21.749  42.967  29.108  0.00  0.00     0.109 A 
ATOM      2  C8  PCQ d   1      20.976  43.900  28.417  0.00  0.00     0.069 A 
ATOM      3 CL2  PCQ d   1      20.181  44.956  29.147  0.00  0.00    -0.081 Cl
ATOM      4  C10 PCQ d   1      22.464  42.011  28.389  0.00  0.00     0.069 A 
ATOM      5 CL4  PCQ d   1      23.315  40.982  29.090  0.00  0.00    -0.081 Cl
ATOM      6  C11 PCQ d   1      22.405  41.991  26.991  0.00  0.00    -0.048 A 
ATOM      7  C12 PCQ d   1      21.633  42.918  26.280  0.00  0.00    -0.022 A 
ATOM      8  C7  PCQ d   1      20.922  43.870  27.019  0.00  0.00    -0.048 A 
ATOM      9  H2  PCQ d   1      22.969  41.242  26.447  0.00  0.00     0.087 H 
ATOM     10  H3  PCQ d   1      20.316  44.601  26.497  0.00  0.00     0.087 H 
ENDROOT
BRANCH   7  11
ATOM     11  C3  PCQ d   1      21.577  42.894  24.876  0.00  0.00    -0.022 A 
ATOM     12  C2  PCQ d   1      21.567  41.682  24.173  0.00  0.00    -0.048 A 
ATOM     13  C1  PCQ d   1      21.509  41.653  22.773  0.00  0.00     0.069 A 
ATOM     14  H4  PCQ d   1      21.605  40.748  24.723  0.00  0.00     0.087 H 
ATOM     15  C6  PCQ d   1      21.460  42.849  22.058  0.00  0.00     0.109 A 
ATOM     16 CL1  PCQ d   1      21.498  40.331  22.037  0.00  0.00    -0.081 Cl
ATOM     17  C5  PCQ d   1      21.467  44.067  22.740  0.00  0.00     0.069 A 
ATOM     18  C4  PCQ d   1      21.523  44.081  24.139  0.00  0.00    -0.048 A 
ATOM     19 CL5  PCQ d   1      21.418  45.371  21.979  0.00  0.00    -0.081 Cl
ATOM     20  H5  PCQ d   1      21.524  45.031  24.661  0.00  0.00     0.087 H 
BRANCH  15  21
ATOM     21  O1  PCQ d   1      21.400  42.819  20.691  0.00  0.00    -0.357 OA
ATOM     22  H6  PCQ d   1      22.152  43.275  20.332  0.00  0.00     0.217 HD
ENDBRANCH  15  21
ENDBRANCH   7  11
BRANCH   1  23
ATOM     23  O2  PCQ d   1      21.807  42.985  30.475  0.00  0.00    -0.357 OA
ATOM     24  H1  PCQ d   1      22.375  42.286  30.776  0.00  0.00     0.217 HD
ENDBRANCH   1  23
TORSDOF 3
