REMARK  30 active torsions:
REMARK  status: ('A' for Active; 'I' for Inactive)
REMARK    1  A    between atoms: C12_2  and  C14_6 
REMARK    2  A    between atoms: N12_4  and  C15_7 
REMARK    3  A    between atoms: C13_5  and  C17_10 
REMARK    4  A    between atoms: C15_7  and  O11_8 
REMARK    5  A    between atoms: O11_8  and  C16_9 
REMARK       I    between atoms: C16_9  and  N2_12 
REMARK    6  A    between atoms: N2_12  and  C21_13 
REMARK    7  A    between atoms: C21_13  and  C22_14 
REMARK    8  A    between atoms: C21_13  and  C25_19 
REMARK    9  A    between atoms: C22_14  and  S2_15 
REMARK   10  A    between atoms: S2_15  and  C23_18 
REMARK       I    between atoms: C25_19  and  N3_21 
REMARK   11  A    between atoms: N3_21  and  C31_22 
REMARK   12  A    between atoms: C31_22  and  C32_23 
REMARK   13  A    between atoms: C31_22  and  C33_24 
REMARK   14  A    between atoms: C32_23  and  C37_28 
REMARK   15  A    between atoms: C32_23  and  O31_32 
REMARK   16  A    between atoms: C33_24  and  C34_25 
REMARK   17  A    between atoms: C34_25  and  C35_26 
REMARK   18  A    between atoms: C34_25  and  C36_27 
REMARK   19  A    between atoms: C37_28  and  C38_29 
REMARK   20  A    between atoms: C38_29  and  C39_30 
REMARK   21  A    between atoms: C38_29  and  C30_31 
REMARK       I    between atoms: C30_31  and  N4_34 
REMARK   22  A    between atoms: N4_34  and  C41_35 
REMARK   23  A    between atoms: C41_35  and  C42_36 
REMARK   24  A    between atoms: C41_35  and  C45_39 
REMARK   25  A    between atoms: C42_36  and  C43_37 
REMARK   26  A    between atoms: C42_36  and  C44_38 
REMARK       I    between atoms: C45_39  and  N5_41 
REMARK   27  A    between atoms: N5_41  and  C51_42 
REMARK   28  A    between atoms: C51_42  and  C52_43 
REMARK   29  A    between atoms: C52_43  and  C53_44 
REMARK   30  A    between atoms: C52_43  and  C54_45 
ROOT
ATOM      1  C31 ZPQ d   1      -4.222  -4.477  32.376  0.00  0.00     0.037 C 
ATOM      2  H18 ZPQ d   1      -4.932  -4.872  31.634  0.00  0.00     0.076 H 
ENDROOT
BRANCH   1   3
ATOM      3  N3  ZPQ d   1      -3.036  -3.986  31.619  0.00  0.00    -0.352 N 
ATOM      4  C25 ZPQ d   1      -3.114  -3.799  30.250  0.00  0.00     0.241 C 
ATOM      5  O2  ZPQ d   1      -4.137  -4.012  29.607  0.00  0.00    -0.271 OA
ATOM      6  H17 ZPQ d   1      -2.182  -3.791  32.101  0.00  0.00     0.163 HD
BRANCH   4   7
ATOM      7  C21 ZPQ d   1      -1.850  -3.334  29.605  0.00  0.00     0.104 C 
ATOM      8  H11 ZPQ d   1      -1.480  -2.404  30.062  0.00  0.00     0.089 H 
BRANCH   7   9
ATOM      9  N2  ZPQ d   1      -0.937  -4.450  29.811  0.00  0.00    -0.323 N 
ATOM     10  C16 ZPQ d   1       0.373  -4.438  30.140  0.00  0.00     0.362 C 
ATOM     11  O12 ZPQ d   1       0.998  -3.394  30.307  0.00  0.00    -0.238 OA
ATOM     12  H10 ZPQ d   1      -1.339  -5.358  29.691  0.00  0.00     0.165 HD
BRANCH  10  13
ATOM     13  O11 ZPQ d   1       0.921  -5.691  30.263  0.00  0.00    -0.282 OA
BRANCH  13  14
ATOM     14  C15 ZPQ d   1       2.236  -5.820  30.806  0.00  0.00     0.110 C 
ATOM     15  H5  ZPQ d   1       2.547  -6.870  30.703  0.00  0.00     0.111 H 
ATOM     16  H6  ZPQ d   1       2.912  -5.178  30.222  0.00  0.00     0.111 H 
BRANCH  14  17
ATOM     17  N12 ZPQ d   1       2.360  -5.437  32.246  0.00  0.00    -0.250 N 
ATOM     18  N11 ZPQ d   1       3.105  -4.372  32.767  0.00  0.00    -0.175 NA
ATOM     19  C12 ZPQ d   1       2.896  -4.419  34.340  0.00  0.00     0.053 A 
ATOM     20  C11 ZPQ d   1       1.984  -5.601  34.519  0.00  0.00    -0.035 A 
ATOM     21  C13 ZPQ d   1       1.692  -6.168  33.320  0.00  0.00     0.031 A 
ATOM     22  H1  ZPQ d   1       1.609  -5.954  35.478  0.00  0.00     0.089 H 
BRANCH  19  23
ATOM     23  C14 ZPQ d   1       3.518  -3.465  35.273  0.00  0.00    -0.034 C 
ATOM     24  H2  ZPQ d   1       4.124  -2.742  34.708  0.00  0.00     0.035 H 
ATOM     25  H3  ZPQ d   1       4.161  -4.010  35.980  0.00  0.00     0.035 H 
ATOM     26  H4  ZPQ d   1       2.733  -2.931  35.828  0.00  0.00     0.035 H 
ENDBRANCH  19  23
BRANCH  21  27
ATOM     27  C17 ZPQ d   1       0.801  -7.380  33.186  0.00  0.00    -0.036 C 
ATOM     28  H7  ZPQ d   1       0.455  -7.692  34.182  0.00  0.00     0.035 H 
ATOM     29  H8  ZPQ d   1       1.366  -8.201  32.720  0.00  0.00     0.035 H 
ATOM     30  H9  ZPQ d   1      -0.067  -7.130  32.558  0.00  0.00     0.035 H 
ENDBRANCH  21  27
ENDBRANCH  14  17
ENDBRANCH  13  14
ENDBRANCH  10  13
ENDBRANCH   7   9
BRANCH   7  31
ATOM     31  C22 ZPQ d   1      -2.048  -3.153  28.076  0.00  0.00     0.055 C 
ATOM     32  H12 ZPQ d   1      -3.055  -2.740  27.915  0.00  0.00     0.060 H 
ATOM     33  H13 ZPQ d   1      -1.980  -4.147  27.609  0.00  0.00     0.060 H 
BRANCH  31  34
ATOM     34  S2  ZPQ d   1      -0.890  -2.090  27.255  0.00  0.00     0.143 S 
ATOM     35  O22 ZPQ d   1      -1.514  -1.657  26.029  0.00  0.00    -0.228 OA
ATOM     36  O23 ZPQ d   1      -0.495  -1.013  28.165  0.00  0.00    -0.228 OA
BRANCH  34  37
ATOM     37  C23 ZPQ d   1       0.466  -3.191  26.913  0.00  0.00     0.016 C 
ATOM     38  H14 ZPQ d   1       1.264  -2.639  26.395  0.00  0.00     0.048 H 
ATOM     39  H15 ZPQ d   1       0.117  -4.016  26.275  0.00  0.00     0.048 H 
ATOM     40  H16 ZPQ d   1       0.855  -3.598  27.858  0.00  0.00     0.048 H 
ENDBRANCH  34  37
ENDBRANCH  31  34
ENDBRANCH   7  31
ENDBRANCH   4   7
ENDBRANCH   1   3
BRANCH   1  41
ATOM     41  C32 ZPQ d   1      -4.984  -3.388  33.183  0.00  0.00     0.056 C 
ATOM     42  H19 ZPQ d   1      -5.898  -3.829  33.608  0.00  0.00     0.086 H 
BRANCH  41  43
ATOM     43  C37 ZPQ d   1      -5.360  -2.194  32.283  0.00  0.00    -0.028 C 
ATOM     44  H29 ZPQ d   1      -5.488  -2.548  31.250  0.00  0.00     0.038 H 
ATOM     45  H30 ZPQ d   1      -4.552  -1.449  32.318  0.00  0.00     0.038 H 
BRANCH  43  46
ATOM     46  C38 ZPQ d   1      -6.662  -1.543  32.754  0.00  0.00     0.022 C 
ATOM     47  H31 ZPQ d   1      -6.691  -1.547  33.854  0.00  0.00     0.054 H 
BRANCH  46  48
ATOM     48  C39 ZPQ d   1      -6.726  -0.100  32.239  0.00  0.00    -0.065 C 
ATOM     49  H32 ZPQ d   1      -7.662   0.369  32.577  0.00  0.00     0.028 H 
ATOM     50  H33 ZPQ d   1      -6.693  -0.101  31.140  0.00  0.00     0.028 H 
ATOM     51  H34 ZPQ d   1      -5.869   0.468  32.631  0.00  0.00     0.028 H 
ENDBRANCH  46  48
BRANCH  46  52
ATOM     52  C30 ZPQ d   1      -7.878  -2.299  32.209  0.00  0.00     0.222 C 
ATOM     53  O32 ZPQ d   1      -7.910  -2.765  31.080  0.00  0.00    -0.273 OA
ATOM     54  N4  ZPQ d   1      -8.936  -2.398  33.075  0.00  0.00    -0.347 N 
ATOM     55  H36 ZPQ d   1      -8.866  -2.007  33.993  0.00  0.00     0.163 HD
BRANCH  54  56
ATOM     56  C41 ZPQ d   1     -10.177  -3.079  32.660  0.00  0.00     0.092 C 
ATOM     57  H37 ZPQ d   1      -9.910  -4.013  32.144  0.00  0.00     0.088 H 
BRANCH  56  58
ATOM     58  C42 ZPQ d   1     -11.069  -3.460  33.871  0.00  0.00    -0.033 C 
ATOM     59  H38 ZPQ d   1     -10.451  -4.014  34.593  0.00  0.00     0.042 H 
BRANCH  58  60
ATOM     60  C43 ZPQ d   1     -12.243  -4.361  33.434  0.00  0.00    -0.071 C 
ATOM     61  H39 ZPQ d   1     -12.857  -4.614  34.311  0.00  0.00     0.028 H 
ATOM     62  H40 ZPQ d   1     -11.849  -5.284  32.983  0.00  0.00     0.028 H 
ATOM     63  H41 ZPQ d   1     -12.860  -3.827  32.697  0.00  0.00     0.028 H 
ENDBRANCH  58  60
BRANCH  58  64
ATOM     64  C44 ZPQ d   1     -11.622  -2.212  34.557  0.00  0.00    -0.071 C 
ATOM     65  H42 ZPQ d   1     -10.789  -1.566  34.870  0.00  0.00     0.028 H 
ATOM     66  H43 ZPQ d   1     -12.208  -2.508  35.439  0.00  0.00     0.028 H 
ATOM     67  H44 ZPQ d   1     -12.267  -1.663  33.855  0.00  0.00     0.028 H 
ENDBRANCH  58  64
ENDBRANCH  56  58
BRANCH  56  68
ATOM     68  C45 ZPQ d   1     -10.882  -2.136  31.636  0.00  0.00     0.240 C 
ATOM     69  O4  ZPQ d   1     -10.785  -0.933  31.726  0.00  0.00    -0.271 OA
ATOM     70  N5  ZPQ d   1     -11.611  -2.778  30.642  0.00  0.00    -0.359 N 
ATOM     71  H45 ZPQ d   1     -11.637  -3.778  30.633  0.00  0.00     0.162 HD
BRANCH  70  72
ATOM     72  C51 ZPQ d   1     -12.352  -2.035  29.595  0.00  0.00    -0.002 C 
ATOM     73  H46 ZPQ d   1     -12.378  -0.970  29.869  0.00  0.00     0.064 H 
ATOM     74  H47 ZPQ d   1     -13.379  -2.426  29.544  0.00  0.00     0.064 H 
BRANCH  72  75
ATOM     75  C52 ZPQ d   1     -11.691  -2.175  28.184  0.00  0.00    -0.046 C 
ATOM     76  H48 ZPQ d   1     -12.341  -1.688  27.443  0.00  0.00     0.041 H 
BRANCH  75  77
ATOM     77  C53 ZPQ d   1     -10.312  -1.509  28.149  0.00  0.00    -0.072 C 
ATOM     78  H49 ZPQ d   1      -9.874  -1.624  27.146  0.00  0.00     0.028 H 
ATOM     79  H50 ZPQ d   1      -9.656  -1.985  28.892  0.00  0.00     0.028 H 
ATOM     80  H51 ZPQ d   1     -10.415  -0.439  28.383  0.00  0.00     0.028 H 
ENDBRANCH  75  77
BRANCH  75  81
ATOM     81  C54 ZPQ d   1     -11.529  -3.647  27.815  0.00  0.00    -0.072 C 
ATOM     82  H52 ZPQ d   1     -12.512  -4.140  27.835  0.00  0.00     0.028 H 
ATOM     83  H53 ZPQ d   1     -10.859  -4.135  28.538  0.00  0.00     0.028 H 
ATOM     84  H54 ZPQ d   1     -11.100  -3.727  26.805  0.00  0.00     0.028 H 
ENDBRANCH  75  81
ENDBRANCH  72  75
ENDBRANCH  70  72
ENDBRANCH  56  68
ENDBRANCH  54  56
ENDBRANCH  46  52
ENDBRANCH  43  46
ENDBRANCH  41  43
BRANCH  41  85
ATOM     85  O31 ZPQ d   1      -4.155  -2.894  34.233  0.00  0.00    -0.393 OA
ATOM     86  H35 ZPQ d   1      -3.908  -3.612  34.804  0.00  0.00     0.210 HD
ENDBRANCH  41  85
ENDBRANCH   1  41
BRANCH   1  87
ATOM     87  C33 ZPQ d   1      -3.795  -5.664  33.304  0.00  0.00    -0.041 C 
ATOM     88  H20 ZPQ d   1      -4.668  -5.977  33.896  0.00  0.00     0.036 H 
ATOM     89  H21 ZPQ d   1      -3.001  -5.313  33.979  0.00  0.00     0.036 H 
BRANCH  87  90
ATOM     90  C34 ZPQ d   1      -3.262  -6.903  32.509  0.00  0.00    -0.059 C 
ATOM     91  H22 ZPQ d   1      -2.404  -6.583  31.900  0.00  0.00     0.038 H 
BRANCH  90  92
ATOM     92  C35 ZPQ d   1      -4.329  -7.510  31.575  0.00  0.00    -0.073 C 
ATOM     93  H23 ZPQ d   1      -3.902  -8.373  31.044  0.00  0.00     0.028 H 
ATOM     94  H24 ZPQ d   1      -4.651  -6.753  30.845  0.00  0.00     0.028 H 
ATOM     95  H25 ZPQ d   1      -5.194  -7.837  32.170  0.00  0.00     0.028 H 
ENDBRANCH  90  92
BRANCH  90  96
ATOM     96  C36 ZPQ d   1      -2.805  -7.987  33.500  0.00  0.00    -0.073 C 
ATOM     97  H26 ZPQ d   1      -2.043  -7.569  34.174  0.00  0.00     0.028 H 
ATOM     98  H27 ZPQ d   1      -2.378  -8.835  32.945  0.00  0.00     0.028 H 
ATOM     99  H28 ZPQ d   1      -3.667  -8.332  34.090  0.00  0.00     0.028 H 
ENDBRANCH  90  96
ENDBRANCH  87  90
ENDBRANCH   1  87
TORSDOF 30
