REMARK  18 active torsions:
REMARK  status: ('A' for Active; 'I' for Inactive)
REMARK    1  A    between atoms: C1A_1  and  O1X_7 
REMARK    2  A    between atoms: C2A_2  and  O2A_8 
REMARK    3  A    between atoms: C3A_3  and  O3A_9 
REMARK    4  A    between atoms: C4A_4  and  O4A_10 
REMARK    5  A    between atoms: C5A_5  and  C6A_6 
REMARK    6  A    between atoms: C6A_6  and  O6A_12 
REMARK    7  A    between atoms: O4A_10  and  C1B_13 
REMARK    8  A    between atoms: C2B_14  and  O2B_19 
REMARK    9  A    between atoms: C3B_15  and  O3B_20 
REMARK   10  A    between atoms: C4B_16  and  O4B_21 
REMARK   11  A    between atoms: C5B_17  and  C6B_18 
REMARK   12  A    between atoms: C6B_18  and  O6B_23 
REMARK   13  A    between atoms: O4B_21  and  C1C_24 
REMARK   14  A    between atoms: C2C_25  and  O2C_30 
REMARK   15  A    between atoms: C3C_26  and  O3C_31 
REMARK   16  A    between atoms: C4C_27  and  O4C_32 
REMARK   17  A    between atoms: C5C_28  and  C6C_29 
REMARK   18  A    between atoms: C6C_29  and  O6C_34 
ROOT
ATOM      1  C1B MLR d   1      23.323  15.062  20.672  0.00  0.00     0.159 C 
ATOM      2  C2B MLR d   1      22.373  14.028  21.247  0.00  0.00     0.110 C 
ATOM      3  C3B MLR d   1      22.135  14.328  22.744  0.00  0.00     0.092 C 
ATOM      4  C4B MLR d   1      23.426  14.486  23.532  0.00  0.00     0.096 C 
ATOM      5  C5B MLR d   1      24.354  15.474  22.830  0.00  0.00     0.089 C 
ATOM      6  O5B MLR d   1      24.531  15.108  21.442  0.00  0.00    -0.348 OA
ATOM      7  H12 MLR d   1      23.573  14.790  19.636  0.00  0.00     0.133 H 
ATOM      8  H13 MLR d   1      22.810  13.025  21.135  0.00  0.00     0.094 H 
ATOM      9  H14 MLR d   1      21.588  15.280  22.809  0.00  0.00     0.091 H 
ATOM     10  H15 MLR d   1      23.928  13.509  23.592  0.00  0.00     0.091 H 
ATOM     11  H16 MLR d   1      23.898  16.474  22.878  0.00  0.00     0.090 H 
ENDROOT
BRANCH   1  12
ATOM     12  O4A MLR d   1      22.662  16.338  20.678  0.00  0.00    -0.348 OA
BRANCH  12  13
ATOM     13  C4A MLR d   1      22.676  17.036  19.445  0.00  0.00     0.096 C 
ATOM     14  C3A MLR d   1      21.226  17.260  18.988  0.00  0.00     0.092 C 
ATOM     15  C2A MLR d   1      21.215  18.154  17.764  0.00  0.00     0.110 C 
ATOM     16  H3  MLR d   1      20.681  17.773  19.794  0.00  0.00     0.091 H 
ATOM     17  C1A MLR d   1      21.918  19.472  18.084  0.00  0.00     0.156 C 
ATOM     18  H2  MLR d   1      21.774  17.648  16.963  0.00  0.00     0.094 H 
ATOM     19  O5A MLR d   1      23.221  19.248  18.637  0.00  0.00    -0.349 OA
ATOM     20  H1  MLR d   1      22.026  20.054  17.157  0.00  0.00     0.133 H 
ATOM     21  C5A MLR d   1      23.374  18.371  19.751  0.00  0.00     0.089 C 
ATOM     22  H5  MLR d   1      22.902  18.823  20.636  0.00  0.00     0.090 H 
ATOM     23  H4  MLR d   1      23.229  16.475  18.677  0.00  0.00     0.091 H 
BRANCH  14  24
ATOM     24  O3A MLR d   1      20.572  16.005  18.738  0.00  0.00    -0.390 OA
ATOM     25  H10 MLR d   1      20.567  15.488  19.535  0.00  0.00     0.210 HD
ENDBRANCH  14  24
BRANCH  15  26
ATOM     26  O2A MLR d   1      19.871  18.391  17.290  0.00  0.00    -0.388 OA
ATOM     27  H9  MLR d   1      19.365  18.813  17.974  0.00  0.00     0.210 HD
ENDBRANCH  15  26
BRANCH  17  28
ATOM     28  O1X MLR d   1      21.107  20.200  19.003  0.00  0.00    -0.369 OA
ATOM     29  H8  MLR d   1      21.514  21.038  19.187  0.00  0.00     0.212 HD
ENDBRANCH  17  28
BRANCH  21  30
ATOM     30  C6A MLR d   1      24.875  18.169  20.036  0.00  0.00     0.043 C 
ATOM     31  H6  MLR d   1      25.337  17.669  19.172  0.00  0.00     0.078 H 
ATOM     32  H7  MLR d   1      24.986  17.536  20.929  0.00  0.00     0.078 H 
BRANCH  30  33
ATOM     33  O6A MLR d   1      25.548  19.422  20.265  0.00  0.00    -0.398 OA
ATOM     34  H11 MLR d   1      25.157  19.858  21.013  0.00  0.00     0.209 HD
ENDBRANCH  30  33
ENDBRANCH  21  30
ENDBRANCH  12  13
ENDBRANCH   1  12
BRANCH   2  35
ATOM     35  O2B MLR d   1      21.121  14.086  20.558  0.00  0.00    -0.388 OA
ATOM     36  H19 MLR d   1      20.529  13.440  20.925  0.00  0.00     0.210 HD
ENDBRANCH   2  35
BRANCH   3  37
ATOM     37  O3B MLR d   1      21.332  13.320  23.319  0.00  0.00    -0.390 OA
ATOM     38  H20 MLR d   1      21.123  13.556  24.215  0.00  0.00     0.210 HD
ENDBRANCH   3  37
BRANCH   5  39
ATOM     39  C6B MLR d   1      25.723  15.523  23.519  0.00  0.00     0.043 C 
ATOM     40  H17 MLR d   1      26.360  14.732  23.098  0.00  0.00     0.078 H 
ATOM     41  H18 MLR d   1      25.584  15.348  24.596  0.00  0.00     0.078 H 
BRANCH  39  42
ATOM     42  O6B MLR d   1      26.373  16.784  23.337  0.00  0.00    -0.398 OA
ATOM     43  H21 MLR d   1      27.214  16.772  23.778  0.00  0.00     0.209 HD
ENDBRANCH  39  42
ENDBRANCH   5  39
BRANCH   4  44
ATOM     44  O4B MLR d   1      23.132  14.941  24.868  0.00  0.00    -0.348 OA
BRANCH  44  45
ATOM     45  C1C MLR d   1      23.432  13.978  25.873  0.00  0.00     0.159 C 
ATOM     46  C2C MLR d   1      22.272  14.027  26.850  0.00  0.00     0.110 C 
ATOM     47  C3C MLR d   1      22.241  15.366  27.569  0.00  0.00     0.092 C 
ATOM     48  H23 MLR d   1      22.408  13.230  27.596  0.00  0.00     0.094 H 
ATOM     49  C4C MLR d   1      23.602  15.627  28.202  0.00  0.00     0.090 C 
ATOM     50  H24 MLR d   1      22.021  16.163  26.843  0.00  0.00     0.091 H 
ATOM     51  C5C MLR d   1      24.748  15.529  27.184  0.00  0.00     0.089 C 
ATOM     52  H25 MLR d   1      23.776  14.876  28.987  0.00  0.00     0.091 H 
ATOM     53  O5C MLR d   1      24.688  14.262  26.523  0.00  0.00    -0.348 OA
ATOM     54  H26 MLR d   1      24.622  16.334  26.445  0.00  0.00     0.090 H 
ATOM     55  H22 MLR d   1      23.492  12.977  25.420  0.00  0.00     0.133 H 
BRANCH  46  56
ATOM     56  O2C MLR d   1      21.027  13.805  26.161  0.00  0.00    -0.388 OA
ATOM     57  H29 MLR d   1      20.314  13.805  26.789  0.00  0.00     0.210 HD
ENDBRANCH  46  56
BRANCH  47  58
ATOM     58  O3C MLR d   1      21.227  15.356  28.569  0.00  0.00    -0.390 OA
ATOM     59  H30 MLR d   1      21.413  14.671  29.200  0.00  0.00     0.210 HD
ENDBRANCH  47  58
BRANCH  49  60
ATOM     60  O4C MLR d   1      23.562  16.923  28.798  0.00  0.00    -0.390 OA
ATOM     61  H31 MLR d   1      23.428  17.577  28.122  0.00  0.00     0.210 HD
ENDBRANCH  49  60
BRANCH  51  62
ATOM     62  C6C MLR d   1      26.142  15.658  27.816  0.00  0.00     0.043 C 
ATOM     63  H27 MLR d   1      26.435  14.696  28.261  0.00  0.00     0.078 H 
ATOM     64  H28 MLR d   1      26.122  16.433  28.597  0.00  0.00     0.078 H 
BRANCH  62  65
ATOM     65  O6C MLR d   1      27.084  16.024  26.801  0.00  0.00    -0.398 OA
ATOM     66  H32 MLR d   1      27.098  15.354  26.128  0.00  0.00     0.209 HD
ENDBRANCH  62  65
ENDBRANCH  51  62
ENDBRANCH  44  45
ENDBRANCH   4  44
TORSDOF 18
