REMARK  13 active torsions:
REMARK  status: ('A' for Active; 'I' for Inactive)
REMARK    1  A    between atoms: C3_4  and  O_1 
REMARK    2  A    between atoms: C5_6  and  C7_7 
REMARK    3  A    between atoms: C7_7  and  C8_8 
REMARK    4  A    between atoms: C8_8  and  C9_9 
REMARK    5  A    between atoms: C13_14  and  C18_19 
REMARK    6  A    between atoms: C17_18  and  C20_21 
REMARK    7  A    between atoms: C20_21  and  C21_22 
REMARK    8  A    between atoms: C20_21  and  C22_23 
REMARK    9  A    between atoms: C22_23  and  C23_24 
REMARK   10  A    between atoms: C23_24  and  C24_25 
REMARK   11  A    between atoms: C24_25  and  C25_26 
REMARK   12  A    between atoms: C25_26  and  C26_27 
REMARK   13  A    between atoms: C25_26  and  C27_28 
ROOT
ATOM      1  C9  VD3 d   1      -4.677   2.637  19.889  0.00  0.00    -0.050 C 
ATOM      2  C10 VD3 d   1      -4.659   2.175  18.335  0.00  0.00    -0.061 C 
ATOM      3  C11 VD3 d   1      -4.355   3.220  17.323  0.00  0.00    -0.064 C 
ATOM      4  C12 VD3 d   1      -4.690   4.722  17.671  0.00  0.00    -0.058 C 
ATOM      5  C13 VD3 d   1      -4.377   5.152  19.111  0.00  0.00    -0.036 C 
ATOM      6  C14 VD3 d   1      -3.762   3.974  19.960  0.00  0.00    -0.043 C 
ATOM      7  C15 VD3 d   1      -3.568   4.712  21.380  0.00  0.00    -0.060 C 
ATOM      8  C16 VD3 d   1      -3.228   6.269  21.010  0.00  0.00    -0.060 C 
ATOM      9  C17 VD3 d   1      -3.209   6.267  19.435  0.00  0.00    -0.044 C 
ATOM     10  H14 VD3 d   1      -5.671   2.927  20.261  0.00  0.00     0.040 H 
ATOM     11  H15 VD3 d   1      -5.652   1.764  18.100  0.00  0.00     0.033 H 
ATOM     12  H16 VD3 d   1      -3.901   1.384  18.233  0.00  0.00     0.033 H 
ATOM     13  H17 VD3 d   1      -4.917   2.964  16.413  0.00  0.00     0.033 H 
ATOM     14  H18 VD3 d   1      -3.276   3.167  17.115  0.00  0.00     0.033 H 
ATOM     15  H19 VD3 d   1      -5.765   4.879  17.497  0.00  0.00     0.034 H 
ATOM     16  H20 VD3 d   1      -4.111   5.365  16.992  0.00  0.00     0.034 H 
ATOM     17  H21 VD3 d   1      -2.772   3.698  19.567  0.00  0.00     0.041 H 
ATOM     18  H22 VD3 d   1      -2.737   4.258  21.940  0.00  0.00     0.033 H 
ATOM     19  H23 VD3 d   1      -4.490   4.650  21.977  0.00  0.00     0.033 H 
ATOM     20  H24 VD3 d   1      -2.250   6.567  21.416  0.00  0.00     0.033 H 
ATOM     21  H25 VD3 d   1      -4.006   6.945  21.395  0.00  0.00     0.033 H 
ATOM     22  H26 VD3 d   1      -2.228   5.932  19.067  0.00  0.00     0.041 H 
ENDROOT
BRANCH   1  23
ATOM     23  C8  VD3 d   1      -4.406   1.332  20.316  0.00  0.00    -0.061 C 
ATOM     24  H12 VD3 d   1      -4.803   1.266  21.340  0.00  0.00     0.033 H 
ATOM     25  H13 VD3 d   1      -4.989   0.676  19.653  0.00  0.00     0.033 H 
BRANCH  23  26
ATOM     26  C7  VD3 d   1      -3.017   0.723  20.376  0.00  0.00    -0.058 C 
ATOM     27  H10 VD3 d   1      -3.260  -0.335  20.555  0.00  0.00     0.034 H 
ATOM     28  H11 VD3 d   1      -2.687   0.852  19.335  0.00  0.00     0.034 H 
BRANCH  26  29
ATOM     29  C5  VD3 d   1      -1.827   0.832  21.041  0.00  0.00    -0.031 C 
ATOM     30  C4  VD3 d   1      -1.635   0.166  22.490  0.00  0.00    -0.034 C 
ATOM     31  C3  VD3 d   1      -0.832   1.015  23.511  0.00  0.00     0.036 C 
ATOM     32  H7  VD3 d   1      -2.633  -0.019  22.913  0.00  0.00     0.037 H 
ATOM     33  H8  VD3 d   1      -1.110  -0.791  22.357  0.00  0.00     0.037 H 
ATOM     34  C2  VD3 d   1       0.435   1.696  22.814  0.00  0.00    -0.038 C 
ATOM     35  H6  VD3 d   1      -1.486   1.801  23.916  0.00  0.00     0.082 H 
ATOM     36  C1  VD3 d   1       0.710   1.328  21.403  0.00  0.00    -0.043 C 
ATOM     37  H4  VD3 d   1       0.287   2.785  22.849  0.00  0.00     0.037 H 
ATOM     38  H5  VD3 d   1       1.323   1.427  23.405  0.00  0.00     0.037 H 
ATOM     39  C6  VD3 d   1      -0.557   1.574  20.556  0.00  0.00    -0.085 C 
ATOM     40  H2  VD3 d   1       0.988   0.265  21.348  0.00  0.00     0.039 H 
ATOM     41  H3  VD3 d   1       1.536   1.944  21.017  0.00  0.00     0.039 H 
ATOM     42  C19 VD3 d   1      -0.515   2.331  19.534  0.00  0.00    -0.119 C 
ATOM     43  H30 VD3 d   1       0.418   2.819  19.256  0.00  0.00     0.067 H 
ATOM     44  H31 VD3 d   1      -1.412   2.491  18.938  0.00  0.00     0.067 H 
ATOM     45  H9  VD3 d   1      -1.490  -0.087  20.539  0.00  0.00     0.047 H 
BRANCH  31  46
ATOM     46  O   VD3 d   1      -0.376   0.172  24.587  0.00  0.00    -0.396 OA
ATOM     47  H1  VD3 d   1      -1.124  -0.237  25.006  0.00  0.00     0.210 HD
ENDBRANCH  31  46
ENDBRANCH  26  29
ENDBRANCH  23  26
ENDBRANCH   1  23
BRANCH   5  48
ATOM     48  C18 VD3 d   1      -5.817   5.636  19.623  0.00  0.00    -0.068 C 
ATOM     49  H27 VD3 d   1      -6.567   4.866  19.389  0.00  0.00     0.028 H 
ATOM     50  H28 VD3 d   1      -6.088   6.577  19.121  0.00  0.00     0.028 H 
ATOM     51  H29 VD3 d   1      -5.784   5.797  20.711  0.00  0.00     0.028 H 
ENDBRANCH   5  48
BRANCH   9  52
ATOM     52  C20 VD3 d   1      -3.562   7.722  18.724  0.00  0.00    -0.053 C 
ATOM     53  H32 VD3 d   1      -4.657   7.780  18.635  0.00  0.00     0.040 H 
BRANCH  52  54
ATOM     54  C21 VD3 d   1      -2.898   7.744  17.366  0.00  0.00    -0.072 C 
ATOM     55  H33 VD3 d   1      -3.115   8.700  16.867  0.00  0.00     0.028 H 
ATOM     56  H34 VD3 d   1      -3.286   6.916  16.755  0.00  0.00     0.028 H 
ATOM     57  H35 VD3 d   1      -1.810   7.632  17.488  0.00  0.00     0.028 H 
ENDBRANCH  52  54
BRANCH  52  58
ATOM     58  C22 VD3 d   1      -3.040   9.081  19.321  0.00  0.00    -0.062 C 
ATOM     59  H36 VD3 d   1      -2.071   9.341  18.870  0.00  0.00     0.033 H 
ATOM     60  H37 VD3 d   1      -2.925   8.992  20.411  0.00  0.00     0.033 H 
BRANCH  58  61
ATOM     61  C23 VD3 d   1      -4.181  10.268  18.958  0.00  0.00    -0.064 C 
ATOM     62  H38 VD3 d   1      -4.797  10.533  19.830  0.00  0.00     0.033 H 
ATOM     63  H39 VD3 d   1      -4.834   9.976  18.123  0.00  0.00     0.033 H 
BRANCH  61  64
ATOM     64  C24 VD3 d   1      -3.203  11.400  18.567  0.00  0.00    -0.062 C 
ATOM     65  H40 VD3 d   1      -3.177  11.418  17.468  0.00  0.00     0.033 H 
ATOM     66  H41 VD3 d   1      -2.217  11.101  18.952  0.00  0.00     0.033 H 
BRANCH  64  67
ATOM     67  C25 VD3 d   1      -3.418  12.864  19.018  0.00  0.00    -0.061 C 
ATOM     68  H42 VD3 d   1      -4.358  12.964  19.581  0.00  0.00     0.038 H 
BRANCH  67  69
ATOM     69  C26 VD3 d   1      -2.179  12.860  19.703  0.00  0.00    -0.073 C 
ATOM     70  H43 VD3 d   1      -2.018  13.841  20.174  0.00  0.00     0.028 H 
ATOM     71  H44 VD3 d   1      -1.366  12.658  18.990  0.00  0.00     0.028 H 
ATOM     72  H45 VD3 d   1      -2.191  12.079  20.477  0.00  0.00     0.028 H 
ENDBRANCH  67  69
BRANCH  67  73
ATOM     73  C27 VD3 d   1      -3.082  14.105  18.363  0.00  0.00    -0.073 C 
ATOM     74  H46 VD3 d   1      -3.909  14.407  17.703  0.00  0.00     0.028 H 
ATOM     75  H47 VD3 d   1      -2.168  13.969  17.766  0.00  0.00     0.028 H 
ATOM     76  H48 VD3 d   1      -2.913  14.885  19.120  0.00  0.00     0.028 H 
ENDBRANCH  67  73
ENDBRANCH  64  67
ENDBRANCH  61  64
ENDBRANCH  58  61
ENDBRANCH  52  58
ENDBRANCH   9  52
TORSDOF 13
