REMARK  6 active torsions:
REMARK  status: ('A' for Active; 'I' for Inactive)
REMARK    1  A    between atoms: O5_1  and  C5_2 
REMARK    2  A    between atoms: C5_2  and  C4_3 
REMARK    3  A    between atoms: C3_5  and  O3_6 
REMARK    4  A    between atoms: C2_7  and  O2_8 
REMARK    5  A    between atoms: C1_9  and  N9_10 
REMARK    6  A    between atoms: C6_14  and  N6_15 
ROOT
ATOM      1  C4  ADN d   1      17.178  18.879  10.836  0.00  0.00     0.088 C 
ATOM      2  O4  ADN d   1      15.937  18.464  11.388  0.00  0.00    -0.353 OA
ATOM      3  C3  ADN d   1      16.820  20.021   9.922  0.00  0.00     0.091 C 
ATOM      4  C2  ADN d   1      15.330  19.854   9.628  0.00  0.00     0.105 C 
ATOM      5  C1  ADN d   1      14.834  19.195  10.824  0.00  0.00     0.139 C 
ATOM      6  H4  ADN d   1      17.659  18.070  10.267  0.00  0.00     0.090 H 
ATOM      7  H5  ADN d   1      17.015  21.003  10.378  0.00  0.00     0.091 H 
ATOM      8  H7  ADN d   1      14.839  20.788   9.319  0.00  0.00     0.093 H 
ATOM      9  H9  ADN d   1      14.015  18.506  10.569  0.00  0.00     0.122 H 
ENDROOT
BRANCH   5  10
ATOM     10  N9  ADN d   1      14.352  20.202  11.771  0.00  0.00    -0.294 N 
ATOM     11  C8  ADN d   1      15.060  21.197  12.344  0.00  0.00     0.071 A 
ATOM     12  N7  ADN d   1      14.266  21.918  13.175  0.00  0.00    -0.236 NA
ATOM     13  H10 ADN d   1      16.116  21.393  12.165  0.00  0.00     0.144 H 
ATOM     14  C5  ADN d   1      13.037  21.385  13.127  0.00  0.00     0.149 A 
ATOM     15  C6  ADN d   1      11.738  21.696  13.758  0.00  0.00     0.155 A 
ATOM     16  C4  ADN d   1      13.087  20.229  12.201  0.00  0.00     0.167 A 
ATOM     17  N1  ADN d   1      10.715  20.850  13.399  0.00  0.00    -0.222 NA
ATOM     18  C2  ADN d   1      10.864  19.818  12.515  0.00  0.00     0.091 A 
ATOM     19  N3  ADN d   1      11.990  19.477  11.912  0.00  0.00    -0.222 NA
ATOM     20  H13 ADN d   1       9.983  19.228  12.289  0.00  0.00     0.146 H 
BRANCH  15  21
ATOM     21  N6  ADN d   1      11.595  22.733  14.662  0.00  0.00    -0.382 N 
ATOM     22  H11 ADN d   1      10.675  22.924  15.085  0.00  0.00     0.157 HD
ATOM     23  H12 ADN d   1      12.408  23.314  14.912  0.00  0.00     0.157 HD
ENDBRANCH  15  21
ENDBRANCH   5  10
BRANCH   4  24
ATOM     24  O2  ADN d   1      15.056  18.743   8.831  0.00  0.00    -0.388 OA
ATOM     25  H8  ADN d   1      15.508  18.832   8.000  0.00  0.00     0.210 HD
ENDBRANCH   4  24
BRANCH   1  26
ATOM     26  C5  ADN d   1      18.065  19.295  11.986  0.00  0.00     0.043 C 
ATOM     27  H2  ADN d   1      18.802  20.055  11.689  0.00  0.00     0.078 H 
ATOM     28  H3  ADN d   1      17.486  19.663  12.846  0.00  0.00     0.078 H 
BRANCH  26  29
ATOM     29  O5  ADN d   1      18.664  18.041  12.242  0.00  0.00    -0.398 OA
ATOM     30  H1  ADN d   1      19.275  18.125  12.965  0.00  0.00     0.209 HD
ENDBRANCH  26  29
ENDBRANCH   1  26
BRANCH   3  31
ATOM     31  O3  ADN d   1      17.638  19.821   8.803  0.00  0.00    -0.390 OA
ATOM     32  H6  ADN d   1      17.443  18.976   8.416  0.00  0.00     0.210 HD
ENDBRANCH   3  31
TORSDOF 6
