REMARK  5 active torsions:
REMARK  status: ('A' for Active; 'I' for Inactive)
REMARK    1  A    between atoms: CAD_6  and  CAG_7 
REMARK       I    between atoms: CAG_7  and  NAH_9 
REMARK    2  A    between atoms: NAH_9  and  NAI_10 
REMARK    3  A    between atoms: CAJ_11  and  CAK_12 
REMARK    4  A    between atoms: CAN_16  and  OAS_17 
REMARK    5  A    between atoms: CAP_20  and  OAQ_21 
ROOT
ATOM      1  NAI BDE d   1     -73.809  35.643 129.389  0.00  0.00    -0.183 NA
ATOM      2  CAJ BDE d   1     -74.892  36.379 129.557  0.00  0.00     0.034 C 
ATOM      3  H6  BDE d   1     -74.885  37.101 130.373  0.00  0.00     0.118 H 
ENDROOT
BRANCH   1   4
ATOM      4  NAH BDE d   1     -72.745  36.162 129.732  0.00  0.00    -0.243 N 
ATOM      5  CAG BDE d   1     -71.553  35.569 129.750  0.00  0.00     0.273 C 
ATOM      6  OAU BDE d   1     -70.516  36.189 129.984  0.00  0.00    -0.266 OA
ATOM      7  H5  BDE d   1     -72.780  37.118 130.024  0.00  0.00     0.192 HD
BRANCH   5   8
ATOM      8  CAD BDE d   1     -71.491  34.075 129.420  0.00  0.00     0.051 A 
ATOM      9  CAE BDE d   1     -72.641  33.349 129.128  0.00  0.00    -0.065 A 
ATOM     10  CAF BDE d   1     -72.574  31.962 129.054  0.00  0.00    -0.065 A 
ATOM     11  H1  BDE d   1     -73.582  33.860 128.959  0.00  0.00     0.085 H 
ATOM     12  CAA BDE d   1     -71.349  31.338 129.270  0.00  0.00     0.002 A 
ATOM     13  H2  BDE d   1     -73.460  31.378 128.832  0.00  0.00     0.085 H 
ATOM     14  NAB BDE d   1     -70.272  32.059 129.536  0.00  0.00    -0.272 NA
ATOM     15  H3  BDE d   1     -71.277  30.258 129.220  0.00  0.00     0.114 H 
ATOM     16  CAC BDE d   1     -70.300  33.380 129.613  0.00  0.00     0.017 A 
ATOM     17  H4  BDE d   1     -69.388  33.925 129.828  0.00  0.00     0.116 H 
ENDBRANCH   5   8
ENDBRANCH   1   4
BRANCH   2  18
ATOM     18  CAK BDE d   1     -76.040  36.307 128.777  0.00  0.00     0.019 A 
ATOM     19  CAL BDE d   1     -77.163  36.996 129.228  0.00  0.00    -0.049 A 
ATOM     20  CAM BDE d   1     -78.377  36.878 128.559  0.00  0.00     0.046 A 
ATOM     21  H7  BDE d   1     -77.091  37.628 130.106  0.00  0.00     0.087 H 
ATOM     22 BRAT BDE d   1     -79.941  37.663 129.284  0.00  0.00    -0.048 Br
ATOM     23  CAN BDE d   1     -78.465  36.097 127.412  0.00  0.00     0.103 A 
ATOM     24  CAO BDE d   1     -77.339  35.426 126.947  0.00  0.00     0.079 A 
ATOM     25 BRAR BDE d   1     -77.361  34.742 125.181  0.00  0.00    -0.045 Br
ATOM     26  CAP BDE d   1     -76.135  35.502 127.643  0.00  0.00     0.097 A 
BRANCH  23  27
ATOM     27  OAS BDE d   1     -79.644  35.988 126.742  0.00  0.00    -0.358 OA
ATOM     28  H8  BDE d   1     -80.302  35.618 127.319  0.00  0.00     0.217 HD
ENDBRANCH  23  27
BRANCH  26  29
ATOM     29  OAQ BDE d   1     -75.063  34.792 127.202  0.00  0.00    -0.358 OA
ATOM     30  H9  BDE d   1     -74.323  34.947 127.778  0.00  0.00     0.217 HD
ENDBRANCH  26  29
ENDBRANCH   2  18
TORSDOF 5
