REMARK  6 active torsions:
REMARK  status: ('A' for Active; 'I' for Inactive)
REMARK    1  A    between atoms: P_1  and  O5_5 
REMARK    2  A    between atoms: O5_5  and  C5_6 
REMARK    3  A    between atoms: C5_6  and  C4_7 
REMARK    4  A    between atoms: C3_9  and  O3_10 
REMARK    5  A    between atoms: C2_11  and  O2_12 
REMARK    6  A    between atoms: C1_13  and  N9_14 
ROOT
ATOM      1  C4  AMP d   1      27.562  44.016  19.554  0.00  0.00     0.089 C 
ATOM      2  O4  AMP d   1      27.177  43.201  18.436  0.00  0.00    -0.353 OA
ATOM      3  C3  AMP d   1      26.393  44.947  19.832  0.00  0.00     0.091 C 
ATOM      4  C2  AMP d   1      25.403  44.761  18.689  0.00  0.00     0.105 C 
ATOM      5  C1  AMP d   1      25.917  43.579  17.856  0.00  0.00     0.139 C 
ATOM      6  H3  AMP d   1      28.440  44.620  19.282  0.00  0.00     0.090 H 
ATOM      7  H4  AMP d   1      25.912  44.662  20.779  0.00  0.00     0.091 H 
ATOM      8  H6  AMP d   1      24.412  44.512  19.097  0.00  0.00     0.093 H 
ATOM      9  H8  AMP d   1      26.069  43.914  16.819  0.00  0.00     0.122 H 
ENDROOT
BRANCH   5  10
ATOM     10  N9  AMP d   1      24.997  42.393  17.835  0.00  0.00    -0.294 N 
ATOM     11  C8  AMP d   1      23.977  42.177  18.685  0.00  0.00     0.071 A 
ATOM     12  N7  AMP d   1      23.324  41.022  18.425  0.00  0.00    -0.236 NA
ATOM     13  H9  AMP d   1      23.707  42.856  19.492  0.00  0.00     0.144 H 
ATOM     14  C5  AMP d   1      23.922  40.453  17.384  0.00  0.00     0.149 A 
ATOM     15  C6  AMP d   1      23.704  39.209  16.622  0.00  0.00     0.155 A 
ATOM     16  C4  AMP d   1      25.023  41.346  16.990  0.00  0.00     0.167 A 
ATOM     17  N6  AMP d   1      22.694  38.371  16.967  0.00  0.00    -0.382 N 
ATOM     18  N1  AMP d   1      24.540  38.957  15.587  0.00  0.00    -0.222 NA
ATOM     19  H10 AMP d   1      22.541  37.502  16.435  0.00  0.00     0.157 HD
ATOM     20  H11 AMP d   1      22.080  38.604  17.761  0.00  0.00     0.157 HD
ATOM     21  C2  AMP d   1      25.531  39.809  15.256  0.00  0.00     0.091 A 
ATOM     22  N3  AMP d   1      25.773  40.959  15.925  0.00  0.00    -0.222 NA
ATOM     23  H12 AMP d   1      26.165  39.560  14.412  0.00  0.00     0.146 H 
ENDBRANCH   5  10
BRANCH   4  24
ATOM     24  O2  AMP d   1      25.285  45.964  17.918  0.00  0.00    -0.388 OA
ATOM     25  H7  AMP d   1      24.980  46.669  18.477  0.00  0.00     0.210 HD
ENDBRANCH   4  24
BRANCH   1  26
ATOM     26  C5  AMP d   1      27.943  43.135  20.754  0.00  0.00     0.059 C 
ATOM     27  H1  AMP d   1      27.228  43.319  21.569  0.00  0.00     0.079 H 
ATOM     28  H2  AMP d   1      27.889  42.079  20.450  0.00  0.00     0.079 H 
BRANCH  26  29
ATOM     29  O5  AMP d   1      29.274  43.412  21.233  0.00  0.00    -0.280 OA
BRANCH  29  30
ATOM     30  P   AMP d   1      29.586  43.938  22.730  0.00  0.00     0.422 P 
ATOM     31  O1P AMP d   1      28.343  44.710  23.070  0.00  0.00    -0.617 OA
ATOM     32  O2P AMP d   1      29.825  42.693  23.573  0.00  0.00    -0.617 OA
ATOM     33  O3P AMP d   1      30.794  44.793  22.504  0.00  0.00    -0.617 OA
ENDBRANCH  29  30
ENDBRANCH  26  29
ENDBRANCH   1  26
BRANCH   3  34
ATOM     34  O3  AMP d   1      26.846  46.308  19.942  0.00  0.00    -0.390 OA
ATOM     35  H5  AMP d   1      27.262  46.569  19.129  0.00  0.00     0.210 HD
ENDBRANCH   3  34
TORSDOF 6
