REMARK  11 active torsions:
REMARK  status: ('A' for Active; 'I' for Inactive)
REMARK    1  A    between atoms: S1_1  and  N12_4 
REMARK    2  A    between atoms: S1_1  and  C2_30 
REMARK    3  A    between atoms: N12_4  and  C13_5 
REMARK    4  A    between atoms: C13_5  and  C24_6 
REMARK    5  A    between atoms: C13_5  and  C14_20 
REMARK       I    between atoms: C24_6  and  N26_7 
REMARK    6  A    between atoms: C29_10  and  C32_11 
REMARK    7  A    between atoms: C32_11  and  C33_12 
REMARK    8  A    between atoms: C33_12  and  N34_13 
REMARK       I    between atoms: N34_13  and  C35_14 
REMARK       I    between atoms: C35_14  and  N37_15 
REMARK       I    between atoms: C35_14  and  N36_16 
REMARK    9  A    between atoms: C14_20  and  C15_21 
REMARK   10  A    between atoms: C19_23  and  C21_24 
REMARK   11  A    between atoms: C21_24  and  N23_25 
ROOT
ATOM      1  C13 730 d   1      18.394  63.439  26.222  0.00  0.00     0.101 C 
ATOM      2  H2  730 d   1      18.518  64.531  26.171  0.00  0.00     0.089 H 
ENDROOT
BRANCH   1   3
ATOM      3  N12 730 d   1      18.332  63.085  27.616  0.00  0.00    -0.301 N 
ATOM      4  H1  730 d   1      18.172  62.125  27.847  0.00  0.00     0.173 HD
BRANCH   3   5
ATOM      5  S1  730 d   1      18.500  64.116  28.811  0.00  0.00     0.259 S 
ATOM      6  O39 730 d   1      18.295  63.414  30.057  0.00  0.00    -0.201 OA
ATOM      7  O38 730 d   1      19.753  64.844  28.636  0.00  0.00    -0.201 OA
BRANCH   5   8
ATOM      8  C2  730 d   1      17.140  65.222  28.510  0.00  0.00     0.080 A 
ATOM      9  C7  730 d   1      15.787  64.785  28.618  0.00  0.00    -0.059 A 
ATOM     10  C6  730 d   1      14.720  65.698  28.344  0.00  0.00    -0.071 A 
ATOM     11  H31 730 d   1      15.567  63.764  28.907  0.00  0.00     0.085 H 
ATOM     12  C5  730 d   1      15.007  67.045  27.959  0.00  0.00    -0.026 A 
ATOM     13  H32 730 d   1      13.691  65.368  28.428  0.00  0.00     0.084 H 
ATOM     14  C11 730 d   1      13.958  67.968  27.678  0.00  0.00    -0.072 A 
ATOM     15  C4  730 d   1      16.381  67.479  27.852  0.00  0.00    -0.025 A 
ATOM     16  C10 730 d   1      14.266  69.307  27.293  0.00  0.00    -0.082 A 
ATOM     17  H33 730 d   1      12.924  67.652  27.757  0.00  0.00     0.084 H 
ATOM     18  C9  730 d   1      15.624  69.732  27.191  0.00  0.00    -0.082 A 
ATOM     19  H34 730 d   1      13.465  70.004  27.077  0.00  0.00     0.083 H 
ATOM     20  C8  730 d   1      16.676  68.821  27.468  0.00  0.00    -0.072 A 
ATOM     21  H35 730 d   1      15.852  70.751  26.902  0.00  0.00     0.083 H 
ATOM     22  H36 730 d   1      17.707  69.146  27.388  0.00  0.00     0.084 H 
ATOM     23  C3  730 d   1      17.425  66.568  28.125  0.00  0.00    -0.050 A 
ATOM     24  H37 730 d   1      18.455  66.894  28.041  0.00  0.00     0.087 H 
ENDBRANCH   5   8
ENDBRANCH   3   5
ENDBRANCH   1   3
BRANCH   1  25
ATOM     25  C24 730 d   1      17.035  63.060  25.595  0.00  0.00     0.243 C 
ATOM     26  N26 730 d   1      16.411  63.708  24.512  0.00  0.00    -0.350 N 
ATOM     27  C31 730 d   1      15.115  63.170  24.023  0.00  0.00    -0.002 C 
ATOM     28  C27 730 d   1      16.992  64.891  23.818  0.00  0.00    -0.002 C 
ATOM     29  C30 730 d   1      14.050  64.296  23.885  0.00  0.00    -0.047 C 
ATOM     30  H3  730 d   1      14.749  62.416  24.735  0.00  0.00     0.064 H 
ATOM     31  H4  730 d   1      15.270  62.701  23.040  0.00  0.00     0.064 H 
ATOM     32  C29 730 d   1      14.553  65.666  24.404  0.00  0.00    -0.050 C 
ATOM     33  H5  730 d   1      13.158  64.008  24.461  0.00  0.00     0.035 H 
ATOM     34  H6  730 d   1      13.783  64.399  22.823  0.00  0.00     0.035 H 
ATOM     35  C28 730 d   1      15.893  66.026  23.657  0.00  0.00    -0.047 C 
ATOM     36  H7  730 d   1      14.785  65.566  25.475  0.00  0.00     0.040 H 
ATOM     37  H17 730 d   1      16.289  66.964  24.072  0.00  0.00     0.035 H 
ATOM     38  H18 730 d   1      15.677  66.161  22.587  0.00  0.00     0.035 H 
ATOM     39  H19 730 d   1      17.351  64.589  22.823  0.00  0.00     0.064 H 
ATOM     40  H20 730 d   1      17.834  65.281  24.408  0.00  0.00     0.064 H 
ATOM     41  O25 730 d   1      16.500  62.079  26.141  0.00  0.00    -0.271 OA
BRANCH  32  42
ATOM     42  C32 730 d   1      13.418  66.769  24.270  0.00  0.00    -0.046 C 
ATOM     43  H8  730 d   1      13.371  67.296  25.234  0.00  0.00     0.035 H 
ATOM     44  H9  730 d   1      12.473  66.234  24.098  0.00  0.00     0.035 H 
BRANCH  42  45
ATOM     45  C33 730 d   1      13.525  67.871  23.155  0.00  0.00     0.009 C 
ATOM     46  H10 730 d   1      13.583  67.384  22.170  0.00  0.00     0.064 H 
ATOM     47  H11 730 d   1      14.434  68.468  23.323  0.00  0.00     0.064 H 
BRANCH  45  48
ATOM     48  N34 730 d   1      12.333  68.772  23.187  0.00  0.00    -0.227 N 
ATOM     49  C35 730 d   1      12.124  69.815  22.364  0.00  0.00     0.665 C 
ATOM     50  N37 730 d   1      11.011  70.520  22.501  0.00  0.00    -0.235 N 
ATOM     51  N36 730 d   1      12.973  70.178  21.422  0.00  0.00    -0.235 N 
ATOM     52  H13 730 d   1      10.830  71.323  21.882  0.00  0.00     0.174 HD
ATOM     53  H14 730 d   1      10.326  70.265  23.227  0.00  0.00     0.174 HD
ATOM     54  H15 730 d   1      13.848  69.652  21.287  0.00  0.00     0.174 HD
ATOM     55  H16 730 d   1      12.761  70.987  20.821  0.00  0.00     0.174 HD
ATOM     56  H12 730 d   1      11.613  68.578  23.897  0.00  0.00     0.177 HD
ENDBRANCH  45  48
ENDBRANCH  42  45
ENDBRANCH  32  42
ENDBRANCH   1  25
BRANCH   1  57
ATOM     57  C14 730 d   1      19.548  62.809  25.356  0.00  0.00    -0.013 C 
ATOM     58  H21 730 d   1      20.485  62.916  25.923  0.00  0.00     0.043 H 
ATOM     59  H22 730 d   1      19.616  63.387  24.422  0.00  0.00     0.043 H 
BRANCH  57  60
ATOM     60  C15 730 d   1      19.404  61.325  24.974  0.00  0.00    -0.055 A 
ATOM     61  C20 730 d   1      19.915  60.286  25.822  0.00  0.00    -0.063 A 
ATOM     62  C19 730 d   1      19.775  58.909  25.462  0.00  0.00     0.007 A 
ATOM     63  H23 730 d   1      20.414  60.548  26.748  0.00  0.00     0.085 H 
ATOM     64  C18 730 d   1      19.112  58.579  24.240  0.00  0.00    -0.069 A 
ATOM     65  C17 730 d   1      18.603  59.594  23.392  0.00  0.00    -0.082 A 
ATOM     66  H28 730 d   1      18.997  57.539  23.958  0.00  0.00     0.085 H 
ATOM     67  C16 730 d   1      18.747  60.956  23.751  0.00  0.00    -0.077 A 
ATOM     68  H29 730 d   1      18.103  59.327  22.468  0.00  0.00     0.083 H 
ATOM     69  H30 730 d   1      18.358  61.728  23.097  0.00  0.00     0.084 H 
BRANCH  62  70
ATOM     70  C21 730 d   1      20.319  57.818  26.349  0.00  0.00     0.102 C 
ATOM     71  N22 730 d   1      20.336  56.586  25.918  0.00  0.00    -0.385 N 
ATOM     72  H26 730 d   1      19.978  56.364  24.978  0.00  0.00     0.157 HD
ATOM     73  H27 730 d   1      20.707  55.836  26.518  0.00  0.00     0.157 HD
BRANCH  70  74
ATOM     74  N23 730 d   1      20.773  58.108  27.546  0.00  0.00    -0.385 N 
ATOM     75  H24 730 d   1      21.144  57.361  28.151  0.00  0.00     0.157 HD
ATOM     76  H25 730 d   1      20.758  59.082  27.881  0.00  0.00     0.157 HD
ENDBRANCH  70  74
ENDBRANCH  62  70
ENDBRANCH  57  60
ENDBRANCH   1  57
TORSDOF 11
