REMARK  19 active torsions:
REMARK  status: ('A' for Active; 'I' for Inactive)
REMARK    1  A    between atoms: C2_1  and  C4_2 
REMARK    2  A    between atoms: C2_1  and  C3_3 
REMARK    3  A    between atoms: C2_1  and  C1_49 
REMARK    4  A    between atoms: C8_5  and  C13_6 
REMARK    5  A    between atoms: C13_6  and  C15_7 
REMARK    6  A    between atoms: C13_6  and  C14_8 
REMARK    7  A    between atoms: C7_9  and  S16_10 
REMARK    8  A    between atoms: S16_10  and  N19_11 
REMARK    9  A    between atoms: N19_11  and  C20_12 
REMARK   10  A    between atoms: C20_12  and  C23_13 
REMARK   11  A    between atoms: C20_12  and  C21_23 
REMARK   12  A    between atoms: C23_13  and  C24_14 
REMARK   13  A    between atoms: C28_16  and  C30_17 
REMARK   14  A    between atoms: C30_17  and  N32_18 
REMARK   15  A    between atoms: C30_17  and  N31_19 
REMARK       I    between atoms: C21_23  and  N33_24 
REMARK       I    between atoms: N36_27  and  C39_28 
REMARK   16  A    between atoms: C39_28  and  C41_29 
REMARK       I    between atoms: N44_32  and  C47_33 
REMARK       I    between atoms: C47_33  and  N49_34 
REMARK   17  A    between atoms: C6_44  and  C10_45 
REMARK   18  A    between atoms: C10_45  and  C12_46 
REMARK   19  A    between atoms: C10_45  and  C11_47 
ROOT
ATOM      1  C20 672 d   1      17.992  63.323  25.617  0.00  0.00     0.101 C 
ATOM      2  H14 672 d   1      17.973  64.413  25.474  0.00  0.00     0.089 H 
ENDROOT
BRANCH   1   3
ATOM      3  N19 672 d   1      18.324  63.043  27.020  0.00  0.00    -0.301 N 
ATOM      4  H13 672 d   1      18.411  62.104  27.352  0.00  0.00     0.173 HD
BRANCH   3   5
ATOM      5  S16 672 d   1      18.549  64.331  28.032  0.00  0.00     0.260 S 
ATOM      6  O18 672 d   1      18.616  63.798  29.383  0.00  0.00    -0.200 OA
ATOM      7  O17 672 d   1      19.705  65.069  27.559  0.00  0.00    -0.200 OA
BRANCH   5   8
ATOM      8  C7  672 d   1      17.021  65.337  27.840  0.00  0.00     0.092 A 
ATOM      9  C8  672 d   1      15.757  64.872  28.368  0.00  0.00    -0.030 A 
ATOM     10  C9  672 d   1      14.580  65.670  28.211  0.00  0.00    -0.069 A 
ATOM     11  C3  672 d   1      14.602  66.912  27.546  0.00  0.00    -0.054 A 
ATOM     12  H5  672 d   1      13.642  65.308  28.616  0.00  0.00     0.085 H 
ATOM     13  C5  672 d   1      15.833  67.384  27.021  0.00  0.00    -0.069 A 
ATOM     14  C6  672 d   1      17.042  66.629  27.149  0.00  0.00    -0.030 A 
ATOM     15  H53 672 d   1      15.858  68.340  26.511  0.00  0.00     0.085 H 
BRANCH   9  16
ATOM     16  C13 672 d   1      15.641  63.529  29.115  0.00  0.00    -0.034 C 
ATOM     17  H6  672 d   1      16.518  62.919  28.854  0.00  0.00     0.046 H 
BRANCH  16  18
ATOM     18  C15 672 d   1      14.374  62.722  28.729  0.00  0.00    -0.069 C 
ATOM     19  H7  672 d   1      14.353  61.779  29.296  0.00  0.00     0.028 H 
ATOM     20  H8  672 d   1      14.394  62.502  27.651  0.00  0.00     0.028 H 
ATOM     21  H9  672 d   1      13.477  63.312  28.966  0.00  0.00     0.028 H 
ENDBRANCH  16  18
BRANCH  16  22
ATOM     22  C14 672 d   1      15.663  63.795  30.646  0.00  0.00    -0.069 C 
ATOM     23  H10 672 d   1      16.566  64.367  30.906  0.00  0.00     0.028 H 
ATOM     24  H11 672 d   1      15.669  62.836  31.185  0.00  0.00     0.028 H 
ATOM     25  H12 672 d   1      14.770  64.370  30.931  0.00  0.00     0.028 H 
ENDBRANCH  16  22
ENDBRANCH   9  16
BRANCH  11  26
ATOM     26  C2  672 d   1      13.286  67.707  27.418  0.00  0.00    -0.036 C 
ATOM     27  H1  672 d   1      12.635  67.432  28.261  0.00  0.00     0.046 H 
BRANCH  26  28
ATOM     28  C4  672 d   1      13.533  69.233  27.464  0.00  0.00    -0.069 C 
ATOM     29  H2  672 d   1      12.573  69.763  27.370  0.00  0.00     0.028 H 
ATOM     30  H3  672 d   1      14.194  69.523  26.634  0.00  0.00     0.028 H 
ATOM     31  H4  672 d   1      14.007  69.499  28.421  0.00  0.00     0.028 H 
ENDBRANCH  26  28
BRANCH  26  32
ATOM     32  C1  672 d   1      12.564  67.362  26.102  0.00  0.00    -0.069 C 
ATOM     33  H54 672 d   1      12.382  66.278  26.057  0.00  0.00     0.028 H 
ATOM     34  H55 672 d   1      13.190  67.665  25.250  0.00  0.00     0.028 H 
ATOM     35  H56 672 d   1      11.604  67.897  26.059  0.00  0.00     0.028 H 
ENDBRANCH  26  32
ENDBRANCH  11  26
BRANCH  14  36
ATOM     36  C10 672 d   1      18.334  67.230  26.545  0.00  0.00    -0.034 C 
ATOM     37  H46 672 d   1      19.095  66.436  26.504  0.00  0.00     0.046 H 
BRANCH  36  38
ATOM     38  C12 672 d   1      18.869  68.386  27.427  0.00  0.00    -0.069 C 
ATOM     39  H47 672 d   1      19.786  68.796  26.978  0.00  0.00     0.028 H 
ATOM     40  H48 672 d   1      19.093  68.005  28.434  0.00  0.00     0.028 H 
ATOM     41  H49 672 d   1      18.108  69.178  27.495  0.00  0.00     0.028 H 
ENDBRANCH  36  38
BRANCH  36  42
ATOM     42  C11 672 d   1      18.100  67.763  25.108  0.00  0.00    -0.069 C 
ATOM     43  H50 672 d   1      17.720  66.950  24.473  0.00  0.00     0.028 H 
ATOM     44  H51 672 d   1      19.049  68.136  24.696  0.00  0.00     0.028 H 
ATOM     45  H52 672 d   1      17.365  68.581  25.135  0.00  0.00     0.028 H 
ENDBRANCH  36  42
ENDBRANCH  14  36
ENDBRANCH   5   8
ENDBRANCH   3   5
ENDBRANCH   1   3
BRANCH   1  46
ATOM     46  C23 672 d   1      19.094  62.747  24.674  0.00  0.00    -0.013 C 
ATOM     47  H15 672 d   1      20.072  62.892  25.157  0.00  0.00     0.043 H 
ATOM     48  H16 672 d   1      19.066  63.307  23.728  0.00  0.00     0.043 H 
BRANCH  46  49
ATOM     49  C24 672 d   1      18.932  61.250  24.353  0.00  0.00    -0.055 A 
ATOM     50  C29 672 d   1      19.589  60.285  25.181  0.00  0.00    -0.063 A 
ATOM     51  C28 672 d   1      19.444  58.896  24.915  0.00  0.00     0.007 A 
ATOM     52  H17 672 d   1      20.199  60.614  26.014  0.00  0.00     0.085 H 
ATOM     53  C27 672 d   1      18.627  58.487  23.809  0.00  0.00    -0.069 A 
ATOM     54  C26 672 d   1      17.977  59.439  22.982  0.00  0.00    -0.082 A 
ATOM     55  H22 672 d   1      18.504  57.430  23.601  0.00  0.00     0.085 H 
ATOM     56  C25 672 d   1      18.126  60.818  23.243  0.00  0.00    -0.077 A 
ATOM     57  H23 672 d   1      17.366  59.107  22.150  0.00  0.00     0.083 H 
ATOM     58  H24 672 d   1      17.635  61.548  22.610  0.00  0.00     0.084 H 
BRANCH  51  59
ATOM     59  C30 672 d   1      20.100  57.932  25.723  0.00  0.00     0.102 C 
BRANCH  59  60
ATOM     60  N32 672 d   1      20.062  56.614  25.402  0.00  0.00    -0.385 N 
ATOM     61  H18 672 d   1      20.543  55.925  25.998  0.00  0.00     0.157 HD
ATOM     62  H19 672 d   1      19.552  56.303  24.563  0.00  0.00     0.157 HD
ENDBRANCH  59  60
BRANCH  59  63
ATOM     63  N31 672 d   1      20.797  58.300  26.807  0.00  0.00    -0.385 N 
ATOM     64  H20 672 d   1      20.844  59.293  27.076  0.00  0.00     0.157 HD
ATOM     65  H21 672 d   1      21.285  57.590  27.371  0.00  0.00     0.157 HD
ENDBRANCH  59  63
ENDBRANCH  51  59
ENDBRANCH  46  49
ENDBRANCH   1  46
BRANCH   1  66
ATOM     66  C21 672 d   1      16.606  62.797  25.336  0.00  0.00     0.243 C 
ATOM     67  N33 672 d   1      15.705  63.474  24.322  0.00  0.00    -0.347 N 
ATOM     68  C38 672 d   1      16.233  64.634  23.637  0.00  0.00     0.013 C 
ATOM     69  C34 672 d   1      14.398  62.859  24.190  0.00  0.00     0.013 C 
ATOM     70  C37 672 d   1      15.122  65.720  23.497  0.00  0.00     0.013 C 
ATOM     71  H25 672 d   1      16.583  64.339  22.637  0.00  0.00     0.066 H 
ATOM     72  H26 672 d   1      17.075  65.046  24.213  0.00  0.00     0.066 H 
ATOM     73  N36 672 d   1      13.797  65.117  23.621  0.00  0.00    -0.349 N 
ATOM     74  H27 672 d   1      15.209  66.202  22.512  0.00  0.00     0.066 H 
ATOM     75  H28 672 d   1      15.252  66.474  24.287  0.00  0.00     0.066 H 
ATOM     76  C39 672 d   1      12.707  65.718  22.821  0.00  0.00     0.224 C 
ATOM     77  C35 672 d   1      13.383  63.974  24.428  0.00  0.00     0.013 C 
ATOM     78  O40 672 d   1      11.586  65.214  22.846  0.00  0.00    -0.273 OA
ATOM     79  H42 672 d   1      12.380  63.641  24.123  0.00  0.00     0.066 H 
ATOM     80  H43 672 d   1      13.370  64.250  25.493  0.00  0.00     0.066 H 
ATOM     81  H44 672 d   1      14.273  62.062  24.938  0.00  0.00     0.066 H 
ATOM     82  H45 672 d   1      14.274  62.438  23.181  0.00  0.00     0.066 H 
ATOM     83  O22 672 d   1      16.208  61.801  25.951  0.00  0.00    -0.271 OA
BRANCH  76  84
ATOM     84  C41 672 d   1      12.973  66.954  21.994  0.00  0.00     0.027 C 
ATOM     85  C46 672 d   1      13.084  66.506  20.502  0.00  0.00    -0.038 C 
ATOM     86  C45 672 d   1      13.251  67.716  19.563  0.00  0.00     0.012 C 
ATOM     87  H30 672 d   1      12.171  65.960  20.223  0.00  0.00     0.036 H 
ATOM     88  H31 672 d   1      13.955  65.844  20.391  0.00  0.00     0.036 H 
ATOM     89  N44 672 d   1      12.078  68.685  19.844  0.00  0.00    -0.219 N 
ATOM     90  H32 672 d   1      13.222  67.385  18.514  0.00  0.00     0.065 H 
ATOM     91  H33 672 d   1      14.209  68.218  19.763  0.00  0.00     0.065 H 
ATOM     92  C47 672 d   1      11.161  68.989  18.884  0.00  0.00     0.667 C 
ATOM     93  C43 672 d   1      11.964  69.232  21.256  0.00  0.00     0.012 C 
ATOM     94  N49 672 d   1      11.357  68.604  17.609  0.00  0.00    -0.235 N 
ATOM     95  N48 672 d   1      10.027  69.662  19.190  0.00  0.00    -0.235 N 
ATOM     96  H34 672 d   1      10.660  68.837  16.888  0.00  0.00     0.174 HD
ATOM     97  H35 672 d   1      12.204  68.076  17.355  0.00  0.00     0.174 HD
ATOM     98  H36 672 d   1       9.855  69.967  20.159  0.00  0.00     0.174 HD
ATOM     99  H37 672 d   1       9.337  69.869  18.454  0.00  0.00     0.174 HD
ATOM    100  C42 672 d   1      11.819  68.019  22.215  0.00  0.00    -0.038 C 
ATOM    101  H38 672 d   1      11.081  69.882  21.337  0.00  0.00     0.065 H 
ATOM    102  H39 672 d   1      12.867  69.806  21.511  0.00  0.00     0.065 H 
ATOM    103  H40 672 d   1      11.861  68.379  23.254  0.00  0.00     0.036 H 
ATOM    104  H41 672 d   1      10.848  67.535  22.033  0.00  0.00     0.036 H 
ATOM    105  H29 672 d   1      13.927  67.404  22.305  0.00  0.00     0.054 H 
ENDBRANCH  76  84
ENDBRANCH   1  66
TORSDOF 19
