REMARK  8 active torsions:
REMARK  status: ('A' for Active; 'I' for Inactive)
REMARK    1  A    between atoms: CBA_6  and  CAY_7 
REMARK       I    between atoms: CAY_7  and  NBC_9 
REMARK    2  A    between atoms: CBB_14  and  CAQ_15 
REMARK    3  A    between atoms: CAQ_15  and  CAO_16 
REMARK    4  A    between atoms: CAO_16  and  CAN_17 
REMARK    5  A    between atoms: CAN_17  and  CAP_18 
REMARK    6  A    between atoms: CAP_18  and  NAW_19 
REMARK       I    between atoms: NAW_19  and  CAX_20 
REMARK    7  A    between atoms: CAX_20  and  CAC_22 
REMARK    8  A    between atoms: CAD_23  and  CAZ_24 
ROOT
ATOM      1  CAQ DGB d   1      10.362  -3.947  46.656  0.00  0.00    -0.061 C 
ATOM      2  H15 DGB d   1      11.430  -4.122  46.851  0.00  0.00     0.033 H 
ATOM      3  H16 DGB d   1      10.246  -3.420  45.698  0.00  0.00     0.033 H 
ENDROOT
BRANCH   1   4
ATOM      4  CBB DGB d   1       9.815  -3.036  47.772  0.00  0.00    -0.051 C 
ATOM      5  CAS DGB d   1       8.301  -2.872  47.619  0.00  0.00    -0.047 C 
ATOM      6  CAU DGB d   1       7.776  -1.915  48.684  0.00  0.00    -0.002 C 
ATOM      7  H8  DGB d   1       8.076  -2.467  46.621  0.00  0.00     0.035 H 
ATOM      8  H9  DGB d   1       7.814  -3.851  47.736  0.00  0.00     0.035 H 
ATOM      9  NBC DGB d   1       8.070  -2.510  49.991  0.00  0.00    -0.348 N 
ATOM     10  H6  DGB d   1       8.277  -0.940  48.593  0.00  0.00     0.064 H 
ATOM     11  H7  DGB d   1       6.690  -1.782  48.567  0.00  0.00     0.064 H 
ATOM     12  CAY DGB d   1       7.092  -2.854  50.848  0.00  0.00     0.253 C 
ATOM     13  CAT DGB d   1       9.505  -2.670  50.301  0.00  0.00    -0.002 C 
ATOM     14  OAB DGB d   1       7.338  -3.336  51.943  0.00  0.00    -0.267 OA
ATOM     15  CAR DGB d   1      10.127  -3.543  49.193  0.00  0.00    -0.047 C 
ATOM     16  H10 DGB d   1       9.625  -3.162  51.278  0.00  0.00     0.064 H 
ATOM     17  H11 DGB d   1       9.996  -1.686  50.323  0.00  0.00     0.064 H 
ATOM     18  H12 DGB d   1       9.735  -4.566  49.293  0.00  0.00     0.035 H 
ATOM     19  H13 DGB d   1      11.219  -3.554  49.328  0.00  0.00     0.035 H 
ATOM     20  H14 DGB d   1      10.287  -2.049  47.657  0.00  0.00     0.040 H 
BRANCH  12  21
ATOM     21  CBA DGB d   1       5.643  -2.673  50.467  0.00  0.00     0.032 A 
ATOM     22  CAK DGB d   1       4.884  -1.646  51.030  0.00  0.00    -0.068 A 
ATOM     23  CAF DGB d   1       3.544  -1.497  50.670  0.00  0.00    -0.082 A 
ATOM     24  H1  DGB d   1       5.334  -0.966  51.745  0.00  0.00     0.085 H 
ATOM     25  CAE DGB d   1       2.963  -2.365  49.745  0.00  0.00    -0.083 A 
ATOM     26  H2  DGB d   1       2.952  -0.703  51.111  0.00  0.00     0.083 H 
ATOM     27  CAG DGB d   1       3.720  -3.394  49.182  0.00  0.00    -0.082 A 
ATOM     28  H3  DGB d   1       1.924  -2.240  49.464  0.00  0.00     0.083 H 
ATOM     29  CAL DGB d   1       5.056  -3.548  49.548  0.00  0.00    -0.068 A 
ATOM     30  H4  DGB d   1       3.271  -4.070  48.464  0.00  0.00     0.083 H 
ATOM     31  H5  DGB d   1       5.643  -4.351  49.118  0.00  0.00     0.085 H 
ENDBRANCH  12  21
ENDBRANCH   1   4
BRANCH   1  32
ATOM     32  CAO DGB d   1       9.673  -5.310  46.534  0.00  0.00    -0.063 C 
ATOM     33  H17 DGB d   1       8.586  -5.176  46.634  0.00  0.00     0.033 H 
ATOM     34  H18 DGB d   1      10.036  -5.972  47.334  0.00  0.00     0.033 H 
BRANCH  32  35
ATOM     35  CAN DGB d   1       9.979  -5.943  45.180  0.00  0.00    -0.050 C 
ATOM     36  H19 DGB d   1      10.866  -5.443  44.764  0.00  0.00     0.035 H 
ATOM     37  H20 DGB d   1       9.116  -5.768  44.521  0.00  0.00     0.035 H 
BRANCH  35  38
ATOM     38  CAP DGB d   1      10.255  -7.449  45.207  0.00  0.00    -0.004 C 
ATOM     39  H21 DGB d   1       9.370  -8.009  45.543  0.00  0.00     0.064 H 
ATOM     40  H22 DGB d   1      11.108  -7.684  45.861  0.00  0.00     0.064 H 
BRANCH  38  41
ATOM     41  NAW DGB d   1      10.565  -7.743  43.811  0.00  0.00    -0.358 N 
ATOM     42  CAX DGB d   1       9.884  -8.441  42.904  0.00  0.00     0.241 C 
ATOM     43  OAA DGB d   1       8.813  -8.998  43.137  0.00  0.00    -0.269 OA
ATOM     44  H23 DGB d   1      11.428  -7.358  43.483  0.00  0.00     0.162 HD
BRANCH  42  45
ATOM     45  CAC DGB d   1      10.459  -8.504  41.687  0.00  0.00    -0.017 C 
ATOM     46  CAD DGB d   1       9.887  -9.168  40.674  0.00  0.00    -0.067 C 
ATOM     47  H25 DGB d   1       8.940  -9.673  40.856  0.00  0.00     0.085 H 
ATOM     48  H24 DGB d   1      11.412  -8.003  41.523  0.00  0.00     0.092 H 
BRANCH  46  49
ATOM     49  CAZ DGB d   1      10.479  -9.250  39.315  0.00  0.00    -0.018 A 
ATOM     50  CAJ DGB d   1      11.692  -8.630  39.003  0.00  0.00    -0.070 A 
ATOM     51  CAH DGB d   1      12.202  -8.746  37.712  0.00  0.00    -0.065 A 
ATOM     52  H26 DGB d   1      12.229  -8.066  39.757  0.00  0.00     0.084 H 
ATOM     53  CAI DGB d   1      11.473  -9.465  36.763  0.00  0.00     0.002 A 
ATOM     54  H27 DGB d   1      13.148  -8.286  37.449  0.00  0.00     0.085 H 
ATOM     55  NAV DGB d   1      10.311 -10.062  37.078  0.00  0.00    -0.272 NA
ATOM     56  H28 DGB d   1      11.852  -9.543  35.751  0.00  0.00     0.114 H 
ATOM     57  CAM DGB d   1       9.808  -9.966  38.322  0.00  0.00     0.012 A 
ATOM     58  H29 DGB d   1       8.868 -10.452  38.557  0.00  0.00     0.116 H 
ENDBRANCH  46  49
ENDBRANCH  42  45
ENDBRANCH  38  41
ENDBRANCH  35  38
ENDBRANCH  32  35
ENDBRANCH   1  32
TORSDOF 8
