REMARK  5 active torsions:
REMARK  status: ('A' for Active; 'I' for Inactive)
REMARK    1  A    between atoms: CAC_5  and  OAD_6 
REMARK    2  A    between atoms: OAD_6  and  PAE_7 
REMARK    3  A    between atoms: PAE_7  and  NAM_8 
REMARK    4  A    between atoms: PAE_7  and  OAF_10 
REMARK    5  A    between atoms: OAF_10  and  CAG_11 
ROOT
ATOM      1  PAE DI9 d   1      17.773   2.833  61.146  0.00  0.00     0.429 P 
ATOM      2  OAA DI9 d   1      16.533   2.136  60.739  0.00  0.00    -0.235 OA
ENDROOT
BRANCH   1   3
ATOM      3  OAD DI9 d   1      18.682   3.276  59.891  0.00  0.00    -0.293 OA
BRANCH   3   4
ATOM      4  CAC DI9 d   1      19.454   4.481  59.930  0.00  0.00     0.049 C 
ATOM      5  CAB DI9 d   1      19.617   4.984  58.491  0.00  0.00    -0.040 C 
ATOM      6  CAJ DI9 d   1      21.062   4.656  58.103  0.00  0.00    -0.063 C 
ATOM      7  H1  DI9 d   1      18.913   4.468  57.822  0.00  0.00     0.036 H 
ATOM      8  H2  DI9 d   1      19.442   6.069  58.441  0.00  0.00     0.036 H 
ATOM      9  CAK DI9 d   1      21.405   3.508  59.051  0.00  0.00    -0.063 C 
ATOM     10  H3  DI9 d   1      21.724   5.519  58.268  0.00  0.00     0.033 H 
ATOM     11  H4  DI9 d   1      21.129   4.338  57.052  0.00  0.00     0.033 H 
ATOM     12  CAL DI9 d   1      20.883   4.127  60.347  0.00  0.00    -0.040 C 
ATOM     13  H5  DI9 d   1      22.487   3.312  59.091  0.00  0.00     0.033 H 
ATOM     14  H6  DI9 d   1      20.873   2.581  58.790  0.00  0.00     0.033 H 
ATOM     15  H7  DI9 d   1      21.457   5.022  60.630  0.00  0.00     0.036 H 
ATOM     16  H8  DI9 d   1      20.897   3.405  61.177  0.00  0.00     0.036 H 
ATOM     17  H9  DI9 d   1      18.997   5.232  60.591  0.00  0.00     0.084 H 
ENDBRANCH   3   4
ENDBRANCH   1   3
BRANCH   1  18
ATOM     18  NAM DI9 d   1      17.480   4.185  61.995  0.00  0.00    -0.337 N 
ATOM     19  H10 DI9 d   1      16.907   4.906  61.605  0.00  0.00     0.161 HD
ATOM     20  H11 DI9 d   1      17.872   4.297  62.908  0.00  0.00     0.161 HD
ENDBRANCH   1  18
BRANCH   1  21
ATOM     21  OAF DI9 d   1      18.716   1.920  62.079  0.00  0.00    -0.293 OA
BRANCH  21  22
ATOM     22  CAG DI9 d   1      18.348   1.661  63.437  0.00  0.00     0.049 C 
ATOM     23  CAH DI9 d   1      18.444   0.158  63.705  0.00  0.00    -0.040 C 
ATOM     24  CAI DI9 d   1      19.959  -0.001  63.819  0.00  0.00    -0.063 C 
ATOM     25  H13 DI9 d   1      18.034  -0.431  62.871  0.00  0.00     0.036 H 
ATOM     26  H14 DI9 d   1      17.934  -0.123  64.638  0.00  0.00     0.036 H 
ATOM     27  CAO DI9 d   1      20.221   1.074  64.874  0.00  0.00    -0.063 C 
ATOM     28  H15 DI9 d   1      20.471   0.216  62.870  0.00  0.00     0.033 H 
ATOM     29  H16 DI9 d   1      20.245  -1.004  64.169  0.00  0.00     0.033 H 
ATOM     30  CAN DI9 d   1      19.432   2.270  64.334  0.00  0.00    -0.040 C 
ATOM     31  H17 DI9 d   1      21.294   1.306  64.947  0.00  0.00     0.033 H 
ATOM     32  H18 DI9 d   1      19.845   0.763  65.860  0.00  0.00     0.033 H 
ATOM     33  H19 DI9 d   1      18.977   2.837  65.159  0.00  0.00     0.036 H 
ATOM     34  H20 DI9 d   1      20.088   2.934  63.751  0.00  0.00     0.036 H 
ATOM     35  H12 DI9 d   1      17.347   2.057  63.663  0.00  0.00     0.084 H 
ENDBRANCH  21  22
ENDBRANCH   1  21
TORSDOF 5
