REMARK  7 active torsions:
REMARK  status: ('A' for Active; 'I' for Inactive)
REMARK    1  A    between atoms: C1_1  and  C2_2 
REMARK    2  A    between atoms: C2_2  and  C3_3 
REMARK    3  A    between atoms: C2_2  and  O2_7 
REMARK    4  A    between atoms: C3_3  and  C4_4 
REMARK    5  A    between atoms: C3_3  and  O3_8 
REMARK    6  A    between atoms: C4_4  and  O4_9 
REMARK    7  A    between atoms: N_5  and  O_10 
ROOT
ATOM      1  C2  HYA d   1      17.001   6.390 -11.431  0.00  0.00     0.128 C 
ATOM      2  H1  HYA d   1      16.735   7.456 -11.494  0.00  0.00     0.100 H 
ENDROOT
BRANCH   1   3
ATOM      3  C1  HYA d   1      15.885   5.728 -12.264  0.00  0.00     0.206 C 
ATOM      4  N   HYA d   1      15.885   4.569 -12.886  0.00  0.00    -0.246 N 
ATOM      5  H5  HYA d   1      16.641   3.921 -12.792  0.00  0.00     0.196 HD
ATOM      6  O1  HYA d   1      14.768   6.413 -12.150  0.00  0.00    -0.172 OA
BRANCH   4   7
ATOM      7  O   HYA d   1      14.794   4.298 -13.669  0.00  0.00    -0.288 OA
ATOM      8  H9  HYA d   1      14.010   4.306 -13.132  0.00  0.00     0.244 HD
ENDBRANCH   4   7
ENDBRANCH   1   3
BRANCH   1   9
ATOM      9  C3  HYA d   1      16.744   6.103  -9.932  0.00  0.00     0.088 C 
ATOM     10  H2  HYA d   1      16.131   5.199  -9.804  0.00  0.00     0.090 H 
BRANCH   9  11
ATOM     11  C4  HYA d   1      17.958   6.065  -8.958  0.00  0.00     0.043 C 
ATOM     12  H3  HYA d   1      17.587   6.139  -7.925  0.00  0.00     0.078 H 
ATOM     13  H4  HYA d   1      18.614   6.921  -9.174  0.00  0.00     0.078 H 
BRANCH  11  14
ATOM     14  O4  HYA d   1      18.686   4.901  -9.088  0.00  0.00    -0.398 OA
ATOM     15  H8  HYA d   1      19.415   4.915  -8.479  0.00  0.00     0.209 HD
ENDBRANCH  11  14
ENDBRANCH   9  11
BRANCH   9  16
ATOM     16  O3  HYA d   1      16.087   7.292  -9.600  0.00  0.00    -0.390 OA
ATOM     17  H7  HYA d   1      15.323   7.396 -10.155  0.00  0.00     0.210 HD
ENDBRANCH   9  16
ENDBRANCH   1   9
BRANCH   1  18
ATOM     18  O2  HYA d   1      18.278   6.439 -11.972  0.00  0.00    -0.385 OA
ATOM     19  H6  HYA d   1      18.220   6.627 -12.901  0.00  0.00     0.210 HD
ENDBRANCH   1  18
TORSDOF 7
