REMARK  8 active torsions:
REMARK  status: ('A' for Active; 'I' for Inactive)
REMARK    1  A    between atoms: O2'_16  and  P1_1 
REMARK    2  A    between atoms: O5'_9  and  P2_5 
REMARK    3  A    between atoms: C5'_10  and  O5'_9 
REMARK    4  A    between atoms: C4'_11  and  C5'_10 
REMARK    5  A    between atoms: C3'_13  and  O3'_14 
REMARK    6  A    between atoms: C2'_15  and  O2'_16 
REMARK    7  A    between atoms: C1'_17  and  N9_18 
REMARK    8  A    between atoms: C6_22  and  N6_23 
ROOT
ATOM      1  C4' A2P d   1       1.056  13.782  52.466  0.00  0.00     0.089 C 
ATOM      2  O4' A2P d   1      -0.391  13.572  52.660  0.00  0.00    -0.353 OA
ATOM      3  C3' A2P d   1       1.710  12.538  53.106  0.00  0.00     0.092 C 
ATOM      4  C2' A2P d   1       0.648  11.465  52.886  0.00  0.00     0.121 C 
ATOM      5  C1' A2P d   1      -0.598  12.254  53.259  0.00  0.00     0.140 C 
ATOM      6  H3  A2P d   1       1.387  14.680  53.009  0.00  0.00     0.090 H 
ATOM      7  H4  A2P d   1       2.670  12.283  52.633  0.00  0.00     0.091 H 
ATOM      8  H6  A2P d   1       0.628  11.097  51.850  0.00  0.00     0.095 H 
ATOM      9  H7  A2P d   1      -0.691  12.332  54.352  0.00  0.00     0.123 H 
ENDROOT
BRANCH   5  10
ATOM     10  N9  A2P d   1      -1.824  11.631  52.705  0.00  0.00    -0.294 N 
ATOM     11  C8  A2P d   1      -2.091  11.423  51.409  0.00  0.00     0.071 A 
ATOM     12  N7  A2P d   1      -3.290  10.844  51.289  0.00  0.00    -0.236 NA
ATOM     13  H8  A2P d   1      -1.433  11.685  50.581  0.00  0.00     0.144 H 
ATOM     14  C5  A2P d   1      -3.791  10.680  52.515  0.00  0.00     0.149 A 
ATOM     15  C6  A2P d   1      -4.975  10.144  53.016  0.00  0.00     0.155 A 
ATOM     16  C4  A2P d   1      -2.856  11.177  53.417  0.00  0.00     0.167 A 
ATOM     17  N1  A2P d   1      -5.184  10.124  54.343  0.00  0.00    -0.222 NA
ATOM     18  C2  A2P d   1      -4.270  10.612  55.176  0.00  0.00     0.091 A 
ATOM     19  N3  A2P d   1      -3.124  11.126  54.736  0.00  0.00    -0.222 NA
ATOM     20  H11 A2P d   1      -4.463  10.591  56.242  0.00  0.00     0.146 H 
BRANCH  15  21
ATOM     21  N6  A2P d   1      -5.895   9.663  52.197  0.00  0.00    -0.382 N 
ATOM     22  H9  A2P d   1      -6.767   9.269  52.577  0.00  0.00     0.157 HD
ATOM     23  H10 A2P d   1      -5.739   9.683  51.179  0.00  0.00     0.157 HD
ENDBRANCH  15  21
ENDBRANCH   5  10
BRANCH   4  24
ATOM     24  O2' A2P d   1       0.817  10.377  53.807  0.00  0.00    -0.270 OA
BRANCH  24  25
ATOM     25  P1  A2P d   1       1.442   8.946  53.339  0.00  0.00     0.422 P 
ATOM     26  O1P A2P d   1       0.954   8.671  51.813  0.00  0.00    -0.617 OA
ATOM     27  O2P A2P d   1       3.062   9.132  53.221  0.00  0.00    -0.617 OA
ATOM     28  O3P A2P d   1       1.056   7.839  54.252  0.00  0.00    -0.617 OA
ENDBRANCH  24  25
ENDBRANCH   4  24
BRANCH   1  29
ATOM     29  C5' A2P d   1       1.355  14.000  50.944  0.00  0.00     0.059 C 
ATOM     30  H1  A2P d   1       1.812  13.082  50.547  0.00  0.00     0.079 H 
ATOM     31  H2  A2P d   1       0.402  14.188  50.428  0.00  0.00     0.079 H 
BRANCH  29  32
ATOM     32  O5' A2P d   1       2.249  15.110  50.670  0.00  0.00    -0.280 OA
BRANCH  32  33
ATOM     33  P2  A2P d   1       3.825  14.831  50.244  0.00  0.00     0.422 P 
ATOM     34  O4P A2P d   1       3.897  14.317  48.718  0.00  0.00    -0.617 OA
ATOM     35  O5P A2P d   1       4.211  13.518  51.123  0.00  0.00    -0.617 OA
ATOM     36  O6P A2P d   1       4.769  15.933  50.489  0.00  0.00    -0.617 OA
ENDBRANCH  32  33
ENDBRANCH  29  32
ENDBRANCH   1  29
BRANCH   3  37
ATOM     37  O3' A2P d   1       1.872  12.741  54.517  0.00  0.00    -0.390 OA
ATOM     38  H5  A2P d   1       2.275  11.972  54.902  0.00  0.00     0.210 HD
ENDBRANCH   3  37
TORSDOF 8
