REMARK  18 active torsions:
REMARK  status: ('A' for Active; 'I' for Inactive)
REMARK    1  A    between atoms: C13_1  and  N5_2 
REMARK    2  A    between atoms: N5_2  and  C12_3 
REMARK    3  A    between atoms: N5_2  and  C11_4 
REMARK    4  A    between atoms: C2_13  and  S1_14 
REMARK    5  A    between atoms: S1_14  and  N4_17 
REMARK    6  A    between atoms: N4_17  and  C1_18 
REMARK    7  A    between atoms: C1_18  and  C9_19 
REMARK    8  A    between atoms: C9_19  and  O2_20 
REMARK    9  A    between atoms: O2_20  and  P2_21 
REMARK   10  A    between atoms: P2_21  and  O8_24 
REMARK   11  A    between atoms: O8_24  and  P1_25 
REMARK   12  A    between atoms: P1_25  and  O5_28 
REMARK   13  A    between atoms: O5_28  and  C14_29 
REMARK   14  A    between atoms: C14_29  and  C8_30 
REMARK   15  A    between atoms: C7_32  and  O4_33 
REMARK   16  A    between atoms: C6_34  and  O3_35 
REMARK   17  A    between atoms: C5_36  and  N3_37 
REMARK   18  A    between atoms: C2_40  and  N2_41 
ROOT
ATOM      1  O2  2AA d   1       7.155  14.874  30.837  0.00  0.00    -0.288 OA
ENDROOT
BRANCH   1   2
ATOM      2  C9  2AA d   1       5.990  15.631  31.172  0.00  0.00     0.047 C 
ATOM      3  H16 2AA d   1       5.496  15.968  30.249  0.00  0.00     0.077 H 
ATOM      4  H17 2AA d   1       5.298  14.999  31.748  0.00  0.00     0.077 H 
BRANCH   2   5
ATOM      5  C1  2AA d   1       6.382  16.848  32.010  0.00  0.00     0.023 C 
ATOM      6  H14 2AA d   1       7.453  17.058  31.871  0.00  0.00     0.068 H 
ATOM      7  H15 2AA d   1       5.793  17.719  31.687  0.00  0.00     0.068 H 
BRANCH   5   8
ATOM      8  N4  2AA d   1       6.117  16.578  33.434  0.00  0.00    -0.313 N 
ATOM      9  H13 2AA d   1       6.830  16.356  34.099  0.00  0.00     0.172 HD
BRANCH   8  10
ATOM     10  S1  2AA d   1       4.509  16.682  33.812  0.00  0.00     0.259 S 
ATOM     11  O3  2AA d   1       3.925  15.293  33.797  0.00  0.00    -0.201 OA
ATOM     12  O4  2AA d   1       3.801  17.515  32.784  0.00  0.00    -0.201 OA
BRANCH  10  13
ATOM     13  C2  2AA d   1       4.331  17.345  35.356  0.00  0.00     0.090 A 
ATOM     14  C7  2AA d   1       3.921  18.677  35.589  0.00  0.00    -0.000 A 
ATOM     15  C8  2AA d   1       3.635  19.539  34.525  0.00  0.00    -0.071 A 
ATOM     16  C6  2AA d   1       3.793  19.161  36.908  0.00  0.00     0.002 A 
ATOM     17  C9  2AA d   1       3.231  20.852  34.752  0.00  0.00    -0.080 A 
ATOM     18  H9  2AA d   1       3.729  19.179  33.507  0.00  0.00     0.084 H 
ATOM     19  C10 2AA d   1       3.106  21.323  36.056  0.00  0.00    -0.057 A 
ATOM     20  H8  2AA d   1       3.014  21.506  33.915  0.00  0.00     0.083 H 
ATOM     21  C11 2AA d   1       3.387  20.491  37.142  0.00  0.00     0.040 A 
ATOM     22  H7  2AA d   1       2.788  22.345  36.230  0.00  0.00     0.086 H 
ATOM     23  C5  2AA d   1       4.076  18.305  37.980  0.00  0.00    -0.070 A 
ATOM     24  C4  2AA d   1       4.479  16.991  37.753  0.00  0.00    -0.081 A 
ATOM     25  H10 2AA d   1       3.980  18.669  38.997  0.00  0.00     0.084 H 
ATOM     26  C3  2AA d   1       4.607  16.517  36.449  0.00  0.00    -0.059 A 
ATOM     27  H11 2AA d   1       4.693  16.337  38.591  0.00  0.00     0.083 H 
ATOM     28  H12 2AA d   1       4.924  15.494  36.280  0.00  0.00     0.085 H 
BRANCH  21  29
ATOM     29  N5  2AA d   1       3.250  20.992  38.381  0.00  0.00    -0.389 N 
BRANCH  29  30
ATOM     30  C13 2AA d   1       2.043  21.152  38.901  0.00  0.00    -0.019 C 
ATOM     31  H1  2AA d   1       2.133  21.571  39.914  0.00  0.00     0.056 H 
ATOM     32  H2  2AA d   1       1.533  20.179  38.950  0.00  0.00     0.056 H 
ATOM     33  H3  2AA d   1       1.460  21.840  38.271  0.00  0.00     0.056 H 
ENDBRANCH  29  30
BRANCH  29  34
ATOM     34  C12 2AA d   1       4.310  21.339  39.095  0.00  0.00    -0.019 C 
ATOM     35  H4  2AA d   1       5.223  21.140  38.515  0.00  0.00     0.056 H 
ATOM     36  H5  2AA d   1       4.332  20.754  40.026  0.00  0.00     0.056 H 
ATOM     37  H6  2AA d   1       4.255  22.411  39.336  0.00  0.00     0.056 H 
ENDBRANCH  29  34
ENDBRANCH  21  29
ENDBRANCH  10  13
ENDBRANCH   8  10
ENDBRANCH   5   8
ENDBRANCH   2   5
ENDBRANCH   1   2
BRANCH   1  38
ATOM     38  P2  2AA d   1       7.650  14.793  29.297  0.00  0.00     0.417 P 
ATOM     39  O1  2AA d   1       6.750  15.635  28.465  0.00  0.00    -0.624 OA
ATOM     40  O9  2AA d   1       9.118  15.023  29.231  0.00  0.00    -0.624 OA
BRANCH  38  41
ATOM     41  O8  2AA d   1       7.372  13.206  28.957  0.00  0.00    -0.180 OA
BRANCH  41  42
ATOM     42  P1  2AA d   1       8.508  12.042  28.841  0.00  0.00     0.417 P 
ATOM     43  O7  2AA d   1       7.800  10.744  28.852  0.00  0.00    -0.624 OA
ATOM     44  O6  2AA d   1       9.452  12.328  27.747  0.00  0.00    -0.624 OA
BRANCH  42  45
ATOM     45  O5  2AA d   1       9.316  12.181  30.221  0.00  0.00    -0.287 OA
BRANCH  45  46
ATOM     46  C14 2AA d   1       8.929  11.429  31.392  0.00  0.00     0.058 C 
ATOM     47  H18 2AA d   1       8.387  10.527  31.071  0.00  0.00     0.079 H 
ATOM     48  H19 2AA d   1       8.268  12.053  32.011  0.00  0.00     0.079 H 
BRANCH  46  49
ATOM     49  C8  2AA d   1      10.137  11.005  32.233  0.00  0.00     0.089 C 
ATOM     50  O2  2AA d   1      10.452   9.641  31.915  0.00  0.00    -0.353 OA
ATOM     51  C5  2AA d   1      11.880   9.476  32.022  0.00  0.00     0.141 C 
ATOM     52  C6  2AA d   1      12.508  10.868  32.144  0.00  0.00     0.105 C 
ATOM     53  H25 2AA d   1      12.134   8.896  32.922  0.00  0.00     0.123 H 
ATOM     54  C7  2AA d   1      11.367  11.810  31.823  0.00  0.00     0.091 C 
ATOM     55  H23 2AA d   1      13.356  11.001  31.456  0.00  0.00     0.093 H 
ATOM     56  H21 2AA d   1      11.348  12.080  30.757  0.00  0.00     0.091 H 
ATOM     57  H20 2AA d   1       9.922  11.129  33.305  0.00  0.00     0.090 H 
BRANCH  51  58
ATOM     58  N3  2AA d   1      12.291   8.707  30.818  0.00  0.00    -0.278 N 
ATOM     59  C4  2AA d   1      11.923   9.082  29.507  0.00  0.00    -0.009 A 
ATOM     60  C3  2AA d   1      12.347   8.288  28.443  0.00  0.00    -0.024 A 
ATOM     61  H26 2AA d   1      11.321   9.972  29.331  0.00  0.00     0.112 H 
ATOM     62  C2  2AA d   1      13.107   7.148  28.698  0.00  0.00     0.128 A 
ATOM     63  H27 2AA d   1      12.086   8.556  27.420  0.00  0.00     0.091 H 
ATOM     64  N1  2AA d   1      13.436   6.809  29.950  0.00  0.00    -0.177 NA
ATOM     65  C1  2AA d   1      13.057   7.551  30.998  0.00  0.00     0.352 A 
ATOM     66  O1  2AA d   1      13.388   7.208  32.125  0.00  0.00    -0.244 OA
BRANCH  62  67
ATOM     67  N2  2AA d   1      13.523   6.373  27.700  0.00  0.00    -0.384 N 
ATOM     68  H28 2AA d   1      14.084   5.533  27.900  0.00  0.00     0.157 HD
ATOM     69  H29 2AA d   1      13.284   6.613  26.727  0.00  0.00     0.157 HD
ENDBRANCH  62  67
ENDBRANCH  51  58
BRANCH  52  70
ATOM     70  O3  2AA d   1      12.912  11.064  33.493  0.00  0.00    -0.388 OA
ATOM     71  H24 2AA d   1      13.198  11.963  33.609  0.00  0.00     0.210 HD
ENDBRANCH  52  70
BRANCH  54  72
ATOM     72  O4  2AA d   1      11.450  12.979  32.634  0.00  0.00    -0.390 OA
ATOM     73  H22 2AA d   1      12.214  13.484  32.383  0.00  0.00     0.210 HD
ENDBRANCH  54  72
ENDBRANCH  46  49
ENDBRANCH  45  46
ENDBRANCH  42  45
ENDBRANCH  41  42
ENDBRANCH  38  41
ENDBRANCH   1  38
TORSDOF 18
