REMARK  8 active torsions:
REMARK  status: ('A' for Active; 'I' for Inactive)
REMARK    1  A    between atoms: C11_1  and  C10_2 
REMARK    2  A    between atoms: C10_2  and  C12_3 
REMARK    3  A    between atoms: C7_9  and  C8_10 
REMARK    4  A    between atoms: C7_9  and  C9_11 
REMARK    5  A    between atoms: C2_16  and  C1_17 
REMARK    6  A    between atoms: C1_17  and  N2_18 
REMARK    7  A    between atoms: N2_18  and  S1_19 
REMARK    8  A    between atoms: S1_19  and  N1_22 
ROOT
ATOM      1  C10 B19 d   1      -4.780   5.426  12.705  0.00  0.00     0.161 C 
ATOM      2  O3  B19 d   1      -4.205   4.751  13.833  0.00  0.00    -0.315 OA
ATOM      3  O4  B19 d   1      -5.254   4.435  11.823  0.00  0.00    -0.342 OA
ATOM      4  C3  B19 d   1      -5.360   3.199  12.546  0.00  0.00     0.125 C 
ATOM      5  C4  B19 d   1      -5.079   2.124  11.466  0.00  0.00     0.099 C 
ATOM      6  O5  B19 d   1      -4.930   0.773  11.980  0.00  0.00    -0.345 OA
ATOM      7  C7  B19 d   1      -4.118   0.107  11.017  0.00  0.00     0.158 C 
ATOM      8  O6  B19 d   1      -3.368   1.124  10.276  0.00  0.00    -0.346 OA
ATOM      9  C5  B19 d   1      -3.735   2.398  10.803  0.00  0.00     0.090 C 
ATOM     10  C6  B19 d   1      -2.652   2.846  11.804  0.00  0.00     0.050 C 
ATOM     11  O2  B19 d   1      -3.024   2.823  13.218  0.00  0.00    -0.349 OA
ATOM     12  C2  B19 d   1      -4.309   3.377  13.626  0.00  0.00     0.213 C 
ATOM     13  H7  B19 d   1      -6.351   3.039  12.995  0.00  0.00     0.096 H 
ATOM     14  H8  B19 d   1      -5.892   2.152  10.726  0.00  0.00     0.091 H 
ATOM     15  H15 B19 d   1      -3.839   3.151  10.008  0.00  0.00     0.090 H 
ATOM     16  H16 B19 d   1      -2.367   3.878  11.550  0.00  0.00     0.078 H 
ATOM     17  H17 B19 d   1      -1.783   2.184  11.676  0.00  0.00     0.078 H 
ENDROOT
BRANCH  12  18
ATOM     18  C1  B19 d   1      -4.813   2.900  14.969  0.00  0.00     0.059 C 
ATOM     19  H18 B19 d   1      -5.894   3.086  15.046  0.00  0.00     0.073 H 
ATOM     20  H19 B19 d   1      -4.290   3.438  15.773  0.00  0.00     0.073 H 
BRANCH  18  21
ATOM     21  N2  B19 d   1      -4.553   1.476  15.085  0.00  0.00    -0.298 N 
ATOM     22  H20 B19 d   1      -3.957   0.958  14.471  0.00  0.00     0.173 HD
BRANCH  21  23
ATOM     23  S1  B19 d   1      -5.370   0.825  16.362  0.00  0.00     0.312 S 
ATOM     24  O7  B19 d   1      -4.740   1.167  17.667  0.00  0.00    -0.183 OA
ATOM     25  O8  B19 d   1      -6.799   1.243  16.447  0.00  0.00    -0.183 OA
BRANCH  23  26
ATOM     26  N1  B19 d   1      -5.192  -0.763  16.105  0.00  0.00    -0.312 N 
ATOM     27  H21 B19 d   1      -5.596  -1.421  16.741  0.00  0.00     0.170 HD
ATOM     28  H22 B19 d   1      -4.678  -1.086  15.310  0.00  0.00     0.170 HD
ENDBRANCH  23  26
ENDBRANCH  21  23
ENDBRANCH  18  21
ENDBRANCH  12  18
BRANCH   1  29
ATOM     29  C11 B19 d   1      -5.973   6.282  13.158  0.00  0.00    -0.025 C 
ATOM     30  H1  B19 d   1      -5.622   7.063  13.849  0.00  0.00     0.035 H 
ATOM     31  H2  B19 d   1      -6.709   5.644  13.669  0.00  0.00     0.035 H 
ATOM     32  H3  B19 d   1      -6.441   6.752  12.281  0.00  0.00     0.035 H 
ENDBRANCH   1  29
BRANCH   1  33
ATOM     33  C12 B19 d   1      -3.698   6.274  12.010  0.00  0.00    -0.025 C 
ATOM     34  H4  B19 d   1      -2.865   5.625  11.703  0.00  0.00     0.035 H 
ATOM     35  H5  B19 d   1      -3.328   7.040  12.708  0.00  0.00     0.035 H 
ATOM     36  H6  B19 d   1      -4.128   6.763  11.123  0.00  0.00     0.035 H 
ENDBRANCH   1  33
BRANCH   7  37
ATOM     37  C8  B19 d   1      -4.986  -0.693  10.043  0.00  0.00    -0.025 C 
ATOM     38  H9  B19 d   1      -5.550  -1.457  10.598  0.00  0.00     0.035 H 
ATOM     39  H10 B19 d   1      -4.344  -1.182   9.296  0.00  0.00     0.035 H 
ATOM     40  H11 B19 d   1      -5.688  -0.015   9.536  0.00  0.00     0.035 H 
ENDBRANCH   7  37
BRANCH   7  41
ATOM     41  C9  B19 d   1      -3.152  -0.804  11.748  0.00  0.00    -0.025 C 
ATOM     42  H12 B19 d   1      -2.517  -1.327  11.018  0.00  0.00     0.035 H 
ATOM     43  H13 B19 d   1      -3.717  -1.542  12.336  0.00  0.00     0.035 H 
ATOM     44  H14 B19 d   1      -2.521  -0.205  12.421  0.00  0.00     0.035 H 
ENDBRANCH   7  41
TORSDOF 8
