REMARK  12 active torsions:
REMARK  status: ('A' for Active; 'I' for Inactive)
REMARK    1  A    between atoms: N_1  and  CA_2 
REMARK    2  A    between atoms: CA_2  and  C_3 
REMARK    3  A    between atoms: CA_2  and  CB_6 
REMARK    4  A    between atoms: CB_6  and  CG_7 
REMARK    5  A    between atoms: CG_7  and  SD_8 
REMARK    6  A    between atoms: SD_8  and  CE_9 
REMARK    7  A    between atoms: SD_8  and  C5_10 
REMARK    8  A    between atoms: C5_10  and  C4_11 
REMARK    9  A    between atoms: C3_13  and  O3_14 
REMARK   10  A    between atoms: C2_15  and  O2_16 
REMARK   11  A    between atoms: C1_17  and  N9_18 
REMARK   12  A    between atoms: C6_22  and  N6_23 
ROOT
ATOM      1  C4  SAM d   1      70.680 128.868  53.627  0.00  0.00     0.076 C 
ATOM      2  O4  SAM d   1      71.484 129.441  52.559  0.00  0.00    -0.355 OA
ATOM      3  C3  SAM d   1      71.603 127.868  54.294  0.00  0.00     0.090 C 
ATOM      4  C2  SAM d   1      72.474 127.406  53.166  0.00  0.00     0.105 C 
ATOM      5  C1  SAM d   1      72.708 128.741  52.460  0.00  0.00     0.139 C 
ATOM      6  H14 SAM d   1      69.816 128.336  53.203  0.00  0.00     0.088 H 
ATOM      7  H15 SAM d   1      72.216 128.376  55.053  0.00  0.00     0.091 H 
ATOM      8  H17 SAM d   1      73.426 127.029  53.567  0.00  0.00     0.093 H 
ATOM      9  H19 SAM d   1      72.946 128.554  51.403  0.00  0.00     0.122 H 
ENDROOT
BRANCH   1  10
ATOM     10  C5  SAM d   1      70.153 129.961  54.551  0.00  0.00    -0.005 C 
ATOM     11  H12 SAM d   1      69.768 129.474  55.459  0.00  0.00     0.051 H 
ATOM     12  H13 SAM d   1      71.000 130.612  54.815  0.00  0.00     0.051 H 
BRANCH  10  13
ATOM     13  SD  SAM d   1      68.841 131.010  53.894  0.00  0.00    -0.221 SA
BRANCH  13  14
ATOM     14  CG  SAM d   1      69.676 131.900  52.912  0.00  0.00    -0.029 C 
ATOM     15  H7  SAM d   1      69.783 132.893  53.372  0.00  0.00     0.047 H 
ATOM     16  H8  SAM d   1      70.668 131.437  52.805  0.00  0.00     0.047 H 
BRANCH  14  17
ATOM     17  CB  SAM d   1      69.115 132.095  51.535  0.00  0.00    -0.022 C 
ATOM     18  H5  SAM d   1      68.025 131.961  51.590  0.00  0.00     0.037 H 
ATOM     19  H6  SAM d   1      69.342 133.124  51.218  0.00  0.00     0.037 H 
BRANCH  17  20
ATOM     20  CA  SAM d   1      69.663 131.127  50.451  0.00  0.00     0.183 C 
ATOM     21  H4  SAM d   1      69.745 130.124  50.895  0.00  0.00     0.101 H 
BRANCH  20  22
ATOM     22  N   SAM d   1      71.000 131.561  50.028  0.00  0.00    -0.065 N 
ATOM     23  H1  SAM d   1      71.605 131.616  50.832  0.00  0.00     0.275 HD
ATOM     24  H2  SAM d   1      70.937 132.468  49.592  0.00  0.00     0.275 HD
ATOM     25  H3  SAM d   1      71.376 130.897  49.369  0.00  0.00     0.275 HD
ENDBRANCH  20  22
BRANCH  20  26
ATOM     26  C   SAM d   1      68.705 131.035  49.212  0.00  0.00     0.204 C 
ATOM     27  O   SAM d   1      67.490 131.303  49.342  0.00  0.00    -0.646 OA
ATOM     28  OXT SAM d   1      69.160 130.694  48.098  0.00  0.00    -0.646 OA
ENDBRANCH  20  26
ENDBRANCH  17  20
ENDBRANCH  14  17
ENDBRANCH  13  14
BRANCH  13  29
ATOM     29  CE  SAM d   1      68.590 132.044  55.326  0.00  0.00    -0.042 C 
ATOM     30  H9  SAM d   1      68.005 131.494  56.078  0.00  0.00     0.040 H 
ATOM     31  H10 SAM d   1      68.045 132.953  55.031  0.00  0.00     0.040 H 
ATOM     32  H11 SAM d   1      69.565 132.323  55.752  0.00  0.00     0.040 H 
ENDBRANCH  13  29
ENDBRANCH  10  13
ENDBRANCH   1  10
BRANCH   3  33
ATOM     33  O3  SAM d   1      70.907 126.809  54.935  0.00  0.00    -0.390 OA
ATOM     34  H16 SAM d   1      70.388 126.339  54.293  0.00  0.00     0.210 HD
ENDBRANCH   3  33
BRANCH   5  35
ATOM     35  N9  SAM d   1      73.819 129.543  53.054  0.00  0.00    -0.294 N 
ATOM     36  C8  SAM d   1      73.785 130.713  53.808  0.00  0.00     0.071 A 
ATOM     37  N7  SAM d   1      74.962 131.155  54.185  0.00  0.00    -0.236 NA
ATOM     38  H20 SAM d   1      72.856 131.221  54.064  0.00  0.00     0.144 H 
ATOM     39  C5  SAM d   1      75.845 130.220  53.645  0.00  0.00     0.149 A 
ATOM     40  C6  SAM d   1      77.268 130.088  53.682  0.00  0.00     0.155 A 
ATOM     41  C4  SAM d   1      75.153 129.220  52.944  0.00  0.00     0.167 A 
ATOM     42  N1  SAM d   1      77.840 129.022  53.036  0.00  0.00    -0.222 NA
ATOM     43  C2  SAM d   1      77.042 128.134  52.392  0.00  0.00     0.091 A 
ATOM     44  N3  SAM d   1      75.693 128.148  52.288  0.00  0.00    -0.222 NA
ATOM     45  H23 SAM d   1      77.548 127.311  51.900  0.00  0.00     0.146 H 
BRANCH  40  46
ATOM     46  N6  SAM d   1      78.067 130.954  54.305  0.00  0.00    -0.382 N 
ATOM     47  H21 SAM d   1      79.087 130.810  54.300  0.00  0.00     0.157 HD
ATOM     48  H22 SAM d   1      77.665 131.768  54.792  0.00  0.00     0.157 HD
ENDBRANCH  40  46
ENDBRANCH   5  35
BRANCH   4  49
ATOM     49  O2  SAM d   1      71.942 126.375  52.359  0.00  0.00    -0.388 OA
ATOM     50  H18 SAM d   1      71.130 126.671  51.964  0.00  0.00     0.210 HD
ENDBRANCH   4  49
TORSDOF 12
