REMARK  6 active torsions:
REMARK  status: ('A' for Active; 'I' for Inactive)
REMARK    1  A    between atoms: PAP_2  and  CAJ_5 
REMARK    2  A    between atoms: CAJ_5  and  CAN_6 
REMARK       I    between atoms: CAN_6  and  N_8 
REMARK    3  A    between atoms: N_8  and  CA_9 
REMARK    4  A    between atoms: CA_9  and  CB_10 
REMARK    5  A    between atoms: CA_9  and  C_14 
REMARK    6  A    between atoms: CB_10  and  CG_11 
REMARK       I    between atoms: C_14  and  NAA_16 
ROOT
ATOM      1  CA  NON d   1      67.123  53.872  61.673  0.00  0.00     0.098 C 
ATOM      2  H4  NON d   1      67.024  54.548  62.535  0.00  0.00     0.088 H 
ENDROOT
BRANCH   1   3
ATOM      3  N   NON d   1      67.793  52.647  62.135  0.00  0.00    -0.347 N 
ATOM      4  CAN NON d   1      67.370  51.935  63.179  0.00  0.00     0.231 C 
ATOM      5  OAD NON d   1      66.369  52.201  63.840  0.00  0.00    -0.273 OA
ATOM      6  H3  NON d   1      68.605  52.333  61.642  0.00  0.00     0.163 HD
BRANCH   4   7
ATOM      7  CAJ NON d   1      68.234  50.714  63.508  0.00  0.00     0.112 C 
ATOM      8  H1  NON d   1      69.125  50.731  62.863  0.00  0.00     0.068 H 
ATOM      9  H2  NON d   1      68.543  50.778  64.562  0.00  0.00     0.068 H 
BRANCH   7  10
ATOM     10  PAP NON d   1      67.370  49.145  63.255  0.00  0.00     0.268 P 
ATOM     11  OAH NON d   1      68.517  48.016  63.280  0.00  0.00    -0.639 OA
ATOM     12  OAG NON d   1      66.811  49.174  61.747  0.00  0.00    -0.639 OA
ATOM     13  OAE NON d   1      66.313  48.894  64.261  0.00  0.00    -0.639 OA
ENDBRANCH   7  10
ENDBRANCH   4   7
ENDBRANCH   1   3
BRANCH   1  14
ATOM     14  CB  NON d   1      67.984  54.567  60.614  0.00  0.00     0.043 C 
ATOM     15  H5  NON d   1      68.958  54.813  61.063  0.00  0.00     0.052 H 
ATOM     16  H6  NON d   1      67.478  55.494  60.307  0.00  0.00     0.052 H 
BRANCH  14  17
ATOM     17  CG  NON d   1      68.227  53.711  59.368  0.00  0.00     0.175 C 
ATOM     18  OD2 NON d   1      67.455  52.750  59.160  0.00  0.00    -0.648 OA
ATOM     19  OD1 NON d   1      69.186  54.047  58.640  0.00  0.00    -0.648 OA
ENDBRANCH  14  17
ENDBRANCH   1  14
BRANCH   1  20
ATOM     20  C   NON d   1      65.719  53.605  61.126  0.00  0.00     0.238 C 
ATOM     21  O   NON d   1      65.244  52.472  61.090  0.00  0.00    -0.271 OA
ATOM     22  NAA NON d   1      65.073  54.689  60.705  0.00  0.00    -0.368 N 
ATOM     23  H7  NON d   1      64.149  54.607  60.332  0.00  0.00     0.159 HD
ATOM     24  H8  NON d   1      65.511  55.586  60.762  0.00  0.00     0.159 HD
ENDBRANCH   1  20
TORSDOF 6
