REMARK  6 active torsions:
REMARK  status: ('A' for Active; 'I' for Inactive)
REMARK    1  A    between atoms: C3_3  and  O6_21 
REMARK    2  A    between atoms: C6_6  and  C7_7 
REMARK    3  A    between atoms: C9_9  and  O3_15 
REMARK    4  A    between atoms: C10_10  and  C11_12 
REMARK    5  A    between atoms: O3_15  and  C12_16 
REMARK    6  A    between atoms: C12_16  and  C13_17 
ROOT
ATOM      1  C7  694 d   1      45.661  12.969   1.183  0.00  0.00     0.036 A 
ATOM      2  C8  694 d   1      46.105  13.588   2.358  0.00  0.00     0.064 A 
ATOM      3  C9  694 d   1      45.602  14.931   2.531  0.00  0.00     0.112 A 
ATOM      4  C10 694 d   1      44.793  15.307   1.460  0.00  0.00     0.117 A 
ATOM      5  S1  694 d   1      44.634  14.046   0.310  0.00  0.00    -0.078 SA
ATOM      6 BR1  694 d   1      47.254  12.792   3.639  0.00  0.00    -0.047 Br
ENDROOT
BRANCH   1   7
ATOM      7  C6  694 d   1      45.929  11.607   0.623  0.00  0.00    -0.018 A 
ATOM      8  C1  694 d   1      47.273  11.089   0.506  0.00  0.00    -0.069 A 
ATOM      9  C2  694 d   1      47.521   9.795  -0.023  0.00  0.00    -0.050 A 
ATOM     10  H1  694 d   1      48.108  11.700   0.828  0.00  0.00     0.085 H 
ATOM     11  C3  694 d   1      46.432   9.000  -0.450  0.00  0.00     0.065 A 
ATOM     12  H2  694 d   1      48.535   9.420  -0.099  0.00  0.00     0.087 H 
ATOM     13  C4  694 d   1      45.096   9.483  -0.350  0.00  0.00    -0.050 A 
ATOM     14  C5  694 d   1      44.847  10.781   0.184  0.00  0.00    -0.069 A 
ATOM     15  H3  694 d   1      44.269   8.864  -0.680  0.00  0.00     0.087 H 
ATOM     16  H4  694 d   1      43.829  11.145   0.258  0.00  0.00     0.085 H 
BRANCH  11  17
ATOM     17  O6  694 d   1      46.642   7.749  -0.968  0.00  0.00    -0.361 OA
ATOM     18  H7  694 d   1      46.306   7.715  -1.856  0.00  0.00     0.217 HD
ENDBRANCH  11  17
ENDBRANCH   1   7
BRANCH   3  19
ATOM     19  O3  694 d   1      45.882  15.765   3.604  0.00  0.00    -0.338 OA
BRANCH  19  20
ATOM     20  C12 694 d   1      47.113  16.526   3.436  0.00  0.00     0.106 C 
ATOM     21  H5  694 d   1      46.962  17.313   2.682  0.00  0.00     0.091 H 
ATOM     22  H6  694 d   1      47.922  15.856   3.110  0.00  0.00     0.091 H 
BRANCH  20  23
ATOM     23  C13 694 d   1      47.482  17.165   4.787  0.00  0.00     0.198 C 
ATOM     24  O4  694 d   1      46.548  17.254   5.634  0.00  0.00    -0.646 OA
ATOM     25  O5  694 d   1      48.683  17.532   4.886  0.00  0.00    -0.646 OA
ENDBRANCH  20  23
ENDBRANCH  19  20
ENDBRANCH   3  19
BRANCH   4  26
ATOM     26  C11 694 d   1      44.104  16.708   1.251  0.00  0.00     0.219 C 
ATOM     27  O1  694 d   1      43.930  17.441   2.280  0.00  0.00    -0.643 OA
ATOM     28  O2  694 d   1      43.779  16.991   0.060  0.00  0.00    -0.643 OA
ENDBRANCH   4  26
TORSDOF 6
