REMARK  5 active torsions:
REMARK  status: ('A' for Active; 'I' for Inactive)
REMARK    1  A    between atoms: C4_4  and  C7_7 
REMARK    2  A    between atoms: C9_9  and  O3_15 
REMARK    3  A    between atoms: C10_10  and  C11_12 
REMARK    4  A    between atoms: O3_15  and  C12_16 
REMARK    5  A    between atoms: C12_16  and  C13_17 
ROOT
ATOM      1  C7  509 d   1      45.539  12.742   1.145  0.00  0.00     0.036 A 
ATOM      2  C8  509 d   1      46.005  13.403   2.241  0.00  0.00     0.064 A 
ATOM      3  C9  509 d   1      45.561  14.734   2.398  0.00  0.00     0.112 A 
ATOM      4  C10 509 d   1      44.708  15.070   1.373  0.00  0.00     0.117 A 
ATOM      5  S1  509 d   1      44.499  13.774   0.271  0.00  0.00    -0.078 SA
ATOM      6 BR1  509 d   1      47.199  12.648   3.464  0.00  0.00    -0.047 Br
ENDROOT
BRANCH   1   7
ATOM      7  C4  509 d   1      45.811  11.370   0.739  0.00  0.00    -0.018 A 
ATOM      8  C3  509 d   1      44.748  10.540   0.340  0.00  0.00    -0.072 A 
ATOM      9  C2  509 d   1      45.009   9.218  -0.035  0.00  0.00    -0.082 A 
ATOM     10  H3  509 d   1      43.734  10.922   0.323  0.00  0.00     0.084 H 
ATOM     11  C1  509 d   1      46.316   8.719   0.015  0.00  0.00    -0.083 A 
ATOM     12  H2  509 d   1      44.198   8.579  -0.365  0.00  0.00     0.083 H 
ATOM     13  C6  509 d   1      47.375   9.535   0.421  0.00  0.00    -0.082 A 
ATOM     14  H1  509 d   1      46.508   7.689  -0.264  0.00  0.00     0.083 H 
ATOM     15  C5  509 d   1      47.121  10.860   0.789  0.00  0.00    -0.072 A 
ATOM     16  H5  509 d   1      48.386   9.144   0.451  0.00  0.00     0.083 H 
ATOM     17  H4  509 d   1      47.936  11.496   1.114  0.00  0.00     0.084 H 
ENDBRANCH   1   7
BRANCH   3  18
ATOM     18  O3  509 d   1      45.932  15.532   3.426  0.00  0.00    -0.338 OA
BRANCH  18  19
ATOM     19  C12 509 d   1      47.138  16.278   3.202  0.00  0.00     0.106 C 
ATOM     20  H6  509 d   1      46.973  17.015   2.402  0.00  0.00     0.091 H 
ATOM     21  H7  509 d   1      47.947  15.593   2.908  0.00  0.00     0.091 H 
BRANCH  19  22
ATOM     22  C13 509 d   1      47.524  17.004   4.501  0.00  0.00     0.198 C 
ATOM     23  O4  509 d   1      48.595  17.643   4.445  0.00  0.00    -0.646 OA
ATOM     24  O5  509 d   1      46.769  16.905   5.495  0.00  0.00    -0.646 OA
ENDBRANCH  19  22
ENDBRANCH  18  19
ENDBRANCH   3  18
BRANCH   4  25
ATOM     25  C11 509 d   1      43.996  16.452   1.167  0.00  0.00     0.219 C 
ATOM     26  O1  509 d   1      43.557  16.651  -0.002  0.00  0.00    -0.643 OA
ATOM     27  O2  509 d   1      43.934  17.241   2.158  0.00  0.00    -0.643 OA
ENDBRANCH   4  25
TORSDOF 5
