REMARK  4 active torsions:
REMARK  status: ('A' for Active; 'I' for Inactive)
REMARK    1  A    between atoms: C1_1  and  S1_12 
REMARK    2  A    between atoms: C2_2  and  N4_8 
REMARK       I    between atoms: N4_8  and  C3_3 
REMARK    3  A    between atoms: C3_3  and  C4_4 
REMARK    4  A    between atoms: S1_12  and  N1_5 
ROOT
ATOM      1  C1  AZM d   1      -5.354   2.115  15.497  0.00  0.00     0.237 A 
ATOM      2  C2  AZM d   1      -4.814   4.030  14.177  0.00  0.00     0.197 A 
ATOM      3  N2  AZM d   1      -3.696   3.250  14.449  0.00  0.00    -0.122 NA
ATOM      4  N3  AZM d   1      -4.007   2.133  15.207  0.00  0.00    -0.126 NA
ATOM      5  S2  AZM d   1      -6.286   3.458  14.901  0.00  0.00    -0.015 SA
ENDROOT
BRANCH   2   6
ATOM      6  N4  AZM d   1      -4.700   5.160  13.384  0.00  0.00    -0.305 N 
ATOM      7  C3  AZM d   1      -5.684   5.991  13.041  0.00  0.00     0.219 C 
ATOM      8  O3  AZM d   1      -6.843   5.855  13.440  0.00  0.00    -0.274 OA
ATOM      9  H6  AZM d   1      -3.788   5.374  13.034  0.00  0.00     0.171 HD
BRANCH   7  10
ATOM     10  C4  AZM d   1      -5.293   7.045  12.042  0.00  0.00    -0.002 C 
ATOM     11  H1  AZM d   1      -6.163   7.681  11.820  0.00  0.00     0.040 H 
ATOM     12  H2  AZM d   1      -4.946   6.562  11.117  0.00  0.00     0.040 H 
ATOM     13  H3  AZM d   1      -4.484   7.663  12.459  0.00  0.00     0.040 H 
ENDBRANCH   7  10
ENDBRANCH   2   6
BRANCH   1  14
ATOM     14  S1  AZM d   1      -6.103   0.789  16.400  0.00  0.00     0.282 S 
ATOM     15  O1  AZM d   1      -5.659   0.783  17.785  0.00  0.00    -0.199 OA
ATOM     16  O2  AZM d   1      -7.494   0.906  16.029  0.00  0.00    -0.199 OA
BRANCH  14  17
ATOM     17  N1  AZM d   1      -5.497  -0.513  15.674  0.00  0.00    -0.323 N 
ATOM     18  H4  AZM d   1      -5.756  -1.427  15.988  0.00  0.00     0.169 HD
ATOM     19  H5  AZM d   1      -4.861  -0.409  14.909  0.00  0.00     0.169 HD
ENDBRANCH  14  17
ENDBRANCH   1  14
TORSDOF 4
