REMARK  3 active torsions:
REMARK  status: ('A' for Active; 'I' for Inactive)
REMARK    1  A    between atoms: C_2  and  CG_4 
REMARK    2  A    between atoms: CG_4  and  CA_5 
REMARK    3  A    between atoms: CZ_8  and  OH_9 
ROOT
ATOM      1  CA  3C4 d   1      62.418  83.899  14.492  0.00  0.00    -0.046 A 
ATOM      2  CD2 3C4 d   1      63.636  84.495  14.305  0.00  0.00    -0.074 A 
ATOM      3  CE2 3C4 d   1      64.600  84.400  15.146  0.00  0.00    -0.049 A 
ATOM      4  CZ  3C4 d   1      64.504  83.612  16.399  0.00  0.00     0.087 A 
ATOM      5 CL   3C4 d   1      62.756  82.023  17.991  0.00  0.00    -0.081 Cl
ATOM      6  CE1 3C4 d   1      63.147  82.963  16.556  0.00  0.00     0.067 A 
ATOM      7  CD1 3C4 d   1      62.183  83.149  15.616  0.00  0.00    -0.053 A 
ATOM      8  H3  3C4 d   1      63.794  85.075  13.403  0.00  0.00     0.084 H 
ATOM      9  H4  3C4 d   1      65.527  84.919  14.931  0.00  0.00     0.087 H 
ATOM     10  H6  3C4 d   1      61.209  82.695  15.758  0.00  0.00     0.087 H 
ENDROOT
BRANCH   1  11
ATOM     11  CG  3C4 d   1      61.299  84.055  13.432  0.00  0.00     0.040 C 
ATOM     12  H1  3C4 d   1      60.353  83.731  13.890  0.00  0.00     0.056 H 
ATOM     13  H2  3C4 d   1      61.232  85.121  13.167  0.00  0.00     0.056 H 
BRANCH  11  14
ATOM     14  C   3C4 d   1      61.487  83.268  12.148  0.00  0.00     0.176 C 
ATOM     15  O2  3C4 d   1      60.533  83.366  11.313  0.00  0.00    -0.648 OA
ATOM     16  O1  3C4 d   1      62.531  82.572  11.904  0.00  0.00    -0.648 OA
ENDBRANCH  11  14
ENDBRANCH   1  11
BRANCH   4  17
ATOM     17  OH  3C4 d   1      65.526  83.478  17.361  0.00  0.00    -0.359 OA
ATOM     18  H5  3C4 d   1      65.753  84.335  17.702  0.00  0.00     0.217 HD
ENDBRANCH   4  17
TORSDOF 3
