REMARK  6 active torsions:
REMARK  status: ('A' for Active; 'I' for Inactive)
REMARK    1  A    between atoms: C4_1  and  C5_2 
REMARK    2  A    between atoms: C4_1  and  O6_6 
REMARK    3  A    between atoms: C5_2  and  N1_7 
REMARK    4  A    between atoms: N1_7  and  C6_3 
REMARK    5  A    between atoms: N1_7  and  C7_4 
REMARK    6  A    between atoms: N1_7  and  C8_5 
ROOT
ATOM      1  N1  CHT d   1      26.745  18.915  15.303  0.00  0.00    -0.077 N 
ENDROOT
BRANCH   1   2
ATOM      2  C5  CHT d   1      26.838  20.291  14.785  0.00  0.00     0.103 C 
ATOM      3  H3  CHT d   1      27.143  20.954  15.608  0.00  0.00     0.079 H 
ATOM      4  H4  CHT d   1      27.601  20.315  13.993  0.00  0.00     0.079 H 
BRANCH   2   5
ATOM      5  C4  CHT d   1      25.515  20.811  14.204  0.00  0.00     0.040 C 
ATOM      6  H1  CHT d   1      25.700  21.770  13.698  0.00  0.00     0.076 H 
ATOM      7  H2  CHT d   1      24.800  20.962  15.026  0.00  0.00     0.076 H 
BRANCH   5   8
ATOM      8  O6  CHT d   1      24.953  19.892  13.263  0.00  0.00    -0.399 OA
ATOM      9  H14 CHT d   1      24.138  20.245  12.925  0.00  0.00     0.209 HD
ENDBRANCH   5   8
ENDBRANCH   2   5
ENDBRANCH   1   2
BRANCH   1  10
ATOM     10  C6  CHT d   1      26.979  17.948  14.225  0.00  0.00     0.067 C 
ATOM     11  H5  CHT d   1      26.906  16.927  14.627  0.00  0.00     0.068 H 
ATOM     12  H6  CHT d   1      27.982  18.105  13.803  0.00  0.00     0.068 H 
ATOM     13  H7  CHT d   1      26.224  18.087  13.438  0.00  0.00     0.068 H 
ENDBRANCH   1  10
BRANCH   1  14
ATOM     14  C7  CHT d   1      27.770  18.731  16.332  0.00  0.00     0.067 C 
ATOM     15  H8  CHT d   1      27.605  19.451  17.147  0.00  0.00     0.068 H 
ATOM     16  H9  CHT d   1      28.765  18.896  15.892  0.00  0.00     0.068 H 
ATOM     17  H10 CHT d   1      27.710  17.707  16.730  0.00  0.00     0.068 H 
ENDBRANCH   1  14
BRANCH   1  18
ATOM     18  C8  CHT d   1      25.451  18.649  15.933  0.00  0.00     0.067 C 
ATOM     19  H11 CHT d   1      24.649  18.777  15.191  0.00  0.00     0.068 H 
ATOM     20  H12 CHT d   1      25.297  19.352  16.765  0.00  0.00     0.068 H 
ATOM     21  H13 CHT d   1      25.435  17.618  16.317  0.00  0.00     0.068 H 
ENDBRANCH   1  18
TORSDOF 6
