REMARK  2 active torsions:
REMARK  status: ('A' for Active; 'I' for Inactive)
REMARK    1  A    between atoms: P1_1  and  N1_5 
REMARK    2  A    between atoms: N1_5  and  P2_6 
ROOT
ATOM      1  N1  2PN d   1     -12.609  -7.904 125.537  0.00  0.00    -0.210 N 
ATOM      2  H1  2PN d   1     -12.820  -8.877 125.634  0.00  0.00     0.180 HD
ENDROOT
BRANCH   1   3
ATOM      3  P1  2PN d   1     -10.801  -7.714 125.317  0.00  0.00     0.382 P 
ATOM      4  O1  2PN d   1     -10.307  -8.343 124.026  0.00  0.00    -0.622 OA
ATOM      5  O2  2PN d   1     -10.005  -8.603 126.419  0.00  0.00    -0.622 OA
ATOM      6  O3  2PN d   1     -10.499  -6.179 125.469  0.00  0.00    -0.622 OA
ENDBRANCH   1   3
BRANCH   1   7
ATOM      7  P2  2PN d   1     -13.865  -7.138 125.622  0.00  0.00     0.382 P 
ATOM      8  O4  2PN d   1     -14.767  -7.883 124.554  0.00  0.00    -0.622 OA
ATOM      9  O5  2PN d   1     -14.423  -7.099 126.946  0.00  0.00    -0.622 OA
ATOM     10  O6  2PN d   1     -13.452  -5.658 125.226  0.00  0.00    -0.622 OA
ENDBRANCH   1   7
TORSDOF 2
