REMARK  13 active torsions:
REMARK  status: ('A' for Active; 'I' for Inactive)
REMARK    1  A    between atoms: S_2  and  C17_4 
REMARK    2  A    between atoms: S_2  and  C16_11 
REMARK    3  A    between atoms: C17_4  and  C18_5 
REMARK    4  A    between atoms: C16_11  and  CA_12 
REMARK    5  A    between atoms: CA_12  and  N_13 
REMARK    6  A    between atoms: CA_12  and  C_22 
REMARK       I    between atoms: N_13  and  C11_14 
REMARK       I    between atoms: C11_14  and  N3_16 
REMARK       I    between atoms: C_22  and  N2_24 
REMARK    7  A    between atoms: N2_24  and  C9_25 
REMARK    8  A    between atoms: C9_25  and  C10_26 
REMARK    9  A    between atoms: C9_25  and  C8_27 
REMARK   10  A    between atoms: C8_27  and  N1_28 
REMARK   11  A    between atoms: N1_28  and  C7_29 
REMARK   12  A    between atoms: C2_34  and  O1_35 
REMARK   13  A    between atoms: O1_35  and  C1_36 
ROOT
ATOM      1  CA  GNQ d   1      35.567  28.569  15.825  0.00  0.00     0.103 C 
ATOM      2  H10 GNQ d   1      35.665  29.636  16.075  0.00  0.00     0.089 H 
ENDROOT
BRANCH   1   3
ATOM      3  C16 GNQ d   1      35.228  27.788  17.102  0.00  0.00     0.056 C 
ATOM      4  H8  GNQ d   1      34.928  26.769  16.817  0.00  0.00     0.060 H 
ATOM      5  H9  GNQ d   1      36.129  27.742  17.731  0.00  0.00     0.060 H 
BRANCH   3   6
ATOM      6  S   GNQ d   1      33.988  28.475  18.000  0.00  0.00     0.150 S 
ATOM      7  O5  GNQ d   1      34.122  27.940  19.337  0.00  0.00    -0.228 OA
ATOM      8  O4  GNQ d   1      34.052  29.908  17.899  0.00  0.00    -0.228 OA
BRANCH   6   9
ATOM      9  C17 GNQ d   1      32.602  27.875  17.293  0.00  0.00     0.052 C 
ATOM     10  H1  GNQ d   1      32.635  26.777  17.355  0.00  0.00     0.063 H 
ATOM     11  H2  GNQ d   1      32.597  28.183  16.237  0.00  0.00     0.063 H 
BRANCH   9  12
ATOM     12  C18 GNQ d   1      31.320  28.337  17.918  0.00  0.00    -0.044 A 
ATOM     13  C20 GNQ d   1      30.747  29.518  17.454  0.00  0.00    -0.076 A 
ATOM     14  C21 GNQ d   1      29.542  29.971  17.985  0.00  0.00    -0.082 A 
ATOM     15  H3  GNQ d   1      31.241  30.088  16.675  0.00  0.00     0.084 H 
ATOM     16  C22 GNQ d   1      28.930  29.208  18.962  0.00  0.00    -0.083 A 
ATOM     17  H4  GNQ d   1      29.096  30.897  17.641  0.00  0.00     0.083 H 
ATOM     18  C23 GNQ d   1      29.502  28.023  19.419  0.00  0.00    -0.082 A 
ATOM     19  H5  GNQ d   1      27.986  29.538  19.381  0.00  0.00     0.083 H 
ATOM     20  C19 GNQ d   1      30.711  27.561  18.897  0.00  0.00    -0.076 A 
ATOM     21  H6  GNQ d   1      29.001  27.451  20.192  0.00  0.00     0.083 H 
ATOM     22  H7  GNQ d   1      31.157  26.635  19.241  0.00  0.00     0.084 H 
ENDBRANCH   9  12
ENDBRANCH   6   9
ENDBRANCH   3   6
ENDBRANCH   1   3
BRANCH   1  23
ATOM     23  N   GNQ d   1      34.539  28.387  14.776  0.00  0.00    -0.329 N 
ATOM     24  C11 GNQ d   1      34.603  29.149  13.661  0.00  0.00     0.319 C 
ATOM     25  O3  GNQ d   1      35.503  29.992  13.535  0.00  0.00    -0.247 OA
ATOM     26  N3  GNQ d   1      33.726  28.991  12.656  0.00  0.00    -0.330 N 
ATOM     27  C15 GNQ d   1      33.817  29.872  11.482  0.00  0.00     0.019 C 
ATOM     28  C12 GNQ d   1      32.576  28.083  12.718  0.00  0.00     0.019 C 
ATOM     29  C14 GNQ d   1      33.530  29.090  10.209  0.00  0.00     0.034 C 
ATOM     30  H12 GNQ d   1      34.830  30.297  11.425  0.00  0.00     0.067 H 
ATOM     31  H13 GNQ d   1      33.083  30.685  11.581  0.00  0.00     0.067 H 
ATOM     32  O2  GNQ d   1      32.231  28.524  10.340  0.00  0.00    -0.388 OA
ATOM     33  H14 GNQ d   1      34.276  28.292  10.082  0.00  0.00     0.076 H 
ATOM     34  H15 GNQ d   1      33.561  29.763   9.339  0.00  0.00     0.076 H 
ATOM     35  C13 GNQ d   1      32.279  27.486  11.339  0.00  0.00     0.034 C 
ATOM     36  H16 GNQ d   1      33.070  26.768  11.077  0.00  0.00     0.076 H 
ATOM     37  H17 GNQ d   1      31.309  26.968  11.370  0.00  0.00     0.076 H 
ATOM     38  H18 GNQ d   1      31.695  28.641  13.067  0.00  0.00     0.067 H 
ATOM     39  H19 GNQ d   1      32.797  27.268  13.423  0.00  0.00     0.067 H 
ATOM     40  H11 GNQ d   1      33.810  27.712  14.890  0.00  0.00     0.165 HD
ENDBRANCH   1  23
BRANCH   1  41
ATOM     41  C   GNQ d   1      36.846  28.056  15.209  0.00  0.00     0.241 C 
ATOM     42  O   GNQ d   1      36.853  26.990  14.609  0.00  0.00    -0.271 OA
ATOM     43  N2  GNQ d   1      37.939  28.809  15.316  0.00  0.00    -0.353 N 
ATOM     44  H20 GNQ d   1      37.918  29.661  15.839  0.00  0.00     0.163 HD
BRANCH  43  45
ATOM     45  C9  GNQ d   1      39.168  28.376  14.660  0.00  0.00     0.024 C 
ATOM     46  H21 GNQ d   1      39.117  27.298  14.446  0.00  0.00     0.074 H 
BRANCH  45  47
ATOM     47  C10 GNQ d   1      39.225  29.156  13.342  0.00  0.00    -0.056 C 
ATOM     48  H22 GNQ d   1      40.135  28.877  12.790  0.00  0.00     0.030 H 
ATOM     49  H23 GNQ d   1      39.242  30.235  13.555  0.00  0.00     0.030 H 
ATOM     50  H24 GNQ d   1      38.340  28.916  12.735  0.00  0.00     0.030 H 
ENDBRANCH  45  47
BRANCH  45  51
ATOM     51  C8  GNQ d   1      40.376  28.632  15.544  0.00  0.00     0.011 C 
ATOM     52  H25 GNQ d   1      40.919  27.695  15.738  0.00  0.00     0.067 H 
ATOM     53  H26 GNQ d   1      40.068  29.082  16.499  0.00  0.00     0.067 H 
BRANCH  51  54
ATOM     54  N1  GNQ d   1      41.208  29.560  14.784  0.00  0.00    -0.388 N 
ATOM     55  H27 GNQ d   1      40.787  30.149  14.051  0.00  0.00     0.159 HD
BRANCH  54  56
ATOM     56  C7  GNQ d   1      42.529  29.645  15.044  0.00  0.00     0.028 A 
ATOM     57  C6  GNQ d   1      42.924  29.438  16.341  0.00  0.00    -0.055 A 
ATOM     58  C5  GNQ d   1      44.251  29.522  16.644  0.00  0.00    -0.048 A 
ATOM     59  H28 GNQ d   1      42.195  29.212  17.111  0.00  0.00     0.087 H 
ATOM     60  C2  GNQ d   1      45.251  29.786  15.714  0.00  0.00     0.078 A 
ATOM     61  H29 GNQ d   1      44.545  29.373  17.677  0.00  0.00     0.087 H 
ATOM     62  C3  GNQ d   1      44.840  30.012  14.400  0.00  0.00    -0.048 A 
ATOM     63  C4  GNQ d   1      43.483  29.930  14.063  0.00  0.00    -0.055 A 
ATOM     64  H31 GNQ d   1      45.573  30.252  13.638  0.00  0.00     0.087 H 
ATOM     65  H30 GNQ d   1      43.171  30.088  13.037  0.00  0.00     0.087 H 
BRANCH  60  66
ATOM     66  O1  GNQ d   1      46.577  29.853  16.135  0.00  0.00    -0.255 OA
BRANCH  66  67
ATOM     67  C1  GNQ d   1      47.672  28.957  15.807  0.00  0.00     0.530 C 
ATOM     68  F1  GNQ d   1      47.513  27.743  16.311  0.00  0.00    -0.144 F 
ATOM     69  F2  GNQ d   1      47.786  28.846  14.497  0.00  0.00    -0.144 F 
ATOM     70  F3  GNQ d   1      48.807  29.448  16.294  0.00  0.00    -0.144 F 
ENDBRANCH  66  67
ENDBRANCH  60  66
ENDBRANCH  54  56
ENDBRANCH  51  54
ENDBRANCH  45  51
ENDBRANCH  43  45
ENDBRANCH   1  41
TORSDOF 13
