REMARK  4 active torsions:
REMARK  status: ('A' for Active; 'I' for Inactive)
REMARK    1  A    between atoms: N1_1  and  CB_2 
REMARK    2  A    between atoms: CB_2  and  CG_3 
REMARK    3  A    between atoms: CZ_6  and  O1_9 
REMARK    4  A    between atoms: O1_9  and  CF1_10 
ROOT
ATOM      1  CG  NON d   1      51.617  22.308  29.514  0.00  0.00    -0.033 A 
ATOM      2  CD1 NON d   1      50.417  22.992  29.256  0.00  0.00    -0.073 A 
ATOM      3  CE1 NON d   1      49.577  23.496  30.303  0.00  0.00    -0.050 A 
ATOM      4  CZ  NON d   1      49.926  23.339  31.658  0.00  0.00     0.068 A 
ATOM      5  CE2 NON d   1      51.092  22.696  31.991  0.00  0.00    -0.050 A 
ATOM      6  CD2 NON d   1      52.026  22.139  30.816  0.00  0.00    -0.073 A 
ATOM      7  H6  NON d   1      50.115  23.144  28.226  0.00  0.00     0.084 H 
ATOM      8  H7  NON d   1      48.656  24.007  30.047  0.00  0.00     0.087 H 
ATOM      9  H8  NON d   1      51.375  22.568  33.029  0.00  0.00     0.087 H 
ATOM     10  H9  NON d   1      52.961  21.639  31.042  0.00  0.00     0.084 H 
ENDROOT
BRANCH   1  11
ATOM     11  CB  NON d   1      52.495  21.804  28.406  0.00  0.00     0.103 C 
ATOM     12  H4  NON d   1      52.584  20.716  28.542  0.00  0.00     0.082 H 
ATOM     13  H5  NON d   1      51.968  22.014  27.463  0.00  0.00     0.082 H 
BRANCH  11  14
ATOM     14  N1  NON d   1      53.873  22.330  28.252  0.00  0.00    -0.075 N 
ATOM     15  H1  NON d   1      54.316  21.885  27.463  0.00  0.00     0.274 HD
ATOM     16  H2  NON d   1      54.402  22.137  29.088  0.00  0.00     0.274 HD
ATOM     17  H3  NON d   1      53.837  23.326  28.100  0.00  0.00     0.274 HD
ENDBRANCH  11  14
ENDBRANCH   1  11
BRANCH   4  18
ATOM     18  O1  NON d   1      49.137  23.845  32.726  0.00  0.00    -0.356 OA
BRANCH  18  19
ATOM     19  CF1 NON d   1      48.452  25.064  32.533  0.00  0.00     0.010 C 
ATOM     20  H10 NON d   1      47.891  25.318  33.445  0.00  0.00     0.066 H 
ATOM     21  H11 NON d   1      47.754  24.963  31.689  0.00  0.00     0.066 H 
ATOM     22  H12 NON d   1      49.177  25.862  32.315  0.00  0.00     0.066 H 
ENDBRANCH  18  19
ENDBRANCH   4  18
TORSDOF 4
