REMARK  28 active torsions:
REMARK  status: ('A' for Active; 'I' for Inactive)
REMARK    1  A    between atoms: N_1  and  CA_2 
REMARK    2  A    between atoms: CA_2  and  C_3 
REMARK       I    between atoms: C_3  and  N_5 
REMARK    3  A    between atoms: CA_6  and  C_7 
REMARK       I    between atoms: C_7  and  N_12 
REMARK    4  A    between atoms: N_12  and  CA_13 
REMARK    5  A    between atoms: CA_13  and  C_14 
REMARK       I    between atoms: C_14  and  N_16 
REMARK    6  A    between atoms: N_16  and  CA_17 
REMARK    7  A    between atoms: CA_17  and  C_18 
REMARK    8  A    between atoms: CA_17  and  CB_20 
REMARK       I    between atoms: C_18  and  N_25 
REMARK    9  A    between atoms: CB_20  and  CG_21 
REMARK   10  A    between atoms: CG_21  and  CD_22 
REMARK   11  A    between atoms: N_25  and  CA_26 
REMARK   12  A    between atoms: CA_26  and  C_27 
REMARK   13  A    between atoms: CA_26  and  CB_29 
REMARK       I    between atoms: C_27  and  N_34 
REMARK   14  A    between atoms: CB_29  and  CG_30 
REMARK   15  A    between atoms: CG_30  and  CD_31 
REMARK   16  A    between atoms: N_34  and  CA_35 
REMARK   17  A    between atoms: CA_35  and  C_36 
REMARK   18  A    between atoms: CA_35  and  CB_38 
REMARK       I    between atoms: C_36  and  N_42 
REMARK   19  A    between atoms: CB_38  and  CG_39 
REMARK   20  A    between atoms: N_42  and  CA_43 
REMARK   21  A    between atoms: CA_43  and  C_44 
REMARK   22  A    between atoms: CA_43  and  CB_46 
REMARK       I    between atoms: C_44  and  N_50 
REMARK   23  A    between atoms: CB_46  and  CG_47 
REMARK   24  A    between atoms: CG_47  and  CD1_48 
REMARK   25  A    between atoms: CG_47  and  CD2_49 
REMARK   26  A    between atoms: CA_51  and  C_52 
REMARK       I    between atoms: C_52  and  N_57 
REMARK   27  A    between atoms: N_57  and  CA_58 
REMARK   28  A    between atoms: CA_58  and  C_59 
ROOT
ATOM      1  CA  GLU d   1      -5.930  25.862 -14.683  0.00  0.00     0.090 C 
ATOM      2  H23 GLU d   1      -5.063  25.420 -14.171  0.00  0.00     0.087 H 
ENDROOT
BRANCH   1   3
ATOM      3  N   GLU d   1      -5.663  27.300 -14.825  0.00  0.00    -0.346 N 
ATOM      4  C   GLU d   1      -4.667  27.754 -15.585  0.00  0.00     0.241 C 
ATOM      5  O   GLU d   1      -3.846  27.021 -16.125  0.00  0.00    -0.271 OA
ATOM      6  H22 GLU d   1      -6.243  27.954 -14.339  0.00  0.00     0.163 HD
BRANCH   4   7
ATOM      7  CA  GLU d   1      -4.579  29.266 -15.759  0.00  0.00     0.090 C 
ATOM      8  H17 GLU d   1      -5.162  29.730 -14.949  0.00  0.00     0.087 H 
BRANCH   7   9
ATOM      9  N   GLU d   1      -3.203  29.762 -15.655  0.00  0.00    -0.346 N 
ATOM     10  C   GLY d   1      -2.478  29.678 -14.542  0.00  0.00     0.236 C 
ATOM     11  O   GLY d   1      -2.908  29.185 -13.477  0.00  0.00    -0.272 OA
ATOM     12  H16 GLU d   1      -2.788  30.185 -16.461  0.00  0.00     0.163 HD
BRANCH  10  13
ATOM     13  CA  GLY d   1      -1.057  30.206 -14.646  0.00  0.00     0.069 C 
ATOM     14  H14 GLY d   1      -0.526  29.622 -15.412  0.00  0.00     0.078 H 
ATOM     15  H15 GLY d   1      -1.101  31.261 -14.955  0.00  0.00     0.078 H 
BRANCH  13  16
ATOM     16  N   GLY d   1      -0.296  30.123 -13.389  0.00  0.00    -0.351 N 
ATOM     17  C   PRO d   1       0.331  29.011 -12.999  0.00  0.00     0.241 C 
ATOM     18  O   PRO d   1       0.371  27.990 -13.688  0.00  0.00    -0.271 OA
ATOM     19  H13 GLY d   1      -0.247  30.932 -12.803  0.00  0.00     0.163 HD
BRANCH  17  20
ATOM     20  CA  PRO d   1       1.021  29.017 -11.621  0.00  0.00     0.091 C 
ATOM     21  N   PRO d   1       1.155  30.313 -10.929  0.00  0.00    -0.337 N 
ATOM     22  C   LEU d   1       1.969  31.341 -11.273  0.00  0.00     0.246 C 
ATOM     23  CD  PRO d   1       0.311  30.373  -9.720  0.00  0.00    -0.001 C 
ATOM     24  O   LEU d   1       1.988  32.410 -10.655  0.00  0.00    -0.272 OA
ATOM     25  CG  PRO d   1      -0.505  29.103  -9.798  0.00  0.00    -0.048 C 
ATOM     26  H11 PRO d   1      -0.339  31.260  -9.738  0.00  0.00     0.064 H 
ATOM     27  H12 PRO d   1       0.928  30.389  -8.810  0.00  0.00     0.064 H 
ATOM     28  CB  PRO d   1       0.227  28.169 -10.623  0.00  0.00    -0.036 C 
ATOM     29  H9  PRO d   1      -0.646  28.684  -8.791  0.00  0.00     0.035 H 
ATOM     30  H10 PRO d   1      -1.486  29.314 -10.248  0.00  0.00     0.035 H 
ATOM     31  H7  PRO d   1       0.910  27.567 -10.005  0.00  0.00     0.036 H 
ATOM     32  H8  PRO d   1      -0.468  27.503 -11.156  0.00  0.00     0.036 H 
ATOM     33  H6  PRO d   1       2.026  28.591 -11.760  0.00  0.00     0.087 H 
BRANCH  22  34
ATOM     34  CA  LEU d   1       2.885  31.149 -12.473  0.00  0.00     0.152 C 
ATOM     35  H4  LEU d   1       2.534  30.285 -13.055  0.00  0.00     0.090 H 
ATOM     36  H5  LEU d   1       2.847  32.053 -13.099  0.00  0.00     0.090 H 
BRANCH  34  37
ATOM     37  N   LEU d   1       4.302  30.908 -12.053  0.00  0.00    -0.071 N 
ATOM     38  H1  LEU d   1       4.879  30.786 -12.871  0.00  0.00     0.274 HD
ATOM     39  H2  LEU d   1       4.347  30.078 -11.483  0.00  0.00     0.274 HD
ATOM     40  H3  LEU d   1       4.634  31.698 -11.523  0.00  0.00     0.274 HD
ENDBRANCH  34  37
ENDBRANCH  22  34
ENDBRANCH  17  20
ENDBRANCH  13  16
ENDBRANCH  10  13
ENDBRANCH   7   9
BRANCH   7  41
ATOM     41  CB  GLU d   1      -5.208  29.687 -17.099  0.00  0.00    -0.029 C 
ATOM     42  H18 GLU d   1      -6.154  29.143 -17.234  0.00  0.00     0.037 H 
ATOM     43  H19 GLU d   1      -4.516  29.428 -17.914  0.00  0.00     0.037 H 
BRANCH  41  44
ATOM     44  CG  GLU d   1      -5.488  31.183 -17.148  0.00  0.00     0.018 C 
ATOM     45  H20 GLU d   1      -4.603  31.710 -16.763  0.00  0.00     0.049 H 
ATOM     46  H21 GLU d   1      -6.350  31.392 -16.498  0.00  0.00     0.049 H 
BRANCH  44  47
ATOM     47  CD  GLU d   1      -5.799  31.729 -18.540  0.00  0.00     0.172 C 
ATOM     48  OE1 GLU d   1      -6.689  31.183 -19.240  0.00  0.00    -0.648 OA
ATOM     49  OE2 GLU d   1      -5.159  32.749 -18.905  0.00  0.00    -0.648 OA
ENDBRANCH  44  47
ENDBRANCH  41  44
ENDBRANCH   7  41
ENDBRANCH   4   7
ENDBRANCH   1   3
BRANCH   1  50
ATOM     50  C   GLU d   1      -6.076  25.147 -16.038  0.00  0.00     0.241 C 
ATOM     51  O   GLU d   1      -6.981  25.442 -16.832  0.00  0.00    -0.271 OA
ATOM     52  N   ASP d   1      -5.183  24.201 -16.295  0.00  0.00    -0.346 N 
ATOM     53  H28 ASP d   1      -4.512  23.943 -15.600  0.00  0.00     0.163 HD
BRANCH  52  54
ATOM     54  CA  ASP d   1      -5.181  23.541 -17.588  0.00  0.00     0.098 C 
ATOM     55  H29 ASP d   1      -5.581  24.256 -18.322  0.00  0.00     0.088 H 
BRANCH  54  56
ATOM     56  C   ASP d   1      -6.124  22.335 -17.579  0.00  0.00     0.241 C 
ATOM     57  O   ASP d   1      -5.709  21.193 -17.725  0.00  0.00    -0.271 OA
ATOM     58  N   LEU d   1      -7.403  22.637 -17.401  0.00  0.00    -0.346 N 
ATOM     59  H32 LEU d   1      -7.644  23.593 -17.232  0.00  0.00     0.163 HD
BRANCH  58  60
ATOM     60  CA  LEU d   1      -8.472  21.657 -17.438  0.00  0.00     0.090 C 
ATOM     61  H33 LEU d   1      -8.163  20.812 -18.070  0.00  0.00     0.087 H 
BRANCH  60  62
ATOM     62  C   LEU d   1      -9.680  22.340 -18.069  0.00  0.00     0.243 C 
ATOM     63  O   LEU d   1      -9.842  23.567 -17.941  0.00  0.00    -0.271 OA
ATOM     64  N   PRO d   1     -10.531  21.550 -18.748  0.00  0.00    -0.337 N 
ATOM     65  CA  PRO d   1     -11.660  22.098 -19.483  0.00  0.00     0.091 C 
ATOM     66  CD  PRO d   1     -10.461  20.081 -18.854  0.00  0.00    -0.001 C 
ATOM     67  CB  PRO d   1     -12.281  20.861 -20.150  0.00  0.00    -0.036 C 
ATOM     68  H43 PRO d   1     -11.299  22.805 -20.245  0.00  0.00     0.087 H 
ATOM     69  CG  PRO d   1     -11.792  19.705 -19.375  0.00  0.00    -0.048 C 
ATOM     70  H44 PRO d   1     -11.956  20.786 -21.198  0.00  0.00     0.036 H 
ATOM     71  H45 PRO d   1     -13.379  20.913 -20.110  0.00  0.00     0.036 H 
ATOM     72  H46 PRO d   1     -11.710  18.820 -20.023  0.00  0.00     0.035 H 
ATOM     73  H47 PRO d   1     -12.478  19.488 -18.543  0.00  0.00     0.035 H 
ATOM     74  H48 PRO d   1     -10.282  19.625 -17.869  0.00  0.00     0.064 H 
ATOM     75  H49 PRO d   1      -9.666  19.775 -19.550  0.00  0.00     0.064 H 
BRANCH  65  76
ATOM     76  C   PRO d   1     -12.694  22.821 -18.607  0.00  0.00     0.241 C 
ATOM     77  O   PRO d   1     -12.814  22.537 -17.407  0.00  0.00    -0.271 OA
ATOM     78  N   GLY d   1     -13.426  23.752 -19.225  0.00  0.00    -0.349 N 
ATOM     79  H50 GLY d   1     -13.156  24.037 -20.145  0.00  0.00     0.163 HD
BRANCH  78  80
ATOM     80  CA  GLY d   1     -14.613  24.380 -18.617  0.00  0.00     0.075 C 
ATOM     81  H51 GLY d   1     -15.111  25.002 -19.375  0.00  0.00     0.080 H 
ATOM     82  H52 GLY d   1     -14.287  25.014 -17.779  0.00  0.00     0.080 H 
BRANCH  80  83
ATOM     83  C   GLY d   1     -15.609  23.356 -18.096  0.00  0.00     0.191 C 
ATOM     84  O   GLY d   1     -16.214  23.517 -17.023  0.00  0.00    -0.647 OA
ATOM     85  OXT GLY d   1     -15.827  22.311 -18.720  0.00  0.00    -0.647 OA
ENDBRANCH  80  83
ENDBRANCH  78  80
ENDBRANCH  65  76
ENDBRANCH  60  62
BRANCH  60  86
ATOM     86  CB  LEU d   1      -8.809  21.110 -16.029  0.00  0.00    -0.035 C 
ATOM     87  H34 LEU d   1      -9.823  20.686 -16.079  0.00  0.00     0.037 H 
ATOM     88  H35 LEU d   1      -8.803  21.966 -15.338  0.00  0.00     0.037 H 
BRANCH  86  89
ATOM     89  CG  LEU d   1      -7.894  20.031 -15.423  0.00  0.00    -0.059 C 
ATOM     90  H36 LEU d   1      -6.874  20.437 -15.361  0.00  0.00     0.038 H 
BRANCH  89  91
ATOM     91  CD1 LEU d   1      -8.372  19.676 -14.006  0.00  0.00    -0.073 C 
ATOM     92  H37 LEU d   1      -7.714  18.905 -13.579  0.00  0.00     0.028 H 
ATOM     93  H38 LEU d   1      -9.403  19.294 -14.052  0.00  0.00     0.028 H 
ATOM     94  H39 LEU d   1      -8.342  20.575 -13.373  0.00  0.00     0.028 H 
ENDBRANCH  89  91
BRANCH  89  95
ATOM     95  CD2 LEU d   1      -7.859  18.752 -16.295  0.00  0.00    -0.073 C 
ATOM     96  H40 LEU d   1      -7.517  19.009 -17.308  0.00  0.00     0.028 H 
ATOM     97  H41 LEU d   1      -8.868  18.317 -16.348  0.00  0.00     0.028 H 
ATOM     98  H42 LEU d   1      -7.168  18.022 -15.848  0.00  0.00     0.028 H 
ENDBRANCH  89  95
ENDBRANCH  86  89
ENDBRANCH  60  86
ENDBRANCH  58  60
ENDBRANCH  54  56
BRANCH  54  99
ATOM     99  CB  ASP d   1      -3.756  23.198 -18.035  0.00  0.00     0.043 C 
ATOM    100  H30 ASP d   1      -3.319  22.495 -17.311  0.00  0.00     0.052 H 
ATOM    101  H31 ASP d   1      -3.160  24.122 -18.054  0.00  0.00     0.052 H 
BRANCH  99 102
ATOM    102  CG  ASP d   1      -3.717  22.564 -19.415  0.00  0.00     0.175 C 
ATOM    103  OD1 ASP d   1      -2.840  21.698 -19.629  0.00  0.00    -0.648 OA
ATOM    104  OD2 ASP d   1      -4.574  22.909 -20.269  0.00  0.00    -0.648 OA
ENDBRANCH  99 102
ENDBRANCH  54  99
ENDBRANCH  52  54
ENDBRANCH   1  50
BRANCH   1 105
ATOM    105  CB  GLU d   1      -7.166  25.609 -13.807  0.00  0.00    -0.029 C 
ATOM    106  H24 GLU d   1      -8.052  25.986 -14.339  0.00  0.00     0.037 H 
ATOM    107  H25 GLU d   1      -7.042  26.161 -12.864  0.00  0.00     0.037 H 
BRANCH 105 108
ATOM    108  CG  GLU d   1      -7.393  24.127 -13.476  0.00  0.00     0.018 C 
ATOM    109  H26 GLU d   1      -6.614  23.800 -12.771  0.00  0.00     0.049 H 
ATOM    110  H27 GLU d   1      -7.316  23.542 -14.405  0.00  0.00     0.049 H 
BRANCH 108 111
ATOM    111  CD  GLU d   1      -8.767  23.870 -12.845  0.00  0.00     0.172 C 
ATOM    112  OE1 GLU d   1      -9.643  24.763 -12.928  0.00  0.00    -0.648 OA
ATOM    113  OE2 GLU d   1      -8.958  22.782 -12.249  0.00  0.00    -0.648 OA
ENDBRANCH 108 111
ENDBRANCH 105 108
ENDBRANCH   1 105
TORSDOF 28
