REMARK  9 active torsions:
REMARK  status: ('A' for Active; 'I' for Inactive)
REMARK    1  A    between atoms: S1_1  and  N1_4 
REMARK    2  A    between atoms: S1_1  and  C1_5 
REMARK    3  A    between atoms: C4_8  and  N2_11 
REMARK    4  A    between atoms: N2_11  and  C7_12 
REMARK    5  A    between atoms: C8_13  and  O4_19 
REMARK    6  A    between atoms: C9_14  and  O5_20 
REMARK    7  A    between atoms: C10_15  and  O6_21 
REMARK    8  A    between atoms: C11_16  and  C12_17 
REMARK    9  A    between atoms: C12_17  and  O7_22 
ROOT
ATOM      1  C7  BO1 d   1      -3.859   6.512  13.101  0.00  0.00     0.131 C 
ATOM      2  C8  BO1 d   1      -2.834   7.308  12.291  0.00  0.00     0.104 C 
ATOM      3  C9  BO1 d   1      -3.422   8.677  11.938  0.00  0.00     0.091 C 
ATOM      4  C10 BO1 d   1      -4.674   8.471  11.112  0.00  0.00     0.089 C 
ATOM      5  C11 BO1 d   1      -5.697   7.653  11.944  0.00  0.00     0.088 C 
ATOM      6  O3  BO1 d   1      -5.107   6.368  12.324  0.00  0.00    -0.354 OA
ATOM      7  H8  BO1 d   1      -4.078   7.059  14.030  0.00  0.00     0.122 H 
ATOM      8  H9  BO1 d   1      -2.589   6.770  11.364  0.00  0.00     0.093 H 
ATOM      9  H10 BO1 d   1      -3.671   9.226  12.858  0.00  0.00     0.091 H 
ATOM     10  H11 BO1 d   1      -4.422   7.922  10.193  0.00  0.00     0.091 H 
ATOM     11  H12 BO1 d   1      -5.940   8.225  12.852  0.00  0.00     0.090 H 
ENDROOT
BRANCH   1  12
ATOM     12  N2  BO1 d   1      -3.350   5.231  13.436  0.00  0.00    -0.362 N 
ATOM     13  H7  BO1 d   1      -2.407   5.000  13.092  0.00  0.00     0.162 HD
BRANCH  12  14
ATOM     14  C4  BO1 d   1      -4.003   4.258  14.184  0.00  0.00     0.030 A 
ATOM     15  C3  BO1 d   1      -5.405   4.322  14.503  0.00  0.00    -0.056 A 
ATOM     16  C2  BO1 d   1      -6.008   3.322  15.259  0.00  0.00    -0.058 A 
ATOM     17  H4  BO1 d   1      -5.997   5.159  14.150  0.00  0.00     0.087 H 
ATOM     18  C1  BO1 d   1      -5.242   2.224  15.726  0.00  0.00     0.079 A 
ATOM     19  H3  BO1 d   1      -7.065   3.382  15.491  0.00  0.00     0.086 H 
ATOM     20  C6  BO1 d   1      -3.866   2.156  15.416  0.00  0.00    -0.058 A 
ATOM     21  C5  BO1 d   1      -3.260   3.149  14.664  0.00  0.00    -0.056 A 
ATOM     22  H6  BO1 d   1      -3.277   1.317  15.770  0.00  0.00     0.086 H 
ATOM     23  H5  BO1 d   1      -2.202   3.078  14.439  0.00  0.00     0.087 H 
BRANCH  18  24
ATOM     24  S1  BO1 d   1      -5.972   0.950  16.687  0.00  0.00     0.256 S 
ATOM     25  O1  BO1 d   1      -5.426   1.086  18.008  0.00  0.00    -0.201 OA
ATOM     26  O2  BO1 d   1      -7.395   1.044  16.518  0.00  0.00    -0.201 OA
BRANCH  24  27
ATOM     27  N1  BO1 d   1      -5.487  -0.462  16.114  0.00  0.00    -0.324 N 
ATOM     28  H1  BO1 d   1      -4.518  -0.708  16.146  0.00  0.00     0.169 HD
ATOM     29  H2  BO1 d   1      -6.152  -1.099  15.724  0.00  0.00     0.169 HD
ENDBRANCH  24  27
ENDBRANCH  18  24
ENDBRANCH  12  14
ENDBRANCH   1  12
BRANCH   2  30
ATOM     30  O4  BO1 d   1      -1.655   7.439  13.093  0.00  0.00    -0.389 OA
ATOM     31  H15 BO1 d   1      -1.871   7.893  13.899  0.00  0.00     0.210 HD
ENDBRANCH   2  30
BRANCH   3  32
ATOM     32  O5  BO1 d   1      -2.459   9.414  11.185  0.00  0.00    -0.390 OA
ATOM     33  H16 BO1 d   1      -2.822  10.260  10.950  0.00  0.00     0.210 HD
ENDBRANCH   3  32
BRANCH   5  34
ATOM     34  C12 BO1 d   1      -6.970   7.373  11.197  0.00  0.00     0.043 C 
ATOM     35  H13 BO1 d   1      -7.356   8.313  10.776  0.00  0.00     0.078 H 
ATOM     36  H14 BO1 d   1      -7.711   6.950  11.891  0.00  0.00     0.078 H 
BRANCH  34  37
ATOM     37  O7  BO1 d   1      -6.737   6.448  10.141  0.00  0.00    -0.398 OA
ATOM     38  H18 BO1 d   1      -7.551   6.283   9.681  0.00  0.00     0.209 HD
ENDBRANCH  34  37
ENDBRANCH   5  34
BRANCH   4  39
ATOM     39  O6  BO1 d   1      -5.243   9.739  10.768  0.00  0.00    -0.390 OA
ATOM     40  H17 BO1 d   1      -6.031   9.603  10.256  0.00  0.00     0.210 HD
ENDBRANCH   4  39
TORSDOF 9
