REMARK  11 active torsions:
REMARK  status: ('A' for Active; 'I' for Inactive)
REMARK    1  A    between atoms: O3B_8  and  PG_1 
REMARK    2  A    between atoms: PB_5  and  O3B_8 
REMARK    3  A    between atoms: O3A_12  and  PB_5 
REMARK    4  A    between atoms: PA_9  and  O3A_12 
REMARK    5  A    between atoms: O5'_23  and  PA_9 
REMARK    6  A    between atoms: C1'_31  and  N9_13 
REMARK    7  A    between atoms: C6_17  and  N6_18 
REMARK    8  A    between atoms: C5'_24  and  O5'_23 
REMARK    9  A    between atoms: C4'_25  and  C5'_24 
REMARK   10  A    between atoms: C3'_27  and  O3'_28 
REMARK   11  A    between atoms: C2'_29  and  O2'_30 
ROOT
ATOM      1  C4' ATP d   1     110.151  51.973  14.736  0.00  0.00     0.089 C 
ATOM      2  O4' ATP d   1     109.195  52.979  14.293  0.00  0.00    -0.353 OA
ATOM      3  C3' ATP d   1     111.430  52.146  13.857  0.00  0.00     0.091 C 
ATOM      4  C2' ATP d   1     111.328  53.585  13.366  0.00  0.00     0.105 C 
ATOM      5  C1' ATP d   1     109.814  53.798  13.262  0.00  0.00     0.139 C 
ATOM      6  H7  ATP d   1     109.740  50.963  14.589  0.00  0.00     0.090 H 
ATOM      7  H8  ATP d   1     112.338  52.013  14.463  0.00  0.00     0.091 H 
ATOM      8  H10 ATP d   1     111.752  54.270  14.115  0.00  0.00     0.093 H 
ATOM      9  H12 ATP d   1     109.463  53.477  12.270  0.00  0.00     0.122 H 
ENDROOT
BRANCH   1  10
ATOM     10  C5' ATP d   1     110.424  52.194  16.228  0.00  0.00     0.058 C 
ATOM     11  H5  ATP d   1     111.243  52.919  16.342  0.00  0.00     0.079 H 
ATOM     12  H6  ATP d   1     109.516  52.589  16.707  0.00  0.00     0.079 H 
BRANCH  10  13
ATOM     13  O5' ATP d   1     110.791  50.969  16.858  0.00  0.00    -0.287 OA
BRANCH  13  14
ATOM     14  PA  ATP d   1     112.266  51.121  17.534  0.00  0.00     0.417 P 
ATOM     15  O1A ATP d   1     112.876  52.445  17.236  0.00  0.00    -0.624 OA
ATOM     16  O2A ATP d   1     112.115  50.984  19.135  0.00  0.00    -0.624 OA
BRANCH  14  17
ATOM     17  O3A ATP d   1     113.229  49.963  16.927  0.00  0.00    -0.180 OA
BRANCH  17  18
ATOM     18  PB  ATP d   1     112.966  48.553  17.689  0.00  0.00     0.428 P 
ATOM     19  O1B ATP d   1     113.667  48.576  18.999  0.00  0.00    -0.624 OA
ATOM     20  O2B ATP d   1     113.579  47.362  16.791  0.00  0.00    -0.624 OA
BRANCH  18  21
ATOM     21  O3B ATP d   1     111.362  48.312  17.874  0.00  0.00    -0.173 OA
BRANCH  21  22
ATOM     22  PG  ATP d   1     111.031  47.597  19.299  0.00  0.00     0.431 P 
ATOM     23  O1G ATP d   1     109.647  47.051  19.251  0.00  0.00    -0.616 OA
ATOM     24  O2G ATP d   1     112.065  46.390  19.574  0.00  0.00    -0.616 OA
ATOM     25  O3G ATP d   1     111.146  48.687  20.481  0.00  0.00    -0.616 OA
ENDBRANCH  21  22
ENDBRANCH  18  21
ENDBRANCH  17  18
ENDBRANCH  14  17
ENDBRANCH  13  14
ENDBRANCH  10  13
ENDBRANCH   1  10
BRANCH   3  26
ATOM     26  O3' ATP d   1     111.448  51.195  12.778  0.00  0.00    -0.390 OA
ATOM     27  H9  ATP d   1     110.682  51.324  12.231  0.00  0.00     0.210 HD
ENDBRANCH   3  26
BRANCH   5  28
ATOM     28  N9  ATP d   1     109.463  55.203  13.460  0.00  0.00    -0.294 N 
ATOM     29  C8  ATP d   1     110.034  56.085  14.349  0.00  0.00     0.071 A 
ATOM     30  N7  ATP d   1     109.472  57.247  14.247  0.00  0.00    -0.236 NA
ATOM     31  H1  ATP d   1     110.841  55.841  15.038  0.00  0.00     0.144 H 
ATOM     32  C5  ATP d   1     108.507  57.195  13.291  0.00  0.00     0.149 A 
ATOM     33  C6  ATP d   1     107.580  58.123  12.742  0.00  0.00     0.155 A 
ATOM     34  C4  ATP d   1     108.493  55.874  12.778  0.00  0.00     0.167 A 
ATOM     35  N1  ATP d   1     106.735  57.704  11.765  0.00  0.00    -0.222 NA
ATOM     36  C2  ATP d   1     106.757  56.445  11.312  0.00  0.00     0.091 A 
ATOM     37  N3  ATP d   1     107.615  55.544  11.803  0.00  0.00    -0.222 NA
ATOM     38  H4  ATP d   1     106.066  56.149  10.531  0.00  0.00     0.146 H 
BRANCH  33  39
ATOM     39  N6  ATP d   1     107.544  59.433  13.197  0.00  0.00    -0.382 N 
ATOM     40  H2  ATP d   1     106.870  60.100  12.795  0.00  0.00     0.157 HD
ATOM     41  H3  ATP d   1     108.192  59.739  13.937  0.00  0.00     0.157 HD
ENDBRANCH  33  39
ENDBRANCH   5  28
BRANCH   4  42
ATOM     42  O2' ATP d   1     112.018  53.801  12.130  0.00  0.00    -0.388 OA
ATOM     43  H11 ATP d   1     111.648  53.239  11.460  0.00  0.00     0.210 HD
ENDBRANCH   4  42
TORSDOF 11
