REMARK  9 active torsions:
REMARK  status: ('A' for Active; 'I' for Inactive)
REMARK    1  A    between atoms: O3A_8  and  PB_1 
REMARK    2  A    between atoms: PA_5  and  O3A_8 
REMARK    3  A    between atoms: O5'_19  and  PA_5 
REMARK    4  A    between atoms: C1'_27  and  N9_9 
REMARK    5  A    between atoms: C6_13  and  N6_14 
REMARK    6  A    between atoms: C5'_20  and  O5'_19 
REMARK    7  A    between atoms: C4'_21  and  C5'_20 
REMARK    8  A    between atoms: C3'_23  and  O3'_24 
REMARK    9  A    between atoms: C2'_25  and  O2'_26 
ROOT
ATOM      1  C4' ADP d   1     109.965  51.980  14.547  0.00  0.00     0.089 C 
ATOM      2  O4' ADP d   1     108.960  52.999  14.219  0.00  0.00    -0.353 OA
ATOM      3  C3' ADP d   1     111.170  52.206  13.597  0.00  0.00     0.091 C 
ATOM      4  C2' ADP d   1     110.999  53.664  13.167  0.00  0.00     0.105 C 
ATOM      5  C1' ADP d   1     109.477  53.825  13.130  0.00  0.00     0.139 C 
ATOM      6  H7  ADP d   1     109.546  50.976  14.383  0.00  0.00     0.090 H 
ATOM      7  H8  ADP d   1     112.121  52.076  14.133  0.00  0.00     0.091 H 
ATOM      8  H10 ADP d   1     111.431  54.336  13.923  0.00  0.00     0.093 H 
ATOM      9  H12 ADP d   1     109.084  53.466  12.167  0.00  0.00     0.122 H 
ENDROOT
BRANCH   5  10
ATOM     10  N9  ADP d   1     109.094  55.236  13.307  0.00  0.00    -0.294 N 
ATOM     11  C8  ADP d   1     109.603  56.137  14.217  0.00  0.00     0.071 A 
ATOM     12  N7  ADP d   1     109.023  57.292  14.078  0.00  0.00    -0.236 NA
ATOM     13  H1  ADP d   1     110.379  55.914  14.947  0.00  0.00     0.144 H 
ATOM     14  C5  ADP d   1     108.108  57.217  13.082  0.00  0.00     0.149 A 
ATOM     15  C6  ADP d   1     107.192  58.126  12.481  0.00  0.00     0.155 A 
ATOM     16  C4  ADP d   1     108.149  55.888  12.571  0.00  0.00     0.167 A 
ATOM     17  N1  ADP d   1     106.405  57.684  11.467  0.00  0.00    -0.222 NA
ATOM     18  C2  ADP d   1     106.476  56.419  11.021  0.00  0.00     0.091 A 
ATOM     19  N3  ADP d   1     107.328  55.533  11.558  0.00  0.00    -0.222 NA
ATOM     20  H4  ADP d   1     105.830  56.107  10.208  0.00  0.00     0.146 H 
BRANCH  15  21
ATOM     21  N6  ADP d   1     107.102  59.435  12.928  0.00  0.00    -0.382 N 
ATOM     22  H2  ADP d   1     106.436  60.085  12.487  0.00  0.00     0.157 HD
ATOM     23  H3  ADP d   1     107.701  59.757  13.701  0.00  0.00     0.157 HD
ENDBRANCH  15  21
ENDBRANCH   5  10
BRANCH   4  24
ATOM     24  O2' ADP d   1     111.625  53.943  11.917  0.00  0.00    -0.388 OA
ATOM     25  H11 ADP d   1     111.243  53.393  11.243  0.00  0.00     0.210 HD
ENDBRANCH   4  24
BRANCH   1  26
ATOM     26  C5' ADP d   1     110.394  52.111  16.013  0.00  0.00     0.058 C 
ATOM     27  H5  ADP d   1     111.474  52.315  16.056  0.00  0.00     0.079 H 
ATOM     28  H6  ADP d   1     109.845  52.944  16.477  0.00  0.00     0.079 H 
BRANCH  26  29
ATOM     29  O5' ADP d   1     110.116  50.912  16.729  0.00  0.00    -0.287 OA
BRANCH  29  30
ATOM     30  PA  ADP d   1     111.490  50.356  17.399  0.00  0.00     0.418 P 
ATOM     31  O1A ADP d   1     111.108  49.490  18.539  0.00  0.00    -0.624 OA
ATOM     32  O2A ADP d   1     112.417  51.567  17.937  0.00  0.00    -0.624 OA
BRANCH  30  33
ATOM     33  O3A ADP d   1     112.311  49.515  16.273  0.00  0.00    -0.173 OA
BRANCH  33  34
ATOM     34  PB  ADP d   1     113.246  48.366  16.949  0.00  0.00     0.431 P 
ATOM     35  O1B ADP d   1     114.238  48.989  17.861  0.00  0.00    -0.616 OA
ATOM     36  O2B ADP d   1     112.336  47.316  17.772  0.00  0.00    -0.616 OA
ATOM     37  O3B ADP d   1     114.020  47.576  15.778  0.00  0.00    -0.616 OA
ENDBRANCH  33  34
ENDBRANCH  30  33
ENDBRANCH  29  30
ENDBRANCH  26  29
ENDBRANCH   1  26
BRANCH   3  38
ATOM     38  O3' ADP d   1     111.127  51.282  12.501  0.00  0.00    -0.390 OA
ATOM     39  H9  ADP d   1     110.322  51.408  12.013  0.00  0.00     0.210 HD
ENDBRANCH   3  38
TORSDOF 9
