REMARK  3 active torsions:
REMARK  status: ('A' for Active; 'I' for Inactive)
REMARK    1  A    between atoms: S1_1  and  N1_4 
REMARK    2  A    between atoms: C1_8  and  S1_1 
REMARK    3  A    between atoms: C2_9  and  N4_10 
ROOT
ATOM      1  N2  1SA d   1      -3.805   2.379  15.371  0.00  0.00    -0.151 NA
ATOM      2  N3  1SA d   1      -3.552   3.473  14.583  0.00  0.00    -0.255 N 
ATOM      3  S2  1SA d   1      -6.092   3.503  14.942  0.00  0.00    -0.018 SA
ATOM      4  C1  1SA d   1      -5.112   2.198  15.531  0.00  0.00     0.235 C 
ATOM      5  C2  1SA d   1      -4.621   4.231  14.425  0.00  0.00     0.161 C 
ATOM      6  H3  1SA d   1      -2.634   3.679  14.163  0.00  0.00     0.191 HD
ENDROOT
BRANCH   4   7
ATOM      7  S1  1SA d   1      -5.809   0.948  16.574  0.00  0.00     0.282 S 
ATOM      8  O1  1SA d   1      -7.236   1.070  16.450  0.00  0.00    -0.199 OA
ATOM      9  O2  1SA d   1      -5.372   1.173  17.928  0.00  0.00    -0.199 OA
BRANCH   7  10
ATOM     10  N1  1SA d   1      -5.334  -0.461  16.085  0.00  0.00    -0.323 N 
ATOM     11  H1  1SA d   1      -5.558  -0.771  15.161  0.00  0.00     0.169 HD
ATOM     12  H2  1SA d   1      -4.807  -1.051  16.697  0.00  0.00     0.169 HD
ENDBRANCH   7  10
ENDBRANCH   4   7
BRANCH   5  13
ATOM     13  N4  1SA d   1      -4.585   5.349  13.681  0.00  0.00    -0.378 N 
ATOM     14  H4  1SA d   1      -5.433   5.923  13.573  0.00  0.00     0.158 HD
ATOM     15  H5  1SA d   1      -3.709   5.632  13.218  0.00  0.00     0.158 HD
ENDBRANCH   5  13
TORSDOF 3
