REMARK  16 active torsions:
REMARK  status: ('A' for Active; 'I' for Inactive)
REMARK    1  A    between atoms: C2_2  and  N1_1 
REMARK    2  A    between atoms: S8_8  and  C5_5 
REMARK    3  A    between atoms: N11_11  and  S8_8 
REMARK    4  A    between atoms: N11_11  and  C12_12 
REMARK    5  A    between atoms: C16_16  and  N11_11 
REMARK    6  A    between atoms: C12_12  and  C13_13 
REMARK    7  A    between atoms: C13_13  and  C14_14 
REMARK    8  A    between atoms: C13_13  and  C15_15 
REMARK    9  A    between atoms: C17_17  and  C16_16 
REMARK   10  A    between atoms: C17_17  and  O18_18 
REMARK   11  A    between atoms: C19_19  and  C17_17 
REMARK   12  A    between atoms: C19_19  and  N20_20 
REMARK   13  A    between atoms: C32_32  and  C19_19 
REMARK       I    between atoms: N20_20  and  C21_21 
REMARK   14  A    between atoms: C21_21  and  O23_23 
REMARK   15  A    between atoms: O23_23  and  C24_24 
REMARK   16  A    between atoms: C38_38  and  C32_32 
ROOT
ATOM      1  C19 017 d   1       2.736   7.297  37.868  0.00  0.00     0.044 C 
ATOM      2  H20 017 d   1       2.444   8.350  37.742  0.00  0.00     0.077 H 
ENDROOT
BRANCH   1   3
ATOM      3  C17 017 d   1       1.498   6.428  37.559  0.00  0.00     0.071 C 
ATOM      4  H18 017 d   1       0.765   6.612  38.359  0.00  0.00     0.088 H 
BRANCH   3   5
ATOM      5  C16 017 d   1       0.805   6.734  36.231  0.00  0.00     0.031 C 
ATOM      6  H16 017 d   1       1.550   6.699  35.423  0.00  0.00     0.069 H 
ATOM      7  H17 017 d   1       0.031   5.974  36.049  0.00  0.00     0.069 H 
BRANCH   5   8
ATOM      8  N11 017 d   1       0.174   8.066  36.243  0.00  0.00    -0.304 N 
BRANCH   8   9
ATOM      9  S8  017 d   1       0.789   9.259  35.252  0.00  0.00     0.260 S 
ATOM     10  O9  017 d   1       2.231   9.068  35.195  0.00  0.00    -0.200 OA
ATOM     11  O10 017 d   1       0.287  10.461  35.781  0.00  0.00    -0.200 OA
BRANCH   9  12
ATOM     12  C5  017 d   1       0.198   9.066  33.628  0.00  0.00     0.079 A 
ATOM     13  C4  017 d   1       0.920   8.346  32.710  0.00  0.00    -0.058 A 
ATOM     14  C3  017 d   1       0.425   8.088  31.473  0.00  0.00    -0.056 A 
ATOM     15  H4  017 d   1       1.903   7.977  32.977  0.00  0.00     0.086 H 
ATOM     16  C2  017 d   1      -0.828   8.549  31.102  0.00  0.00     0.025 A 
ATOM     17  H3  017 d   1       1.016   7.515  30.768  0.00  0.00     0.086 H 
ATOM     18  C7  017 d   1      -1.561   9.287  32.045  0.00  0.00    -0.056 A 
ATOM     19  C6  017 d   1      -1.048   9.549  33.314  0.00  0.00    -0.058 A 
ATOM     20  H6  017 d   1      -2.544   9.660  31.781  0.00  0.00     0.086 H 
ATOM     21  H5  017 d   1      -1.619  10.121  34.036  0.00  0.00     0.086 H 
BRANCH  16  22
ATOM     22  N1  017 d   1      -1.294   8.262  29.830  0.00  0.00    -0.399 N 
ATOM     23  H1  017 d   1      -0.712   7.716  29.179  0.00  0.00     0.156 HD
ATOM     24  H2  017 d   1      -2.223   8.595  29.535  0.00  0.00     0.156 HD
ENDBRANCH  16  22
ENDBRANCH   9  12
ENDBRANCH   8   9
BRANCH   8  25
ATOM     25  C12 017 d   1      -1.291   8.019  36.391  0.00  0.00     0.008 C 
ATOM     26  H7  017 d   1      -1.686   7.261  35.699  0.00  0.00     0.066 H 
ATOM     27  H8  017 d   1      -1.699   9.006  36.126  0.00  0.00     0.066 H 
BRANCH  25  28
ATOM     28  C13 017 d   1      -1.750   7.673  37.790  0.00  0.00    -0.045 C 
ATOM     29  H9  017 d   1      -1.324   6.690  38.039  0.00  0.00     0.041 H 
BRANCH  28  30
ATOM     30  C14 017 d   1      -1.245   8.656  38.822  0.00  0.00    -0.072 C 
ATOM     31  H10 017 d   1      -1.606   8.360  39.818  0.00  0.00     0.028 H 
ATOM     32  H11 017 d   1      -1.617   9.663  38.582  0.00  0.00     0.028 H 
ATOM     33  H12 017 d   1      -0.145   8.660  38.817  0.00  0.00     0.028 H 
ENDBRANCH  28  30
BRANCH  28  34
ATOM     34  C15 017 d   1      -3.253   7.546  37.852  0.00  0.00    -0.072 C 
ATOM     35  H13 017 d   1      -3.592   6.826  37.092  0.00  0.00     0.028 H 
ATOM     36  H14 017 d   1      -3.712   8.527  37.659  0.00  0.00     0.028 H 
ATOM     37  H15 017 d   1      -3.550   7.192  38.850  0.00  0.00     0.028 H 
ENDBRANCH  28  34
ENDBRANCH  25  28
ENDBRANCH   8  25
ENDBRANCH   5   8
ENDBRANCH   3   5
BRANCH   3  38
ATOM     38  O18 017 d   1       1.862   5.046  37.591  0.00  0.00    -0.392 OA
ATOM     39  H19 017 d   1       2.453   4.859  36.871  0.00  0.00     0.210 HD
ENDBRANCH   3  38
ENDBRANCH   1   3
BRANCH   1  40
ATOM     40  N20 017 d   1       3.103   7.079  39.253  0.00  0.00    -0.329 N 
ATOM     41  C21 017 d   1       2.937   8.029  40.201  0.00  0.00     0.361 C 
ATOM     42  O22 017 d   1       2.528   9.200  40.072  0.00  0.00    -0.238 OA
ATOM     43  H21 017 d   1       3.492   6.196  39.517  0.00  0.00     0.165 HD
BRANCH  41  44
ATOM     44  O23 017 d   1       3.303   7.509  41.391  0.00  0.00    -0.296 OA
BRANCH  44  45
ATOM     45  C24 017 d   1       3.422   8.464  42.509  0.00  0.00     0.078 C 
ATOM     46  C25 017 d   1       2.976   7.643  43.778  0.00  0.00     0.048 C 
ATOM     47  O26 017 d   1       4.098   6.786  44.065  0.00  0.00    -0.358 OA
ATOM     48  H23 017 d   1       2.077   7.047  43.560  0.00  0.00     0.078 H 
ATOM     49  H24 017 d   1       2.773   8.315  44.625  0.00  0.00     0.078 H 
ATOM     50  C27 017 d   1       5.285   7.552  43.752  0.00  0.00     0.137 C 
ATOM     51  O28 017 d   1       6.125   6.730  43.008  0.00  0.00    -0.361 OA
ATOM     52  C31 017 d   1       4.881   8.732  42.840  0.00  0.00     0.023 C 
ATOM     53  H25 017 d   1       5.780   7.909  44.667  0.00  0.00     0.129 H 
ATOM     54  C29 017 d   1       6.267   7.206  41.649  0.00  0.00     0.023 C 
ATOM     55  C30 017 d   1       5.874   8.670  41.700  0.00  0.00    -0.035 C 
ATOM     56  H26 017 d   1       5.600   6.650  40.974  0.00  0.00     0.074 H 
ATOM     57  H27 017 d   1       7.307   7.097  41.308  0.00  0.00     0.074 H 
ATOM     58  H28 017 d   1       5.407   8.985  40.755  0.00  0.00     0.037 H 
ATOM     59  H29 017 d   1       6.749   9.305  41.906  0.00  0.00     0.037 H 
ATOM     60  H30 017 d   1       4.969   9.702  43.351  0.00  0.00     0.051 H 
ATOM     61  H22 017 d   1       2.844   9.384  42.336  0.00  0.00     0.088 H 
ENDBRANCH  44  45
ENDBRANCH  41  44
ENDBRANCH   1  40
BRANCH   1  62
ATOM     62  C32 017 d   1       3.956   7.047  36.958  0.00  0.00    -0.020 C 
ATOM     63  H31 017 d   1       3.679   7.260  35.915  0.00  0.00     0.043 H 
ATOM     64  H32 017 d   1       4.264   5.995  37.048  0.00  0.00     0.043 H 
BRANCH  62  65
ATOM     65  C38 017 d   1       5.124   7.949  37.362  0.00  0.00    -0.056 A 
ATOM     66  C33 017 d   1       6.239   7.367  37.969  0.00  0.00    -0.077 A 
ATOM     67  C34 017 d   1       7.321   8.175  38.350  0.00  0.00    -0.082 A 
ATOM     68  H33 017 d   1       6.268   6.298  38.145  0.00  0.00     0.084 H 
ATOM     69  C35 017 d   1       7.262   9.516  38.128  0.00  0.00    -0.083 A 
ATOM     70  H34 017 d   1       8.195   7.735  38.816  0.00  0.00     0.083 H 
ATOM     71  C36 017 d   1       6.149  10.080  37.521  0.00  0.00    -0.082 A 
ATOM     72  H35 017 d   1       8.090  10.148  38.427  0.00  0.00     0.083 H 
ATOM     73  C37 017 d   1       5.091   9.316  37.147  0.00  0.00    -0.077 A 
ATOM     74  H36 017 d   1       6.124  11.149  37.342  0.00  0.00     0.083 H 
ATOM     75  H37 017 d   1       4.225   9.774  36.683  0.00  0.00     0.084 H 
ENDBRANCH  62  65
ENDBRANCH   1  62
TORSDOF 16
