REMARK  5 active torsions:
REMARK  status: ('A' for Active; 'I' for Inactive)
REMARK    1  A    between atoms: C9_2  and  C6_3 
REMARK       I    between atoms: C9_2  and  N3_15 
REMARK       I    between atoms: N1_7  and  C21_8 
REMARK       I    between atoms: C21_8  and  N2_10 
REMARK    2  A    between atoms: N2_10  and  O4_11 
REMARK    3  A    between atoms: N3_15  and  C12_16 
REMARK    4  A    between atoms: C12_16  and  C13_17 
REMARK    5  A    between atoms: C17_20  and  C18_23 
ROOT
ATOM      1  O6  37A d   1       0.533  -5.841   5.595  0.00  0.00    -0.271 OA
ATOM      2  C9  37A d   1       1.511  -6.310   5.020  0.00  0.00     0.249 C 
ATOM      3  N3  37A d   1       2.770  -6.133   5.425  0.00  0.00    -0.355 N 
ATOM      4  H10 37A d   1       3.499  -6.557   4.887  0.00  0.00     0.162 HD
ENDROOT
BRANCH   3   5
ATOM      5  C12 37A d   1       3.151  -5.363   6.600  0.00  0.00     0.019 C 
ATOM      6  H11 37A d   1       2.310  -5.338   7.308  0.00  0.00     0.071 H 
ATOM      7  H12 37A d   1       3.405  -4.337   6.297  0.00  0.00     0.071 H 
BRANCH   5   8
ATOM      8  C13 37A d   1       4.356  -6.003   7.271  0.00  0.00    -0.040 A 
ATOM      9  C15 37A d   1       4.301  -6.444   8.597  0.00  0.00    -0.074 A 
ATOM     10  C19 37A d   1       5.425  -7.021   9.191  0.00  0.00    -0.072 A 
ATOM     11  H13 37A d   1       3.384  -6.338   9.165  0.00  0.00     0.084 H 
ATOM     12  C17 37A d   1       6.619  -7.167   8.475  0.00  0.00    -0.026 A 
ATOM     13  H14 37A d   1       5.372  -7.360  10.219  0.00  0.00     0.084 H 
ATOM     14  C16 37A d   1       6.668  -6.729   7.151  0.00  0.00    -0.072 A 
ATOM     15  C14 37A d   1       5.548  -6.144   6.562  0.00  0.00    -0.074 A 
ATOM     16  H15 37A d   1       7.581  -6.844   6.578  0.00  0.00     0.084 H 
ATOM     17  H16 37A d   1       5.605  -5.794   5.538  0.00  0.00     0.084 H 
BRANCH  12  18
ATOM     18  C18 37A d   1       7.819  -7.803   9.107  0.00  0.00    -0.026 A 
ATOM     19  C11 37A d   1       9.119  -7.448   8.732  0.00  0.00    -0.072 A 
ATOM     20  C2  37A d   1      10.220  -8.062   9.332  0.00  0.00    -0.082 A 
ATOM     21  H17 37A d   1       9.273  -6.692   7.971  0.00  0.00     0.084 H 
ATOM     22  C4  37A d   1      10.031  -9.037  10.312  0.00  0.00    -0.083 A 
ATOM     23  H18 37A d   1      11.224  -7.781   9.036  0.00  0.00     0.083 H 
ATOM     24  C10 37A d   1       8.738  -9.399  10.687  0.00  0.00    -0.082 A 
ATOM     25  H21 37A d   1      10.886  -9.511  10.780  0.00  0.00     0.083 H 
ATOM     26  C20 37A d   1       7.638  -8.788  10.081  0.00  0.00    -0.072 A 
ATOM     27  H20 37A d   1       8.586 -10.155  11.449  0.00  0.00     0.083 H 
ATOM     28  H19 37A d   1       6.635  -9.081  10.369  0.00  0.00     0.084 H 
ENDBRANCH  12  18
ENDBRANCH   5   8
ENDBRANCH   3   5
BRANCH   2  29
ATOM     29  C6  37A d   1       1.327  -7.157   3.787  0.00  0.00     0.144 C 
ATOM     30  O2  37A d   1       2.577  -7.564   3.218  0.00  0.00    -0.342 OA
ATOM     31  C1  37A d   1       2.742  -6.918   1.947  0.00  0.00     0.148 C 
ATOM     32  C3  37A d   1       2.317  -7.859   0.833  0.00  0.00     0.045 C 
ATOM     33  O3  37A d   1       1.796  -5.864   1.935  0.00  0.00    -0.350 OA
ATOM     34  H9  37A d   1       3.772  -6.561   1.804  0.00  0.00     0.131 H 
ATOM     35  N1  37A d   1       1.030  -8.393   1.281  0.00  0.00    -0.325 N 
ATOM     36  H7  37A d   1       2.204  -7.314  -0.116  0.00  0.00     0.071 H 
ATOM     37  H8  37A d   1       3.051  -8.668   0.705  0.00  0.00     0.071 H 
ATOM     38  C7  37A d   1       0.011  -7.411   1.712  0.00  0.00     0.026 C 
ATOM     39  C21 37A d   1       0.853  -9.720   1.287  0.00  0.00     0.342 C 
ATOM     40  C5  37A d   1       0.686  -6.402   2.637  0.00  0.00     0.090 C 
ATOM     41  H3  37A d   1      -0.403  -6.893   0.834  0.00  0.00     0.068 H 
ATOM     42  H4  37A d   1      -0.799  -7.926   2.249  0.00  0.00     0.068 H 
ATOM     43  H2  37A d   1      -0.017  -5.629   2.980  0.00  0.00     0.090 H 
ATOM     44  O1  37A d   1       1.359 -10.416   0.414  0.00  0.00    -0.245 OA
ATOM     45  N2  37A d   1       0.118 -10.295   2.236  0.00  0.00    -0.219 N 
ATOM     46  H5  37A d   1      -0.246  -9.746   2.989  0.00  0.00     0.199 HD
ATOM     47  H1  37A d   1       0.720  -8.034   4.055  0.00  0.00     0.102 H 
BRANCH  45  48
ATOM     48  O4  37A d   1      -0.144 -11.666   2.179  0.00  0.00    -0.286 OA
ATOM     49  H6  37A d   1      -0.677 -11.917   2.924  0.00  0.00     0.244 HD
ENDBRANCH  45  48
ENDBRANCH   2  29
TORSDOF 5
