REMARK  8 active torsions:
REMARK  status: ('A' for Active; 'I' for Inactive)
REMARK    1  A    between atoms: C9_23  and  C1_1 
REMARK    2  A    between atoms: C28_10  and  C35_8 
REMARK    3  A    between atoms: C20_16  and  C24_15 
REMARK    4  A    between atoms: O16_18  and  N19_17 
REMARK    5  A    between atoms: C13_19  and  O16_18 
REMARK    6  A    between atoms: C12_20  and  C13_19 
REMARK    7  A    between atoms: O11_21  and  C12_20 
REMARK    8  A    between atoms: N10_22  and  O11_21 
ROOT
ATOM      1  C13 302 d   1       8.069  -1.148   1.875  0.00  0.00     0.070 C 
ATOM      2  H9  302 d   1       8.364  -2.096   2.349  0.00  0.00     0.081 H 
ATOM      3  H10 302 d   1       8.562  -1.059   0.896  0.00  0.00     0.081 H 
ENDROOT
BRANCH   1   4
ATOM      4  O16 302 d   1       8.460  -0.052   2.711  0.00  0.00    -0.255 OA
BRANCH   4   5
ATOM      5  N19 302 d   1       8.640   1.155   2.130  0.00  0.00    -0.146 NA
ATOM      6  C20 302 d   1       8.697   2.262   2.619  0.00  0.00     0.038 C 
ATOM      7  H8  302 d   1       8.522   1.996   3.660  0.00  0.00     0.119 H 
BRANCH   6   8
ATOM      8  C24 302 d   1       8.822   3.541   2.758  0.00  0.00    -0.017 A 
ATOM      9  C26 302 d   1       9.332   4.149   1.615  0.00  0.00    -0.071 A 
ATOM     10  C27 302 d   1       9.534   5.519   1.557  0.00  0.00    -0.066 A 
ATOM     11  H5  302 d   1       9.576   3.539   0.753  0.00  0.00     0.084 H 
ATOM     12  C28 302 d   1       9.232   6.303   2.663  0.00  0.00     0.040 A 
ATOM     13  H4  302 d   1       9.925   5.975   0.655  0.00  0.00     0.085 H 
ATOM     14  C29 302 d   1       8.720   5.709   3.826  0.00  0.00    -0.066 A 
ATOM     15  C30 302 d   1       8.509   4.321   3.876  0.00  0.00    -0.071 A 
ATOM     16  H6  302 d   1       8.486   6.323   4.689  0.00  0.00     0.085 H 
ATOM     17  H7  302 d   1       8.108   3.860   4.771  0.00  0.00     0.084 H 
BRANCH  12  18
ATOM     18  C35 302 d   1       9.479   7.780   2.563  0.00  0.00     0.209 C 
ATOM     19  O37 302 d   1       8.862   8.565   3.305  0.00  0.00    -0.644 OA
ATOM     20  O36 302 d   1      10.314   8.194   1.721  0.00  0.00    -0.644 OA
ENDBRANCH  12  18
ENDBRANCH   6   8
ENDBRANCH   4   5
ENDBRANCH   1   4
BRANCH   1  21
ATOM     21  C12 302 d   1       6.552  -1.119   1.688  0.00  0.00     0.070 C 
ATOM     22  H11 302 d   1       6.216  -0.072   1.682  0.00  0.00     0.081 H 
ATOM     23  H12 302 d   1       6.082  -1.650   2.529  0.00  0.00     0.081 H 
BRANCH  21  24
ATOM     24  O11 302 d   1       6.144  -1.741   0.464  0.00  0.00    -0.255 OA
BRANCH  24  25
ATOM     25  N10 302 d   1       6.295  -1.065  -0.698  0.00  0.00    -0.144 NA
ATOM     26  C9  302 d   1       5.872  -1.581  -1.765  0.00  0.00     0.054 C 
ATOM     27  H13 302 d   1       5.373  -2.549  -1.754  0.00  0.00     0.121 H 
BRANCH  26  28
ATOM     28  C1  302 d   1       6.065  -0.849  -3.028  0.00  0.00     0.061 A 
ATOM     29  C6  302 d   1       5.731  -1.437  -4.244  0.00  0.00     0.010 A 
ATOM     30  C5  302 d   1       5.938  -0.700  -5.402  0.00  0.00     0.251 A 
ATOM     31  H1  302 d   1       5.320  -2.445  -4.286  0.00  0.00     0.095 H 
ATOM     32  N4  302 d   1       6.471   0.532  -5.317  0.00  0.00    -0.275 N 
ATOM     33  O7  302 d   1       5.661  -1.159  -6.530  0.00  0.00    -0.268 OA
ATOM     34  C3  302 d   1       6.802   1.085  -4.136  0.00  0.00     0.327 A 
ATOM     35  H3  302 d   1       6.626   1.052  -6.157  0.00  0.00     0.173 HD
ATOM     36  N2  302 d   1       6.600   0.395  -2.994  0.00  0.00    -0.307 N 
ATOM     37  O8  302 d   1       7.297   2.230  -4.121  0.00  0.00    -0.247 OA
ATOM     38  H2  302 d   1       6.847   0.805  -2.116  0.00  0.00     0.170 HD
ENDBRANCH  26  28
ENDBRANCH  24  25
ENDBRANCH  21  24
ENDBRANCH   1  21
TORSDOF 8
