REMARK  2 active torsions:
REMARK  status: ('A' for Active; 'I' for Inactive)
REMARK    1  A    between atoms: C1_1  and  C2_4 
REMARK    2  A    between atoms: C2_4  and  C3_6 
ROOT
ATOM      1  C2  PYR d   1      61.658  76.109  27.110  0.00  0.00     0.223 C 
ATOM      2  O3  PYR d   1      60.973  77.131  26.687  0.00  0.00    -0.213 OA
ENDROOT
BRANCH   1   3
ATOM      3  C1  PYR d   1      63.035  76.262  27.331  0.00  0.00     0.216 C 
ATOM      4  O1  PYR d   1      63.811  75.251  27.592  0.00  0.00    -0.646 OA
ATOM      5  O2  PYR d   1      63.560  77.457  27.280  0.00  0.00    -0.646 OA
ENDBRANCH   1   3
BRANCH   1   6
ATOM      6  C3  PYR d   1      60.945  74.815  27.339  0.00  0.00    -0.032 C 
ATOM      7  H1  PYR d   1      59.878  74.937  27.100  0.00  0.00     0.032 H 
ATOM      8  H2  PYR d   1      61.053  74.518  28.393  0.00  0.00     0.032 H 
ATOM      9  H3  PYR d   1      61.379  74.038  26.693  0.00  0.00     0.032 H 
ENDBRANCH   1   6
TORSDOF 2
