REMARK  7 active torsions:
REMARK  status: ('A' for Active; 'I' for Inactive)
REMARK    1  A    between atoms: C3_2  and  C1_4 
REMARK    2  A    between atoms: C1_4  and  C7_5 
REMARK    3  A    between atoms: C7_5  and  P1_6 
REMARK    4  A    between atoms: P1_6  and  C6_9 
REMARK    5  A    between atoms: C6_9  and  C5_10 
REMARK    6  A    between atoms: C5_10  and  C4_12 
REMARK    7  A    between atoms: C4_12  and  C2_13 
ROOT
ATOM      1  P1  DHJ d   1      58.862  31.058  48.102  0.00  0.00     0.114 P 
ATOM      2  O6  DHJ d   1      59.721  30.520  49.220  0.00  0.00    -0.667 OA
ATOM      3  O7  DHJ d   1      59.230  30.835  46.695  0.00  0.00    -0.667 OA
ENDROOT
BRANCH   1   4
ATOM      4  C7  DHJ d   1      57.238  30.465  48.051  0.00  0.00     0.016 C 
ATOM      5  H3  DHJ d   1      56.686  31.178  47.422  0.00  0.00     0.049 H 
ATOM      6  H4  DHJ d   1      57.297  29.494  47.538  0.00  0.00     0.049 H 
BRANCH   4   7
ATOM      7  C1  DHJ d   1      56.473  30.260  49.102  0.00  0.00     0.024 C 
ATOM      8  H1  DHJ d   1      56.997  29.536  49.743  0.00  0.00     0.049 H 
ATOM      9  H2  DHJ d   1      56.388  31.222  49.629  0.00  0.00     0.049 H 
BRANCH   7  10
ATOM     10  C3  DHJ d   1      55.061  29.737  48.906  0.00  0.00     0.173 C 
ATOM     11  O2  DHJ d   1      54.434  29.533  47.816  0.00  0.00    -0.648 OA
ATOM     12  O4  DHJ d   1      54.528  29.483  49.959  0.00  0.00    -0.648 OA
ENDBRANCH   7  10
ENDBRANCH   4   7
ENDBRANCH   1   4
BRANCH   1  13
ATOM     13  C6  DHJ d   1      58.735  32.854  48.340  0.00  0.00     0.062 C 
ATOM     14  H5  DHJ d   1      58.824  33.104  49.407  0.00  0.00     0.060 H 
ATOM     15  H6  DHJ d   1      57.772  33.221  47.957  0.00  0.00     0.060 H 
BRANCH  13  16
ATOM     16  C5  DHJ d   1      59.867  33.464  47.568  0.00  0.00     0.146 C 
ATOM     17  O5  DHJ d   1      60.995  33.607  48.085  0.00  0.00    -0.297 OA
BRANCH  16  18
ATOM     18  C4  DHJ d   1      59.566  33.929  46.146  0.00  0.00     0.071 C 
ATOM     19  H7  DHJ d   1      59.611  35.028  46.111  0.00  0.00     0.060 H 
ATOM     20  H8  DHJ d   1      58.557  33.594  45.865  0.00  0.00     0.060 H 
BRANCH  18  21
ATOM     21  C2  DHJ d   1      60.581  33.354  45.147  0.00  0.00     0.179 C 
ATOM     22  O1  DHJ d   1      61.811  33.371  45.372  0.00  0.00    -0.648 OA
ATOM     23  O3  DHJ d   1      60.106  32.902  44.082  0.00  0.00    -0.648 OA
ENDBRANCH  18  21
ENDBRANCH  16  18
ENDBRANCH  13  16
ENDBRANCH   1  13
TORSDOF 7
