REMARK  19 active torsions:
REMARK  status: ('A' for Active; 'I' for Inactive)
REMARK    1  A    between atoms: C46_2  and  C47_3 
REMARK    2  A    between atoms: C46_2  and  C40_4 
REMARK    3  A    between atoms: C43_9  and  N24_10 
REMARK    4  A    between atoms: C29_15  and  C21_16 
REMARK       I    between atoms: C21_16  and  N20_18 
REMARK    5  A    between atoms: N20_18  and  C19_19 
REMARK    6  A    between atoms: C19_19  and  C32_20 
REMARK    7  A    between atoms: C19_19  and  C17_27 
REMARK    8  A    between atoms: C32_20  and  C38_21 
REMARK    9  A    between atoms: C17_27  and  O18_28 
REMARK   10  A    between atoms: C17_27  and  C16_29 
REMARK   11  A    between atoms: C16_29  and  N11_30 
REMARK   12  A    between atoms: N11_30  and  C12_31 
REMARK   13  A    between atoms: N11_30  and  S8_35 
REMARK   14  A    between atoms: C12_31  and  C13_32 
REMARK   15  A    between atoms: C13_32  and  C15_33 
REMARK   16  A    between atoms: C13_32  and  C14_34 
REMARK   17  A    between atoms: S8_35  and  C5_38 
REMARK   18  A    between atoms: C2_41  and  O19_42 
REMARK   19  A    between atoms: O19_42  and  C18_43 
ROOT
ATOM      1  C19 MUI d   1      19.500  28.809  14.284  0.00  0.00     0.042 C 
ATOM      2  H12 MUI d   1      19.366  29.760  13.748  0.00  0.00     0.077 H 
ENDROOT
BRANCH   1   3
ATOM      3  N20 MUI d   1      20.417  27.948  13.530  0.00  0.00    -0.351 N 
ATOM      4  C21 MUI d   1      21.150  28.367  12.496  0.00  0.00     0.249 C 
ATOM      5  O22 MUI d   1      21.220  29.531  12.115  0.00  0.00    -0.271 OA
ATOM      6  H11 MUI d   1      20.498  26.991  13.807  0.00  0.00     0.163 HD
BRANCH   4   7
ATOM      7  C29 MUI d   1      21.914  27.316  11.748  0.00  0.00     0.142 C 
ATOM      8  O28 MUI d   1      21.879  26.009  12.331  0.00  0.00    -0.287 OA
ATOM      9  C26 MUI d   1      21.561  25.066  11.288  0.00  0.00     0.368 C 
ATOM     10  N24 MUI d   1      21.233  25.727  10.197  0.00  0.00    -0.291 N 
ATOM     11  O27 MUI d   1      21.644  23.861  11.463  0.00  0.00    -0.238 OA
ATOM     12  C25 MUI d   1      21.201  27.164  10.395  0.00  0.00     0.038 C 
ATOM     13  H8  MUI d   1      20.168  27.538  10.444  0.00  0.00     0.069 H 
ATOM     14  H9  MUI d   1      21.744  27.690   9.596  0.00  0.00     0.069 H 
ATOM     15  H10 MUI d   1      22.958  27.639  11.623  0.00  0.00     0.102 H 
BRANCH  10  16
ATOM     16  C43 MUI d   1      21.033  25.170   8.922  0.00  0.00     0.039 A 
ATOM     17  C42 MUI d   1      20.315  25.901   7.972  0.00  0.00    -0.056 A 
ATOM     18  C41 MUI d   1      20.134  25.397   6.698  0.00  0.00    -0.067 A 
ATOM     19  H5  MUI d   1      19.899  26.867   8.235  0.00  0.00     0.087 H 
ATOM     20  C40 MUI d   1      20.671  24.163   6.334  0.00  0.00     0.009 A 
ATOM     21  H4  MUI d   1      19.567  25.969   5.972  0.00  0.00     0.085 H 
ATOM     22  C45 MUI d   1      21.403  23.438   7.264  0.00  0.00    -0.067 A 
ATOM     23  C44 MUI d   1      21.595  23.942   8.547  0.00  0.00    -0.056 A 
ATOM     24  H6  MUI d   1      21.826  22.478   6.991  0.00  0.00     0.085 H 
ATOM     25  H7  MUI d   1      22.184  23.380   9.262  0.00  0.00     0.087 H 
BRANCH  20  26
ATOM     26  C46 MUI d   1      20.479  23.632   4.943  0.00  0.00     0.155 C 
ATOM     27  O45 MUI d   1      20.885  22.511   4.642  0.00  0.00    -0.293 OA
BRANCH  26  28
ATOM     28  C47 MUI d   1      19.808  24.512   3.940  0.00  0.00    -0.017 C 
ATOM     29  H1  MUI d   1      19.527  25.463   4.416  0.00  0.00     0.038 H 
ATOM     30  H2  MUI d   1      18.906  24.012   3.559  0.00  0.00     0.038 H 
ATOM     31  H3  MUI d   1      20.498  24.710   3.106  0.00  0.00     0.038 H 
ENDBRANCH  26  28
ENDBRANCH  20  26
ENDBRANCH  10  16
ENDBRANCH   4   7
ENDBRANCH   1   3
BRANCH   1  32
ATOM     32  C32 MUI d   1      18.189  28.001  14.230  0.00  0.00    -0.020 C 
ATOM     33  H13 MUI d   1      17.365  28.611  14.628  0.00  0.00     0.043 H 
ATOM     34  H14 MUI d   1      18.295  27.089  14.835  0.00  0.00     0.043 H 
BRANCH  32  35
ATOM     35  C38 MUI d   1      17.888  27.620  12.785  0.00  0.00    -0.056 A 
ATOM     36  C37 MUI d   1      17.502  28.587  11.865  0.00  0.00    -0.077 A 
ATOM     37  C36 MUI d   1      17.260  28.231  10.539  0.00  0.00    -0.082 A 
ATOM     38  H15 MUI d   1      17.389  29.619  12.178  0.00  0.00     0.084 H 
ATOM     39  C35 MUI d   1      17.382  26.914  10.121  0.00  0.00    -0.083 A 
ATOM     40  H16 MUI d   1      16.973  28.994   9.825  0.00  0.00     0.083 H 
ATOM     41  C34 MUI d   1      17.772  25.941  11.034  0.00  0.00    -0.082 A 
ATOM     42  H17 MUI d   1      17.175  26.646   9.091  0.00  0.00     0.083 H 
ATOM     43  C33 MUI d   1      18.018  26.292  12.356  0.00  0.00    -0.077 A 
ATOM     44  H18 MUI d   1      17.884  24.911  10.716  0.00  0.00     0.083 H 
ATOM     45  H19 MUI d   1      18.315  25.528  13.065  0.00  0.00     0.084 H 
ENDBRANCH  32  35
ENDBRANCH   1  32
BRANCH   1  46
ATOM     46  C17 MUI d   1      19.975  29.155  15.695  0.00  0.00     0.067 C 
ATOM     47  H20 MUI d   1      21.023  29.484  15.634  0.00  0.00     0.088 H 
BRANCH  46  48
ATOM     48  O18 MUI d   1      19.906  28.015  16.560  0.00  0.00    -0.392 OA
ATOM     49  H21 MUI d   1      20.206  28.259  17.428  0.00  0.00     0.210 HD
ENDBRANCH  46  48
BRANCH  46  50
ATOM     50  C16 MUI d   1      19.137  30.299  16.285  0.00  0.00     0.019 C 
ATOM     51  H22 MUI d   1      19.417  30.453  17.338  0.00  0.00     0.061 H 
ATOM     52  H23 MUI d   1      18.070  30.040  16.223  0.00  0.00     0.061 H 
BRANCH  50  53
ATOM     53  N11 MUI d   1      19.388  31.547  15.520  0.00  0.00    -0.204 NA
BRANCH  53  54
ATOM     54  C12 MUI d   1      20.170  32.541  16.288  0.00  0.00    -0.004 C 
ATOM     55  H24 MUI d   1      19.802  32.563  17.324  0.00  0.00     0.058 H 
ATOM     56  H25 MUI d   1      20.038  33.532  15.830  0.00  0.00     0.058 H 
BRANCH  54  57
ATOM     57  C13 MUI d   1      21.662  32.189  16.295  0.00  0.00    -0.049 C 
ATOM     58  H26 MUI d   1      21.767  31.192  16.747  0.00  0.00     0.040 H 
BRANCH  57  59
ATOM     59  C15 MUI d   1      22.428  33.184  17.159  0.00  0.00    -0.072 C 
ATOM     60  H27 MUI d   1      23.497  32.924  17.158  0.00  0.00     0.028 H 
ATOM     61  H28 MUI d   1      22.043  33.148  18.189  0.00  0.00     0.028 H 
ATOM     62  H29 MUI d   1      22.297  34.198  16.754  0.00  0.00     0.028 H 
ENDBRANCH  57  59
BRANCH  57  63
ATOM     63  C14 MUI d   1      22.264  32.125  14.889  0.00  0.00    -0.072 C 
ATOM     64  H30 MUI d   1      21.699  31.403  14.281  0.00  0.00     0.028 H 
ATOM     65  H31 MUI d   1      23.315  31.807  14.954  0.00  0.00     0.028 H 
ATOM     66  H32 MUI d   1      22.210  33.119  14.422  0.00  0.00     0.028 H 
ENDBRANCH  57  63
ENDBRANCH  54  57
ENDBRANCH  53  54
BRANCH  53  67
ATOM     67  S8  MUI d   1      18.072  32.219  14.814  0.00  0.00     0.243 S 
ATOM     68  O10 MUI d   1      17.277  31.177  14.251  0.00  0.00    -0.206 OA
ATOM     69  O9  MUI d   1      18.621  33.052  13.769  0.00  0.00    -0.206 OA
BRANCH  67  70
ATOM     70  C5  MUI d   1      17.193  33.101  15.852  0.00  0.00     0.074 A 
ATOM     71  C6  MUI d   1      16.211  32.517  16.662  0.00  0.00    -0.058 A 
ATOM     72  C7  MUI d   1      15.476  33.289  17.576  0.00  0.00    -0.049 A 
ATOM     73  H33 MUI d   1      16.016  31.454  16.582  0.00  0.00     0.086 H 
ATOM     74  C2  MUI d   1      15.706  34.659  17.689  0.00  0.00     0.068 A 
ATOM     75  H34 MUI d   1      14.725  32.816  18.198  0.00  0.00     0.087 H 
ATOM     76  C3  MUI d   1      16.679  35.249  16.871  0.00  0.00    -0.049 A 
ATOM     77  C4  MUI d   1      17.409  34.472  15.966  0.00  0.00    -0.058 A 
ATOM     78  H38 MUI d   1      16.867  36.314  16.940  0.00  0.00     0.087 H 
ATOM     79  H39 MUI d   1      18.157  34.946  15.341  0.00  0.00     0.086 H 
BRANCH  74  80
ATOM     80  O19 MUI d   1      14.975  35.400  18.590  0.00  0.00    -0.356 OA
BRANCH  80  81
ATOM     81  C18 MUI d   1      15.294  36.759  18.901  0.00  0.00     0.010 C 
ATOM     82  H35 MUI d   1      14.577  37.144  19.641  0.00  0.00     0.066 H 
ATOM     83  H36 MUI d   1      15.238  37.367  17.986  0.00  0.00     0.066 H 
ATOM     84  H37 MUI d   1      16.312  36.811  19.315  0.00  0.00     0.066 H 
ENDBRANCH  80  81
ENDBRANCH  74  80
ENDBRANCH  67  70
ENDBRANCH  53  67
ENDBRANCH  50  53
ENDBRANCH  46  50
ENDBRANCH   1  46
TORSDOF 19
