REMARK  13 active torsions:
REMARK  status: ('A' for Active; 'I' for Inactive)
REMARK    1  A    between atoms: N62_1  and  C62_2 
REMARK    2  A    between atoms: N92_10  and  C1'_11 
REMARK    3  A    between atoms: C2'_13  and  O2'_14 
REMARK    4  A    between atoms: C3'_15  and  O3'_16 
REMARK    5  A    between atoms: C4'_17  and  C5'_18 
REMARK    6  A    between atoms: C5'_18  and  S5'_19 
REMARK    7  A    between atoms: S5'_19  and  S5R_20 
REMARK    8  A    between atoms: S5R_20  and  C5R_21 
REMARK    9  A    between atoms: C5R_21  and  C4R_22 
REMARK   10  A    between atoms: C3R_24  and  O3R_25 
REMARK   11  A    between atoms: C2R_26  and  O2R_27 
REMARK   12  A    between atoms: C1R_28  and  N91_29 
REMARK   13  A    between atoms: C61_37  and  N61_38 
ROOT
ATOM      1  S5' DTA d   1      13.307   9.307  11.885  0.00  0.00    -0.095 SA
ENDROOT
BRANCH   1   2
ATOM      2  C5' DTA d   1      13.778  10.034  10.267  0.00  0.00     0.013 C 
ATOM      3  H11 DTA d   1      13.146   9.576   9.492  0.00  0.00     0.054 H 
ATOM      4  H12 DTA d   1      13.580  11.115  10.309  0.00  0.00     0.054 H 
BRANCH   2   5
ATOM      5  C4' DTA d   1      15.243   9.836   9.863  0.00  0.00     0.077 C 
ATOM      6  O4' DTA d   1      15.552   8.444   9.809  0.00  0.00    -0.355 OA
ATOM      7  C1' DTA d   1      16.751   8.349   9.005  0.00  0.00     0.139 C 
ATOM      8  C2' DTA d   1      16.651   9.464   7.955  0.00  0.00     0.105 C 
ATOM      9  H5  DTA d   1      17.641   8.493   9.636  0.00  0.00     0.122 H 
ATOM     10  C3' DTA d   1      15.419  10.264   8.407  0.00  0.00     0.090 C 
ATOM     11  H6  DTA d   1      16.514   9.057   6.942  0.00  0.00     0.093 H 
ATOM     12  H8  DTA d   1      14.537  10.000   7.806  0.00  0.00     0.091 H 
ATOM     13  H10 DTA d   1      15.912  10.383  10.543  0.00  0.00     0.088 H 
BRANCH   7  14
ATOM     14  N92 DTA d   1      16.839   7.031   8.319  0.00  0.00    -0.294 N 
ATOM     15  C42 DTA d   1      17.958   6.319   8.260  0.00  0.00     0.167 A 
ATOM     16  N32 DTA d   1      19.198   6.559   8.738  0.00  0.00    -0.222 NA
ATOM     17  C52 DTA d   1      17.679   5.159   7.557  0.00  0.00     0.149 A 
ATOM     18  C22 DTA d   1      20.159   5.671   8.541  0.00  0.00     0.091 A 
ATOM     19  N12 DTA d   1      19.929   4.553   7.872  0.00  0.00    -0.222 NA
ATOM     20  H3  DTA d   1      21.151   5.863   8.934  0.00  0.00     0.146 H 
ATOM     21  C62 DTA d   1      18.724   4.250   7.366  0.00  0.00     0.155 A 
ATOM     22  N72 DTA d   1      16.388   5.202   7.217  0.00  0.00    -0.236 NA
ATOM     23  C82 DTA d   1      15.874   6.350   7.683  0.00  0.00     0.071 A 
ATOM     24  H4  DTA d   1      14.842   6.676   7.564  0.00  0.00     0.144 H 
BRANCH  21  25
ATOM     25  N62 DTA d   1      18.559   3.094   6.706  0.00  0.00    -0.382 N 
ATOM     26  H1  DTA d   1      17.638   2.852   6.314  0.00  0.00     0.157 HD
ATOM     27  H2  DTA d   1      19.353   2.448   6.591  0.00  0.00     0.157 HD
ENDBRANCH  21  25
ENDBRANCH   7  14
BRANCH   8  28
ATOM     28  O2' DTA d   1      17.833  10.271   8.007  0.00  0.00    -0.388 OA
ATOM     29  H7  DTA d   1      17.772  10.962   7.357  0.00  0.00     0.210 HD
ENDBRANCH   8  28
BRANCH  10  30
ATOM     30  O3' DTA d   1      15.647  11.668   8.327  0.00  0.00    -0.390 OA
ATOM     31  H9  DTA d   1      15.846  11.905   7.429  0.00  0.00     0.210 HD
ENDBRANCH  10  30
ENDBRANCH   2   5
ENDBRANCH   1   2
BRANCH   1  32
ATOM     32  S5R DTA d   1      14.920   9.549  13.121  0.00  0.00    -0.095 SA
BRANCH  32  33
ATOM     33  C5R DTA d   1      15.454   7.838  13.540  0.00  0.00     0.013 C 
ATOM     34  H13 DTA d   1      15.192   7.183  12.696  0.00  0.00     0.054 H 
ATOM     35  H14 DTA d   1      14.902   7.519  14.437  0.00  0.00     0.054 H 
BRANCH  33  36
ATOM     36  C4R DTA d   1      16.975   7.671  13.825  0.00  0.00     0.077 C 
ATOM     37  O4R DTA d   1      17.744   8.572  12.974  0.00  0.00    -0.355 OA
ATOM     38  C1R DTA d   1      18.706   9.261  13.815  0.00  0.00     0.139 C 
ATOM     39  C2R DTA d   1      18.006   9.400  15.154  0.00  0.00     0.105 C 
ATOM     40  H20 DTA d   1      19.630   8.674  13.926  0.00  0.00     0.122 H 
ATOM     41  C3R DTA d   1      17.348   8.026  15.275  0.00  0.00     0.090 C 
ATOM     42  H18 DTA d   1      17.264  10.212  15.153  0.00  0.00     0.093 H 
ATOM     43  H16 DTA d   1      16.457   8.068  15.919  0.00  0.00     0.091 H 
ATOM     44  H15 DTA d   1      17.259   6.628  13.620  0.00  0.00     0.088 H 
BRANCH  38  45
ATOM     45  N91 DTA d   1      19.023  10.576  13.193  0.00  0.00    -0.294 N 
ATOM     46  C81 DTA d   1      18.155  11.526  12.828  0.00  0.00     0.071 A 
ATOM     47  N71 DTA d   1      18.819  12.557  12.305  0.00  0.00    -0.236 NA
ATOM     48  H21 DTA d   1      17.073  11.466  12.941  0.00  0.00     0.144 H 
ATOM     49  C51 DTA d   1      20.116  12.254  12.324  0.00  0.00     0.149 A 
ATOM     50  C41 DTA d   1      20.245  10.991  12.888  0.00  0.00     0.167 A 
ATOM     51  C61 DTA d   1      21.276  12.914  11.914  0.00  0.00     0.155 A 
ATOM     52  N31 DTA d   1      21.465  10.438  13.038  0.00  0.00    -0.222 NA
ATOM     53  C21 DTA d   1      22.548  11.094  12.640  0.00  0.00     0.091 A 
ATOM     54  N11 DTA d   1      22.462  12.304  12.096  0.00  0.00    -0.222 NA
ATOM     55  H22 DTA d   1      23.522  10.634  12.761  0.00  0.00     0.146 H 
BRANCH  51  56
ATOM     56  N61 DTA d   1      21.218  14.127  11.362  0.00  0.00    -0.382 N 
ATOM     57  H23 DTA d   1      22.084  14.600  11.065  0.00  0.00     0.157 HD
ATOM     58  H24 DTA d   1      20.308  14.591  11.233  0.00  0.00     0.157 HD
ENDBRANCH  51  56
ENDBRANCH  38  45
BRANCH  39  59
ATOM     59  O2R DTA d   1      18.974   9.618  16.194  0.00  0.00    -0.388 OA
ATOM     60  H19 DTA d   1      18.546   9.564  17.040  0.00  0.00     0.210 HD
ENDBRANCH  39  59
BRANCH  41  61
ATOM     61  O3R DTA d   1      18.281   7.058  15.788  0.00  0.00    -0.390 OA
ATOM     62  H17 DTA d   1      18.508   7.282  16.683  0.00  0.00     0.210 HD
ENDBRANCH  41  61
ENDBRANCH  33  36
ENDBRANCH  32  33
ENDBRANCH   1  32
TORSDOF 13
