REMARK  13 active torsions:
REMARK  status: ('A' for Active; 'I' for Inactive)
REMARK    1  A    between atoms: N_1  and  CA_2 
REMARK    2  A    between atoms: CA_2  and  C_3 
REMARK    3  A    between atoms: CA_2  and  CB_5 
REMARK       I    between atoms: C_3  and  N_6 
REMARK    4  A    between atoms: N_6  and  CA_7 
REMARK    5  A    between atoms: CA_7  and  C_8 
REMARK    6  A    between atoms: CA_7  and  CB_10 
REMARK       I    between atoms: C_8  and  N_13 
REMARK    7  A    between atoms: CB_10  and  CG1_11 
REMARK    8  A    between atoms: CB_10  and  CG2_12 
REMARK    9  A    between atoms: CA_14  and  C_15 
REMARK       I    between atoms: C_15  and  N_20 
REMARK   10  A    between atoms: N_20  and  CA_21 
REMARK   11  A    between atoms: CA_21  and  C_22 
REMARK   12  A    between atoms: CA_21  and  CB_24 
REMARK   13  A    between atoms: CB_24  and  CG_25 
ROOT
ATOM      1  C   VAL d   1      80.683  62.430  14.247  0.00  0.00     0.243 C 
ATOM      2  O   VAL d   1      80.325  62.121  15.380  0.00  0.00    -0.271 OA
ATOM      3  N   PRO d   1      80.079  63.395  13.554  0.00  0.00    -0.337 N 
ATOM      4  CA  PRO d   1      78.939  64.130  14.123  0.00  0.00     0.091 C 
ATOM      5  CB  PRO d   1      78.682  65.246  13.094  0.00  0.00    -0.036 C 
ATOM      6  CG  PRO d   1      79.881  65.271  12.215  0.00  0.00    -0.048 C 
ATOM      7  CD  PRO d   1      80.422  63.877  12.204  0.00  0.00    -0.001 C 
ATOM      8  H17 PRO d   1      79.219  64.558  15.097  0.00  0.00     0.087 H 
ATOM      9  H18 PRO d   1      78.559  66.214  13.602  0.00  0.00     0.036 H 
ATOM     10  H19 PRO d   1      77.780  65.024  12.505  0.00  0.00     0.036 H 
ATOM     11  H20 PRO d   1      80.632  65.968  12.615  0.00  0.00     0.035 H 
ATOM     12  H21 PRO d   1      79.601  65.579  11.197  0.00  0.00     0.035 H 
ATOM     13  H22 PRO d   1      79.936  63.267  11.428  0.00  0.00     0.064 H 
ATOM     14  H23 PRO d   1      81.510  63.874  12.045  0.00  0.00     0.064 H 
ENDROOT
BRANCH   1  15
ATOM     15  CA  VAL d   1      81.845  61.690  13.584  0.00  0.00     0.092 C 
ATOM     16  H9  VAL d   1      82.393  62.394  12.940  0.00  0.00     0.088 H 
BRANCH  15  17
ATOM     17  N   VAL d   1      82.776  61.172  14.586  0.00  0.00    -0.346 N 
ATOM     18  C   ALA d   1      84.095  61.216  14.424  0.00  0.00     0.248 C 
ATOM     19  O   ALA d   1      84.632  61.665  13.416  0.00  0.00    -0.271 OA
ATOM     20  H8  VAL d   1      82.407  60.770  15.424  0.00  0.00     0.163 HD
BRANCH  18  21
ATOM     21  CA  ALA d   1      84.934  60.657  15.562  0.00  0.00     0.172 C 
ATOM     22  H4  ALA d   1      84.546  59.664  15.831  0.00  0.00     0.098 H 
BRANCH  21  23
ATOM     23  N   ALA d   1      86.352  60.513  15.124  0.00  0.00    -0.067 N 
ATOM     24  H1  ALA d   1      86.902  60.142  15.883  0.00  0.00     0.275 HD
ATOM     25  H2  ALA d   1      86.714  61.415  14.856  0.00  0.00     0.275 HD
ATOM     26  H3  ALA d   1      86.398  59.885  14.337  0.00  0.00     0.275 HD
ENDBRANCH  21  23
BRANCH  21  27
ATOM     27  CB  ALA d   1      84.843  61.565  16.792  0.00  0.00    -0.042 C 
ATOM     28  H5  ALA d   1      83.791  61.660  17.101  0.00  0.00     0.030 H 
ATOM     29  H6  ALA d   1      85.243  62.559  16.544  0.00  0.00     0.030 H 
ATOM     30  H7  ALA d   1      85.429  61.128  17.614  0.00  0.00     0.030 H 
ENDBRANCH  21  27
ENDBRANCH  18  21
ENDBRANCH  15  17
BRANCH  15  31
ATOM     31  CB  VAL d   1      81.260  60.560  12.698  0.00  0.00    -0.033 C 
ATOM     32  H10 VAL d   1      80.519  61.012  12.022  0.00  0.00     0.042 H 
BRANCH  31  33
ATOM     33  CG1 VAL d   1      82.349  59.924  11.840  0.00  0.00    -0.071 C 
ATOM     34  H11 VAL d   1      81.910  59.127  11.222  0.00  0.00     0.028 H 
ATOM     35  H12 VAL d   1      83.126  59.497  12.491  0.00  0.00     0.028 H 
ATOM     36  H13 VAL d   1      82.796  60.689  11.188  0.00  0.00     0.028 H 
ENDBRANCH  31  33
BRANCH  31  37
ATOM     37  CG2 VAL d   1      80.540  59.505  13.544  0.00  0.00    -0.071 C 
ATOM     38  H14 VAL d   1      79.762  59.991  14.151  0.00  0.00     0.028 H 
ATOM     39  H15 VAL d   1      81.265  59.008  14.206  0.00  0.00     0.028 H 
ATOM     40  H16 VAL d   1      80.076  58.758  12.883  0.00  0.00     0.028 H 
ENDBRANCH  31  37
ENDBRANCH  15  31
ENDBRANCH   1  15
BRANCH   4  41
ATOM     41  C   PRO d   1      77.676  63.276  14.310  0.00  0.00     0.241 C 
ATOM     42  O   PRO d   1      77.538  62.241  13.660  0.00  0.00    -0.271 OA
ATOM     43  N   TRP d   1      76.775  63.712  15.191  0.00  0.00    -0.344 N 
ATOM     44  H24 TRP d   1      76.999  64.499  15.766  0.00  0.00     0.163 HD
BRANCH  43  45
ATOM     45  CA  TRP d   1      75.459  63.067  15.342  0.00  0.00     0.100 C 
ATOM     46  H25 TRP d   1      75.243  62.534  14.404  0.00  0.00     0.090 H 
BRANCH  45  47
ATOM     47  C   TRP d   1      74.317  64.058  15.587  0.00  0.00     0.197 C 
ATOM     48  O   TRP d   1      73.195  63.923  15.091  0.00  0.00    -0.646 OA
ATOM     49  OXT TRP d   1      74.441  65.045  16.306  0.00  0.00    -0.646 OA
ENDBRANCH  45  47
BRANCH  45  50
ATOM     50  CB  TRP d   1      75.496  62.045  16.476  0.00  0.00    -0.011 C 
ATOM     51  H26 TRP d   1      76.237  61.272  16.224  0.00  0.00     0.044 H 
ATOM     52  H27 TRP d   1      74.501  61.585  16.562  0.00  0.00     0.044 H 
BRANCH  50  53
ATOM     53  CG  TRP d   1      75.858  62.631  17.791  0.00  0.00    -0.028 A 
ATOM     54  CD1 TRP d   1      77.108  62.941  18.233  0.00  0.00    -0.015 A 
ATOM     55  NE1 TRP d   1      77.048  63.464  19.503  0.00  0.00    -0.365 N 
ATOM     56  H28 TRP d   1      78.024  62.795  17.662  0.00  0.00     0.112 H 
ATOM     57  CE2 TRP d   1      75.739  63.503  19.902  0.00  0.00     0.042 A 
ATOM     58  H29 TRP d   1      77.855  63.775  20.062  0.00  0.00     0.165 HD
ATOM     59  CD2 TRP d   1      74.961  62.982  18.846  0.00  0.00    -0.002 A 
ATOM     60  CZ2 TRP d   1      75.180  63.945  21.096  0.00  0.00    -0.056 A 
ATOM     61  CE3 TRP d   1      73.573  62.907  19.010  0.00  0.00    -0.070 A 
ATOM     62  CZ3 TRP d   1      73.018  63.347  20.200  0.00  0.00    -0.082 A 
ATOM     63  H30 TRP d   1      72.944  62.512  18.220  0.00  0.00     0.084 H 
ATOM     64  CH2 TRP d   1      73.823  63.855  21.227  0.00  0.00    -0.081 A 
ATOM     65  H32 TRP d   1      71.944  63.297  20.339  0.00  0.00     0.083 H 
ATOM     66  H33 TRP d   1      73.358  64.185  22.149  0.00  0.00     0.083 H 
ATOM     67  H31 TRP d   1      75.797  64.346  21.892  0.00  0.00     0.086 H 
ENDBRANCH  50  53
ENDBRANCH  45  50
ENDBRANCH  43  45
ENDBRANCH   4  41
TORSDOF 13
