REMARK  11 active torsions:
REMARK  status: ('A' for Active; 'I' for Inactive)
REMARK    1  A    between atoms: C5_2  and  C3_3 
REMARK       I    between atoms: C5_2  and  N7_7 
REMARK    2  A    between atoms: C3_3  and  N2_4 
REMARK    3  A    between atoms: C3_3  and  C4_6 
REMARK    4  A    between atoms: N2_4  and  C1_5 
REMARK    5  A    between atoms: N7_7  and  C8_8 
REMARK    6  A    between atoms: C17_17  and  C19_18 
REMARK    7  A    between atoms: C17_17  and  C20_19 
REMARK    8  A    between atoms: C18_20  and  C21_21 
REMARK       I    between atoms: C21_21  and  N23_23 
REMARK    9  A    between atoms: N23_23  and  C24_24 
REMARK   10  A    between atoms: C26_26  and  C29_27 
REMARK   11  A    between atoms: N28_29  and  C30_30 
ROOT
ATOM      1  C8  618 d   1      81.594  60.991  13.298  0.00  0.00     0.089 C 
ATOM      2  C9  618 d   1      80.570  62.090  13.710  0.00  0.00     0.244 C 
ATOM      3  O15 618 d   1      80.369  62.155  14.924  0.00  0.00    -0.271 OA
ATOM      4  C14 618 d   1      81.967  60.817  11.814  0.00  0.00    -0.038 C 
ATOM      5  C13 618 d   1      80.822  60.612  10.807  0.00  0.00    -0.060 C 
ATOM      6  C12 618 d   1      79.802  61.762  10.621  0.00  0.00    -0.037 C 
ATOM      7  C11 618 d   1      80.016  63.061  11.429  0.00  0.00     0.061 C 
ATOM      8  N10 618 d   1      79.859  62.927  12.893  0.00  0.00    -0.322 N 
ATOM      9  S16 618 d   1      78.710  64.206  10.945  0.00  0.00    -0.132 SA
ATOM     10  C17 618 d   1      78.567  65.005  12.553  0.00  0.00     0.032 C 
ATOM     11  C18 618 d   1      78.783  63.786  13.489  0.00  0.00     0.108 C 
ATOM     12  H11 618 d   1      81.153  60.026  13.587  0.00  0.00     0.087 H 
ATOM     13  H12 618 d   1      82.628  59.941  11.742  0.00  0.00     0.036 H 
ATOM     14  H13 618 d   1      82.518  61.718  11.506  0.00  0.00     0.036 H 
ATOM     15  H14 618 d   1      80.258  59.724  11.129  0.00  0.00     0.033 H 
ATOM     16  H15 618 d   1      81.280  60.419   9.826  0.00  0.00     0.033 H 
ATOM     17  H16 618 d   1      78.812  61.368  10.893  0.00  0.00     0.037 H 
ATOM     18  H17 618 d   1      79.808  62.035   9.556  0.00  0.00     0.037 H 
ATOM     19  H18 618 d   1      81.012  63.468  11.199  0.00  0.00     0.090 H 
ATOM     20  H25 618 d   1      79.106  64.165  14.470  0.00  0.00     0.090 H 
ENDROOT
BRANCH  11  21
ATOM     21  C21 618 d   1      77.540  62.853  13.706  0.00  0.00     0.247 C 
ATOM     22  O22 618 d   1      77.328  61.902  12.952  0.00  0.00    -0.271 OA
ATOM     23  N23 618 d   1      76.748  63.189  14.734  0.00  0.00    -0.310 N 
ATOM     24  H26 618 d   1      77.163  63.811  15.397  0.00  0.00     0.170 HD
BRANCH  23  25
ATOM     25  C24 618 d   1      75.380  62.794  15.041  0.00  0.00     0.134 A 
ATOM     26  C25 618 d   1      74.496  62.345  14.087  0.00  0.00    -0.013 A 
ATOM     27  C26 618 d   1      73.298  62.066  14.737  0.00  0.00     0.055 A 
ATOM     28  H27 618 d   1      74.697  62.230  13.023  0.00  0.00     0.092 H 
ATOM     29  N27 618 d   1      73.441  62.333  16.078  0.00  0.00    -0.171 NA
ATOM     30  N28 618 d   1      74.704  62.785  16.292  0.00  0.00    -0.217 N 
BRANCH  27  31
ATOM     31  C29 618 d   1      72.012  61.545  14.127  0.00  0.00    -0.034 C 
ATOM     32  H28 618 d   1      71.252  61.432  14.914  0.00  0.00     0.035 H 
ATOM     33  H29 618 d   1      72.199  60.569  13.655  0.00  0.00     0.035 H 
ATOM     34  H30 618 d   1      71.651  62.256  13.369  0.00  0.00     0.035 H 
ENDBRANCH  27  31
BRANCH  30  35
ATOM     35  C30 618 d   1      75.151  63.133  17.454  0.00  0.00     0.060 A 
ATOM     36  C31 618 d   1      74.323  63.886  18.321  0.00  0.00    -0.055 A 
ATOM     37  C32 618 d   1      74.770  64.268  19.584  0.00  0.00    -0.081 A 
ATOM     38  H31 618 d   1      73.328  64.169  17.998  0.00  0.00     0.087 H 
ATOM     39  C33 618 d   1      76.048  63.902  19.996  0.00  0.00    -0.083 A 
ATOM     40  H32 618 d   1      74.128  64.845  20.240  0.00  0.00     0.083 H 
ATOM     41  C34 618 d   1      76.876  63.159  19.152  0.00  0.00    -0.081 A 
ATOM     42  H33 618 d   1      76.403  64.195  20.977  0.00  0.00     0.083 H 
ATOM     43  C35 618 d   1      76.448  62.770  17.890  0.00  0.00    -0.055 A 
ATOM     44  H34 618 d   1      77.869  62.882  19.488  0.00  0.00     0.083 H 
ATOM     45  H35 618 d   1      77.101  62.194  17.244  0.00  0.00     0.087 H 
ENDBRANCH  30  35
ENDBRANCH  23  25
ENDBRANCH  11  21
BRANCH  10  46
ATOM     46  C19 618 d   1      77.206  65.721  12.691  0.00  0.00    -0.058 C 
ATOM     47  H19 618 d   1      77.142  66.200  13.679  0.00  0.00     0.029 H 
ATOM     48  H20 618 d   1      76.393  64.987  12.586  0.00  0.00     0.029 H 
ATOM     49  H21 618 d   1      77.113  66.486  11.906  0.00  0.00     0.029 H 
ENDBRANCH  10  46
BRANCH  10  50
ATOM     50  C20 618 d   1      79.649  66.101  12.718  0.00  0.00    -0.058 C 
ATOM     51  H22 618 d   1      79.543  66.575  13.705  0.00  0.00     0.029 H 
ATOM     52  H23 618 d   1      79.525  66.860  11.932  0.00  0.00     0.029 H 
ATOM     53  H24 618 d   1      80.647  65.646  12.635  0.00  0.00     0.029 H 
ENDBRANCH  10  50
BRANCH   1  54
ATOM     54  N7  618 d   1      82.751  61.248  14.198  0.00  0.00    -0.346 N 
ATOM     55  C5  618 d   1      84.057  61.043  13.993  0.00  0.00     0.248 C 
ATOM     56  O6  618 d   1      84.649  61.331  12.970  0.00  0.00    -0.271 OA
ATOM     57  H10 618 d   1      82.517  61.632  15.091  0.00  0.00     0.163 HD
BRANCH  55  58
ATOM     58  C3  618 d   1      84.846  60.447  15.187  0.00  0.00     0.174 C 
ATOM     59  H1  618 d   1      84.333  59.513  15.460  0.00  0.00     0.098 H 
BRANCH  58  60
ATOM     60  N2  618 d   1      86.251  60.079  14.838  0.00  0.00    -0.067 N 
ATOM     61  H2  618 d   1      86.730  59.822  15.687  0.00  0.00     0.277 HD
ATOM     62  H3  618 d   1      86.697  60.887  14.432  0.00  0.00     0.277 HD
BRANCH  60  63
ATOM     63  C1  618 d   1      86.371  58.956  13.882  0.00  0.00     0.066 C 
ATOM     64  H4  618 d   1      87.434  58.755  13.684  0.00  0.00     0.067 H 
ATOM     65  H5  618 d   1      85.866  59.220  12.941  0.00  0.00     0.067 H 
ATOM     66  H6  618 d   1      85.902  58.058  14.310  0.00  0.00     0.067 H 
ENDBRANCH  60  63
ENDBRANCH  58  60
BRANCH  58  67
ATOM     67  C4  618 d   1      84.819  61.351  16.437  0.00  0.00    -0.041 C 
ATOM     68  H7  618 d   1      83.778  61.611  16.679  0.00  0.00     0.030 H 
ATOM     69  H8  618 d   1      85.390  62.270  16.238  0.00  0.00     0.030 H 
ATOM     70  H9  618 d   1      85.270  60.816  17.286  0.00  0.00     0.030 H 
ENDBRANCH  58  67
ENDBRANCH  55  58
ENDBRANCH   1  54
TORSDOF 11
