REMARK  20 active torsions:
REMARK  status: ('A' for Active; 'I' for Inactive)
REMARK    1  A    between atoms: C5_3  and  O4_4 
REMARK    2  A    between atoms: O4_4  and  C4_5 
REMARK       I    between atoms: C4_5  and  N1_6 
REMARK    3  A    between atoms: N1_6  and  C6_7 
REMARK    4  A    between atoms: C6_7  and  C7_8 
REMARK    5  A    between atoms: C6_7  and  C8_27 
REMARK    6  A    between atoms: C7_8  and  C15_9 
REMARK    7  A    between atoms: C7_8  and  O6_26 
REMARK    8  A    between atoms: C15_9  and  N2_10 
REMARK    9  A    between atoms: N2_10  and  C16_11 
REMARK   10  A    between atoms: N2_10  and  S_15 
REMARK   11  A    between atoms: C16_11  and  C17_12 
REMARK   12  A    between atoms: C17_12  and  C24_13 
REMARK   13  A    between atoms: C17_12  and  C25_14 
REMARK   14  A    between atoms: S_15  and  C18_16 
REMARK   15  A    between atoms: C21_19  and  O1_20 
REMARK   16  A    between atoms: O1_20  and  C26_21 
REMARK   17  A    between atoms: C8_27  and  C9_28 
REMARK   18  A    between atoms: C14_31  and  O40_32 
REMARK   19  A    between atoms: O40_32  and  C41_33 
REMARK   20  A    between atoms: C41_33  and  P42_34 
ROOT
ATOM      1  C6  QFI d   1      14.540  23.023  17.187  0.00  0.00     0.044 C 
ATOM      2  H4  QFI d   1      15.453  22.445  16.982  0.00  0.00     0.077 H 
ENDROOT
BRANCH   1   3
ATOM      3  N1  QFI d   1      13.572  22.215  17.884  0.00  0.00    -0.329 N 
ATOM      4  C4  QFI d   1      13.817  20.923  18.182  0.00  0.00     0.361 C 
ATOM      5  O5  QFI d   1      14.838  20.307  17.902  0.00  0.00    -0.238 OA
ATOM      6  H3  QFI d   1      12.699  22.622  18.153  0.00  0.00     0.165 HD
BRANCH   4   7
ATOM      7  O4  QFI d   1      12.745  20.431  18.820  0.00  0.00    -0.296 OA
BRANCH   7   8
ATOM      8  C5  QFI d   1      12.789  19.050  19.210  0.00  0.00     0.078 C 
ATOM      9  C   QFI d   1      11.888  18.187  18.320  0.00  0.00     0.023 C 
ATOM     10  C27 QFI d   1      10.548  18.219  19.056  0.00  0.00     0.137 C 
ATOM     11  C1  QFI d   1      11.562  18.844  16.961  0.00  0.00    -0.035 C 
ATOM     12  H1  QFI d   1      12.297  17.174  18.191  0.00  0.00     0.051 H 
ATOM     13  O   QFI d   1      10.765  18.504  20.445  0.00  0.00    -0.358 OA
ATOM     14  O9  QFI d   1       9.756  19.233  18.435  0.00  0.00    -0.361 OA
ATOM     15  H35 QFI d   1      10.044  17.246  18.962  0.00  0.00     0.129 H 
ATOM     16  C3  QFI d   1      12.123  18.992  20.605  0.00  0.00     0.048 C 
ATOM     17  H33 QFI d   1      12.688  18.311  21.258  0.00  0.00     0.078 H 
ATOM     18  H34 QFI d   1      12.106  19.997  21.051  0.00  0.00     0.078 H 
ATOM     19  C2  QFI d   1      10.070  19.219  17.040  0.00  0.00     0.023 C 
ATOM     20  H36 QFI d   1       9.898  20.211  16.597  0.00  0.00     0.074 H 
ATOM     21  H37 QFI d   1       9.457  18.472  16.515  0.00  0.00     0.074 H 
ATOM     22  H38 QFI d   1      11.738  18.136  16.138  0.00  0.00     0.037 H 
ATOM     23  H39 QFI d   1      12.178  19.743  16.810  0.00  0.00     0.037 H 
ATOM     24  H2  QFI d   1      13.822  18.673  19.219  0.00  0.00     0.088 H 
ENDBRANCH   7   8
ENDBRANCH   4   7
ENDBRANCH   1   3
BRANCH   1  25
ATOM     25  C7  QFI d   1      14.843  24.205  18.134  0.00  0.00     0.067 C 
ATOM     26  H5  QFI d   1      15.116  23.815  19.126  0.00  0.00     0.088 H 
BRANCH  25  27
ATOM     27  C15 QFI d   1      16.008  25.084  17.607  0.00  0.00     0.019 C 
ATOM     28  H6  QFI d   1      16.143  25.952  18.270  0.00  0.00     0.061 H 
ATOM     29  H7  QFI d   1      15.775  25.432  16.590  0.00  0.00     0.061 H 
BRANCH  27  30
ATOM     30  N2  QFI d   1      17.252  24.281  17.583  0.00  0.00    -0.204 NA
BRANCH  30  31
ATOM     31  C16 QFI d   1      18.217  24.938  18.489  0.00  0.00    -0.004 C 
ATOM     32  H8  QFI d   1      17.912  25.986  18.628  0.00  0.00     0.058 H 
ATOM     33  H9  QFI d   1      19.214  24.904  18.026  0.00  0.00     0.058 H 
BRANCH  31  34
ATOM     34  C17 QFI d   1      18.292  24.254  19.879  0.00  0.00    -0.049 C 
ATOM     35  H10 QFI d   1      17.977  24.964  20.658  0.00  0.00     0.040 H 
BRANCH  34  36
ATOM     36  C24 QFI d   1      17.397  23.000  19.917  0.00  0.00    -0.072 C 
ATOM     37  H11 QFI d   1      17.465  22.531  20.910  0.00  0.00     0.028 H 
ATOM     38  H12 QFI d   1      17.733  22.286  19.151  0.00  0.00     0.028 H 
ATOM     39  H13 QFI d   1      16.354  23.288  19.718  0.00  0.00     0.028 H 
ENDBRANCH  34  36
BRANCH  34  40
ATOM     40  C25 QFI d   1      19.732  23.794  20.128  0.00  0.00    -0.072 C 
ATOM     41  H14 QFI d   1      20.404  24.665  20.108  0.00  0.00     0.028 H 
ATOM     42  H15 QFI d   1      20.031  23.083  19.344  0.00  0.00     0.028 H 
ATOM     43  H16 QFI d   1      19.796  23.304  21.111  0.00  0.00     0.028 H 
ENDBRANCH  34  40
ENDBRANCH  31  34
ENDBRANCH  30  31
BRANCH  30  44
ATOM     44  S   QFI d   1      17.898  24.124  16.013  0.00  0.00     0.243 S 
ATOM     45  O7  QFI d   1      16.785  23.902  15.042  0.00  0.00    -0.206 OA
ATOM     46  O8  QFI d   1      18.816  22.942  15.999  0.00  0.00    -0.206 OA
BRANCH  44  47
ATOM     47  C18 QFI d   1      18.797  25.556  15.571  0.00  0.00     0.074 A 
ATOM     48  C19 QFI d   1      18.153  26.621  14.919  0.00  0.00    -0.058 A 
ATOM     49  C20 QFI d   1      18.875  27.780  14.579  0.00  0.00    -0.049 A 
ATOM     50  H17 QFI d   1      17.099  26.550  14.678  0.00  0.00     0.086 H 
ATOM     51  C21 QFI d   1      20.239  27.886  14.886  0.00  0.00     0.068 A 
ATOM     52  H18 QFI d   1      18.372  28.598  14.075  0.00  0.00     0.087 H 
ATOM     53  C22 QFI d   1      20.884  26.812  15.534  0.00  0.00    -0.049 A 
ATOM     54  C23 QFI d   1      20.164  25.651  15.876  0.00  0.00    -0.058 A 
ATOM     55  H22 QFI d   1      21.940  26.881  15.770  0.00  0.00     0.087 H 
ATOM     56  H23 QFI d   1      20.666  24.830  16.375  0.00  0.00     0.086 H 
BRANCH  51  57
ATOM     57  O1  QFI d   1      20.939  29.052  14.546  0.00  0.00    -0.356 OA
BRANCH  57  58
ATOM     58  C26 QFI d   1      22.311  29.118  14.973  0.00  0.00     0.010 C 
ATOM     59  H19 QFI d   1      22.750  30.073  14.649  0.00  0.00     0.066 H 
ATOM     60  H20 QFI d   1      22.875  28.285  14.526  0.00  0.00     0.066 H 
ATOM     61  H21 QFI d   1      22.358  29.046  16.070  0.00  0.00     0.066 H 
ENDBRANCH  57  58
ENDBRANCH  51  57
ENDBRANCH  44  47
ENDBRANCH  30  44
ENDBRANCH  27  30
ENDBRANCH  25  27
BRANCH  25  62
ATOM     62  O6  QFI d   1      13.660  24.976  18.235  0.00  0.00    -0.392 OA
ATOM     63  H24 QFI d   1      13.804  25.697  18.836  0.00  0.00     0.210 HD
ENDBRANCH  25  62
ENDBRANCH   1  25
BRANCH   1  64
ATOM     64  C8  QFI d   1      13.941  23.543  15.858  0.00  0.00    -0.020 C 
ATOM     65  H25 QFI d   1      14.737  24.025  15.272  0.00  0.00     0.043 H 
ATOM     66  H26 QFI d   1      13.155  24.279  16.084  0.00  0.00     0.043 H 
BRANCH  64  67
ATOM     67  C9  QFI d   1      13.336  22.411  15.034  0.00  0.00    -0.056 A 
ATOM     68  C10 QFI d   1      14.172  21.541  14.304  0.00  0.00    -0.074 A 
ATOM     69  C12 QFI d   1      13.606  20.498  13.544  0.00  0.00    -0.050 A 
ATOM     70  H27 QFI d   1      15.248  21.674  14.327  0.00  0.00     0.084 H 
ATOM     71  C14 QFI d   1      12.202  20.327  13.513  0.00  0.00     0.069 A 
ATOM     72  H28 QFI d   1      14.246  19.827  12.983  0.00  0.00     0.087 H 
ATOM     73  C13 QFI d   1      11.370  21.199  14.247  0.00  0.00    -0.050 A 
ATOM     74  C11 QFI d   1      11.937  22.240  15.005  0.00  0.00    -0.074 A 
ATOM     75  H31 QFI d   1      10.294  21.067  14.227  0.00  0.00     0.087 H 
ATOM     76  H32 QFI d   1      11.298  22.911  15.567  0.00  0.00     0.084 H 
BRANCH  71  77
ATOM     77  O40 QFI d   1      11.640  19.298  12.764  0.00  0.00    -0.338 OA
BRANCH  77  78
ATOM     78  C41 QFI d   1      11.915  18.009  13.292  0.00  0.00     0.128 C 
ATOM     79  H29 QFI d   1      11.574  17.962  14.337  0.00  0.00     0.096 H 
ATOM     80  H30 QFI d   1      12.998  17.822  13.251  0.00  0.00     0.096 H 
BRANCH  78  81
ATOM     81  P42 QFI d   1      11.047  16.742  12.317  0.00  0.00     0.284 P 
ATOM     82  O45 QFI d   1       9.474  17.007  12.367  0.00  0.00    -0.638 OA
ATOM     83  O44 QFI d   1      11.358  15.414  12.892  0.00  0.00    -0.638 OA
ATOM     84  O43 QFI d   1      11.532  16.801  10.798  0.00  0.00    -0.638 OA
ENDBRANCH  78  81
ENDBRANCH  77  78
ENDBRANCH  71  77
ENDBRANCH  64  67
ENDBRANCH   1  64
TORSDOF 20
