REMARK  17 active torsions:
REMARK  status: ('A' for Active; 'I' for Inactive)
REMARK    1  A    between atoms: CAB_1  and  CAO_2 
REMARK    2  A    between atoms: CAO_2  and  CBG_3 
REMARK    3  A    between atoms: CBG_3  and  CAZ_4 
REMARK    4  A    between atoms: CBG_3  and  CAC_7 
REMARK    5  A    between atoms: CBG_3  and  OAX_8 
REMARK    6  A    between atoms: OAX_8  and  CBB_9 
REMARK    7  A    between atoms: CBA_14  and  CAT_15 
REMARK    8  A    between atoms: CAT_15  and  CAV_16 
REMARK    9  A    between atoms: CAV_16  and  NBF_17 
REMARK   10  A    between atoms: NBF_17  and  CAU_18 
REMARK   11  A    between atoms: NBF_17  and  CBC_25 
REMARK   12  A    between atoms: CAU_18  and  CAS_19 
REMARK   13  A    between atoms: CAS_19  and  CAR_20 
REMARK   14  A    between atoms: CAR_20  and  CAQ_21 
REMARK   15  A    between atoms: CAQ_21  and  CAP_22 
REMARK   16  A    between atoms: CAP_22  and  CAN_23 
REMARK   17  A    between atoms: CAN_23  and  CAA_24 
ROOT
ATOM      1  NBF DRJ d   1      15.246  16.356  12.950  0.00  0.00    -0.345 N 
ENDROOT
BRANCH   1   2
ATOM      2  CAV DRJ d   1      15.827  16.631  14.268  0.00  0.00     0.002 C 
ATOM      3  H15 DRJ d   1      16.358  17.594  14.241  0.00  0.00     0.064 H 
ATOM      4  H16 DRJ d   1      15.025  16.676  15.020  0.00  0.00     0.064 H 
BRANCH   2   5
ATOM      5  CAT DRJ d   1      16.810  15.516  14.637  0.00  0.00    -0.026 C 
ATOM      6  H13 DRJ d   1      16.259  14.671  15.076  0.00  0.00     0.042 H 
ATOM      7  H14 DRJ d   1      17.338  15.179  13.733  0.00  0.00     0.042 H 
BRANCH   5   8
ATOM      8  CBA DRJ d   1      17.822  16.045  15.651  0.00  0.00    -0.057 A 
ATOM      9  CAI DRJ d   1      17.479  16.150  16.998  0.00  0.00    -0.074 A 
ATOM     10  CAK DRJ d   1      18.359  16.752  17.889  0.00  0.00    -0.050 A 
ATOM     11  H10 DRJ d   1      16.529  15.763  17.349  0.00  0.00     0.084 H 
ATOM     12  CBB DRJ d   1      19.584  17.250  17.444  0.00  0.00     0.070 A 
ATOM     13  H9  DRJ d   1      18.092  16.835  18.936  0.00  0.00     0.087 H 
ATOM     14  CAJ DRJ d   1      19.930  17.123  16.103  0.00  0.00    -0.050 A 
ATOM     15  CAH DRJ d   1      19.050  16.521  15.206  0.00  0.00    -0.074 A 
ATOM     16  H11 DRJ d   1      20.887  17.494  15.755  0.00  0.00     0.087 H 
ATOM     17  H12 DRJ d   1      19.323  16.424  14.161  0.00  0.00     0.084 H 
BRANCH  12  18
ATOM     18  OAX DRJ d   1      20.457  17.871  18.287  0.00  0.00    -0.330 OA
BRANCH  18  19
ATOM     19  CBG DRJ d   1      19.978  18.666  19.381  0.00  0.00     0.151 C 
BRANCH  19  20
ATOM     20  CAO DRJ d   1      21.195  19.343  20.018  0.00  0.00    -0.029 C 
ATOM     21  H4  DRJ d   1      21.906  18.563  20.328  0.00  0.00     0.037 H 
ATOM     22  H5  DRJ d   1      21.667  19.991  19.265  0.00  0.00     0.037 H 
BRANCH  20  23
ATOM     23  CAB DRJ d   1      20.846  20.195  21.242  0.00  0.00    -0.073 C 
ATOM     24  H1  DRJ d   1      21.763  20.649  21.646  0.00  0.00     0.027 H 
ATOM     25  H2  DRJ d   1      20.382  19.560  22.011  0.00  0.00     0.027 H 
ATOM     26  H3  DRJ d   1      20.143  20.988  20.948  0.00  0.00     0.027 H 
ENDBRANCH  20  23
ENDBRANCH  19  20
BRANCH  19  27
ATOM     27  CAZ DRJ d   1      19.314  17.769  20.431  0.00  0.00     0.209 C 
ATOM     28  OAE DRJ d   1      20.050  16.929  20.994  0.00  0.00    -0.646 OA
ATOM     29  OAD DRJ d   1      18.095  17.935  20.649  0.00  0.00    -0.646 OA
ENDBRANCH  19  27
BRANCH  19  30
ATOM     30  CAC DRJ d   1      18.985  19.715  18.869  0.00  0.00    -0.037 C 
ATOM     31  H6  DRJ d   1      18.119  19.210  18.416  0.00  0.00     0.032 H 
ATOM     32  H7  DRJ d   1      19.476  20.348  18.115  0.00  0.00     0.032 H 
ATOM     33  H8  DRJ d   1      18.647  20.340  19.709  0.00  0.00     0.032 H 
ENDBRANCH  19  30
ENDBRANCH  18  19
ENDBRANCH  12  18
ENDBRANCH   5   8
ENDBRANCH   2   5
ENDBRANCH   1   2
BRANCH   1  34
ATOM     34  CAU DRJ d   1      13.913  15.734  12.838  0.00  0.00    -0.002 C 
ATOM     35  H17 DRJ d   1      13.908  15.037  11.987  0.00  0.00     0.064 H 
ATOM     36  H18 DRJ d   1      13.159  16.518  12.674  0.00  0.00     0.064 H 
BRANCH  34  37
ATOM     37  CAS DRJ d   1      13.573  14.968  14.119  0.00  0.00    -0.050 C 
ATOM     38  H19 DRJ d   1      13.617  15.666  14.968  0.00  0.00     0.035 H 
ATOM     39  H20 DRJ d   1      14.319  14.172  14.261  0.00  0.00     0.035 H 
BRANCH  37  40
ATOM     40  CAR DRJ d   1      12.180  14.332  14.080  0.00  0.00    -0.064 C 
ATOM     41  H21 DRJ d   1      12.179  13.496  13.366  0.00  0.00     0.033 H 
ATOM     42  H22 DRJ d   1      11.442  15.085  13.764  0.00  0.00     0.033 H 
BRANCH  40  43
ATOM     43  CAQ DRJ d   1      11.814  13.812  15.475  0.00  0.00    -0.065 C 
ATOM     44  H23 DRJ d   1      12.054  14.586  16.219  0.00  0.00     0.033 H 
ATOM     45  H24 DRJ d   1      12.403  12.907  15.685  0.00  0.00     0.033 H 
BRANCH  43  46
ATOM     46  CAP DRJ d   1      10.323  13.470  15.575  0.00  0.00    -0.065 C 
ATOM     47  H25 DRJ d   1      10.125  12.534  15.032  0.00  0.00     0.033 H 
ATOM     48  H26 DRJ d   1       9.730  14.284  15.132  0.00  0.00     0.033 H 
BRANCH  46  49
ATOM     49  CAN DRJ d   1       9.932  13.298  17.047  0.00  0.00    -0.069 C 
ATOM     50  H27 DRJ d   1       9.901  14.287  17.528  0.00  0.00     0.032 H 
ATOM     51  H28 DRJ d   1      10.684  12.670  17.547  0.00  0.00     0.032 H 
BRANCH  49  52
ATOM     52  CAA DRJ d   1       8.559  12.635  17.180  0.00  0.00    -0.077 C 
ATOM     53  H29 DRJ d   1       8.306  12.525  18.245  0.00  0.00     0.027 H 
ATOM     54  H30 DRJ d   1       8.583  11.643  16.705  0.00  0.00     0.027 H 
ATOM     55  H31 DRJ d   1       7.801  13.260  16.686  0.00  0.00     0.027 H 
ENDBRANCH  49  52
ENDBRANCH  46  49
ENDBRANCH  43  46
ENDBRANCH  40  43
ENDBRANCH  37  40
ENDBRANCH  34  37
ENDBRANCH   1  34
BRANCH   1  56
ATOM     56  CBC DRJ d   1      15.986  16.651  11.888  0.00  0.00     0.250 A 
ATOM     57  OAY DRJ d   1      17.257  17.137  11.994  0.00  0.00    -0.276 OA
ATOM     58  CBE DRJ d   1      17.726  17.281  10.721  0.00  0.00     0.108 A 
ATOM     59  CAM DRJ d   1      18.935  17.728  10.213  0.00  0.00    -0.048 A 
ATOM     60  CBD DRJ d   1      16.702  16.873   9.864  0.00  0.00     0.095 A 
ATOM     61  CAG DRJ d   1      19.136  17.774   8.831  0.00  0.00    -0.080 A 
ATOM     62  H32 DRJ d   1      19.724  18.042  10.887  0.00  0.00     0.087 H 
ATOM     63  CAF DRJ d   1      18.121  17.371   7.977  0.00  0.00    -0.081 A 
ATOM     64  H33 DRJ d   1      20.080  18.123   8.429  0.00  0.00     0.083 H 
ATOM     65  CAL DRJ d   1      16.903  16.920   8.495  0.00  0.00    -0.052 A 
ATOM     66  H34 DRJ d   1      18.272  17.406   6.904  0.00  0.00     0.083 H 
ATOM     67  H35 DRJ d   1      16.113  16.606   7.822  0.00  0.00     0.087 H 
ATOM     68  NAW DRJ d   1      15.662  16.497  10.610  0.00  0.00    -0.206 NA
ENDBRANCH   1  56
TORSDOF 17
