REMARK  17 active torsions:
REMARK  status: ('A' for Active; 'I' for Inactive)
REMARK    1  A    between atoms: C5_8  and  O4_9 
REMARK    2  A    between atoms: O4_9  and  C4_10 
REMARK       I    between atoms: C4_10  and  N1_12 
REMARK    3  A    between atoms: N1_12  and  C6_13 
REMARK    4  A    between atoms: C6_13  and  C8_14 
REMARK    5  A    between atoms: C6_13  and  C7_21 
REMARK    6  A    between atoms: C8_14  and  C9_15 
REMARK    7  A    between atoms: C7_21  and  O6_22 
REMARK    8  A    between atoms: C7_21  and  C15_23 
REMARK    9  A    between atoms: C15_23  and  N2_24 
REMARK   10  A    between atoms: N2_24  and  S_25 
REMARK   11  A    between atoms: N2_24  and  C16_36 
REMARK   12  A    between atoms: S_25  and  C18_28 
REMARK   13  A    between atoms: C21_31  and  O1_32 
REMARK   14  A    between atoms: O1_32  and  C26_33 
REMARK   15  A    between atoms: C16_36  and  C17_37 
REMARK   16  A    between atoms: C17_37  and  C25_38 
REMARK   17  A    between atoms: C17_37  and  C24_39 
ROOT
ATOM      1  C7  DJR d   1      14.914  24.105  18.213  0.00  0.00     0.071 C 
ATOM      2  H19 DJR d   1      15.478  23.675  19.054  0.00  0.00     0.088 H 
ENDROOT
BRANCH   1   3
ATOM      3  C6  DJR d   1      14.485  22.979  17.257  0.00  0.00     0.044 C 
ATOM      4  H11 DJR d   1      15.367  22.381  16.982  0.00  0.00     0.077 H 
BRANCH   3   5
ATOM      5  N1  DJR d   1      13.543  22.149  17.953  0.00  0.00    -0.329 N 
ATOM      6  C4  DJR d   1      13.874  20.888  18.265  0.00  0.00     0.361 C 
ATOM      7  O5  DJR d   1      14.944  20.350  18.006  0.00  0.00    -0.238 OA
ATOM      8  H10 DJR d   1      12.645  22.510  18.204  0.00  0.00     0.165 HD
BRANCH   6   9
ATOM      9  O4  DJR d   1      12.833  20.315  18.884  0.00  0.00    -0.296 OA
BRANCH   9  10
ATOM     10  C5  DJR d   1      13.000  18.955  19.247  0.00  0.00     0.078 C 
ATOM     11  C   DJR d   1      11.933  18.193  18.530  0.00  0.00     0.023 C 
ATOM     12  C27 DJR d   1      10.619  18.152  19.264  0.00  0.00     0.137 C 
ATOM     13  C1  DJR d   1      11.733  18.569  17.069  0.00  0.00    -0.035 C 
ATOM     14  H1  DJR d   1      12.294  17.154  18.514  0.00  0.00     0.051 H 
ATOM     15  O   DJR d   1      10.975  18.637  20.571  0.00  0.00    -0.358 OA
ATOM     16  O9  DJR d   1       9.874  19.073  18.455  0.00  0.00    -0.361 OA
ATOM     17  H2  DJR d   1      10.144  17.161  19.314  0.00  0.00     0.129 H 
ATOM     18  C3  DJR d   1      12.413  18.712  20.644  0.00  0.00     0.048 C 
ATOM     19  H7  DJR d   1      12.807  17.766  21.045  0.00  0.00     0.078 H 
ATOM     20  H8  DJR d   1      12.701  19.540  21.309  0.00  0.00     0.078 H 
ATOM     21  C2  DJR d   1      10.206  18.761  17.105  0.00  0.00     0.023 C 
ATOM     22  H3  DJR d   1       9.910  19.585  16.440  0.00  0.00     0.074 H 
ATOM     23  H4  DJR d   1       9.698  17.837  16.792  0.00  0.00     0.074 H 
ATOM     24  H5  DJR d   1      12.036  17.762  16.386  0.00  0.00     0.037 H 
ATOM     25  H6  DJR d   1      12.263  19.495  16.800  0.00  0.00     0.037 H 
ATOM     26  H9  DJR d   1      14.030  18.596  19.102  0.00  0.00     0.088 H 
ENDBRANCH   9  10
ENDBRANCH   6   9
ENDBRANCH   3   5
BRANCH   3  27
ATOM     27  C8  DJR d   1      13.846  23.549  15.964  0.00  0.00    -0.020 C 
ATOM     28  H12 DJR d   1      14.597  24.140  15.419  0.00  0.00     0.043 H 
ATOM     29  H13 DJR d   1      12.997  24.194  16.233  0.00  0.00     0.043 H 
BRANCH  27  30
ATOM     30  C9  DJR d   1      13.352  22.415  15.070  0.00  0.00    -0.056 A 
ATOM     31  C11 DJR d   1      14.268  21.691  14.292  0.00  0.00    -0.077 A 
ATOM     32  C13 DJR d   1      13.810  20.637  13.468  0.00  0.00    -0.082 A 
ATOM     33  H14 DJR d   1      15.323  21.939  14.322  0.00  0.00     0.084 H 
ATOM     34  C14 DJR d   1      12.436  20.311  13.427  0.00  0.00    -0.083 A 
ATOM     35  H15 DJR d   1      14.516  20.077  12.865  0.00  0.00     0.083 H 
ATOM     36  C12 DJR d   1      11.520  21.045  14.210  0.00  0.00    -0.082 A 
ATOM     37  H16 DJR d   1      12.087  19.501  12.797  0.00  0.00     0.083 H 
ATOM     38  C10 DJR d   1      11.977  22.096  15.031  0.00  0.00    -0.077 A 
ATOM     39  H17 DJR d   1      10.464  20.801  14.180  0.00  0.00     0.083 H 
ATOM     40  H18 DJR d   1      11.273  22.659  15.632  0.00  0.00     0.084 H 
ENDBRANCH  27  30
ENDBRANCH   3  27
ENDBRANCH   1   3
BRANCH   1  41
ATOM     41  O6  DJR d   1      13.769  24.783  18.708  0.00  0.00    -0.392 OA
ATOM     42  H20 DJR d   1      14.043  25.476  19.297  0.00  0.00     0.210 HD
ENDBRANCH   1  41
BRANCH   1  43
ATOM     43  C15 DJR d   1      15.783  25.087  17.473  0.00  0.00     0.031 C 
ATOM     44  H21 DJR d   1      15.663  26.081  17.927  0.00  0.00     0.069 H 
ATOM     45  H22 DJR d   1      15.463  25.123  16.421  0.00  0.00     0.069 H 
BRANCH  43  46
ATOM     46  N2  DJR d   1      17.196  24.711  17.525  0.00  0.00    -0.304 N 
BRANCH  46  47
ATOM     47  S   DJR d   1      17.935  24.280  16.068  0.00  0.00     0.260 S 
ATOM     48  O8  DJR d   1      18.614  22.937  16.178  0.00  0.00    -0.200 OA
ATOM     49  O7  DJR d   1      16.843  24.053  15.051  0.00  0.00    -0.200 OA
BRANCH  47  50
ATOM     50  C18 DJR d   1      18.929  25.644  15.597  0.00  0.00     0.079 A 
ATOM     51  C23 DJR d   1      20.296  25.712  15.905  0.00  0.00    -0.058 A 
ATOM     52  C22 DJR d   1      21.040  26.849  15.528  0.00  0.00    -0.049 A 
ATOM     53  H23 DJR d   1      20.778  24.895  16.430  0.00  0.00     0.086 H 
ATOM     54  C21 DJR d   1      20.416  27.918  14.844  0.00  0.00     0.068 A 
ATOM     55  H24 DJR d   1      22.097  26.904  15.764  0.00  0.00     0.087 H 
ATOM     56  C20 DJR d   1      19.052  27.832  14.543  0.00  0.00    -0.049 A 
ATOM     57  C19 DJR d   1      18.312  26.705  14.916  0.00  0.00    -0.058 A 
ATOM     58  H28 DJR d   1      18.565  28.645  14.017  0.00  0.00     0.087 H 
ATOM     59  H29 DJR d   1      17.256  26.651  14.678  0.00  0.00     0.086 H 
BRANCH  54  60
ATOM     60  O1  DJR d   1      21.133  29.068  14.465  0.00  0.00    -0.356 OA
BRANCH  60  61
ATOM     61  C26 DJR d   1      22.528  29.097  14.813  0.00  0.00     0.010 C 
ATOM     62  H25 DJR d   1      22.973  30.041  14.465  0.00  0.00     0.066 H 
ATOM     63  H26 DJR d   1      23.043  28.250  14.335  0.00  0.00     0.066 H 
ATOM     64  H27 DJR d   1      22.635  29.022  15.905  0.00  0.00     0.066 H 
ENDBRANCH  60  61
ENDBRANCH  54  60
ENDBRANCH  47  50
ENDBRANCH  46  47
BRANCH  46  65
ATOM     65  C16 DJR d   1      18.043  25.047  18.685  0.00  0.00     0.008 C 
ATOM     66  H30 DJR d   1      17.782  26.057  19.035  0.00  0.00     0.066 H 
ATOM     67  H31 DJR d   1      19.097  25.028  18.372  0.00  0.00     0.066 H 
BRANCH  65  68
ATOM     68  C17 DJR d   1      17.850  24.048  19.853  0.00  0.00    -0.045 C 
ATOM     69  H32 DJR d   1      16.829  24.145  20.250  0.00  0.00     0.041 H 
BRANCH  68  70
ATOM     70  C25 DJR d   1      18.868  24.374  20.959  0.00  0.00    -0.072 C 
ATOM     71  H33 DJR d   1      18.740  23.670  21.794  0.00  0.00     0.028 H 
ATOM     72  H34 DJR d   1      18.704  25.401  21.317  0.00  0.00     0.028 H 
ATOM     73  H35 DJR d   1      19.888  24.284  20.557  0.00  0.00     0.028 H 
ENDBRANCH  68  70
BRANCH  68  74
ATOM     74  C24 DJR d   1      18.074  22.601  19.374  0.00  0.00    -0.072 C 
ATOM     75  H36 DJR d   1      17.349  22.360  18.582  0.00  0.00     0.028 H 
ATOM     76  H37 DJR d   1      17.937  21.910  20.219  0.00  0.00     0.028 H 
ATOM     77  H38 DJR d   1      19.096  22.500  18.979  0.00  0.00     0.028 H 
ENDBRANCH  68  74
ENDBRANCH  65  68
ENDBRANCH  46  65
ENDBRANCH  43  46
ENDBRANCH   1  43
TORSDOF 17
