REMARK  17 active torsions:
REMARK  status: ('A' for Active; 'I' for Inactive)
REMARK    1  A    between atoms: C5_8  and  O4_9 
REMARK    2  A    between atoms: O4_9  and  C4_10 
REMARK       I    between atoms: C4_10  and  N1_12 
REMARK    3  A    between atoms: N1_12  and  C6_13 
REMARK    4  A    between atoms: C6_13  and  C8_14 
REMARK    5  A    between atoms: C6_13  and  C7_21 
REMARK    6  A    between atoms: C8_14  and  C9_15 
REMARK    7  A    between atoms: C7_21  and  O6_22 
REMARK    8  A    between atoms: C7_21  and  C15_23 
REMARK    9  A    between atoms: C15_23  and  N2_24 
REMARK   10  A    between atoms: N2_24  and  S_25 
REMARK   11  A    between atoms: N2_24  and  C16_36 
REMARK   12  A    between atoms: S_25  and  C18_28 
REMARK   13  A    between atoms: C21_31  and  O1_32 
REMARK   14  A    between atoms: O1_32  and  C26_33 
REMARK   15  A    between atoms: C16_36  and  C17_37 
REMARK   16  A    between atoms: C17_37  and  C25_38 
REMARK   17  A    between atoms: C17_37  and  C24_39 
ROOT
ATOM      1  C7  DJR d   1      14.804  24.068  17.920  0.00  0.00     0.071 C 
ATOM      2  H19 DJR d   1      15.337  23.644  18.784  0.00  0.00     0.088 H 
ENDROOT
BRANCH   1   3
ATOM      3  C6  DJR d   1      14.378  22.936  16.974  0.00  0.00     0.044 C 
ATOM      4  H11 DJR d   1      15.257  22.322  16.729  0.00  0.00     0.077 H 
BRANCH   3   5
ATOM      5  N1  DJR d   1      13.411  22.131  17.671  0.00  0.00    -0.329 N 
ATOM      6  C4  DJR d   1      13.706  20.865  18.001  0.00  0.00     0.361 C 
ATOM      7  O5  DJR d   1      14.765  20.290  17.755  0.00  0.00    -0.238 OA
ATOM      8  H10 DJR d   1      12.519  22.515  17.909  0.00  0.00     0.165 HD
BRANCH   6   9
ATOM      9  O4  DJR d   1      12.658  20.331  18.627  0.00  0.00    -0.296 OA
BRANCH   9  10
ATOM     10  C5  DJR d   1      12.802  18.974  19.018  0.00  0.00     0.078 C 
ATOM     11  C   DJR d   1      11.698  18.215  18.374  0.00  0.00     0.023 C 
ATOM     12  C27 DJR d   1      10.416  18.231  19.157  0.00  0.00     0.137 C 
ATOM     13  C1  DJR d   1      11.462  18.544  16.910  0.00  0.00    -0.035 C 
ATOM     14  H1  DJR d   1      12.034  17.168  18.384  0.00  0.00     0.051 H 
ATOM     15  O   DJR d   1      10.828  18.793  20.412  0.00  0.00    -0.358 OA
ATOM     16  O9  DJR d   1       9.654  19.113  18.334  0.00  0.00    -0.361 OA
ATOM     17  H2  DJR d   1       9.933  17.251  19.284  0.00  0.00     0.129 H 
ATOM     18  C3  DJR d   1      12.264  18.800  20.437  0.00  0.00     0.048 C 
ATOM     19  H7  DJR d   1      12.627  17.848  20.852  0.00  0.00     0.078 H 
ATOM     20  H8  DJR d   1      12.615  19.632  21.066  0.00  0.00     0.078 H 
ATOM     21  C2  DJR d   1       9.951  18.771  16.988  0.00  0.00     0.023 C 
ATOM     22  H3  DJR d   1       9.656  19.590  16.316  0.00  0.00     0.074 H 
ATOM     23  H4  DJR d   1       9.415  17.853  16.704  0.00  0.00     0.074 H 
ATOM     24  H5  DJR d   1      11.725  17.707  16.247  0.00  0.00     0.037 H 
ATOM     25  H6  DJR d   1      12.004  19.447  16.593  0.00  0.00     0.037 H 
ATOM     26  H9  DJR d   1      13.816  18.584  18.847  0.00  0.00     0.088 H 
ENDBRANCH   9  10
ENDBRANCH   6   9
ENDBRANCH   3   5
BRANCH   3  27
ATOM     27  C8  DJR d   1      13.773  23.480  15.654  0.00  0.00    -0.020 C 
ATOM     28  H12 DJR d   1      14.542  24.039  15.100  0.00  0.00     0.043 H 
ATOM     29  H13 DJR d   1      12.929  24.147  15.884  0.00  0.00     0.043 H 
BRANCH  27  30
ATOM     30  C9  DJR d   1      13.282  22.310  14.805  0.00  0.00    -0.056 A 
ATOM     31  C11 DJR d   1      14.177  21.648  13.946  0.00  0.00    -0.077 A 
ATOM     32  C13 DJR d   1      13.727  20.561  13.172  0.00  0.00    -0.082 A 
ATOM     33  H14 DJR d   1      15.209  21.973  13.880  0.00  0.00     0.084 H 
ATOM     34  C14 DJR d   1      12.382  20.139  13.257  0.00  0.00    -0.083 A 
ATOM     35  H15 DJR d   1      14.414  20.047  12.510  0.00  0.00     0.083 H 
ATOM     36  C12 DJR d   1      11.485  20.804  14.113  0.00  0.00    -0.082 A 
ATOM     37  H16 DJR d   1      12.040  19.301  12.661  0.00  0.00     0.083 H 
ATOM     38  C10 DJR d   1      11.934  21.889  14.891  0.00  0.00    -0.077 A 
ATOM     39  H17 DJR d   1      10.452  20.482  14.174  0.00  0.00     0.083 H 
ATOM     40  H18 DJR d   1      11.247  22.401  15.555  0.00  0.00     0.084 H 
ENDBRANCH  27  30
ENDBRANCH   3  27
ENDBRANCH   1   3
BRANCH   1  41
ATOM     41  O6  DJR d   1      13.647  24.765  18.362  0.00  0.00    -0.392 OA
ATOM     42  H20 DJR d   1      13.906  25.467  18.948  0.00  0.00     0.210 HD
ENDBRANCH   1  41
BRANCH   1  43
ATOM     43  C15 DJR d   1      15.703  25.042  17.198  0.00  0.00     0.031 C 
ATOM     44  H21 DJR d   1      15.593  26.031  17.668  0.00  0.00     0.069 H 
ATOM     45  H22 DJR d   1      15.383  25.097  16.147  0.00  0.00     0.069 H 
BRANCH  43  46
ATOM     46  N2  DJR d   1      17.124  24.667  17.232  0.00  0.00    -0.304 N 
BRANCH  46  47
ATOM     47  S   DJR d   1      17.841  24.311  15.756  0.00  0.00     0.260 S 
ATOM     48  O8  DJR d   1      18.535  22.974  15.812  0.00  0.00    -0.200 OA
ATOM     49  O7  DJR d   1      16.725  24.102  14.760  0.00  0.00    -0.200 OA
BRANCH  47  50
ATOM     50  C18 DJR d   1      18.782  25.702  15.295  0.00  0.00     0.079 A 
ATOM     51  C23 DJR d   1      20.150  25.797  15.572  0.00  0.00    -0.058 A 
ATOM     52  C22 DJR d   1      20.856  26.962  15.205  0.00  0.00    -0.049 A 
ATOM     53  H23 DJR d   1      20.664  24.980  16.066  0.00  0.00     0.086 H 
ATOM     54  C21 DJR d   1      20.188  28.036  14.565  0.00  0.00     0.068 A 
ATOM     55  H24 DJR d   1      21.917  27.036  15.414  0.00  0.00     0.087 H 
ATOM     56  C20 DJR d   1      18.819  27.922  14.295  0.00  0.00    -0.049 A 
ATOM     57  C19 DJR d   1      18.121  26.766  14.656  0.00  0.00    -0.058 A 
ATOM     58  H28 DJR d   1      18.297  28.735  13.803  0.00  0.00     0.087 H 
ATOM     59  H29 DJR d   1      17.061  26.689  14.442  0.00  0.00     0.086 H 
BRANCH  54  60
ATOM     60  O1  DJR d   1      20.870  29.213  14.204  0.00  0.00    -0.356 OA
BRANCH  60  61
ATOM     61  C26 DJR d   1      22.270  29.272  14.523  0.00  0.00     0.010 C 
ATOM     62  H25 DJR d   1      22.681  30.237  14.191  0.00  0.00     0.066 H 
ATOM     63  H26 DJR d   1      22.797  28.453  14.012  0.00  0.00     0.066 H 
ATOM     64  H27 DJR d   1      22.403  29.172  15.610  0.00  0.00     0.066 H 
ENDBRANCH  60  61
ENDBRANCH  54  60
ENDBRANCH  47  50
ENDBRANCH  46  47
BRANCH  46  65
ATOM     65  C16 DJR d   1      18.004  24.986  18.382  0.00  0.00     0.008 C 
ATOM     66  H30 DJR d   1      17.859  26.042  18.654  0.00  0.00     0.066 H 
ATOM     67  H31 DJR d   1      19.049  24.825  18.080  0.00  0.00     0.066 H 
BRANCH  65  68
ATOM     68  C17 DJR d   1      17.707  24.109  19.626  0.00  0.00    -0.045 C 
ATOM     69  H32 DJR d   1      16.699  24.340  20.000  0.00  0.00     0.041 H 
BRANCH  68  70
ATOM     70  C25 DJR d   1      18.751  24.424  20.713  0.00  0.00    -0.072 C 
ATOM     71  H33 DJR d   1      18.552  23.808  21.602  0.00  0.00     0.028 H 
ATOM     72  H34 DJR d   1      18.689  25.488  20.983  0.00  0.00     0.028 H 
ATOM     73  H35 DJR d   1      19.758  24.201  20.330  0.00  0.00     0.028 H 
ENDBRANCH  68  70
BRANCH  68  74
ATOM     74  C24 DJR d   1      17.790  22.608  19.282  0.00  0.00    -0.072 C 
ATOM     75  H36 DJR d   1      17.049  22.368  18.506  0.00  0.00     0.028 H 
ATOM     76  H37 DJR d   1      17.582  22.013  20.184  0.00  0.00     0.028 H 
ATOM     77  H38 DJR d   1      18.798  22.372  18.911  0.00  0.00     0.028 H 
ENDBRANCH  68  74
ENDBRANCH  65  68
ENDBRANCH  46  65
ENDBRANCH  43  46
ENDBRANCH   1  43
TORSDOF 17
