REMARK  26 active torsions:
REMARK  status: ('A' for Active; 'I' for Inactive)
REMARK    1  A    between atoms: N_1  and  C6_4 
REMARK       I    between atoms: C4_40  and  N_1 
REMARK    2  A    between atoms: C14_9  and  O_3 
REMARK    3  A    between atoms: O_3  and  C15_10 
REMARK    4  A    between atoms: C6_4  and  C8_5 
REMARK    5  A    between atoms: C6_4  and  C7_21 
REMARK    6  A    between atoms: C8_5  and  C9_6 
REMARK    7  A    between atoms: C15_10  and  P_11 
REMARK    8  A    between atoms: P_11  and  O3_12 
REMARK    9  A    between atoms: P_11  and  O1_16 
REMARK   10  A    between atoms: O3_12  and  C18_13 
REMARK   11  A    between atoms: C18_13  and  C19_14 
REMARK   12  A    between atoms: O1_16  and  C16_17 
REMARK   13  A    between atoms: C16_17  and  C17_18 
REMARK   14  A    between atoms: C7_21  and  O8_22 
REMARK   15  A    between atoms: C7_21  and  C20_23 
REMARK   16  A    between atoms: C20_23  and  N1_24 
REMARK   17  A    between atoms: N1_24  and  C21_25 
REMARK   18  A    between atoms: N1_24  and  S_29 
REMARK   19  A    between atoms: C21_25  and  C22_26 
REMARK   20  A    between atoms: C22_26  and  C30_27 
REMARK   21  A    between atoms: C22_26  and  C29_28 
REMARK   22  A    between atoms: S_29  and  C23_32 
REMARK   23  A    between atoms: C26_35  and  O5_36 
REMARK   24  A    between atoms: O5_36  and  C31_37 
REMARK   25  A    between atoms: O6_42  and  C4_40 
REMARK   26  A    between atoms: O6_42  and  C5_43 
ROOT
ATOM      1  C6  KGQ d   1      14.551  22.918  17.351  0.00  0.00     0.044 C 
ATOM      2  H3  KGQ d   1      15.431  22.306  17.106  0.00  0.00     0.077 H 
ENDROOT
BRANCH   1   3
ATOM      3  N   KGQ d   1      13.540  22.094  17.976  0.00  0.00    -0.329 N 
ATOM      4  C4  KGQ d   1      13.915  20.790  18.316  0.00  0.00     0.361 C 
ATOM      5  O7  KGQ d   1      15.020  20.289  18.125  0.00  0.00    -0.238 OA
ATOM      6  H1  KGQ d   1      12.619  22.439  18.156  0.00  0.00     0.165 HD
BRANCH   4   7
ATOM      7  O6  KGQ d   1      12.852  20.189  18.868  0.00  0.00    -0.296 OA
BRANCH   7   8
ATOM      8  C5  KGQ d   1      12.948  18.826  19.286  0.00  0.00     0.078 C 
ATOM      9  C   KGQ d   1      11.937  17.944  18.489  0.00  0.00     0.023 C 
ATOM     10  C32 KGQ d   1      10.663  18.069  19.388  0.00  0.00     0.137 C 
ATOM     11  C1  KGQ d   1      11.380  18.467  17.129  0.00  0.00    -0.035 C 
ATOM     12  H2  KGQ d   1      12.321  16.919  18.381  0.00  0.00     0.051 H 
ATOM     13  O4  KGQ d   1      10.935  18.890  20.520  0.00  0.00    -0.358 OA
ATOM     14  O11 KGQ d   1       9.567  18.606  18.622  0.00  0.00    -0.361 OA
ATOM     15  H45 KGQ d   1      10.384  17.066  19.743  0.00  0.00     0.129 H 
ATOM     16  C3  KGQ d   1      12.331  18.689  20.689  0.00  0.00     0.048 C 
ATOM     17  H43 KGQ d   1      12.748  19.449  21.366  0.00  0.00     0.078 H 
ATOM     18  H44 KGQ d   1      12.527  17.686  21.097  0.00  0.00     0.078 H 
ATOM     19  C2  KGQ d   1      10.197  19.340  17.577  0.00  0.00     0.023 C 
ATOM     20  H46 KGQ d   1      10.554  20.312  17.949  0.00  0.00     0.074 H 
ATOM     21  H47 KGQ d   1       9.498  19.501  16.743  0.00  0.00     0.074 H 
ATOM     22  H48 KGQ d   1      11.044  17.637  16.490  0.00  0.00     0.037 H 
ATOM     23  H49 KGQ d   1      12.133  19.062  16.592  0.00  0.00     0.037 H 
ATOM     24  H42 KGQ d   1      13.984  18.462  19.225  0.00  0.00     0.088 H 
ENDBRANCH   7   8
ENDBRANCH   4   7
ENDBRANCH   1   3
BRANCH   1  25
ATOM     25  C8  KGQ d   1      13.890  23.462  16.018  0.00  0.00    -0.020 C 
ATOM     26  H4  KGQ d   1      14.631  24.062  15.469  0.00  0.00     0.043 H 
ATOM     27  H5  KGQ d   1      13.027  24.093  16.277  0.00  0.00     0.043 H 
BRANCH  25  28
ATOM     28  C9  KGQ d   1      13.424  22.328  15.136  0.00  0.00    -0.056 A 
ATOM     29  C11 KGQ d   1      14.320  21.619  14.329  0.00  0.00    -0.074 A 
ATOM     30  C13 KGQ d   1      13.899  20.557  13.507  0.00  0.00    -0.050 A 
ATOM     31  H6  KGQ d   1      15.368  21.895  14.337  0.00  0.00     0.084 H 
ATOM     32  C14 KGQ d   1      12.528  20.163  13.467  0.00  0.00     0.069 A 
ATOM     33  H7  KGQ d   1      14.625  20.032  12.897  0.00  0.00     0.087 H 
ATOM     34  C12 KGQ d   1      11.613  20.884  14.286  0.00  0.00    -0.050 A 
ATOM     35  C10 KGQ d   1      12.069  21.944  15.097  0.00  0.00    -0.074 A 
ATOM     36  H20 KGQ d   1      10.562  20.617  14.286  0.00  0.00     0.087 H 
ATOM     37  H21 KGQ d   1      11.354  22.480  15.710  0.00  0.00     0.084 H 
BRANCH  32  38
ATOM     38  O   KGQ d   1      12.109  19.113  12.655  0.00  0.00    -0.340 OA
BRANCH  38  39
ATOM     39  C15 KGQ d   1      11.918  17.828  13.272  0.00  0.00     0.120 C 
ATOM     40  H8  KGQ d   1      11.149  17.917  14.054  0.00  0.00     0.093 H 
ATOM     41  H9  KGQ d   1      12.866  17.505  13.726  0.00  0.00     0.093 H 
BRANCH  39  42
ATOM     42  P   KGQ d   1      11.402  16.616  12.095  0.00  0.00     0.352 P 
ATOM     43  O2  KGQ d   1      10.208  15.811  12.700  0.00  0.00    -0.256 OA
BRANCH  42  44
ATOM     44  O3  KGQ d   1      12.533  15.527  11.996  0.00  0.00    -0.313 OA
BRANCH  44  45
ATOM     45  C18 KGQ d   1      13.802  16.140  11.759  0.00  0.00     0.025 C 
ATOM     46  H10 KGQ d   1      14.039  16.821  12.590  0.00  0.00     0.074 H 
ATOM     47  H11 KGQ d   1      13.762  16.709  10.818  0.00  0.00     0.074 H 
BRANCH  45  48
ATOM     48  C19 KGQ d   1      14.900  15.058  11.656  0.00  0.00    -0.056 C 
ATOM     49  H12 KGQ d   1      15.873  15.539  11.474  0.00  0.00     0.030 H 
ATOM     50  H13 KGQ d   1      14.666  14.376  10.825  0.00  0.00     0.030 H 
ATOM     51  H14 KGQ d   1      14.943  14.489  12.596  0.00  0.00     0.030 H 
ENDBRANCH  45  48
ENDBRANCH  44  45
ENDBRANCH  42  44
BRANCH  42  52
ATOM     52  O1  KGQ d   1      10.812  17.108  10.823  0.00  0.00    -0.313 OA
BRANCH  52  53
ATOM     53  C16 KGQ d   1      10.255  16.039  10.048  0.00  0.00     0.025 C 
ATOM     54  H15 KGQ d   1       9.518  15.491  10.653  0.00  0.00     0.074 H 
ATOM     55  H16 KGQ d   1      11.057  15.353   9.738  0.00  0.00     0.074 H 
BRANCH  53  56
ATOM     56  C17 KGQ d   1       9.564  16.625   8.798  0.00  0.00    -0.056 C 
ATOM     57  H17 KGQ d   1       9.135  15.808   8.200  0.00  0.00     0.030 H 
ATOM     58  H18 KGQ d   1      10.302  17.173   8.194  0.00  0.00     0.030 H 
ATOM     59  H19 KGQ d   1       8.763  17.311   9.110  0.00  0.00     0.030 H 
ENDBRANCH  53  56
ENDBRANCH  52  53
ENDBRANCH  42  52
ENDBRANCH  39  42
ENDBRANCH  38  39
ENDBRANCH  32  38
ENDBRANCH  25  28
ENDBRANCH   1  25
BRANCH   1  60
ATOM     60  C7  KGQ d   1      14.997  24.071  18.283  0.00  0.00     0.067 C 
ATOM     61  H22 KGQ d   1      15.380  23.628  19.214  0.00  0.00     0.088 H 
BRANCH  60  62
ATOM     62  O8  KGQ d   1      13.904  24.920  18.604  0.00  0.00    -0.392 OA
ATOM     63  H23 KGQ d   1      13.549  25.293  17.806  0.00  0.00     0.210 HD
ENDBRANCH  60  62
BRANCH  60  64
ATOM     64  C20 KGQ d   1      16.122  24.909  17.643  0.00  0.00     0.019 C 
ATOM     65  H24 KGQ d   1      16.241  25.843  18.212  0.00  0.00     0.061 H 
ATOM     66  H25 KGQ d   1      15.847  25.145  16.604  0.00  0.00     0.061 H 
BRANCH  64  67
ATOM     67  N1  KGQ d   1      17.397  24.183  17.646  0.00  0.00    -0.204 NA
BRANCH  67  68
ATOM     68  C21 KGQ d   1      18.304  25.006  18.472  0.00  0.00    -0.004 C 
ATOM     69  H26 KGQ d   1      17.947  26.045  18.422  0.00  0.00     0.058 H 
ATOM     70  H27 KGQ d   1      19.308  24.942  18.027  0.00  0.00     0.058 H 
BRANCH  68  71
ATOM     71  C22 KGQ d   1      18.431  24.626  19.972  0.00  0.00    -0.049 C 
ATOM     72  H28 KGQ d   1      17.809  25.357  20.510  0.00  0.00     0.040 H 
BRANCH  71  73
ATOM     73  C30 KGQ d   1      19.847  24.771  20.555  0.00  0.00    -0.072 C 
ATOM     74  H29 KGQ d   1      19.838  24.481  21.616  0.00  0.00     0.028 H 
ATOM     75  H30 KGQ d   1      20.176  25.817  20.463  0.00  0.00     0.028 H 
ATOM     76  H31 KGQ d   1      20.540  24.119  20.003  0.00  0.00     0.028 H 
ENDBRANCH  71  73
BRANCH  71  77
ATOM     77  C29 KGQ d   1      17.849  23.247  20.304  0.00  0.00    -0.072 C 
ATOM     78  H32 KGQ d   1      16.838  23.164  19.879  0.00  0.00     0.028 H 
ATOM     79  H33 KGQ d   1      17.799  23.123  21.396  0.00  0.00     0.028 H 
ATOM     80  H34 KGQ d   1      18.492  22.465  19.875  0.00  0.00     0.028 H 
ENDBRANCH  71  77
ENDBRANCH  68  71
ENDBRANCH  67  68
BRANCH  67  81
ATOM     81  S   KGQ d   1      17.945  24.186  16.068  0.00  0.00     0.243 S 
ATOM     82  O10 KGQ d   1      18.829  22.950  15.841  0.00  0.00    -0.206 OA
ATOM     83  O9  KGQ d   1      16.772  24.001  15.085  0.00  0.00    -0.206 OA
BRANCH  81  84
ATOM     84  C23 KGQ d   1      18.858  25.610  15.616  0.00  0.00     0.074 A 
ATOM     85  C28 KGQ d   1      20.202  25.746  15.818  0.00  0.00    -0.058 A 
ATOM     86  C27 KGQ d   1      20.939  26.878  15.466  0.00  0.00    -0.049 A 
ATOM     87  H35 KGQ d   1      20.731  24.921  16.282  0.00  0.00     0.086 H 
ATOM     88  C26 KGQ d   1      20.334  27.902  14.901  0.00  0.00     0.068 A 
ATOM     89  H36 KGQ d   1      22.005  26.914  15.657  0.00  0.00     0.087 H 
ATOM     90  C25 KGQ d   1      19.044  27.859  14.666  0.00  0.00    -0.049 A 
ATOM     91  C24 KGQ d   1      18.311  26.713  15.024  0.00  0.00    -0.058 A 
ATOM     92  H40 KGQ d   1      18.546  28.701  14.199  0.00  0.00     0.087 H 
ATOM     93  H41 KGQ d   1      17.247  26.705  14.818  0.00  0.00     0.086 H 
BRANCH  88  94
ATOM     94  O5  KGQ d   1      21.156  29.191  14.500  0.00  0.00    -0.356 OA
BRANCH  94  95
ATOM     95  C31 KGQ d   1      22.270  29.285  15.107  0.00  0.00     0.010 C 
ATOM     96  H37 KGQ d   1      22.788  30.200  14.783  0.00  0.00     0.066 H 
ATOM     97  H38 KGQ d   1      22.891  28.409  14.871  0.00  0.00     0.066 H 
ATOM     98  H39 KGQ d   1      22.094  29.328  16.192  0.00  0.00     0.066 H 
ENDBRANCH  94  95
ENDBRANCH  88  94
ENDBRANCH  81  84
ENDBRANCH  67  81
ENDBRANCH  64  67
ENDBRANCH  60  64
ENDBRANCH   1  60
TORSDOF 26
