REMARK  26 active torsions:
REMARK  status: ('A' for Active; 'I' for Inactive)
REMARK    1  A    between atoms: N_1  and  C6_4 
REMARK       I    between atoms: C4_40  and  N_1 
REMARK    2  A    between atoms: C14_9  and  O_3 
REMARK    3  A    between atoms: O_3  and  C15_10 
REMARK    4  A    between atoms: C6_4  and  C8_5 
REMARK    5  A    between atoms: C6_4  and  C7_21 
REMARK    6  A    between atoms: C8_5  and  C9_6 
REMARK    7  A    between atoms: C15_10  and  P_11 
REMARK    8  A    between atoms: P_11  and  O3_12 
REMARK    9  A    between atoms: P_11  and  O1_16 
REMARK   10  A    between atoms: O3_12  and  C18_13 
REMARK   11  A    between atoms: C18_13  and  C19_14 
REMARK   12  A    between atoms: O1_16  and  C16_17 
REMARK   13  A    between atoms: C16_17  and  C17_18 
REMARK   14  A    between atoms: C7_21  and  O8_22 
REMARK   15  A    between atoms: C7_21  and  C20_23 
REMARK   16  A    between atoms: C20_23  and  N1_24 
REMARK   17  A    between atoms: N1_24  and  C21_25 
REMARK   18  A    between atoms: N1_24  and  S_29 
REMARK   19  A    between atoms: C21_25  and  C22_26 
REMARK   20  A    between atoms: C22_26  and  C30_27 
REMARK   21  A    between atoms: C22_26  and  C29_28 
REMARK   22  A    between atoms: S_29  and  C23_32 
REMARK   23  A    between atoms: C26_35  and  O5_36 
REMARK   24  A    between atoms: O5_36  and  C31_37 
REMARK   25  A    between atoms: O6_42  and  C4_40 
REMARK   26  A    between atoms: O6_42  and  C5_43 
ROOT
ATOM      1  C6  KGQ d   1      14.413  22.956  17.104  0.00  0.00     0.044 C 
ATOM      2  H3  KGQ d   1      15.323  22.388  16.862  0.00  0.00     0.077 H 
ENDROOT
BRANCH   1   3
ATOM      3  N   KGQ d   1      13.473  22.109  17.817  0.00  0.00    -0.329 N 
ATOM      4  C4  KGQ d   1      13.728  20.821  18.103  0.00  0.00     0.361 C 
ATOM      5  O7  KGQ d   1      14.764  20.230  17.802  0.00  0.00    -0.238 OA
ATOM      6  H1  KGQ d   1      12.600  22.501  18.107  0.00  0.00     0.165 HD
BRANCH   4   7
ATOM      7  O6  KGQ d   1      12.676  20.278  18.752  0.00  0.00    -0.296 OA
BRANCH   7   8
ATOM      8  C5  KGQ d   1      12.742  18.882  19.122  0.00  0.00     0.078 C 
ATOM      9  C   KGQ d   1      11.741  17.983  18.363  0.00  0.00     0.023 C 
ATOM     10  C32 KGQ d   1      10.462  18.091  19.243  0.00  0.00     0.137 C 
ATOM     11  C1  KGQ d   1      11.238  18.522  16.996  0.00  0.00    -0.035 C 
ATOM     12  H2  KGQ d   1      12.129  16.959  18.264  0.00  0.00     0.051 H 
ATOM     13  O4  KGQ d   1      10.806  18.950  20.333  0.00  0.00    -0.358 OA
ATOM     14  O11 KGQ d   1       9.441  18.675  18.408  0.00  0.00    -0.361 OA
ATOM     15  H45 KGQ d   1      10.140  17.107  19.613  0.00  0.00     0.129 H 
ATOM     16  C3  KGQ d   1      12.209  18.794  20.565  0.00  0.00     0.048 C 
ATOM     17  H43 KGQ d   1      12.609  19.602  21.196  0.00  0.00     0.078 H 
ATOM     18  H44 KGQ d   1      12.439  17.822  21.025  0.00  0.00     0.078 H 
ATOM     19  C2  KGQ d   1      10.075  19.449  17.384  0.00  0.00     0.023 C 
ATOM     20  H46 KGQ d   1      10.438  20.412  17.772  0.00  0.00     0.074 H 
ATOM     21  H47 KGQ d   1       9.399  19.627  16.535  0.00  0.00     0.074 H 
ATOM     22  H48 KGQ d   1      10.889  17.700  16.354  0.00  0.00     0.037 H 
ATOM     23  H49 KGQ d   1      12.031  19.081  16.478  0.00  0.00     0.037 H 
ATOM     24  H42 KGQ d   1      13.771  18.507  19.022  0.00  0.00     0.088 H 
ENDBRANCH   7   8
ENDBRANCH   4   7
ENDBRANCH   1   3
BRANCH   1  25
ATOM     25  C8  KGQ d   1      13.730  23.423  15.778  0.00  0.00    -0.020 C 
ATOM     26  H4  KGQ d   1      14.428  24.070  15.227  0.00  0.00     0.043 H 
ATOM     27  H5  KGQ d   1      12.822  23.992  16.027  0.00  0.00     0.043 H 
BRANCH  25  28
ATOM     28  C9  KGQ d   1      13.344  22.238  14.887  0.00  0.00    -0.056 A 
ATOM     29  C11 KGQ d   1      14.306  21.616  14.071  0.00  0.00    -0.074 A 
ATOM     30  C13 KGQ d   1      13.961  20.522  13.262  0.00  0.00    -0.050 A 
ATOM     31  H6  KGQ d   1      15.325  21.985  14.067  0.00  0.00     0.084 H 
ATOM     32  C14 KGQ d   1      12.641  20.032  13.254  0.00  0.00     0.069 A 
ATOM     33  H7  KGQ d   1      14.714  20.052  12.640  0.00  0.00     0.087 H 
ATOM     34  C12 KGQ d   1      11.667  20.653  14.066  0.00  0.00    -0.050 A 
ATOM     35  C10 KGQ d   1      12.019  21.751  14.876  0.00  0.00    -0.074 A 
ATOM     36  H20 KGQ d   1      10.648  20.285  14.066  0.00  0.00     0.087 H 
ATOM     37  H21 KGQ d   1      11.267  22.225  15.495  0.00  0.00     0.084 H 
BRANCH  32  38
ATOM     38  O   KGQ d   1      12.305  18.934  12.446  0.00  0.00    -0.340 OA
BRANCH  38  39
ATOM     39  C15 KGQ d   1      11.411  17.964  13.005  0.00  0.00     0.120 C 
ATOM     40  H8  KGQ d   1      10.385  18.361  12.999  0.00  0.00     0.093 H 
ATOM     41  H9  KGQ d   1      11.711  17.738  14.039  0.00  0.00     0.093 H 
BRANCH  39  42
ATOM     42  P   KGQ d   1      11.486  16.444  11.998  0.00  0.00     0.352 P 
ATOM     43  O2  KGQ d   1      10.554  15.432  12.581  0.00  0.00    -0.256 OA
BRANCH  42  44
ATOM     44  O3  KGQ d   1      12.974  15.860  11.993  0.00  0.00    -0.313 OA
BRANCH  44  45
ATOM     45  C18 KGQ d   1      13.585  15.194  10.874  0.00  0.00     0.025 C 
ATOM     46  H10 KGQ d   1      13.616  15.875  10.011  0.00  0.00     0.074 H 
ATOM     47  H11 KGQ d   1      13.001  14.299  10.614  0.00  0.00     0.074 H 
BRANCH  45  48
ATOM     48  C19 KGQ d   1      15.026  14.780  11.260  0.00  0.00    -0.056 C 
ATOM     49  H12 KGQ d   1      15.501  14.270  10.409  0.00  0.00     0.030 H 
ATOM     50  H13 KGQ d   1      14.993  14.100  12.124  0.00  0.00     0.030 H 
ATOM     51  H14 KGQ d   1      15.608  15.676  11.521  0.00  0.00     0.030 H 
ENDBRANCH  45  48
ENDBRANCH  44  45
ENDBRANCH  42  44
BRANCH  42  52
ATOM     52  O1  KGQ d   1      11.067  16.742  10.488  0.00  0.00    -0.313 OA
BRANCH  52  53
ATOM     53  C16 KGQ d   1       9.808  17.267  10.070  0.00  0.00     0.025 C 
ATOM     54  H15 KGQ d   1       9.650  18.259  10.519  0.00  0.00     0.074 H 
ATOM     55  H16 KGQ d   1       9.000  16.590  10.383  0.00  0.00     0.074 H 
BRANCH  53  56
ATOM     56  C17 KGQ d   1       9.822  17.387   8.529  0.00  0.00    -0.056 C 
ATOM     57  H17 KGQ d   1       8.859  17.791   8.184  0.00  0.00     0.030 H 
ATOM     58  H18 KGQ d   1       9.983  16.393   8.085  0.00  0.00     0.030 H 
ATOM     59  H19 KGQ d   1      10.634  18.062   8.221  0.00  0.00     0.030 H 
ENDBRANCH  53  56
ENDBRANCH  52  53
ENDBRANCH  42  52
ENDBRANCH  39  42
ENDBRANCH  38  39
ENDBRANCH  32  38
ENDBRANCH  25  28
ENDBRANCH   1  25
BRANCH   1  60
ATOM     60  C7  KGQ d   1      14.788  24.150  18.026  0.00  0.00     0.071 C 
ATOM     61  H22 KGQ d   1      15.092  23.754  19.006  0.00  0.00     0.088 H 
BRANCH  60  62
ATOM     62  O8  KGQ d   1      13.640  24.983  18.164  0.00  0.00    -0.392 OA
ATOM     63  H23 KGQ d   1      13.851  25.720  18.726  0.00  0.00     0.210 HD
ENDBRANCH  60  62
BRANCH  60  64
ATOM     64  C20 KGQ d   1      15.924  25.066  17.475  0.00  0.00     0.031 C 
ATOM     65  H24 KGQ d   1      16.066  25.906  18.170  0.00  0.00     0.069 H 
ATOM     66  H25 KGQ d   1      15.618  25.452  16.491  0.00  0.00     0.069 H 
BRANCH  64  67
ATOM     67  N1  KGQ d   1      17.223  24.348  17.323  0.00  0.00    -0.304 N 
BRANCH  67  68
ATOM     68  C21 KGQ d   1      18.280  24.618  18.346  0.00  0.00     0.008 C 
ATOM     69  H26 KGQ d   1      18.212  25.679  18.628  0.00  0.00     0.066 H 
ATOM     70  H27 KGQ d   1      19.257  24.424  17.880  0.00  0.00     0.066 H 
BRANCH  68  71
ATOM     71  C22 KGQ d   1      18.198  23.768  19.657  0.00  0.00    -0.045 C 
ATOM     72  H28 KGQ d   1      18.053  24.444  20.512  0.00  0.00     0.041 H 
BRANCH  71  73
ATOM     73  C30 KGQ d   1      19.513  22.977  19.834  0.00  0.00    -0.072 C 
ATOM     74  H29 KGQ d   1      19.459  22.378  20.755  0.00  0.00     0.028 H 
ATOM     75  H30 KGQ d   1      20.357  23.679  19.902  0.00  0.00     0.028 H 
ATOM     76  H31 KGQ d   1      19.659  22.311  18.971  0.00  0.00     0.028 H 
ENDBRANCH  71  73
BRANCH  71  77
ATOM     77  C29 KGQ d   1      17.032  22.747  19.611  0.00  0.00    -0.072 C 
ATOM     78  H32 KGQ d   1      16.080  23.283  19.485  0.00  0.00     0.028 H 
ATOM     79  H33 KGQ d   1      17.009  22.174  20.550  0.00  0.00     0.028 H 
ATOM     80  H34 KGQ d   1      17.180  22.059  18.765  0.00  0.00     0.028 H 
ENDBRANCH  71  77
ENDBRANCH  68  71
ENDBRANCH  67  68
BRANCH  67  81
ATOM     81  S   KGQ d   1      17.812  24.105  15.762  0.00  0.00     0.260 S 
ATOM     82  O10 KGQ d   1      18.775  23.030  15.819  0.00  0.00    -0.200 OA
ATOM     83  O9  KGQ d   1      16.717  23.916  14.838  0.00  0.00    -0.200 OA
BRANCH  81  84
ATOM     84  C23 KGQ d   1      18.699  25.600  15.327  0.00  0.00     0.079 A 
ATOM     85  C28 KGQ d   1      20.082  25.700  15.579  0.00  0.00    -0.058 A 
ATOM     86  C27 KGQ d   1      20.788  26.863  15.249  0.00  0.00    -0.049 A 
ATOM     87  H35 KGQ d   1      20.605  24.867  16.034  0.00  0.00     0.086 H 
ATOM     88  C26 KGQ d   1      20.124  27.952  14.653  0.00  0.00     0.068 A 
ATOM     89  H36 KGQ d   1      21.851  26.925  15.453  0.00  0.00     0.087 H 
ATOM     90  C25 KGQ d   1      18.744  27.852  14.399  0.00  0.00    -0.049 A 
ATOM     91  C24 KGQ d   1      18.036  26.685  14.730  0.00  0.00    -0.058 A 
ATOM     92  H40 KGQ d   1      18.221  28.685  13.943  0.00  0.00     0.087 H 
ATOM     93  H41 KGQ d   1      16.974  26.621  14.524  0.00  0.00     0.086 H 
BRANCH  88  94
ATOM     94  O5  KGQ d   1      20.821  29.117  14.321  0.00  0.00    -0.356 OA
BRANCH  94  95
ATOM     95  C31 KGQ d   1      22.184  29.321  14.722  0.00  0.00     0.010 C 
ATOM     96  H37 KGQ d   1      22.532  30.298  14.356  0.00  0.00     0.066 H 
ATOM     97  H38 KGQ d   1      22.814  28.525  14.298  0.00  0.00     0.066 H 
ATOM     98  H39 KGQ d   1      22.251  29.296  15.820  0.00  0.00     0.066 H 
ENDBRANCH  94  95
ENDBRANCH  88  94
ENDBRANCH  81  84
ENDBRANCH  67  81
ENDBRANCH  64  67
ENDBRANCH  60  64
ENDBRANCH   1  60
TORSDOF 26
