REMARK  17 active torsions:
REMARK  status: ('A' for Active; 'I' for Inactive)
REMARK    1  A    between atoms: CAB_1  and  CAO_2 
REMARK    2  A    between atoms: CAO_2  and  CBG_3 
REMARK    3  A    between atoms: CBG_3  and  CAZ_4 
REMARK    4  A    between atoms: CBG_3  and  CAC_7 
REMARK    5  A    between atoms: CBG_3  and  OAX_8 
REMARK    6  A    between atoms: OAX_8  and  CBB_9 
REMARK    7  A    between atoms: CBA_14  and  CAT_15 
REMARK    8  A    between atoms: CAT_15  and  CAV_16 
REMARK    9  A    between atoms: CAV_16  and  NBF_17 
REMARK   10  A    between atoms: NBF_17  and  CAU_18 
REMARK   11  A    between atoms: NBF_17  and  CBC_25 
REMARK   12  A    between atoms: CAU_18  and  CAS_19 
REMARK   13  A    between atoms: CAS_19  and  CAR_20 
REMARK   14  A    between atoms: CAR_20  and  CAQ_21 
REMARK   15  A    between atoms: CAQ_21  and  CAP_22 
REMARK   16  A    between atoms: CAP_22  and  CAN_23 
REMARK   17  A    between atoms: CAN_23  and  CAA_24 
ROOT
ATOM      1  NBF DRH d   1      15.734  15.279  13.598  0.00  0.00    -0.345 N 
ENDROOT
BRANCH   1   2
ATOM      2  CAV DRH d   1      16.369  14.501  14.676  0.00  0.00     0.002 C 
ATOM      3  H15 DRH d   1      16.072  14.945  15.638  0.00  0.00     0.064 H 
ATOM      4  H16 DRH d   1      15.995  13.468  14.618  0.00  0.00     0.064 H 
BRANCH   2   5
ATOM      5  CAT DRH d   1      17.899  14.457  14.624  0.00  0.00    -0.026 C 
ATOM      6  H13 DRH d   1      18.223  13.439  14.888  0.00  0.00     0.042 H 
ATOM      7  H14 DRH d   1      18.215  14.687  13.596  0.00  0.00     0.042 H 
BRANCH   5   8
ATOM      8  CBA DRH d   1      18.596  15.441  15.570  0.00  0.00    -0.057 A 
ATOM      9  CAI DRH d   1      18.057  15.774  16.810  0.00  0.00    -0.074 A 
ATOM     10  CAK DRH d   1      18.752  16.620  17.672  0.00  0.00    -0.050 A 
ATOM     11  H10 DRH d   1      17.094  15.374  17.106  0.00  0.00     0.084 H 
ATOM     12  CBB DRH d   1      19.992  17.137  17.303  0.00  0.00     0.070 A 
ATOM     13  H9  DRH d   1      18.326  16.877  18.635  0.00  0.00     0.087 H 
ATOM     14  CAJ DRH d   1      20.523  16.809  16.059  0.00  0.00    -0.050 A 
ATOM     15  CAH DRH d   1      19.830  15.964  15.197  0.00  0.00    -0.074 A 
ATOM     16  H11 DRH d   1      21.483  17.214  15.759  0.00  0.00     0.087 H 
ATOM     17  H12 DRH d   1      20.253  15.713  14.231  0.00  0.00     0.084 H 
BRANCH  12  18
ATOM     18  OAX DRH d   1      20.749  17.911  18.135  0.00  0.00    -0.330 OA
BRANCH  18  19
ATOM     19  CBG DRH d   1      20.208  18.845  19.078  0.00  0.00     0.151 C 
BRANCH  19  20
ATOM     20  CAO DRH d   1      19.426  19.937  18.342  0.00  0.00    -0.029 C 
ATOM     21  H4  DRH d   1      18.575  19.476  17.820  0.00  0.00     0.037 H 
ATOM     22  H5  DRH d   1      19.054  20.666  19.077  0.00  0.00     0.037 H 
BRANCH  20  23
ATOM     23  CAB DRH d   1      20.300  20.665  17.319  0.00  0.00    -0.073 C 
ATOM     24  H1  DRH d   1      19.704  21.439  16.813  0.00  0.00     0.027 H 
ATOM     25  H2  DRH d   1      20.672  19.945  16.576  0.00  0.00     0.027 H 
ATOM     26  H3  DRH d   1      21.152  21.135  17.833  0.00  0.00     0.027 H 
ENDBRANCH  20  23
ENDBRANCH  19  20
BRANCH  19  27
ATOM     27  CAZ DRH d   1      19.313  18.137  20.100  0.00  0.00     0.209 C 
ATOM     28  OAE DRH d   1      19.881  17.557  21.051  0.00  0.00    -0.646 OA
ATOM     29  OAD DRH d   1      18.078  18.178  19.911  0.00  0.00    -0.646 OA
ENDBRANCH  19  27
BRANCH  19  30
ATOM     30  CAC DRH d   1      21.387  19.465  19.833  0.00  0.00    -0.037 C 
ATOM     31  H6  DRH d   1      21.943  18.674  20.358  0.00  0.00     0.032 H 
ATOM     32  H7  DRH d   1      21.011  20.196  20.564  0.00  0.00     0.032 H 
ATOM     33  H8  DRH d   1      22.055  19.970  19.119  0.00  0.00     0.032 H 
ENDBRANCH  19  30
ENDBRANCH  18  19
ENDBRANCH  12  18
ENDBRANCH   5   8
ENDBRANCH   2   5
ENDBRANCH   1   2
BRANCH   1  34
ATOM     34  CAU DRH d   1      14.271  15.232  13.437  0.00  0.00    -0.002 C 
ATOM     35  H17 DRH d   1      14.033  14.678  12.517  0.00  0.00     0.064 H 
ATOM     36  H18 DRH d   1      13.890  16.261  13.355  0.00  0.00     0.064 H 
BRANCH  34  37
ATOM     37  CAS DRH d   1      13.584  14.544  14.618  0.00  0.00    -0.050 C 
ATOM     38  H19 DRH d   1      13.765  15.134  15.528  0.00  0.00     0.035 H 
ATOM     39  H20 DRH d   1      14.011  13.538  14.742  0.00  0.00     0.035 H 
BRANCH  37  40
ATOM     40  CAR DRH d   1      12.075  14.418  14.402  0.00  0.00    -0.064 C 
ATOM     41  H21 DRH d   1      11.879  13.724  13.572  0.00  0.00     0.033 H 
ATOM     42  H22 DRH d   1      11.654  15.405  14.162  0.00  0.00     0.033 H 
BRANCH  40  43
ATOM     43  CAQ DRH d   1      11.429  13.883  15.681  0.00  0.00    -0.065 C 
ATOM     44  H23 DRH d   1      11.636  14.585  16.502  0.00  0.00     0.033 H 
ATOM     45  H24 DRH d   1      11.869  12.903  15.917  0.00  0.00     0.033 H 
BRANCH  43  46
ATOM     46  CAP DRH d   1       9.914  13.721  15.542  0.00  0.00    -0.065 C 
ATOM     47  H25 DRH d   1       9.702  12.931  14.807  0.00  0.00     0.033 H 
ATOM     48  H26 DRH d   1       9.480  14.671  15.195  0.00  0.00     0.033 H 
BRANCH  46  49
ATOM     49  CAN DRH d   1       9.282  13.341  16.883  0.00  0.00    -0.069 C 
ATOM     50  H27 DRH d   1       8.196  13.230  16.746  0.00  0.00     0.032 H 
ATOM     51  H28 DRH d   1       9.480  14.143  17.609  0.00  0.00     0.032 H 
BRANCH  49  52
ATOM     52  CAA DRH d   1       9.849  12.028  17.429  0.00  0.00    -0.077 C 
ATOM     53  H29 DRH d   1       9.369  11.793  18.390  0.00  0.00     0.027 H 
ATOM     54  H30 DRH d   1      10.934  12.130  17.576  0.00  0.00     0.027 H 
ATOM     55  H31 DRH d   1       9.651  11.217  16.713  0.00  0.00     0.027 H 
ENDBRANCH  49  52
ENDBRANCH  46  49
ENDBRANCH  43  46
ENDBRANCH  40  43
ENDBRANCH  37  40
ENDBRANCH  34  37
ENDBRANCH   1  34
BRANCH   1  56
ATOM     56  CBC DRH d   1      16.422  15.879  12.627  0.00  0.00     0.250 A 
ATOM     57  OAY DRH d   1      17.770  15.787  12.421  0.00  0.00    -0.276 OA
ATOM     58  CBE DRH d   1      18.022  16.468  11.265  0.00  0.00     0.108 A 
ATOM     59  CAM DRH d   1      19.188  16.699  10.542  0.00  0.00    -0.048 A 
ATOM     60  CBD DRH d   1      16.807  16.964  10.803  0.00  0.00     0.095 A 
ATOM     61  CAG DRH d   1      19.137  17.428   9.357  0.00  0.00    -0.080 A 
ATOM     62  H32 DRH d   1      20.135  16.312  10.901  0.00  0.00     0.087 H 
ATOM     63  CAF DRH d   1      17.921  17.926   8.899  0.00  0.00    -0.081 A 
ATOM     64  H33 DRH d   1      20.044  17.608   8.791  0.00  0.00     0.083 H 
ATOM     65  CAL DRH d   1      16.754  17.696   9.621  0.00  0.00    -0.052 A 
ATOM     66  H34 DRH d   1      17.883  18.495   7.977  0.00  0.00     0.083 H 
ATOM     67  H35 DRH d   1      15.807  18.085   9.264  0.00  0.00     0.087 H 
ATOM     68  NAW DRH d   1      15.858  16.589  11.655  0.00  0.00    -0.206 NA
ENDBRANCH   1  56
TORSDOF 17
