REMARK  8 active torsions:
REMARK  status: ('A' for Active; 'I' for Inactive)
REMARK    1  A    between atoms: C41_25  and  C3_3 
REMARK    2  A    between atoms: C4_4  and  C8_7 
REMARK    3  A    between atoms: C5_5  and  N52_30 
REMARK    4  A    between atoms: C11_10  and  N43_27 
REMARK    5  A    between atoms: C20_15  and  N32_24 
REMARK    6  A    between atoms: C42_26  and  C23_18 
REMARK    7  A    between atoms: N43_27  and  C44_28 
REMARK    8  A    between atoms: N43_27  and  C48_29 
ROOT
ATOM      1  C1  89I d   1       5.431  -2.796  30.043  0.00  0.00     0.090 A 
ATOM      2  N2  89I d   1       4.419  -3.071  29.252  0.00  0.00    -0.232 NA
ATOM      3  C3  89I d   1       4.755  -3.083  27.958  0.00  0.00     0.126 A 
ATOM      4  C4  89I d   1       5.993  -2.835  27.429  0.00  0.00     0.057 A 
ATOM      5  C5  89I d   1       6.953  -2.559  28.386  0.00  0.00     0.136 A 
ATOM      6  N6  89I d   1       6.681  -2.521  29.686  0.00  0.00    -0.224 NA
ATOM      7  H1  89I d   1       5.223  -2.793  31.107  0.00  0.00     0.146 H 
ENDROOT
BRANCH   3   8
ATOM      8  C41 89I d   1       3.720  -3.391  27.054  0.00  0.00    -0.040 C 
ATOM      9  C42 89I d   1       2.854  -3.413  26.198  0.00  0.00    -0.058 C 
BRANCH   9  10
ATOM     10  C23 89I d   1       2.130  -3.290  25.035  0.00  0.00     0.035 A 
ATOM     11  C18 89I d   1       0.770  -3.223  25.093  0.00  0.00     0.022 A 
ATOM     12  N19 89I d   1      -0.047  -3.039  24.052  0.00  0.00    -0.242 NA
ATOM     13  H6  89I d   1       0.311  -3.328  26.069  0.00  0.00     0.117 H 
ATOM     14  C20 89I d   1       0.583  -2.929  22.859  0.00  0.00     0.125 A 
ATOM     15  C21 89I d   1       1.964  -2.982  22.714  0.00  0.00    -0.037 A 
ATOM     16  C22 89I d   1       2.763  -3.141  23.831  0.00  0.00    -0.060 A 
ATOM     17  H7  89I d   1       2.412  -2.899  21.730  0.00  0.00     0.089 H 
ATOM     18  H8  89I d   1       3.844  -3.147  23.756  0.00  0.00     0.086 H 
BRANCH  14  19
ATOM     19  N32 89I d   1      -0.154  -2.777  21.669  0.00  0.00    -0.362 N 
ATOM     20  C27 89I d   1       0.613  -2.505  20.447  0.00  0.00     0.016 C 
ATOM     21  C28 89I d   1      -0.236  -2.925  19.249  0.00  0.00     0.034 C 
ATOM     22  H9  89I d   1       0.843  -1.431  20.383  0.00  0.00     0.067 H 
ATOM     23  H10 89I d   1       1.550  -3.081  20.460  0.00  0.00     0.067 H 
ATOM     24  O29 89I d   1      -1.558  -2.418  19.465  0.00  0.00    -0.388 OA
ATOM     25  H11 89I d   1      -0.262  -4.022  19.172  0.00  0.00     0.076 H 
ATOM     26  H12 89I d   1       0.183  -2.502  18.324  0.00  0.00     0.076 H 
ATOM     27  C30 89I d   1      -2.170  -3.011  20.586  0.00  0.00     0.034 C 
ATOM     28  C31 89I d   1      -1.518  -2.417  21.812  0.00  0.00     0.016 C 
ATOM     29  H13 89I d   1      -2.017  -4.100  20.567  0.00  0.00     0.076 H 
ATOM     30  H14 89I d   1      -3.248  -2.792  20.588  0.00  0.00     0.076 H 
ATOM     31  H15 89I d   1      -1.944  -2.846  22.731  0.00  0.00     0.067 H 
ATOM     32  H16 89I d   1      -1.636  -1.323  21.829  0.00  0.00     0.067 H 
ENDBRANCH  14  19
ENDBRANCH   9  10
ENDBRANCH   3   8
BRANCH   4  33
ATOM     33  C8  89I d   1       6.273  -2.955  26.007  0.00  0.00    -0.019 A 
ATOM     34  C9  89I d   1       6.218  -4.219  25.503  0.00  0.00    -0.070 A 
ATOM     35  C10 89I d   1       6.499  -4.498  24.182  0.00  0.00    -0.061 A 
ATOM     36  H2  89I d   1       5.944  -5.034  26.163  0.00  0.00     0.084 H 
ATOM     37  C11 89I d   1       6.832  -3.519  23.290  0.00  0.00     0.009 A 
ATOM     38  H3  89I d   1       6.454  -5.526  23.841  0.00  0.00     0.086 H 
ATOM     39  C12 89I d   1       6.855  -2.234  23.799  0.00  0.00    -0.061 A 
ATOM     40  C13 89I d   1       6.593  -1.957  25.129  0.00  0.00    -0.070 A 
ATOM     41  H4  89I d   1       7.087  -1.412  23.131  0.00  0.00     0.086 H 
ATOM     42  H5  89I d   1       6.642  -0.933  25.480  0.00  0.00     0.084 H 
BRANCH  37  43
ATOM     43  N43 89I d   1       7.110  -3.929  21.950  0.00  0.00    -0.292 NA
BRANCH  43  44
ATOM     44  C44 89I d   1       7.653  -2.905  21.035  0.00  0.00    -0.029 C 
ATOM     45  H17 89I d   1       7.820  -3.351  20.043  0.00  0.00     0.048 H 
ATOM     46  H18 89I d   1       8.606  -2.527  21.432  0.00  0.00     0.048 H 
ATOM     47  H19 89I d   1       6.937  -2.075  20.948  0.00  0.00     0.048 H 
ENDBRANCH  43  44
BRANCH  43  48
ATOM     48  C48 89I d   1       8.033  -5.045  22.115  0.00  0.00    -0.029 C 
ATOM     49  H20 89I d   1       7.595  -5.785  22.801  0.00  0.00     0.048 H 
ATOM     50  H21 89I d   1       8.983  -4.677  22.530  0.00  0.00     0.048 H 
ATOM     51  H22 89I d   1       8.218  -5.516  21.138  0.00  0.00     0.048 H 
ENDBRANCH  43  48
ENDBRANCH  37  43
ENDBRANCH   4  33
BRANCH   5  52
ATOM     52  N52 89I d   1       8.244  -2.292  27.987  0.00  0.00    -0.383 N 
ATOM     53  H23 89I d   1       8.968  -2.085  28.690  0.00  0.00     0.157 HD
ATOM     54  H24 89I d   1       8.486  -2.299  26.986  0.00  0.00     0.157 HD
ENDBRANCH   5  52
TORSDOF 8
