REMARK  6 active torsions:
REMARK  status: ('A' for Active; 'I' for Inactive)
REMARK    1  A    between atoms: C20_2  and  C3_5 
REMARK    2  A    between atoms: C6_10  and  N11_11 
REMARK       I    between atoms: N11_11  and  C12_12 
REMARK    3  A    between atoms: C12_12  and  C13_14 
REMARK    4  A    between atoms: C13_14  and  C14_15 
REMARK    5  A    between atoms: C13_14  and  C15_16 
REMARK    6  A    between atoms: C13_14  and  C16_17 
ROOT
ATOM      1  N11 NON d   1      34.551   5.503  26.168  0.00  0.00    -0.327 N 
ATOM      2  C12 NON d   1      34.765   6.494  25.332  0.00  0.00     0.231 C 
ATOM      3  O18 NON d   1      34.996   6.240  24.172  0.00  0.00    -0.272 OA
ATOM      4  H5  NON d   1      34.335   5.729  27.118  0.00  0.00     0.169 HD
ENDROOT
BRANCH   1   5
ATOM      5  C6  NON d   1      34.605   4.204  25.824  0.00  0.00     0.034 A 
ATOM      6  C1  NON d   1      34.850   3.746  24.536  0.00  0.00    -0.056 A 
ATOM      7  C2  NON d   1      34.897   2.398  24.263  0.00  0.00    -0.066 A 
ATOM      8  H2  NON d   1      35.006   4.460  23.735  0.00  0.00     0.086 H 
ATOM      9  C3  NON d   1      34.717   1.486  25.266  0.00  0.00     0.048 A 
ATOM     10  H1  NON d   1      35.077   2.058  23.250  0.00  0.00     0.084 H 
ATOM     11  C4  NON d   1      34.523   1.925  26.558  0.00  0.00    -0.066 A 
ATOM     12  C5  NON d   1      34.460   3.269  26.832  0.00  0.00    -0.056 A 
ATOM     13  H3  NON d   1      34.420   1.205  27.362  0.00  0.00     0.084 H 
ATOM     14  H4  NON d   1      34.295   3.601  27.851  0.00  0.00     0.086 H 
BRANCH   9  15
ATOM     15  C20 NON d   1      34.862   0.031  24.955  0.00  0.00     0.417 C 
ATOM     16  F23 NON d   1      35.299  -0.610  25.993  0.00  0.00    -0.166 F 
ATOM     17  F21 NON d   1      35.844  -0.078  24.083  0.00  0.00    -0.166 F 
ATOM     18  F22 NON d   1      33.826  -0.568  24.486  0.00  0.00    -0.166 F 
ENDBRANCH   9  15
ENDBRANCH   1   5
BRANCH   2  19
ATOM     19  C13 NON d   1      34.677   7.972  25.696  0.00  0.00     0.046 C 
BRANCH  19  20
ATOM     20  C14 NON d   1      34.372   8.389  27.151  0.00  0.00    -0.060 C 
ATOM     21  H6  NON d   1      34.348   9.486  27.221  0.00  0.00     0.029 H 
ATOM     22  H7  NON d   1      35.155   7.996  27.817  0.00  0.00     0.029 H 
ATOM     23  H8  NON d   1      33.396   7.981  27.452  0.00  0.00     0.029 H 
ENDBRANCH  19  20
BRANCH  19  24
ATOM     24  C15 NON d   1      36.018   8.576  25.180  0.00  0.00    -0.060 C 
ATOM     25  H9  NON d   1      36.191   8.252  24.143  0.00  0.00     0.029 H 
ATOM     26  H10 NON d   1      36.846   8.228  25.816  0.00  0.00     0.029 H 
ATOM     27  H11 NON d   1      35.964   9.674  25.217  0.00  0.00     0.029 H 
ENDBRANCH  19  24
BRANCH  19  28
ATOM     28  C16 NON d   1      33.497   8.408  24.883  0.00  0.00     0.017 C 
ATOM     29 CL17 NON d   1      33.326   7.586  23.339  0.00  0.00    -0.129 Cl
ATOM     30  H12 NON d   1      33.594   9.486  24.688  0.00  0.00     0.058 H 
ATOM     31  H13 NON d   1      32.587   8.223  25.473  0.00  0.00     0.058 H 
ENDBRANCH  19  28
ENDBRANCH   2  19
TORSDOF 6
