REMARK  16 active torsions:
REMARK  status: ('A' for Active; 'I' for Inactive)
REMARK    1  A    between atoms: C2_2  and  N1_1 
REMARK    2  A    between atoms: S8_8  and  C5_5 
REMARK    3  A    between atoms: N11_11  and  S8_8 
REMARK    4  A    between atoms: N11_11  and  C12_12 
REMARK    5  A    between atoms: C16_16  and  N11_11 
REMARK    6  A    between atoms: C12_12  and  C13_13 
REMARK    7  A    between atoms: C13_13  and  C14_14 
REMARK    8  A    between atoms: C13_13  and  C15_15 
REMARK    9  A    between atoms: C17_17  and  C16_16 
REMARK   10  A    between atoms: C17_17  and  O18_18 
REMARK   11  A    between atoms: C19_19  and  C17_17 
REMARK   12  A    between atoms: C19_19  and  N20_20 
REMARK   13  A    between atoms: C32_32  and  C19_19 
REMARK       I    between atoms: N20_20  and  C21_21 
REMARK   14  A    between atoms: C21_21  and  O23_23 
REMARK   15  A    between atoms: O23_23  and  C24_24 
REMARK   16  A    between atoms: C38_38  and  C32_32 
ROOT
ATOM      1  C19 017 d   1      19.683  28.868  14.606  0.00  0.00     0.044 C 
ATOM      2  H20 017 d   1      19.659  29.761  13.964  0.00  0.00     0.077 H 
ENDROOT
BRANCH   1   3
ATOM      3  C17 017 d   1      20.082  29.311  16.015  0.00  0.00     0.071 C 
ATOM      4  H18 017 d   1      21.124  29.660  15.968  0.00  0.00     0.088 H 
BRANCH   3   5
ATOM      5  C16 017 d   1      19.217  30.448  16.629  0.00  0.00     0.031 C 
ATOM      6  H16 017 d   1      18.148  30.211  16.521  0.00  0.00     0.069 H 
ATOM      7  H17 017 d   1      19.459  30.574  17.695  0.00  0.00     0.069 H 
BRANCH   5   8
ATOM      8  N11 017 d   1      19.547  31.705  15.872  0.00  0.00    -0.304 N 
BRANCH   8   9
ATOM      9  S8  017 d   1      18.310  32.342  14.899  0.00  0.00     0.260 S 
ATOM     10  O9  017 d   1      17.496  31.213  14.407  0.00  0.00    -0.200 OA
ATOM     11  O10 017 d   1      19.002  33.184  13.917  0.00  0.00    -0.200 OA
BRANCH   9  12
ATOM     12  C5  017 d   1      17.325  33.576  15.808  0.00  0.00     0.079 A 
ATOM     13  C4  017 d   1      16.271  33.173  16.666  0.00  0.00    -0.058 A 
ATOM     14  C3  017 d   1      15.578  34.164  17.389  0.00  0.00    -0.056 A 
ATOM     15  H4  017 d   1      16.004  32.127  16.764  0.00  0.00     0.086 H 
ATOM     16  C2  017 d   1      15.971  35.518  17.253  0.00  0.00     0.025 A 
ATOM     17  H3  017 d   1      14.755  33.894  18.041  0.00  0.00     0.086 H 
ATOM     18  C7  017 d   1      17.008  35.880  16.399  0.00  0.00    -0.056 A 
ATOM     19  C6  017 d   1      17.721  34.892  15.708  0.00  0.00    -0.058 A 
ATOM     20  H6  017 d   1      17.264  36.925  16.269  0.00  0.00     0.086 H 
ATOM     21  H5  017 d   1      18.577  35.160  15.100  0.00  0.00     0.086 H 
BRANCH  16  22
ATOM     22  N1  017 d   1      15.369  36.522  17.952  0.00  0.00    -0.399 N 
ATOM     23  H1  017 d   1      14.596  36.308  18.598  0.00  0.00     0.156 HD
ATOM     24  H2  017 d   1      15.687  37.494  17.834  0.00  0.00     0.156 HD
ENDBRANCH  16  22
ENDBRANCH   9  12
ENDBRANCH   8   9
BRANCH   8  25
ATOM     25  C12 017 d   1      20.385  32.719  16.539  0.00  0.00     0.008 C 
ATOM     26  H7  017 d   1      20.032  32.844  17.573  0.00  0.00     0.066 H 
ATOM     27  H8  017 d   1      20.284  33.672  15.999  0.00  0.00     0.066 H 
BRANCH  25  28
ATOM     28  C13 017 d   1      21.864  32.326  16.569  0.00  0.00    -0.045 C 
ATOM     29  H9  017 d   1      21.974  31.330  17.023  0.00  0.00     0.041 H 
BRANCH  28  30
ATOM     30  C14 017 d   1      22.409  32.281  15.142  0.00  0.00    -0.072 C 
ATOM     31  H10 017 d   1      23.472  31.998  15.164  0.00  0.00     0.028 H 
ATOM     32  H11 017 d   1      22.303  33.272  14.678  0.00  0.00     0.028 H 
ATOM     33  H12 017 d   1      21.845  31.540  14.557  0.00  0.00     0.028 H 
ENDBRANCH  28  30
BRANCH  28  34
ATOM     34  C15 017 d   1      22.599  33.350  17.422  0.00  0.00    -0.072 C 
ATOM     35  H13 017 d   1      22.178  33.351  18.438  0.00  0.00     0.028 H 
ATOM     36  H14 017 d   1      22.484  34.349  16.976  0.00  0.00     0.028 H 
ATOM     37  H15 017 d   1      23.667  33.090  17.468  0.00  0.00     0.028 H 
ENDBRANCH  28  34
ENDBRANCH  25  28
ENDBRANCH   8  25
ENDBRANCH   5   8
ENDBRANCH   3   5
BRANCH   3  38
ATOM     38  O18 017 d   1      19.992  28.199  16.929  0.00  0.00    -0.392 OA
ATOM     39  H19 017 d   1      19.084  27.932  17.012  0.00  0.00     0.210 HD
ENDBRANCH   3  38
ENDBRANCH   1   3
BRANCH   1  40
ATOM     40  N20 017 d   1      20.679  27.940  14.099  0.00  0.00    -0.329 N 
ATOM     41  C21 017 d   1      21.531  28.287  13.131  0.00  0.00     0.361 C 
ATOM     42  O22 017 d   1      21.616  29.343  12.526  0.00  0.00    -0.238 OA
ATOM     43  H21 017 d   1      20.728  27.018  14.484  0.00  0.00     0.165 HD
BRANCH  41  44
ATOM     44  O23 017 d   1      22.386  27.235  12.884  0.00  0.00    -0.296 OA
BRANCH  44  45
ATOM     45  C24 017 d   1      23.207  27.316  11.700  0.00  0.00     0.078 C 
ATOM     46  C25 017 d   1      24.526  26.625  12.047  0.00  0.00     0.048 C 
ATOM     47  O26 017 d   1      24.254  25.237  11.965  0.00  0.00    -0.358 OA
ATOM     48  H23 017 d   1      24.847  26.895  13.064  0.00  0.00     0.078 H 
ATOM     49  H24 017 d   1      25.309  26.907  11.328  0.00  0.00     0.078 H 
ATOM     50  C27 017 d   1      23.257  25.046  10.973  0.00  0.00     0.137 C 
ATOM     51  O28 017 d   1      22.229  24.229  11.527  0.00  0.00    -0.361 OA
ATOM     52  C31 017 d   1      22.653  26.378  10.613  0.00  0.00     0.023 C 
ATOM     53  H25 017 d   1      23.691  24.570  10.082  0.00  0.00     0.129 H 
ATOM     54  C29 017 d   1      20.986  24.964  11.569  0.00  0.00     0.023 C 
ATOM     55  C30 017 d   1      21.176  26.163  10.605  0.00  0.00    -0.035 C 
ATOM     56  H26 017 d   1      20.785  25.321  12.590  0.00  0.00     0.074 H 
ATOM     57  H27 017 d   1      20.153  24.329  11.232  0.00  0.00     0.074 H 
ATOM     58  H28 017 d   1      20.646  27.053  10.974  0.00  0.00     0.037 H 
ATOM     59  H29 017 d   1      20.819  25.917   9.594  0.00  0.00     0.037 H 
ATOM     60  H30 017 d   1      22.976  26.725   9.620  0.00  0.00     0.051 H 
ATOM     61  H22 017 d   1      23.328  28.353  11.352  0.00  0.00     0.088 H 
ENDBRANCH  44  45
ENDBRANCH  41  44
ENDBRANCH   1  40
BRANCH   1  62
ATOM     62  C32 017 d   1      18.304  28.178  14.523  0.00  0.00    -0.020 C 
ATOM     63  H31 017 d   1      17.531  28.886  14.856  0.00  0.00     0.043 H 
ATOM     64  H32 017 d   1      18.305  27.299  15.184  0.00  0.00     0.043 H 
BRANCH  62  65
ATOM     65  C38 017 d   1      17.985  27.731  13.114  0.00  0.00    -0.056 A 
ATOM     66  C33 017 d   1      17.870  26.361  12.811  0.00  0.00    -0.077 A 
ATOM     67  C34 017 d   1      17.589  25.958  11.509  0.00  0.00    -0.082 A 
ATOM     68  H33 017 d   1      18.000  25.620  13.592  0.00  0.00     0.084 H 
ATOM     69  C35 017 d   1      17.463  26.881  10.486  0.00  0.00    -0.083 A 
ATOM     70  H34 017 d   1      17.467  24.903  11.293  0.00  0.00     0.083 H 
ATOM     71  C36 017 d   1      17.558  28.244  10.803  0.00  0.00    -0.082 A 
ATOM     72  H35 017 d   1      17.295  26.559   9.465  0.00  0.00     0.083 H 
ATOM     73  C37 017 d   1      17.834  28.682  12.082  0.00  0.00    -0.077 A 
ATOM     74  H36 017 d   1      17.410  28.977  10.018  0.00  0.00     0.083 H 
ATOM     75  H37 017 d   1      17.933  29.741  12.291  0.00  0.00     0.084 H 
ENDBRANCH  62  65
ENDBRANCH   1  62
TORSDOF 16
