REMARK  1 active torsions:
REMARK  status: ('A' for Active; 'I' for Inactive)
REMARK    1  A    between atoms: C2_12  and  O1_11 
ROOT
ATOM      1  C13 LG7 d   1      27.812   4.260   3.914  0.00  0.00    -0.054 A 
ATOM      2  C18 LG7 d   1      22.585   4.404   4.498  0.00  0.00    -0.082 A 
ATOM      3  C17 LG7 d   1      23.513   5.364   4.252  0.00  0.00    -0.071 A 
ATOM      4  C16 LG7 d   1      24.911   4.891   4.149  0.00  0.00    -0.003 A 
ATOM      5  C15 LG7 d   1      25.995   5.894   3.881  0.00  0.00     0.055 A 
ATOM      6  C19 LG7 d   1      22.945   3.026   4.663  0.00  0.00    -0.082 A 
ATOM      7  C20 LG7 d   1      24.309   2.521   4.571  0.00  0.00    -0.070 A 
ATOM      8  C21 LG7 d   1      25.324   3.543   4.302  0.00  0.00     0.003 A 
ATOM      9  C22 LG7 d   1      25.574   7.280   3.802  0.00  0.00     0.100 C 
ATOM     10  C12 LG7 d   1      26.761   3.249   4.173  0.00  0.00     0.057 A 
ATOM     11  C2  LG7 d   1      29.947  -0.083   4.142  0.00  0.00     0.064 C 
ATOM     12  C3  LG7 d   1      29.544  -1.382   3.236  0.00  0.00    -0.024 C 
ATOM     13  C4  LG7 d   1      27.921  -1.376   3.124  0.00  0.00     0.003 C 
ATOM     14  N5  LG7 d   1      27.815  -0.005   3.787  0.00  0.00    -0.318 N 
ATOM     15  C6  LG7 d   1      28.565   0.221   4.924  0.00  0.00     0.106 A 
ATOM     16  C7  LG7 d   1      28.250   1.659   5.279  0.00  0.00     0.192 A 
ATOM     17  O8  LG7 d   1      28.820   2.262   6.343  0.00  0.00    -0.174 OA
ATOM     18  N9  LG7 d   1      27.346   2.040   4.295  0.00  0.00    -0.242 N 
ATOM     19  C10 LG7 d   1      27.100   1.035   3.415  0.00  0.00     0.332 A 
ATOM     20  O11 LG7 d   1      26.365   1.045   2.439  0.00  0.00    -0.246 OA
ATOM     21  C14 LG7 d   1      27.419   5.575   3.751  0.00  0.00    -0.060 A 
ATOM     22  N23 LG7 d   1      25.228   8.421   3.739  0.00  0.00    -0.191 NA
ATOM     23  H1  LG7 d   1      28.857   3.977   3.854  0.00  0.00     0.087 H 
ATOM     24  H2  LG7 d   1      21.541   4.688   4.572  0.00  0.00     0.083 H 
ATOM     25  H3  LG7 d   1      23.247   6.409   4.138  0.00  0.00     0.084 H 
ATOM     26  H4  LG7 d   1      22.153   2.315   4.869  0.00  0.00     0.083 H 
ATOM     27  H5  LG7 d   1      24.553   1.472   4.692  0.00  0.00     0.084 H 
ATOM     28  H7  LG7 d   1      30.783  -0.275   4.831  0.00  0.00     0.086 H 
ATOM     29  H8  LG7 d   1      29.889  -2.307   3.722  0.00  0.00     0.039 H 
ATOM     30  H9  LG7 d   1      29.995  -1.303   2.236  0.00  0.00     0.039 H 
ATOM     31  H10 LG7 d   1      27.438  -2.180   3.698  0.00  0.00     0.064 H 
ATOM     32  H11 LG7 d   1      27.552  -1.393   2.088  0.00  0.00     0.064 H 
ATOM     33  H12 LG7 d   1      28.387  -0.450   5.777  0.00  0.00     0.090 H 
ATOM     34  H13 LG7 d   1      28.145   6.350   3.533  0.00  0.00     0.086 H 
ENDROOT
BRANCH  11  35
ATOM     35  O1  LG7 d   1      30.252   0.944   3.243  0.00  0.00    -0.393 OA
ATOM     36  H6  LG7 d   1      30.494   1.725   3.727  0.00  0.00     0.210 HD
ENDBRANCH  11  35
TORSDOF 1
