REMARK  7 active torsions:
REMARK  status: ('A' for Active; 'I' for Inactive)
REMARK    1  A    between atoms: C2_3  and  N4_8 
REMARK    2  A    between atoms: C3_5  and  C5_9 
REMARK    3  A    between atoms: C9_13  and  C4_6 
REMARK    4  A    between atoms: C5_9  and  C6_10 
REMARK    5  A    between atoms: N5_17  and  C12_16 
REMARK    6  A    between atoms: C19_25  and  N5_17 
REMARK    7  A    between atoms: C15_20  and  C19_25 
ROOT
ATOM      1  C7  7IG d   1     -13.306  24.254 -36.510  0.00  0.00    -0.057 A 
ATOM      2  C8  7IG d   1     -12.406  24.987 -35.753  0.00  0.00    -0.070 A 
ATOM      3  C9  7IG d   1     -12.807  26.085 -35.003  0.00  0.00    -0.020 A 
ATOM      4  C10 7IG d   1     -14.146  26.481 -35.004  0.00  0.00    -0.070 A 
ATOM      5  C11 7IG d   1     -15.062  25.749 -35.770  0.00  0.00    -0.057 A 
ATOM      6  C12 7IG d   1     -14.646  24.632 -36.521  0.00  0.00     0.028 A 
ATOM      7  H10 7IG d   1     -12.972  23.398 -37.086  0.00  0.00     0.086 H 
ATOM      8  H11 7IG d   1     -11.362  24.696 -35.746  0.00  0.00     0.084 H 
ATOM      9  H12 7IG d   1     -14.470  27.337 -34.424  0.00  0.00     0.084 H 
ATOM     10  H13 7IG d   1     -16.105  26.046 -35.785  0.00  0.00     0.086 H 
ENDROOT
BRANCH   3  11
ATOM     11  C4  7IG d   1     -11.675  26.717 -34.263  0.00  0.00     0.045 A 
ATOM     12  C1  7IG d   1     -10.675  27.592 -34.949  0.00  0.00     0.153 A 
ATOM     13  N1  7IG d   1      -9.628  28.092 -34.247  0.00  0.00    -0.045 NA
ATOM     14  N3  7IG d   1     -10.803  27.893 -36.259  0.00  0.00    -0.383 N 
ATOM     15  C2  7IG d   1      -9.474  27.801 -32.926  0.00  0.00     0.722 A 
ATOM     16  N2  7IG d   1     -10.349  27.021 -32.254  0.00  0.00    -0.067 NA
ATOM     17  C3  7IG d   1     -11.431  26.448 -32.833  0.00  0.00     0.068 A 
ATOM     18  H1  7IG d   1     -11.596  27.517 -36.799  0.00  0.00     0.157 HD
ATOM     19  H2  7IG d   1     -10.108  28.499 -36.719  0.00  0.00     0.157 HD
BRANCH  15  20
ATOM     20  N4  7IG d   1      -8.428  28.330 -32.249  0.00  0.00    -0.231 N 
ATOM     21  H3  7IG d   1      -7.747  28.928 -32.739  0.00  0.00     0.174 HD
ATOM     22  H4  7IG d   1      -8.313  28.135 -31.244  0.00  0.00     0.174 HD
ENDBRANCH  15  20
BRANCH  17  23
ATOM     23  C5  7IG d   1     -12.332  25.572 -31.997  0.00  0.00    -0.026 C 
ATOM     24  H5  7IG d   1     -13.326  25.520 -32.465  0.00  0.00     0.041 H 
ATOM     25  H6  7IG d   1     -12.424  26.002 -30.989  0.00  0.00     0.041 H 
BRANCH  23  26
ATOM     26  C6  7IG d   1     -11.755  24.182 -31.896  0.00  0.00    -0.071 C 
ATOM     27  H7  7IG d   1     -12.419  23.553 -31.285  0.00  0.00     0.028 H 
ATOM     28  H8  7IG d   1     -10.762  24.231 -31.426  0.00  0.00     0.028 H 
ATOM     29  H9  7IG d   1     -11.664  23.749 -32.903  0.00  0.00     0.028 H 
ENDBRANCH  23  26
ENDBRANCH  17  23
ENDBRANCH   3  11
BRANCH   6  30
ATOM     30  N5  7IG d   1     -15.539  23.921 -37.261  0.00  0.00    -0.386 N 
ATOM     31  H14 7IG d   1     -16.523  24.225 -37.272  0.00  0.00     0.160 HD
BRANCH  30  32
ATOM     32  C19 7IG d   1     -15.160  22.742 -38.043  0.00  0.00     0.017 C 
ATOM     33  H18 7IG d   1     -16.039  22.087 -38.136  0.00  0.00     0.071 H 
ATOM     34  H19 7IG d   1     -14.361  22.209 -37.507  0.00  0.00     0.071 H 
BRANCH  32  35
ATOM     35  C15 7IG d   1     -14.663  23.083 -39.434  0.00  0.00    -0.035 A 
ATOM     36  C14 7IG d   1     -14.775  22.092 -40.395  0.00  0.00    -0.038 A 
ATOM     37  C13 7IG d   1     -14.355  22.333 -41.692  0.00  0.00     0.119 A 
ATOM     38  H15 7IG d   1     -15.192  21.127 -40.131  0.00  0.00     0.089 H 
ATOM     39  C18 7IG d   1     -13.832  23.579 -42.044  0.00  0.00    -0.009 A 
ATOM     40  F1  7IG d   1     -14.469  21.353 -42.610  0.00  0.00    -0.206 F 
ATOM     41  C17 7IG d   1     -13.721  24.590 -41.094  0.00  0.00     0.119 A 
ATOM     42  H17 7IG d   1     -13.511  23.760 -43.063  0.00  0.00     0.092 H 
ATOM     43  C16 7IG d   1     -14.130  24.340 -39.785  0.00  0.00    -0.038 A 
ATOM     44  F2  7IG d   1     -13.204  25.796 -41.436  0.00  0.00    -0.206 F 
ATOM     45  H16 7IG d   1     -14.038  25.116 -39.033  0.00  0.00     0.089 H 
ENDBRANCH  32  35
ENDBRANCH  30  32
ENDBRANCH   6  30
TORSDOF 7
