REMARK  4 active torsions:
REMARK  status: ('A' for Active; 'I' for Inactive)
REMARK    1  A    between atoms: C1_1  and  C2_2 
REMARK       I    between atoms: C1_1  and  N2_3 
REMARK    2  A    between atoms: C2_2  and  O1P_6 
REMARK    3  A    between atoms: N2_3  and  O2_4 
REMARK    4  A    between atoms: O1P_6  and  P_10 
ROOT
ATOM      1  C2  PGH d   1     -26.338  14.926  56.497  0.00  0.00     0.107 C 
ATOM      2  H1  PGH d   1     -26.550  13.848  56.433  0.00  0.00     0.090 H 
ATOM      3  H2  PGH d   1     -26.452  15.382  55.502  0.00  0.00     0.090 H 
ENDROOT
BRANCH   1   4
ATOM      4  C1  PGH d   1     -24.805  15.214  57.134  0.00  0.00     0.265 C 
ATOM      5  N2  PGH d   1     -24.369  14.071  57.579  0.00  0.00    -0.236 N 
ATOM      6  H3  PGH d   1     -24.868  13.205  57.548  0.00  0.00     0.197 HD
ATOM      7  O1  PGH d   1     -24.311  16.316  57.108  0.00  0.00    -0.269 OA
BRANCH   5   8
ATOM      8  O2  PGH d   1     -23.036  14.263  58.128  0.00  0.00    -0.287 OA
ATOM      9  H4  PGH d   1     -22.707  13.434  58.456  0.00  0.00     0.244 HD
ENDBRANCH   5   8
ENDBRANCH   1   4
BRANCH   1  10
ATOM     10  O1P PGH d   1     -27.234  15.610  57.530  0.00  0.00    -0.273 OA
BRANCH  10  11
ATOM     11  P   PGH d   1     -28.803  15.522  57.266  0.00  0.00     0.422 P 
ATOM     12  O2P PGH d   1     -29.469  15.860  58.526  0.00  0.00    -0.617 OA
ATOM     13  O3P PGH d   1     -29.109  14.104  56.915  0.00  0.00    -0.617 OA
ATOM     14  O4P PGH d   1     -29.115  16.500  56.080  0.00  0.00    -0.617 OA
ENDBRANCH  10  11
ENDBRANCH   1  10
TORSDOF 4
