REMARK  6 active torsions:
REMARK  status: ('A' for Active; 'I' for Inactive)
REMARK    1  A    between atoms: C11_1  and  C10_4 
REMARK    2  A    between atoms: C10_4  and  C9_5 
REMARK    3  A    between atoms: C9_5  and  C8_6 
REMARK    4  A    between atoms: C8_6  and  C7_7 
REMARK    5  A    between atoms: C7_7  and  C2_8 
REMARK    6  A    between atoms: C3_13  and  N3_14 
ROOT
ATOM      1  C2  IMI d   1      32.828  11.921  -6.278  0.00  0.00     0.013 C 
ATOM      2  S1  IMI d   1      32.085  12.015  -4.636  0.00  0.00    -0.160 SA
ATOM      3  C6  IMI d   1      32.885  10.448  -4.198  0.00  0.00    -0.002 C 
ATOM      4  C5  IMI d   1      34.207  10.249  -4.977  0.00  0.00     0.055 A 
ATOM      5  N1  IMI d   1      35.321  10.787  -4.146  0.00  0.00    -0.219 N 
ATOM      6  C3  IMI d   1      35.807  11.883  -4.639  0.00  0.00     0.668 A 
ATOM      7  N2  IMI d   1      35.234  12.236  -5.760  0.00  0.00    -0.219 N 
ATOM      8  C4  IMI d   1      34.224  11.250  -6.201  0.00  0.00     0.059 A 
ATOM      9  H9  IMI d   1      32.186  11.228  -6.842  0.00  0.00     0.059 H 
ATOM     10  H10 IMI d   1      32.202   9.619  -4.436  0.00  0.00     0.052 H 
ATOM     11  H11 IMI d   1      33.102  10.447  -3.120  0.00  0.00     0.052 H 
ATOM     12  H12 IMI d   1      34.353   9.200  -5.273  0.00  0.00     0.077 H 
ATOM     13  H13 IMI d   1      35.664  10.341  -3.283  0.00  0.00     0.178 HD
ATOM     14  H16 IMI d   1      35.459  13.099  -6.275  0.00  0.00     0.178 HD
ATOM     15  H17 IMI d   1      34.491  10.766  -7.152  0.00  0.00     0.078 H 
ENDROOT
BRANCH   1  16
ATOM     16  C7  IMI d   1      32.856  13.218  -7.134  0.00  0.00    -0.051 C 
ATOM     17  H7  IMI d   1      33.100  14.078  -6.493  0.00  0.00     0.034 H 
ATOM     18  H8  IMI d   1      33.616  13.122  -7.923  0.00  0.00     0.034 H 
BRANCH  16  19
ATOM     19  C8  IMI d   1      31.476  13.426  -7.771  0.00  0.00    -0.063 C 
ATOM     20  H5  IMI d   1      31.293  12.637  -8.515  0.00  0.00     0.033 H 
ATOM     21  H6  IMI d   1      30.701  13.382  -6.991  0.00  0.00     0.033 H 
BRANCH  19  22
ATOM     22  C9  IMI d   1      31.433  14.805  -8.462  0.00  0.00    -0.056 C 
ATOM     23  H3  IMI d   1      31.865  15.558  -7.787  0.00  0.00     0.033 H 
ATOM     24  H4  IMI d   1      32.025  14.761  -9.388  0.00  0.00     0.033 H 
BRANCH  22  25
ATOM     25  C10 IMI d   1      29.975  15.214  -8.811  0.00  0.00     0.016 C 
ATOM     26  H1  IMI d   1      29.373  15.157  -7.892  0.00  0.00     0.049 H 
ATOM     27  H2  IMI d   1      29.988  16.251  -9.178  0.00  0.00     0.049 H 
BRANCH  25  28
ATOM     28  C11 IMI d   1      29.298  14.327  -9.889  0.00  0.00     0.172 C 
ATOM     29  O12 IMI d   1      30.010  13.902 -10.789  0.00  0.00    -0.648 OA
ATOM     30  O11 IMI d   1      28.090  14.107  -9.812  0.00  0.00    -0.648 OA
ENDBRANCH  25  28
ENDBRANCH  22  25
ENDBRANCH  19  22
ENDBRANCH  16  19
ENDBRANCH   1  16
BRANCH   6  31
ATOM     31  N3  IMI d   1      36.761  12.543  -4.060  0.00  0.00    -0.235 N 
ATOM     32  H14 IMI d   1      37.119  13.410  -4.485  0.00  0.00     0.174 HD
ATOM     33  H15 IMI d   1      37.161  12.200  -3.175  0.00  0.00     0.174 HD
ENDBRANCH   6  31
TORSDOF 6
