REMARK  6 active torsions:
REMARK  status: ('A' for Active; 'I' for Inactive)
REMARK    1  A    between atoms: C6_9  and  S1_10 
REMARK    2  A    between atoms: S1_10  and  N1_13 
REMARK    3  A    between atoms: N1_13  and  C12_14 
REMARK    4  A    between atoms: N2_19  and  C16_20 
REMARK    5  A    between atoms: C16_20  and  C17_21 
REMARK    6  A    between atoms: C16_20  and  C18_22 
REMARK       I    between atoms: C18_22  and  N3_24 
ROOT
ATOM      1  C12 GS6 d   1       6.129   6.549  22.564  0.00  0.00     0.098 C 
ATOM      2  C13 GS6 d   1       4.784   5.839  22.337  0.00  0.00    -0.022 C 
ATOM      3  C14 GS6 d   1       5.126   4.517  21.628  0.00  0.00     0.001 C 
ATOM      4  C15 GS6 d   1       7.134   5.751  21.722  0.00  0.00     0.244 C 
ATOM      5  O3  GS6 d   1       8.273   6.108  21.451  0.00  0.00    -0.271 OA
ATOM      6  N2  GS6 d   1       6.562   4.587  21.335  0.00  0.00    -0.337 N 
ATOM      7  H6  GS6 d   1       6.413   6.414  23.618  0.00  0.00     0.088 H 
ATOM      8  H7  GS6 d   1       4.127   6.455  21.705  0.00  0.00     0.039 H 
ATOM      9  H8  GS6 d   1       4.287   5.641  23.298  0.00  0.00     0.039 H 
ATOM     10  H9  GS6 d   1       4.548   4.420  20.697  0.00  0.00     0.064 H 
ATOM     11  H10 GS6 d   1       4.909   3.662  22.285  0.00  0.00     0.064 H 
ENDROOT
BRANCH   6  12
ATOM     12  C16 GS6 d   1       7.335   3.489  20.680  0.00  0.00     0.088 C 
ATOM     13  H11 GS6 d   1       8.401   3.687  20.864  0.00  0.00     0.087 H 
BRANCH  12  14
ATOM     14  C17 GS6 d   1       7.007   2.091  21.254  0.00  0.00    -0.049 C 
ATOM     15  H12 GS6 d   1       7.606   1.331  20.732  0.00  0.00     0.030 H 
ATOM     16  H13 GS6 d   1       5.938   1.877  21.110  0.00  0.00     0.030 H 
ATOM     17  H14 GS6 d   1       7.244   2.071  22.328  0.00  0.00     0.030 H 
ENDBRANCH  12  14
BRANCH  12  18
ATOM     18  C18 GS6 d   1       7.113   3.460  19.173  0.00  0.00     0.242 C 
ATOM     19  O4  GS6 d   1       6.140   4.056  18.730  0.00  0.00    -0.271 OA
ATOM     20  N3  GS6 d   1       8.004   2.786  18.379  0.00  0.00    -0.346 N 
ATOM     21  C19 GS6 d   1       7.722   2.727  16.936  0.00  0.00     0.017 C 
ATOM     22  C23 GS6 d   1       9.229   2.091  18.852  0.00  0.00     0.017 C 
ATOM     23  C20 GS6 d   1       8.990   2.746  16.071  0.00  0.00     0.034 C 
ATOM     24  H15 GS6 d   1       7.101   3.594  16.665  0.00  0.00     0.067 H 
ATOM     25  H16 GS6 d   1       7.169   1.800  16.725  0.00  0.00     0.067 H 
ATOM     26  O5  GS6 d   1       9.914   1.764  16.541  0.00  0.00    -0.388 OA
ATOM     27  H17 GS6 d   1       9.455   3.741  16.128  0.00  0.00     0.076 H 
ATOM     28  H18 GS6 d   1       8.723   2.525  15.027  0.00  0.00     0.076 H 
ATOM     29  C22 GS6 d   1      10.383   2.071  17.849  0.00  0.00     0.034 C 
ATOM     30  H19 GS6 d   1      10.866   3.059  17.836  0.00  0.00     0.076 H 
ATOM     31  H20 GS6 d   1      11.115   1.310  18.157  0.00  0.00     0.076 H 
ATOM     32  H21 GS6 d   1       8.963   1.050  19.088  0.00  0.00     0.067 H 
ATOM     33  H22 GS6 d   1       9.578   2.596  19.765  0.00  0.00     0.067 H 
ENDBRANCH  12  18
ENDBRANCH   6  12
BRANCH   1  34
ATOM     34  N1  GS6 d   1       6.053   8.010  22.361  0.00  0.00    -0.301 N 
ATOM     35  H5  GS6 d   1       5.731   8.340  21.474  0.00  0.00     0.173 HD
BRANCH  34  36
ATOM     36  S1  GS6 d   1       6.458   9.125  23.483  0.00  0.00     0.266 S 
ATOM     37  O2  GS6 d   1       5.474   9.117  24.505  0.00  0.00    -0.200 OA
ATOM     38  O1  GS6 d   1       6.592  10.314  22.694  0.00  0.00    -0.200 OA
BRANCH  36  39
ATOM     39  C6  GS6 d   1       7.963   8.724  24.240  0.00  0.00     0.121 A 
ATOM     40  C5  GS6 d   1       7.953   8.106  25.524  0.00  0.00    -0.042 A 
ATOM     41  C4  GS6 d   1       9.309   7.867  25.895  0.00  0.00    -0.017 A 
ATOM     42  H2  GS6 d   1       7.071   7.861  26.114  0.00  0.00     0.088 H 
ATOM     43  C3  GS6 d   1      10.239   8.321  24.926  0.00  0.00     0.018 A 
ATOM     44  C9  GS6 d   1       9.737   7.267  27.103  0.00  0.00    -0.070 A 
ATOM     45  C2  GS6 d   1      11.635   8.139  25.191  0.00  0.00    -0.045 A 
ATOM     46  S2  GS6 d   1       9.528   9.006  23.550  0.00  0.00    -0.076 SA
ATOM     47  C1  GS6 d   1      12.062   7.535  26.387  0.00  0.00     0.035 A 
ATOM     48  H1  GS6 d   1      12.368   8.470  24.464  0.00  0.00     0.088 H 
ATOM     49 CL   GS6 d   1      13.768   7.308  26.665  0.00  0.00    -0.084 Cl
ATOM     50  C10 GS6 d   1      11.119   7.097  27.359  0.00  0.00    -0.061 A 
ATOM     51  H4  GS6 d   1      11.454   6.639  28.283  0.00  0.00     0.086 H 
ATOM     52  H3  GS6 d   1       9.006   6.937  27.833  0.00  0.00     0.084 H 
ENDBRANCH  36  39
ENDBRANCH  34  36
ENDBRANCH   1  34
TORSDOF 6
