REMARK  8 active torsions:
REMARK  status: ('A' for Active; 'I' for Inactive)
REMARK    1  A    between atoms: C10_2  and  C12_3 
REMARK       I    between atoms: C10_2  and  N4_4 
REMARK    2  A    between atoms: N4_4  and  C2_5 
REMARK    3  A    between atoms: C3_6  and  O3_7 
REMARK    4  A    between atoms: C4_8  and  O4_9 
REMARK    5  A    between atoms: C5_10  and  C6_11 
REMARK    6  A    between atoms: C6_11  and  O5_12 
REMARK    7  A    between atoms: C8_16  and  C9_18 
REMARK       I    between atoms: C9_18  and  N3_20 
REMARK    8  A    between atoms: N3_20  and  C11_21 
ROOT
ATOM      1  C2  GDV d   1       1.883  -8.675  32.827  0.00  0.00     0.097 C 
ATOM      2  C3  GDV d   1       2.734  -8.322  31.595  0.00  0.00     0.088 C 
ATOM      3  C4  GDV d   1       1.961  -7.337  30.665  0.00  0.00     0.084 C 
ATOM      4  C5  GDV d   1       1.636  -6.005  31.451  0.00  0.00     0.065 C 
ATOM      5  C1  GDV d   1       0.677  -7.748  32.917  0.00  0.00     0.133 A 
ATOM      6  N1  GDV d   1       0.629  -6.529  32.346  0.00  0.00    -0.332 N 
ATOM      7  C7  GDV d   1      -0.628  -6.048  32.632  0.00  0.00     0.015 A 
ATOM      8  C8  GDV d   1      -1.264  -6.987  33.431  0.00  0.00     0.142 A 
ATOM      9  N2  GDV d   1      -0.431  -8.032  33.602  0.00  0.00    -0.226 NA
ATOM     10  H5  GDV d   1       1.492  -9.693  32.685  0.00  0.00     0.089 H 
ATOM     11  H6  GDV d   1       3.639  -7.799  31.939  0.00  0.00     0.090 H 
ATOM     12  H8  GDV d   1       1.022  -7.800  30.326  0.00  0.00     0.090 H 
ATOM     13  H10 GDV d   1       2.508  -5.608  31.991  0.00  0.00     0.080 H 
ATOM     14  H14 GDV d   1      -1.048  -5.102  32.293  0.00  0.00     0.115 H 
ENDROOT
BRANCH   8  15
ATOM     15  C9  GDV d   1      -2.544  -6.917  33.983  0.00  0.00     0.276 C 
ATOM     16  O2  GDV d   1      -3.238  -5.944  33.779  0.00  0.00    -0.266 OA
ATOM     17  N3  GDV d   1      -2.962  -8.002  34.685  0.00  0.00    -0.322 N 
ATOM     18  H15 GDV d   1      -2.335  -8.777  34.763  0.00  0.00     0.169 HD
BRANCH  17  19
ATOM     19  C11 GDV d   1      -4.207  -8.107  35.304  0.00  0.00     0.035 A 
ATOM     20  C17 GDV d   1      -4.902  -9.319  35.425  0.00  0.00    -0.057 A 
ATOM     21  C16 GDV d   1      -6.122  -9.403  36.122  0.00  0.00    -0.081 A 
ATOM     22  H16 GDV d   1      -4.490 -10.213  34.971  0.00  0.00     0.086 H 
ATOM     23  C15 GDV d   1      -6.661  -8.264  36.718  0.00  0.00    -0.083 A 
ATOM     24  H17 GDV d   1      -6.641 -10.352  36.195  0.00  0.00     0.083 H 
ATOM     25  C14 GDV d   1      -5.987  -7.053  36.610  0.00  0.00    -0.081 A 
ATOM     26  H18 GDV d   1      -7.598  -8.322  37.261  0.00  0.00     0.083 H 
ATOM     27  C13 GDV d   1      -4.757  -6.975  35.921  0.00  0.00    -0.057 A 
ATOM     28  H19 GDV d   1      -6.409  -6.161  37.059  0.00  0.00     0.083 H 
ATOM     29  H20 GDV d   1      -4.232  -6.028  35.869  0.00  0.00     0.086 H 
ENDBRANCH  17  19
ENDBRANCH   8  15
BRANCH   4  30
ATOM     30  C6  GDV d   1       1.076  -4.932  30.498  0.00  0.00     0.038 C 
ATOM     31  H11 GDV d   1       1.873  -4.628  29.803  0.00  0.00     0.077 H 
ATOM     32  H12 GDV d   1       0.758  -4.064  31.094  0.00  0.00     0.077 H 
BRANCH  30  33
ATOM     33  O5  GDV d   1      -0.040  -5.397  29.737  0.00  0.00    -0.399 OA
ATOM     34  H13 GDV d   1      -0.738  -5.656  30.327  0.00  0.00     0.209 HD
ENDBRANCH  30  33
ENDBRANCH   4  30
BRANCH   1  35
ATOM     35  N4  GDV d   1       2.723  -8.707  34.016  0.00  0.00    -0.347 N 
ATOM     36  C10 GDV d   1       3.214  -7.607  34.627  0.00  0.00     0.214 C 
ATOM     37  O1  GDV d   1       3.010  -6.448  34.300  0.00  0.00    -0.274 OA
ATOM     38  H4  GDV d   1       2.951  -9.600  34.405  0.00  0.00     0.163 HD
BRANCH  36  39
ATOM     39  C12 GDV d   1       4.059  -7.939  35.840  0.00  0.00    -0.003 C 
ATOM     40  H1  GDV d   1       4.118  -9.031  35.958  0.00  0.00     0.040 H 
ATOM     41  H2  GDV d   1       3.602  -7.497  36.738  0.00  0.00     0.040 H 
ATOM     42  H3  GDV d   1       5.071  -7.530  35.705  0.00  0.00     0.040 H 
ENDBRANCH  36  39
ENDBRANCH   1  35
BRANCH   3  43
ATOM     43  O4  GDV d   1       2.791  -7.059  29.550  0.00  0.00    -0.391 OA
ATOM     44  H9  GDV d   1       2.343  -6.459  28.965  0.00  0.00     0.210 HD
ENDBRANCH   3  43
BRANCH   2  45
ATOM     45  O3  GDV d   1       3.157  -9.541  30.962  0.00  0.00    -0.390 OA
ATOM     46  H7  GDV d   1       3.684  -9.334  30.199  0.00  0.00     0.210 HD
ENDBRANCH   2  45
TORSDOF 8
