REMARK  7 active torsions:
REMARK  status: ('A' for Active; 'I' for Inactive)
REMARK    1  A    between atoms: C3_3  and  O3_11 
REMARK    2  A    between atoms: C4_4  and  O4_12 
REMARK    3  A    between atoms: C5_5  and  C6_6 
REMARK    4  A    between atoms: C6_6  and  O6_14 
REMARK    5  A    between atoms: C7_7  and  C8_8 
REMARK    6  A    between atoms: C8_8  and  C9_16 
REMARK    7  A    between atoms: C9_16  and  CM_9 
ROOT
ATOM      1  C1  NB1 d   1       1.297  -6.208  33.663  0.00  0.00     0.112 C 
ATOM      2  C2  NB1 d   1       1.860  -7.552  33.128  0.00  0.00     0.094 C 
ATOM      3  C3  NB1 d   1       2.733  -7.338  31.863  0.00  0.00     0.087 C 
ATOM      4  C4  NB1 d   1       2.092  -6.348  30.872  0.00  0.00     0.089 C 
ATOM      5  C5  NB1 d   1       1.759  -5.009  31.585  0.00  0.00     0.087 C 
ATOM      6  C7  NB1 d   1       3.353  -7.216  35.074  0.00  0.00     0.068 C 
ATOM      7  N2  NB1 d   1       2.729  -8.048  34.235  0.00  0.00    -0.276 NA
ATOM      8  O5  NB1 d   1       0.889  -5.284  32.681  0.00  0.00    -0.363 OA
ATOM      9  S1  NB1 d   1       2.605  -5.729  34.742  0.00  0.00    -0.081 SA
ATOM     10  H1  NB1 d   1       0.401  -6.412  34.268  0.00  0.00     0.104 H 
ATOM     11  H2  NB1 d   1       1.046  -8.259  32.908  0.00  0.00     0.085 H 
ATOM     12  H3  NB1 d   1       3.670  -6.872  32.202  0.00  0.00     0.090 H 
ATOM     13  H4  NB1 d   1       1.170  -6.770  30.445  0.00  0.00     0.091 H 
ATOM     14  H5  NB1 d   1       2.696  -4.566  31.953  0.00  0.00     0.090 H 
ENDROOT
BRANCH   6  15
ATOM     15  C8  NB1 d   1       4.407  -7.542  36.119  0.00  0.00    -0.019 C 
ATOM     16  H8  NB1 d   1       5.307  -7.929  35.620  0.00  0.00     0.043 H 
ATOM     17  H9  NB1 d   1       4.013  -8.303  36.808  0.00  0.00     0.043 H 
BRANCH  15  18
ATOM     18  C9  NB1 d   1       4.771  -6.272  36.915  0.00  0.00    -0.063 C 
ATOM     19  H16 NB1 d   1       3.876  -5.925  37.451  0.00  0.00     0.033 H 
ATOM     20  H17 NB1 d   1       5.099  -5.496  36.208  0.00  0.00     0.033 H 
BRANCH  18  21
ATOM     21  CM  NB1 d   1       5.891  -6.510  37.935  0.00  0.00    -0.076 C 
ATOM     22  H10 NB1 d   1       6.106  -5.573  38.469  0.00  0.00     0.027 H 
ATOM     23  H11 NB1 d   1       6.797  -6.850  37.412  0.00  0.00     0.027 H 
ATOM     24  H12 NB1 d   1       5.574  -7.278  38.655  0.00  0.00     0.027 H 
ENDBRANCH  18  21
ENDBRANCH  15  18
ENDBRANCH   6  15
BRANCH   3  25
ATOM     25  O3  NB1 d   1       3.093  -8.578  31.266  0.00  0.00    -0.391 OA
ATOM     26  H13 NB1 d   1       3.720  -8.423  30.570  0.00  0.00     0.210 HD
ENDBRANCH   3  25
BRANCH   4  27
ATOM     27  O4  NB1 d   1       3.067  -6.174  29.860  0.00  0.00    -0.390 OA
ATOM     28  H14 NB1 d   1       2.742  -5.561  29.211  0.00  0.00     0.210 HD
ENDBRANCH   4  27
BRANCH   5  29
ATOM     29  C6  NB1 d   1       1.041  -3.975  30.677  0.00  0.00     0.043 C 
ATOM     30  H6  NB1 d   1       1.705  -3.691  29.847  0.00  0.00     0.078 H 
ATOM     31  H7  NB1 d   1       0.787  -3.082  31.266  0.00  0.00     0.078 H 
BRANCH  29  32
ATOM     32  O6  NB1 d   1      -0.148  -4.555  30.157  0.00  0.00    -0.398 OA
ATOM     33  H15 NB1 d   1       0.073  -5.327  29.649  0.00  0.00     0.209 HD
ENDBRANCH  29  32
ENDBRANCH   5  29
TORSDOF 7
