REMARK  5 active torsions:
REMARK  status: ('A' for Active; 'I' for Inactive)
REMARK    1  A    between atoms: O4_1  and  C4_2 
REMARK    2  A    between atoms: C3_3  and  O3_4 
REMARK    3  A    between atoms: C2_5  and  O2_10 
REMARK    4  A    between atoms: C5_8  and  C6_9 
REMARK    5  A    between atoms: C6_9  and  O6_11 
ROOT
ATOM      1  C4  NOY d   1      -1.170  10.488   8.218  0.00  0.00     0.071 C 
ATOM      2  C3  NOY d   1      -0.429  11.762   8.605  0.00  0.00     0.110 C 
ATOM      3  C2  NOY d   1       0.136  11.652  10.014  0.00  0.00     0.217 C 
ATOM      4  N   NOY d   1      -0.899  11.214  10.970  0.00  0.00    -0.046 N 
ATOM      5  C7  NOY d   1      -1.717  10.058  10.618  0.00  0.00     0.092 C 
ATOM      6  C5  NOY d   1      -2.323  10.265   9.223  0.00  0.00     0.017 C 
ATOM      7  H2  NOY d   1      -0.480   9.633   8.261  0.00  0.00     0.087 H 
ATOM      8  H3  NOY d   1      -1.131  12.608   8.557  0.00  0.00     0.093 H 
ATOM      9  H5  NOY d   1       0.973  10.938  10.026  0.00  0.00     0.133 H 
ATOM     10  H6  NOY d   1      -1.525  11.992  11.110  0.00  0.00     0.280 HD
ATOM     11  H7  NOY d   1      -0.433  10.997  11.837  0.00  0.00     0.280 HD
ATOM     12  H8  NOY d   1      -2.525   9.943  11.355  0.00  0.00     0.076 H 
ATOM     13  H9  NOY d   1      -1.091   9.153  10.615  0.00  0.00     0.076 H 
ATOM     14  H10 NOY d   1      -2.940  11.175   9.240  0.00  0.00     0.049 H 
ENDROOT
BRANCH   6  15
ATOM     15  C6  NOY d   1      -3.231   9.100   8.857  0.00  0.00     0.024 C 
ATOM     16  H11 NOY d   1      -3.568   9.231   7.818  0.00  0.00     0.074 H 
ATOM     17  H12 NOY d   1      -4.102   9.110   9.529  0.00  0.00     0.074 H 
BRANCH  15  18
ATOM     18  O6  NOY d   1      -2.576   7.816   8.970  0.00  0.00    -0.400 OA
ATOM     19  H14 NOY d   1      -1.826   7.792   8.387  0.00  0.00     0.209 HD
ENDBRANCH  15  18
ENDBRANCH   6  15
BRANCH   1  20
ATOM     20  O4  NOY d   1      -1.671  10.617   6.892  0.00  0.00    -0.392 OA
ATOM     21  H1  NOY d   1      -2.133   9.823   6.651  0.00  0.00     0.210 HD
ENDBRANCH   1  20
BRANCH   2  22
ATOM     22  O3  NOY d   1       0.662  12.002   7.722  0.00  0.00    -0.389 OA
ATOM     23  H4  NOY d   1       0.335  12.095   6.835  0.00  0.00     0.210 HD
ENDBRANCH   2  22
BRANCH   3  24
ATOM     24  O2  NOY d   1       0.586  12.945  10.386  0.00  0.00    -0.368 OA
ATOM     25  H13 NOY d   1      -0.145  13.551  10.369  0.00  0.00     0.212 HD
ENDBRANCH   3  24
TORSDOF 5
