REMARK  5 active torsions:
REMARK  status: ('A' for Active; 'I' for Inactive)
REMARK    1  A    between atoms: C2_2  and  O2_3 
REMARK    2  A    between atoms: C3_4  and  O3_5 
REMARK    3  A    between atoms: C4_6  and  O4_7 
REMARK    4  A    between atoms: C5_8  and  C6_10 
REMARK    5  A    between atoms: C6_10  and  O6_11 
ROOT
ATOM      1  C1  NOJ d   1      -0.912  11.133  10.947  0.00  0.00     0.108 C 
ATOM      2  C2  NOJ d   1       0.135  11.636   9.943  0.00  0.00     0.086 C 
ATOM      3  C3  NOJ d   1      -0.486  11.758   8.544  0.00  0.00     0.088 C 
ATOM      4  C4  NOJ d   1      -1.308  10.504   8.144  0.00  0.00     0.092 C 
ATOM      5  C5  NOJ d   1      -2.470  10.384   9.146  0.00  0.00     0.149 C 
ATOM      6  N5  NOJ d   1      -1.891  10.158  10.468  0.00  0.00    -0.064 N 
ATOM      7  H1  NOJ d   1      -1.470  12.009  11.309  0.00  0.00     0.079 H 
ATOM      8  H2  NOJ d   1      -0.370  10.671  11.785  0.00  0.00     0.079 H 
ATOM      9  H3  NOJ d   1       1.014  10.974   9.920  0.00  0.00     0.089 H 
ATOM     10  H5  NOJ d   1      -1.180  12.611   8.543  0.00  0.00     0.091 H 
ATOM     11  H7  NOJ d   1      -0.688   9.596   8.188  0.00  0.00     0.090 H 
ATOM     12  H9  NOJ d   1      -3.051  11.318   9.133  0.00  0.00     0.091 H 
ATOM     13  H10 NOJ d   1      -2.650  10.139  11.132  0.00  0.00     0.277 HD
ATOM     14  H11 NOJ d   1      -1.438   9.258  10.450  0.00  0.00     0.277 HD
ENDROOT
BRANCH   5  15
ATOM     15  C6  NOJ d   1      -3.412   9.198   8.883  0.00  0.00     0.046 C 
ATOM     16  H12 NOJ d   1      -3.821   9.281   7.865  0.00  0.00     0.077 H 
ATOM     17  H13 NOJ d   1      -4.235   9.222   9.613  0.00  0.00     0.077 H 
BRANCH  15  18
ATOM     18  O6  NOJ d   1      -2.716   7.967   9.006  0.00  0.00    -0.399 OA
ATOM     19  H14 NOJ d   1      -2.006   7.941   8.375  0.00  0.00     0.209 HD
ENDBRANCH  15  18
ENDBRANCH   5  15
BRANCH   4  20
ATOM     20  O4  NOJ d   1      -1.740  10.723   6.816  0.00  0.00    -0.391 OA
ATOM     21  H8  NOJ d   1      -2.251   9.978   6.524  0.00  0.00     0.210 HD
ENDBRANCH   4  20
BRANCH   3  22
ATOM     22  O3  NOJ d   1       0.577  12.053   7.664  0.00  0.00    -0.390 OA
ATOM     23  H6  NOJ d   1       0.240  12.139   6.780  0.00  0.00     0.210 HD
ENDBRANCH   3  22
BRANCH   2  24
ATOM     24  O2  NOJ d   1       0.472  12.934  10.386  0.00  0.00    -0.391 OA
ATOM     25  H4  NOJ d   1      -0.306  13.479  10.385  0.00  0.00     0.210 HD
ENDBRANCH   2  24
TORSDOF 5
