REMARK  6 active torsions:
REMARK  status: ('A' for Active; 'I' for Inactive)
REMARK    1  A    between atoms: N1_2  and  O7_5 
REMARK    2  A    between atoms: C2_3  and  O2_6 
REMARK    3  A    between atoms: C3_7  and  O3_8 
REMARK    4  A    between atoms: C4_9  and  O4_10 
REMARK    5  A    between atoms: C5_11  and  C6_12 
REMARK    6  A    between atoms: C6_12  and  O6_13 
ROOT
ATOM      1  C1  GTL d   1      -1.004  10.713  10.559  0.00  0.00     0.159 C 
ATOM      2  N1  GTL d   1      -0.659  10.372  11.800  0.00  0.00    -0.120 NA
ATOM      3  C2  GTL d   1       0.082  11.461   9.758  0.00  0.00     0.121 C 
ATOM      4  N5  GTL d   1      -2.302  10.382  10.075  0.00  0.00    -0.365 N 
ATOM      5  C3  GTL d   1      -0.475  11.897   8.400  0.00  0.00     0.094 C 
ATOM      6  C4  GTL d   1      -1.435  10.853   7.767  0.00  0.00     0.084 C 
ATOM      7  C5  GTL d   1      -2.664  10.669   8.685  0.00  0.00     0.058 C 
ATOM      8  H1  GTL d   1       0.946  10.794   9.627  0.00  0.00     0.099 H 
ATOM      9  H2  GTL d   1      -2.988   9.940  10.704  0.00  0.00     0.161 HD
ATOM     10  H5  GTL d   1      -1.045  12.829   8.534  0.00  0.00     0.091 H 
ATOM     11  H7  GTL d   1      -1.770  11.188   6.774  0.00  0.00     0.090 H 
ATOM     12  H9  GTL d   1      -3.203  11.627   8.661  0.00  0.00     0.079 H 
ENDROOT
BRANCH   7  13
ATOM     13  C6  GTL d   1      -3.667   9.567   8.298  0.00  0.00     0.038 C 
ATOM     14  H10 GTL d   1      -3.837   9.612   7.212  0.00  0.00     0.077 H 
ATOM     15  H11 GTL d   1      -4.614   9.753   8.826  0.00  0.00     0.077 H 
BRANCH  13  16
ATOM     16  O6  GTL d   1      -3.215   8.279   8.628  0.00  0.00    -0.399 OA
ATOM     17  H12 GTL d   1      -2.400   8.104   8.172  0.00  0.00     0.209 HD
ENDBRANCH  13  16
ENDBRANCH   7  13
BRANCH   6  18
ATOM     18  O4  GTL d   1      -0.684   9.666   7.648  0.00  0.00    -0.391 OA
ATOM     19  H8  GTL d   1      -1.226   8.987   7.263  0.00  0.00     0.210 HD
ENDBRANCH   6  18
BRANCH   5  20
ATOM     20  O3  GTL d   1       0.652  12.163   7.593  0.00  0.00    -0.390 OA
ATOM     21  H6  GTL d   1       1.170  12.852   7.992  0.00  0.00     0.210 HD
ENDBRANCH   5  20
BRANCH   2  22
ATOM     22  O7  GTL d   1      -1.493   9.512  12.533  0.00  0.00    -0.265 OA
ATOM     23  H3  GTL d   1      -1.574   8.684  12.074  0.00  0.00     0.247 HD
ENDBRANCH   2  22
BRANCH   3  24
ATOM     24  O2  GTL d   1       0.494  12.667  10.358  0.00  0.00    -0.385 OA
ATOM     25  H4  GTL d   1      -0.252  13.250  10.439  0.00  0.00     0.210 HD
ENDBRANCH   3  24
TORSDOF 6
