REMARK  5 active torsions:
REMARK  status: ('A' for Active; 'I' for Inactive)
REMARK    1  A    between atoms: C2_2  and  O2_11 
REMARK    2  A    between atoms: C3_3  and  O3_12 
REMARK    3  A    between atoms: C4_4  and  O4_13 
REMARK    4  A    between atoms: C5_5  and  C6_6 
REMARK    5  A    between atoms: C6_6  and  O6_14 
ROOT
ATOM      1  C1  NTZ d   1      34.303  24.483  38.973  0.00  0.00     0.168 A 
ATOM      2  C2  NTZ d   1      35.021  23.466  38.146  0.00  0.00     0.122 C 
ATOM      3  C3  NTZ d   1      35.265  24.026  36.749  0.00  0.00     0.094 C 
ATOM      4  C4  NTZ d   1      34.046  24.843  36.267  0.00  0.00     0.086 C 
ATOM      5  C5  NTZ d   1      33.881  26.137  37.103  0.00  0.00     0.080 C 
ATOM      6  N1  NTZ d   1      33.820  25.626  38.486  0.00  0.00    -0.251 N 
ATOM      7  N17 NTZ d   1      33.148  26.378  39.437  0.00  0.00    -0.003 NA
ATOM      8  N18 NTZ d   1      33.230  25.616  40.592  0.00  0.00     0.018 NA
ATOM      9  N21 NTZ d   1      33.981  24.453  40.283  0.00  0.00    -0.144 NA
ATOM     10  H1  NTZ d   1      34.370  22.584  38.059  0.00  0.00     0.099 H 
ATOM     11  H2  NTZ d   1      36.148  24.682  36.763  0.00  0.00     0.091 H 
ATOM     12  H3  NTZ d   1      33.141  24.225  36.365  0.00  0.00     0.090 H 
ATOM     13  H4  NTZ d   1      34.761  26.784  36.973  0.00  0.00     0.082 H 
ENDROOT
BRANCH   5  14
ATOM     14  C6  NTZ d   1      32.640  26.940  36.737  0.00  0.00     0.040 C 
ATOM     15  H5  NTZ d   1      32.666  27.174  35.663  0.00  0.00     0.077 H 
ATOM     16  H6  NTZ d   1      32.632  27.875  37.316  0.00  0.00     0.077 H 
BRANCH  14  17
ATOM     17  O6  NTZ d   1      31.447  26.197  37.027  0.00  0.00    -0.399 OA
ATOM     18  H10 NTZ d   1      31.419  25.995  37.955  0.00  0.00     0.209 HD
ENDBRANCH  14  17
ENDBRANCH   5  14
BRANCH   4  19
ATOM     19  O4  NTZ d   1      34.213  25.228  34.914  0.00  0.00    -0.391 OA
ATOM     20  H9  NTZ d   1      33.448  25.714  34.627  0.00  0.00     0.210 HD
ENDBRANCH   4  19
BRANCH   3  21
ATOM     21  O3  NTZ d   1      35.515  22.901  35.885  0.00  0.00    -0.390 OA
ATOM     22  H8  NTZ d   1      35.688  23.212  35.004  0.00  0.00     0.210 HD
ENDBRANCH   3  21
BRANCH   2  23
ATOM     23  O2  NTZ d   1      36.256  23.039  38.723  0.00  0.00    -0.385 OA
ATOM     24  H7  NTZ d   1      36.849  23.779  38.781  0.00  0.00     0.210 HD
ENDBRANCH   2  23
TORSDOF 5
