REMARK  9 active torsions:
REMARK  status: ('A' for Active; 'I' for Inactive)
REMARK    1  A    between atoms: C2_2  and  O2_3 
REMARK    2  A    between atoms: C3_4  and  O3_5 
REMARK    3  A    between atoms: C4_6  and  O4_9 
REMARK    4  A    between atoms: C5_10  and  C6_11 
REMARK    5  A    between atoms: C6_11  and  O6_12 
REMARK    6  A    between atoms: C7_14  and  C8_15 
REMARK    7  A    between atoms: C8_15  and  O8_16 
REMARK    8  A    between atoms: C8_15  and  O9_18 
REMARK    9  A    between atoms: O9_18  and  C9_17 
ROOT
ATOM      1  C1  GI1 d   1      -0.896  10.593  10.590  0.00  0.00     0.138 A 
ATOM      2  C2  GI1 d   1       0.079  11.397   9.809  0.00  0.00     0.119 C 
ATOM      3  C3  GI1 d   1      -0.453  11.699   8.408  0.00  0.00     0.093 C 
ATOM      4  C4  GI1 d   1      -1.338  10.547   7.897  0.00  0.00     0.085 C 
ATOM      5  C80 GI1 d   1      -2.676   9.405  11.125  0.00  0.00     0.010 A 
ATOM      6  N10 GI1 d   1      -2.103  10.149  10.159  0.00  0.00    -0.331 N 
ATOM      7  C5  GI1 d   1      -2.603  10.447   8.785  0.00  0.00     0.065 C 
ATOM      8  N1  GI1 d   1      -0.700  10.148  11.846  0.00  0.00    -0.230 NA
ATOM      9  C7  GI1 d   1      -1.776   9.413  12.175  0.00  0.00     0.106 A 
ATOM     10  H1  GI1 d   1       1.020  10.833   9.732  0.00  0.00     0.099 H 
ATOM     11  H3  GI1 d   1      -1.083  12.600   8.455  0.00  0.00     0.091 H 
ATOM     12  H5  GI1 d   1      -0.771   9.611   8.005  0.00  0.00     0.090 H 
ATOM     13  H6  GI1 d   1      -3.642   8.904  11.087  0.00  0.00     0.115 H 
ATOM     14  H8  GI1 d   1      -3.135  11.410   8.779  0.00  0.00     0.080 H 
ENDROOT
BRANCH   9  15
ATOM     15  C8  GI1 d   1      -2.132   8.722  13.441  0.00  0.00     0.171 C 
ATOM     16  H12 GI1 d   1      -2.790   9.405  13.998  0.00  0.00     0.139 H 
BRANCH  15  17
ATOM     17  O8  GI1 d   1      -2.883   7.515  13.250  0.00  0.00    -0.366 OA
ATOM     18  H13 GI1 d   1      -3.163   7.180  14.094  0.00  0.00     0.213 HD
ENDBRANCH  15  17
BRANCH  15  19
ATOM     19  O9  GI1 d   1      -0.959   8.530  14.246  0.00  0.00    -0.360 OA
BRANCH  19  20
ATOM     20  C9  GI1 d   1      -0.188   7.317  14.082  0.00  0.00     0.007 C 
ATOM     21  H14 GI1 d   1       0.670   7.332  14.770  0.00  0.00     0.066 H 
ATOM     22  H15 GI1 d   1       0.174   7.250  13.046  0.00  0.00     0.066 H 
ATOM     23  H16 GI1 d   1      -0.822   6.446  14.306  0.00  0.00     0.066 H 
ENDBRANCH  19  20
ENDBRANCH  15  19
ENDBRANCH   9  15
BRANCH   7  24
ATOM     24  C6  GI1 d   1      -3.551   9.373   8.324  0.00  0.00     0.038 C 
ATOM     25  H9  GI1 d   1      -3.727   9.493   7.245  0.00  0.00     0.077 H 
ATOM     26  H10 GI1 d   1      -4.503   9.482   8.865  0.00  0.00     0.077 H 
BRANCH  24  27
ATOM     27  O6  GI1 d   1      -3.029   8.067   8.565  0.00  0.00    -0.399 OA
ATOM     28  H11 GI1 d   1      -2.209   7.963   8.096  0.00  0.00     0.209 HD
ENDBRANCH  24  27
ENDBRANCH   7  24
BRANCH   2  29
ATOM     29  O2  GI1 d   1       0.325  12.649  10.432  0.00  0.00    -0.385 OA
ATOM     30  H2  GI1 d   1      -0.489  13.135  10.495  0.00  0.00     0.210 HD
ENDBRANCH   2  29
BRANCH   4  31
ATOM     31  O4  GI1 d   1      -1.668  10.689   6.518  0.00  0.00    -0.391 OA
ATOM     32  H7  GI1 d   1      -2.212   9.959   6.247  0.00  0.00     0.210 HD
ENDBRANCH   4  31
BRANCH   3  33
ATOM     33  O3  GI1 d   1       0.674  11.990   7.579  0.00  0.00    -0.390 OA
ATOM     34  H4  GI1 d   1       0.376  12.183   6.698  0.00  0.00     0.210 HD
ENDBRANCH   3  33
TORSDOF 9
