REMARK  9 active torsions:
REMARK  status: ('A' for Active; 'I' for Inactive)
REMARK    1  A    between atoms: C1_1  and  C2_2 
REMARK    2  A    between atoms: C7B_16  and  C1_1 
REMARK    3  A    between atoms: C2_2  and  O1_18 
REMARK    4  A    between atoms: O1_18  and  C4_3 
REMARK    5  A    between atoms: C2B_5  and  O2B_10 
REMARK    6  A    between atoms: C3B_6  and  O3B_11 
REMARK    7  A    between atoms: C4B_7  and  O4B_12 
REMARK    8  A    between atoms: C5B_8  and  C6B_9 
REMARK    9  A    between atoms: C6B_9  and  O6B_14 
ROOT
ATOM      1  C1B GI2 d   1      -0.649  10.623  10.580  0.00  0.00     0.138 A 
ATOM      2  C2B GI2 d   1       0.276  11.462   9.681  0.00  0.00     0.119 C 
ATOM      3  C3B GI2 d   1      -0.337  11.704   8.301  0.00  0.00     0.093 C 
ATOM      4  C4B GI2 d   1      -1.234  10.509   7.868  0.00  0.00     0.085 C 
ATOM      5  C5B GI2 d   1      -2.421  10.392   8.839  0.00  0.00     0.065 C 
ATOM      6  N1B GI2 d   1      -1.894  10.112  10.186  0.00  0.00    -0.332 N 
ATOM      7  N2B GI2 d   1      -0.459  10.182  11.822  0.00  0.00    -0.235 NA
ATOM      8  C7B GI2 d   1      -1.494   9.449  12.225  0.00  0.00     0.061 A 
ATOM      9  C8B GI2 d   1      -2.372   9.395  11.217  0.00  0.00     0.006 A 
ATOM     10  H6  GI2 d   1       1.220  10.913   9.552  0.00  0.00     0.099 H 
ATOM     11  H7  GI2 d   1      -0.980  12.595   8.351  0.00  0.00     0.091 H 
ATOM     12  H8  GI2 d   1      -0.635   9.589   7.931  0.00  0.00     0.090 H 
ATOM     13  H9  GI2 d   1      -2.956  11.353   8.852  0.00  0.00     0.080 H 
ATOM     14  H16 GI2 d   1      -3.319   8.858  11.230  0.00  0.00     0.114 H 
ENDROOT
BRANCH   8  15
ATOM     15  C1  GI2 d   1      -1.608   8.823  13.605  0.00  0.00     0.057 C 
ATOM     16  H1  GI2 d   1      -1.485   9.605  14.369  0.00  0.00     0.057 H 
ATOM     17  H2  GI2 d   1      -2.599   8.359  13.712  0.00  0.00     0.057 H 
BRANCH  15  18
ATOM     18  C2  GI2 d   1      -0.540   7.768  13.794  0.00  0.00     0.264 C 
ATOM     19  O5  GI2 d   1       0.081   7.310  12.832  0.00  0.00    -0.265 OA
BRANCH  18  20
ATOM     20  O1  GI2 d   1      -0.283   7.326  15.049  0.00  0.00    -0.326 OA
BRANCH  20  21
ATOM     21  C4  GI2 d   1       0.459   6.081  15.102  0.00  0.00     0.013 C 
ATOM     22  H3  GI2 d   1       0.623   5.796  16.152  0.00  0.00     0.067 H 
ATOM     23  H4  GI2 d   1       1.430   6.211  14.601  0.00  0.00     0.067 H 
ATOM     24  H5  GI2 d   1      -0.113   5.291  14.593  0.00  0.00     0.067 H 
ENDBRANCH  20  21
ENDBRANCH  18  20
ENDBRANCH  15  18
ENDBRANCH   8  15
BRANCH   2  25
ATOM     25  O2B GI2 d   1       0.556  12.720  10.288  0.00  0.00    -0.385 OA
ATOM     26  H12 GI2 d   1      -0.251  13.214  10.376  0.00  0.00     0.210 HD
ENDBRANCH   2  25
BRANCH   5  27
ATOM     27  C6B GI2 d   1      -3.405   9.307   8.449  0.00  0.00     0.038 C 
ATOM     28  H10 GI2 d   1      -3.719   9.471   7.408  0.00  0.00     0.077 H 
ATOM     29  H11 GI2 d   1      -4.282   9.369   9.111  0.00  0.00     0.077 H 
BRANCH  27  30
ATOM     30  O6B GI2 d   1      -2.838   8.000   8.558  0.00  0.00    -0.399 OA
ATOM     31  H15 GI2 d   1      -2.083   7.935   7.985  0.00  0.00     0.209 HD
ENDBRANCH  27  30
ENDBRANCH   5  27
BRANCH   3  32
ATOM     32  O3B GI2 d   1       0.734  11.981   7.410  0.00  0.00    -0.390 OA
ATOM     33  H13 GI2 d   1       0.384  12.191   6.552  0.00  0.00     0.210 HD
ENDBRANCH   3  32
BRANCH   4  34
ATOM     34  O4B GI2 d   1      -1.704  10.637   6.531  0.00  0.00    -0.391 OA
ATOM     35  H14 GI2 d   1      -2.219   9.872   6.303  0.00  0.00     0.210 HD
ENDBRANCH   4  34
TORSDOF 9
