REMARK  6 active torsions:
REMARK  status: ('A' for Active; 'I' for Inactive)
REMARK    1  A    between atoms: C2_2  and  O2_3 
REMARK    2  A    between atoms: C3_4  and  O3_6 
REMARK    3  A    between atoms: C4_7  and  O4_9 
REMARK    4  A    between atoms: C5_10  and  C6_11 
REMARK    5  A    between atoms: C6_11  and  O6_12 
REMARK    6  A    between atoms: C7_14  and  C8_15 
ROOT
ATOM      1  C1  GI3 d   1      34.138  24.157  38.718  0.00  0.00     0.139 A 
ATOM      2  C2  GI3 d   1      35.025  23.191  38.022  0.00  0.00     0.119 C 
ATOM      3  C3  GI3 d   1      35.317  23.716  36.610  0.00  0.00     0.093 C 
ATOM      4  C80 GI3 d   1      32.954  25.943  39.167  0.00  0.00     0.016 A 
ATOM      5  C4  GI3 d   1      34.131  24.611  36.108  0.00  0.00     0.085 C 
ATOM      6  N10 GI3 d   1      33.746  25.355  38.258  0.00  0.00    -0.331 N 
ATOM      7  C5  GI3 d   1      34.114  25.884  36.938  0.00  0.00     0.065 C 
ATOM      8  N1  GI3 d   1      33.597  23.981  39.940  0.00  0.00    -0.224 NA
ATOM      9  C7  GI3 d   1      32.871  25.076  40.238  0.00  0.00     0.150 A 
ATOM     10  H1  GI3 d   1      34.524  22.215  37.944  0.00  0.00     0.099 H 
ATOM     11  H3  GI3 d   1      36.208  24.360  36.648  0.00  0.00     0.091 H 
ATOM     12  H4  GI3 d   1      32.471  26.915  39.078  0.00  0.00     0.115 H 
ATOM     13  H6  GI3 d   1      33.210  24.050  36.328  0.00  0.00     0.090 H 
ATOM     14  H8  GI3 d   1      35.108  26.354  36.950  0.00  0.00     0.080 H 
ENDROOT
BRANCH   7  15
ATOM     15  C6  GI3 d   1      33.086  26.909  36.498  0.00  0.00     0.038 C 
ATOM     16  H9  GI3 d   1      33.253  27.148  35.437  0.00  0.00     0.077 H 
ATOM     17  H10 GI3 d   1      33.209  27.820  37.103  0.00  0.00     0.077 H 
BRANCH  15  18
ATOM     18  O6  GI3 d   1      31.751  26.424  36.659  0.00  0.00    -0.399 OA
ATOM     19  H11 GI3 d   1      31.635  25.640  36.135  0.00  0.00     0.209 HD
ENDBRANCH  15  18
ENDBRANCH   7  15
BRANCH   5  20
ATOM     20  O4  GI3 d   1      34.064  24.946  34.706  0.00  0.00    -0.391 OA
ATOM     21  H7  GI3 d   1      33.300  25.488  34.547  0.00  0.00     0.210 HD
ENDBRANCH   5  20
BRANCH   3  22
ATOM     22  O3  GI3 d   1      35.644  22.579  35.816  0.00  0.00    -0.390 OA
ATOM     23  H5  GI3 d   1      35.834  22.858  34.928  0.00  0.00     0.210 HD
ENDBRANCH   3  22
BRANCH   2  24
ATOM     24  O2  GI3 d   1      36.228  23.044  38.804  0.00  0.00    -0.385 OA
ATOM     25  H2  GI3 d   1      36.659  23.887  38.882  0.00  0.00     0.210 HD
ENDBRANCH   2  24
BRANCH   9  26
ATOM     26  C8  GI3 d   1      32.139  25.301  41.494  0.00  0.00     0.230 C 
ATOM     27  O8  GI3 d   1      31.139  25.992  41.504  0.00  0.00    -0.643 OA
ATOM     28  O9  GI3 d   1      32.627  24.771  42.596  0.00  0.00    -0.643 OA
ENDBRANCH   9  26
TORSDOF 6
