REMARK  7 active torsions:
REMARK  status: ('A' for Active; 'I' for Inactive)
REMARK    1  A    between atoms: C7B_14  and  C1_1 
REMARK    2  A    between atoms: C1_1  and  C2_16 
REMARK    3  A    between atoms: C2B_3  and  O2B_8 
REMARK    4  A    between atoms: C3B_4  and  O3B_9 
REMARK    5  A    between atoms: C4B_5  and  O4B_10 
REMARK    6  A    between atoms: C5B_6  and  C6B_7 
REMARK    7  A    between atoms: C6B_7  and  O6B_12 
ROOT
ATOM      1  C1B GI4 d   1      -0.985  10.753  10.669  0.00  0.00     0.138 A 
ATOM      2  C2B GI4 d   1       0.005  11.523   9.799  0.00  0.00     0.119 C 
ATOM      3  C3B GI4 d   1      -0.579  11.799   8.411  0.00  0.00     0.093 C 
ATOM      4  C4B GI4 d   1      -1.371  10.556   7.929  0.00  0.00     0.085 C 
ATOM      5  C5B GI4 d   1      -2.628  10.366   8.832  0.00  0.00     0.065 C 
ATOM      6  N1B GI4 d   1      -2.206  10.192  10.236  0.00  0.00    -0.332 N 
ATOM      7  N2B GI4 d   1      -0.866  10.441  11.935  0.00  0.00    -0.235 NA
ATOM      8  C7B GI4 d   1      -1.914   9.717  12.332  0.00  0.00     0.062 A 
ATOM      9  C8B GI4 d   1      -2.748   9.570  11.299  0.00  0.00     0.006 A 
ATOM     10  H3  GI4 d   1       0.911  10.910   9.681  0.00  0.00     0.099 H 
ATOM     11  H4  GI4 d   1      -1.252  12.668   8.438  0.00  0.00     0.091 H 
ATOM     12  H5  GI4 d   1      -0.730   9.663   7.978  0.00  0.00     0.090 H 
ATOM     13  H6  GI4 d   1      -3.217  11.293   8.768  0.00  0.00     0.080 H 
ATOM     14  H13 GI4 d   1      -3.699   9.040  11.314  0.00  0.00     0.114 H 
ENDROOT
BRANCH   5  15
ATOM     15  C6B GI4 d   1      -3.544   9.226   8.401  0.00  0.00     0.038 C 
ATOM     16  H7  GI4 d   1      -3.769   9.323   7.329  0.00  0.00     0.077 H 
ATOM     17  H8  GI4 d   1      -4.480   9.271   8.977  0.00  0.00     0.077 H 
BRANCH  15  18
ATOM     18  O6B GI4 d   1      -2.903   7.979   8.638  0.00  0.00    -0.399 OA
ATOM     19  H12 GI4 d   1      -2.095   7.940   8.140  0.00  0.00     0.209 HD
ENDBRANCH  15  18
ENDBRANCH   5  15
BRANCH   4  20
ATOM     20  O4B GI4 d   1      -1.818  10.761   6.605  0.00  0.00    -0.391 OA
ATOM     21  H11 GI4 d   1      -2.318  10.005   6.320  0.00  0.00     0.210 HD
ENDBRANCH   4  20
BRANCH   3  22
ATOM     22  O3B GI4 d   1       0.541  12.079   7.594  0.00  0.00    -0.390 OA
ATOM     23  H10 GI4 d   1       0.250  12.244   6.705  0.00  0.00     0.210 HD
ENDBRANCH   3  22
BRANCH   2  24
ATOM     24  O2B GI4 d   1       0.368  12.758  10.424  0.00  0.00    -0.385 OA
ATOM     25  H9  GI4 d   1      -0.403  13.307  10.509  0.00  0.00     0.210 HD
ENDBRANCH   2  24
BRANCH   8  26
ATOM     26  C1  GI4 d   1      -2.029   9.328  13.813  0.00  0.00     0.057 C 
ATOM     27  H1  GI4 d   1      -3.097   9.351  14.075  0.00  0.00     0.058 H 
ATOM     28  H2  GI4 d   1      -1.492  10.092  14.395  0.00  0.00     0.058 H 
BRANCH  26  29
ATOM     29  C2  GI4 d   1      -1.491   7.981  14.236  0.00  0.00     0.178 C 
ATOM     30  O1  GI4 d   1      -0.359   7.663  13.849  0.00  0.00    -0.648 OA
ATOM     31  O5  GI4 d   1      -2.227   7.317  14.996  0.00  0.00    -0.648 OA
ENDBRANCH  26  29
ENDBRANCH   8  26
TORSDOF 7
