REMARK  4 active torsions:
REMARK  status: ('A' for Active; 'I' for Inactive)
REMARK    1  A    between atoms: O4_1  and  C4_2 
REMARK    2  A    between atoms: C3_3  and  O3_4 
REMARK    3  A    between atoms: C5_7  and  C6_8 
REMARK    4  A    between atoms: C6_8  and  O6_9 
ROOT
ATOM      1  C4  AZF d   1      -1.136  10.632   8.081  0.00  0.00     0.093 C 
ATOM      2  C3  AZF d   1      -0.317  11.908   8.423  0.00  0.00     0.087 C 
ATOM      3  C2  AZF d   1       0.182  11.981   9.874  0.00  0.00     0.135 C 
ATOM      4  N   AZF d   1      -0.837  11.463  10.800  0.00  0.00     0.081 N 
ATOM      5  C5  AZF d   1      -2.302  10.536   9.062  0.00  0.00     0.177 C 
ATOM      6  N2  AZF d   1      -1.676  10.419  10.379  0.00  0.00     0.087 N 
ATOM      7  H2  AZF d   1      -0.488   9.751   8.199  0.00  0.00     0.090 H 
ATOM      8  H3  AZF d   1      -0.985  12.767   8.259  0.00  0.00     0.089 H 
ATOM      9  H5  AZF d   1       0.402  13.028  10.128  0.00  0.00     0.083 H 
ATOM     10  H6  AZF d   1       1.098  11.380   9.972  0.00  0.00     0.083 H 
ATOM     11  H7  AZF d   1      -1.432  12.238  11.047  0.00  0.00     0.312 HD
ATOM     12  H8  AZF d   1      -0.351  11.138  11.621  0.00  0.00     0.312 HD
ATOM     13  H9  AZF d   1      -2.891  11.464   9.015  0.00  0.00     0.095 H 
ATOM     14  H13 AZF d   1      -2.417  10.336  11.058  0.00  0.00     0.313 HD
ATOM     15  H14 AZF d   1      -1.127   9.574  10.377  0.00  0.00     0.313 HD
ENDROOT
BRANCH   5  16
ATOM     16  C6  AZF d   1      -3.241   9.371   8.777  0.00  0.00     0.048 C 
ATOM     17  H10 AZF d   1      -3.608   9.434   7.742  0.00  0.00     0.077 H 
ATOM     18  H11 AZF d   1      -4.094   9.402   9.471  0.00  0.00     0.077 H 
BRANCH  16  19
ATOM     19  O6  AZF d   1      -2.513   8.150   8.959  0.00  0.00    -0.399 OA
ATOM     20  H12 AZF d   1      -1.776   8.129   8.359  0.00  0.00     0.209 HD
ENDBRANCH  16  19
ENDBRANCH   5  16
BRANCH   1  21
ATOM     21  O4  AZF d   1      -1.630  10.658   6.733  0.00  0.00    -0.391 OA
ATOM     22  H1  AZF d   1      -2.123   9.864   6.562  0.00  0.00     0.210 HD
ENDBRANCH   1  21
BRANCH   2  23
ATOM     23  O3  AZF d   1       0.815  12.056   7.566  0.00  0.00    -0.391 OA
ATOM     24  H4  AZF d   1       0.522  12.121   6.665  0.00  0.00     0.210 HD
ENDBRANCH   2  23
TORSDOF 4
