REMARK  7 active torsions:
REMARK  status: ('A' for Active; 'I' for Inactive)
REMARK       I    between atoms: C23_2  and  N25_3 
REMARK    1  A    between atoms: C23_2  and  C22_9 
REMARK    2  A    between atoms: C22_9  and  C24_10 
REMARK    3  A    between atoms: C22_9  and  N19_11 
REMARK    4  A    between atoms: C16_16  and  N13_17 
REMARK    5  A    between atoms: N13_17  and  S11_18 
REMARK    6  A    between atoms: S11_18  and  C7_21 
REMARK    7  A    between atoms: C1_25  and  C2_26 
ROOT
ATOM      1  N19 G15 d   1       6.394   5.293  20.471  0.00  0.00    -0.337 N 
ATOM      2  C21 G15 d   1       4.966   5.472  20.706  0.00  0.00     0.001 C 
ATOM      3  C18 G15 d   1       4.834   6.992  20.549  0.00  0.00    -0.022 C 
ATOM      4  C17 G15 d   1       7.106   6.380  20.778  0.00  0.00     0.244 C 
ATOM      5  O20 G15 d   1       8.309   6.384  20.696  0.00  0.00    -0.271 OA
ATOM      6  C16 G15 d   1       6.139   7.476  21.195  0.00  0.00     0.098 C 
ATOM      7  H13 G15 d   1       4.678   5.143  21.715  0.00  0.00     0.064 H 
ATOM      8  H14 G15 d   1       4.363   4.935  19.959  0.00  0.00     0.064 H 
ATOM      9  H15 G15 d   1       3.953   7.377  21.084  0.00  0.00     0.039 H 
ATOM     10  H16 G15 d   1       4.777   7.284  19.490  0.00  0.00     0.039 H 
ATOM     11  H17 G15 d   1       6.031   7.410  22.288  0.00  0.00     0.088 H 
ENDROOT
BRANCH   1  12
ATOM     12  C22 G15 d   1       7.067   4.089  19.957  0.00  0.00     0.088 C 
ATOM     13  H9  G15 d   1       8.130   4.185  20.222  0.00  0.00     0.087 H 
BRANCH  12  14
ATOM     14  C23 G15 d   1       7.012   3.964  18.428  0.00  0.00     0.242 C 
ATOM     15  O26 G15 d   1       6.256   4.697  17.797  0.00  0.00    -0.271 OA
ATOM     16  N25 G15 d   1       7.808   3.065  17.780  0.00  0.00    -0.346 N 
ATOM     17  C27 G15 d   1       7.650   2.931  16.322  0.00  0.00     0.017 C 
ATOM     18  C28 G15 d   1       8.835   2.212  18.379  0.00  0.00     0.017 C 
ATOM     19  C29 G15 d   1       9.012   3.032  15.636  0.00  0.00     0.034 C 
ATOM     20  H1  G15 d   1       6.995   3.734  15.951  0.00  0.00     0.067 H 
ATOM     21  H2  G15 d   1       7.199   1.954  16.093  0.00  0.00     0.067 H 
ATOM     22  O31 G15 d   1       9.869   2.058  16.233  0.00  0.00    -0.388 OA
ATOM     23  H3  G15 d   1       9.431   4.039  15.780  0.00  0.00     0.076 H 
ATOM     24  H4  G15 d   1       8.906   2.829  14.560  0.00  0.00     0.076 H 
ATOM     25  C30 G15 d   1      10.144   2.345  17.600  0.00  0.00     0.034 C 
ATOM     26  H5  G15 d   1      10.534   3.369  17.696  0.00  0.00     0.076 H 
ATOM     27  H6  G15 d   1      10.885   1.632  17.990  0.00  0.00     0.076 H 
ATOM     28  H7  G15 d   1       8.500   1.165  18.352  0.00  0.00     0.067 H 
ATOM     29  H8  G15 d   1       8.999   2.518  19.423  0.00  0.00     0.067 H 
ENDBRANCH  12  14
BRANCH  12  30
ATOM     30  C24 G15 d   1       6.542   2.828  20.662  0.00  0.00    -0.049 C 
ATOM     31  H10 G15 d   1       7.058   1.943  20.262  0.00  0.00     0.030 H 
ATOM     32  H11 G15 d   1       5.460   2.732  20.485  0.00  0.00     0.030 H 
ATOM     33  H12 G15 d   1       6.732   2.906  21.743  0.00  0.00     0.030 H 
ENDBRANCH  12  30
ENDBRANCH   1  12
BRANCH   6  34
ATOM     34  N13 G15 d   1       6.443   8.881  20.938  0.00  0.00    -0.299 N 
ATOM     35  H18 G15 d   1       6.694   9.200  20.024  0.00  0.00     0.173 HD
BRANCH  34  36
ATOM     36  S11 G15 d   1       6.356   9.913  22.206  0.00  0.00     0.295 S 
ATOM     37  O14 G15 d   1       4.973  10.027  22.576  0.00  0.00    -0.197 OA
ATOM     38  O15 G15 d   1       7.124  11.042  21.788  0.00  0.00    -0.197 OA
BRANCH  36  39
ATOM     39  C7  G15 d   1       7.141   9.232  23.593  0.00  0.00     0.267 A 
ATOM     40  N2  G15 d   1       6.467   8.601  24.522  0.00  0.00    -0.116 NA
ATOM     41  N3  G15 d   1       7.329   8.131  25.458  0.00  0.00    -0.128 NA
ATOM     42  C1  G15 d   1       8.591   8.516  24.986  0.00  0.00     0.169 A 
ATOM     43  N1  G15 d   1       8.470   9.172  23.772  0.00  0.00    -0.311 N 
ATOM     44  H19 G15 d   1       9.217   9.527  23.157  0.00  0.00     0.170 HD
BRANCH  42  45
ATOM     45  C2  G15 d   1       9.891   8.193  25.647  0.00  0.00     0.054 A 
ATOM     46  C5  G15 d   1       9.914   7.631  26.924  0.00  0.00    -0.060 A 
ATOM     47  C9  G15 d   1      11.255   7.391  27.318  0.00  0.00    -0.054 A 
ATOM     48  H20 G15 d   1       9.035   7.410  27.527  0.00  0.00     0.085 H 
ATOM     49  C10 G15 d   1      12.139   7.799  26.295  0.00  0.00     0.075 A 
ATOM     50  H21 G15 d   1      11.558   6.956  28.269  0.00  0.00     0.086 H 
ATOM     51  S6  G15 d   1      11.410   8.440  24.910  0.00  0.00    -0.074 SA
ATOM     52 CL   G15 d   1      13.851   7.621  26.389  0.00  0.00    -0.076 Cl
ENDBRANCH  42  45
ENDBRANCH  36  39
ENDBRANCH  34  36
ENDBRANCH   6  34
TORSDOF 7
