REMARK  7 active torsions:
REMARK  status: ('A' for Active; 'I' for Inactive)
REMARK    1  A    between atoms: C4_5  and  C9_6 
REMARK    2  A    between atoms: C6_9  and  S1_10 
REMARK    3  A    between atoms: S1_10  and  N1_13 
REMARK    4  A    between atoms: N1_13  and  C12_14 
REMARK    5  A    between atoms: N2_19  and  C16_20 
REMARK    6  A    between atoms: C16_20  and  C17_21 
REMARK    7  A    between atoms: C16_20  and  C18_22 
REMARK       I    between atoms: C18_22  and  N3_24 
ROOT
ATOM      1  C12 GSX d   1       5.471   6.375  22.256  0.00  0.00     0.098 C 
ATOM      2  C13 GSX d   1       4.294   5.458  21.930  0.00  0.00    -0.022 C 
ATOM      3  C14 GSX d   1       4.927   4.100  21.603  0.00  0.00     0.001 C 
ATOM      4  C15 GSX d   1       6.606   5.724  21.476  0.00  0.00     0.244 C 
ATOM      5  O3  GSX d   1       7.660   6.290  21.223  0.00  0.00    -0.271 OA
ATOM      6  N2  GSX d   1       6.276   4.445  21.153  0.00  0.00    -0.337 N 
ATOM      7  H6  GSX d   1       5.680   6.351  23.336  0.00  0.00     0.088 H 
ATOM      8  H7  GSX d   1       3.733   5.841  21.065  0.00  0.00     0.039 H 
ATOM      9  H8  GSX d   1       3.620   5.372  22.795  0.00  0.00     0.039 H 
ATOM     10  H9  GSX d   1       4.367   3.588  20.807  0.00  0.00     0.064 H 
ATOM     11  H10 GSX d   1       4.963   3.459  22.496  0.00  0.00     0.064 H 
ENDROOT
BRANCH   6  12
ATOM     12  C16 GSX d   1       7.205   3.496  20.463  0.00  0.00     0.088 C 
ATOM     13  H11 GSX d   1       8.215   3.898  20.628  0.00  0.00     0.087 H 
BRANCH  12  14
ATOM     14  C17 GSX d   1       7.218   2.047  21.020  0.00  0.00    -0.049 C 
ATOM     15  H12 GSX d   1       7.931   1.439  20.443  0.00  0.00     0.030 H 
ATOM     16  H13 GSX d   1       6.211   1.612  20.934  0.00  0.00     0.030 H 
ATOM     17  H14 GSX d   1       7.521   2.063  22.077  0.00  0.00     0.030 H 
ENDBRANCH  12  14
BRANCH  12  18
ATOM     18  C18 GSX d   1       6.985   3.453  18.941  0.00  0.00     0.242 C 
ATOM     19  O4  GSX d   1       5.897   3.831  18.519  0.00  0.00    -0.271 OA
ATOM     20  N3  GSX d   1       8.010   3.042  18.103  0.00  0.00    -0.346 N 
ATOM     21  C19 GSX d   1       7.744   3.097  16.648  0.00  0.00     0.017 C 
ATOM     22  C23 GSX d   1       9.364   2.619  18.557  0.00  0.00     0.017 C 
ATOM     23  C20 GSX d   1       8.683   2.261  15.771  0.00  0.00     0.034 C 
ATOM     24  H15 GSX d   1       7.827   4.146  16.328  0.00  0.00     0.067 H 
ATOM     25  H16 GSX d   1       6.717   2.742  16.478  0.00  0.00     0.067 H 
ATOM     26  O5  GSX d   1      10.001   2.234  16.285  0.00  0.00    -0.388 OA
ATOM     27  H17 GSX d   1       8.704   2.694  14.760  0.00  0.00     0.076 H 
ATOM     28  H18 GSX d   1       8.300   1.231  15.721  0.00  0.00     0.076 H 
ATOM     29  C22 GSX d   1      10.094   1.697  17.579  0.00  0.00     0.034 C 
ATOM     30  H19 GSX d   1      11.152   1.616  17.869  0.00  0.00     0.076 H 
ATOM     31  H20 GSX d   1       9.631   0.699  17.598  0.00  0.00     0.076 H 
ATOM     32  H21 GSX d   1       9.257   2.090  19.515  0.00  0.00     0.067 H 
ATOM     33  H22 GSX d   1       9.976   3.521  18.703  0.00  0.00     0.067 H 
ENDBRANCH  12  18
ENDBRANCH   6  12
BRANCH   1  34
ATOM     34  N1  GSX d   1       5.271   7.768  21.860  0.00  0.00    -0.301 N 
ATOM     35  H5  GSX d   1       5.165   8.026  20.900  0.00  0.00     0.173 HD
BRANCH  34  36
ATOM     36  S1  GSX d   1       5.229   8.872  23.036  0.00  0.00     0.266 S 
ATOM     37  O2  GSX d   1       4.523   8.388  24.197  0.00  0.00    -0.200 OA
ATOM     38  O1  GSX d   1       4.817  10.099  22.413  0.00  0.00    -0.200 OA
BRANCH  36  39
ATOM     39  C6  GSX d   1       6.927   8.939  23.606  0.00  0.00     0.120 A 
ATOM     40  C7  GSX d   1       7.987   9.623  23.002  0.00  0.00    -0.052 A 
ATOM     41  C8  GSX d   1       9.201   9.464  23.688  0.00  0.00    -0.063 A 
ATOM     42  H4  GSX d   1       7.881  10.216  22.095  0.00  0.00     0.086 H 
ATOM     43  C9  GSX d   1       9.080   8.698  24.859  0.00  0.00     0.023 A 
ATOM     44  H3  GSX d   1      10.143   9.892  23.347  0.00  0.00     0.085 H 
ATOM     45  S3  GSX d   1       7.478   8.125  25.025  0.00  0.00    -0.075 SA
BRANCH  43  46
ATOM     46  C4  GSX d   1      10.193   8.303  25.753  0.00  0.00     0.023 A 
ATOM     47  C3  GSX d   1      10.106   7.671  27.002  0.00  0.00    -0.063 A 
ATOM     48  C2  GSX d   1      11.376   7.380  27.556  0.00  0.00    -0.054 A 
ATOM     49  H2  GSX d   1       9.164   7.430  27.492  0.00  0.00     0.085 H 
ATOM     50  C1  GSX d   1      12.418   7.766  26.700  0.00  0.00     0.075 A 
ATOM     51  H1  GSX d   1      11.526   6.913  28.529  0.00  0.00     0.086 H 
ATOM     52 CL1  GSX d   1      14.105   7.532  26.989  0.00  0.00    -0.076 Cl
ATOM     53  S6  GSX d   1      11.821   8.488  25.265  0.00  0.00    -0.077 SA
ENDBRANCH  43  46
ENDBRANCH  36  39
ENDBRANCH  34  36
ENDBRANCH   1  34
TORSDOF 7
