REMARK  6 active torsions:
REMARK  status: ('A' for Active; 'I' for Inactive)
REMARK    1  A    between atoms: C1_1  and  O1_7 
REMARK    2  A    between atoms: C2_2  and  O2_8 
REMARK    3  A    between atoms: C3_3  and  O3_9 
REMARK    4  A    between atoms: C4_4  and  O4_10 
REMARK    5  A    between atoms: C5_5  and  C6_6 
REMARK    6  A    between atoms: O1_7  and  CM_12 
ROOT
ATOM      1  C1  MFU d   1     -34.814   9.087 -42.393  0.00  0.00     0.158 C 
ATOM      2  C2  MFU d   1     -33.798   8.893 -41.292  0.00  0.00     0.110 C 
ATOM      3  C3  MFU d   1     -33.898  10.048 -40.307  0.00  0.00     0.092 C 
ATOM      4  C4  MFU d   1     -35.305  10.215 -39.732  0.00  0.00     0.087 C 
ATOM      5  C5  MFU d   1     -36.334  10.257 -40.870  0.00  0.00     0.065 C 
ATOM      6  O5  MFU d   1     -36.108   9.179 -41.777  0.00  0.00    -0.351 OA
ATOM      7  H1  MFU d   1     -34.799   8.220 -43.069  0.00  0.00     0.133 H 
ATOM      8  H2  MFU d   1     -33.988   7.940 -40.776  0.00  0.00     0.094 H 
ATOM      9  H3  MFU d   1     -33.629  10.977 -40.831  0.00  0.00     0.091 H 
ATOM     10  H4  MFU d   1     -35.364  11.159 -39.171  0.00  0.00     0.091 H 
ATOM     11  H5  MFU d   1     -36.168  11.194 -41.421  0.00  0.00     0.086 H 
ENDROOT
BRANCH   1  12
ATOM     12  O1  MFU d   1     -34.475  10.267 -43.147  0.00  0.00    -0.363 OA
BRANCH  12  13
ATOM     13  CM  MFU d   1     -35.197  10.307 -44.382  0.00  0.00     0.007 C 
ATOM     14  H12 MFU d   1     -34.922  11.215 -44.938  0.00  0.00     0.066 H 
ATOM     15  H13 MFU d   1     -36.277  10.317 -44.175  0.00  0.00     0.066 H 
ATOM     16  H14 MFU d   1     -34.947   9.419 -44.982  0.00  0.00     0.066 H 
ENDBRANCH  12  13
ENDBRANCH   1  12
BRANCH   2  17
ATOM     17  O2  MFU d   1     -32.484   8.895 -41.840  0.00  0.00    -0.388 OA
ATOM     18  H9  MFU d   1     -32.329   9.720 -42.284  0.00  0.00     0.210 HD
ENDBRANCH   2  17
BRANCH   3  19
ATOM     19  O3  MFU d   1     -32.958   9.819 -39.243  0.00  0.00    -0.390 OA
ATOM     20  H10 MFU d   1     -32.968  10.560 -38.648  0.00  0.00     0.210 HD
ENDBRANCH   3  19
BRANCH   5  21
ATOM     21  C6  MFU d   1     -37.787  10.278 -40.386  0.00  0.00    -0.050 C 
ATOM     22  H6  MFU d   1     -38.462  10.308 -41.254  0.00  0.00     0.031 H 
ATOM     23  H7  MFU d   1     -37.953  11.168 -39.762  0.00  0.00     0.031 H 
ATOM     24  H8  MFU d   1     -37.990   9.373 -39.795  0.00  0.00     0.031 H 
ENDBRANCH   5  21
BRANCH   4  25
ATOM     25  O4  MFU d   1     -35.530   9.118 -38.832  0.00  0.00    -0.390 OA
ATOM     26  H11 MFU d   1     -36.394   9.199 -38.445  0.00  0.00     0.210 HD
ENDBRANCH   4  25
TORSDOF 6
