REMARK  8 active torsions:
REMARK  status: ('A' for Active; 'I' for Inactive)
REMARK    1  A    between atoms: C1_1  and  C2_2 
REMARK    2  A    between atoms: C9_8  and  C12_11 
REMARK    3  A    between atoms: C16_15  and  O17_16 
REMARK    4  A    between atoms: O17_16  and  C18_17 
REMARK    5  A    between atoms: C18_17  and  C19_18 
REMARK    6  A    between atoms: C19_18  and  N21_19 
REMARK    7  A    between atoms: C19_18  and  C25_20 
REMARK    8  A    between atoms: C25_20  and  C26_21 
ROOT
ATOM      1  O17 L20 d   1      11.846   9.122   1.432  0.00  0.00    -0.348 OA
ENDROOT
BRANCH   1   2
ATOM      2  C16 L20 d   1      10.684   9.548   0.802  0.00  0.00     0.087 A 
ATOM      3  C15 L20 d   1      10.820  10.054  -0.489  0.00  0.00     0.034 A 
ATOM      4  N14 L20 d   1       9.794  10.490  -1.224  0.00  0.00    -0.269 NA
ATOM      5  H9  L20 d   1      11.813  10.096  -0.920  0.00  0.00     0.119 H 
ATOM      6  C13 L20 d   1       8.593  10.450  -0.635  0.00  0.00     0.013 A 
ATOM      7  C12 L20 d   1       8.330   9.981   0.668  0.00  0.00    -0.006 A 
ATOM      8  H8  L20 d   1       7.748  10.810  -1.211  0.00  0.00     0.116 H 
ATOM      9  C36 L20 d   1       9.423   9.497   1.434  0.00  0.00    -0.037 A 
ATOM     10  H24 L20 d   1       9.297   9.113   2.440  0.00  0.00     0.089 H 
BRANCH   7  11
ATOM     11  C9  L20 d   1       6.939   9.997   1.145  0.00  0.00    -0.023 A 
ATOM     12  C8  L20 d   1       5.881   9.878   0.184  0.00  0.00    -0.070 A 
ATOM     13  C7  L20 d   1       4.559   9.868   0.562  0.00  0.00    -0.054 A 
ATOM     14  H6  L20 d   1       6.130   9.794  -0.868  0.00  0.00     0.084 H 
ATOM     15  C6  L20 d   1       4.251  10.017   1.921  0.00  0.00     0.062 A 
ATOM     16  H5  L20 d   1       3.773   9.748  -0.174  0.00  0.00     0.087 H 
ATOM     17  N4  L20 d   1       3.047  10.055   2.633  0.00  0.00    -0.277 N 
ATOM     18  C11 L20 d   1       5.313  10.162   2.907  0.00  0.00     0.019 A 
ATOM     19  N3  L20 d   1       3.291  10.213   3.952  0.00  0.00    -0.179 NA
ATOM     20  H4  L20 d   1       2.110   9.974   2.212  0.00  0.00     0.189 HD
ATOM     21  C2  L20 d   1       4.621  10.265   4.186  0.00  0.00     0.063 A 
ATOM     22  C10 L20 d   1       6.650  10.137   2.505  0.00  0.00    -0.058 A 
ATOM     23  H7  L20 d   1       7.448  10.225   3.233  0.00  0.00     0.086 H 
BRANCH  21  24
ATOM     24  C1  L20 d   1       5.266  10.440   5.525  0.00  0.00    -0.033 C 
ATOM     25  H1  L20 d   1       6.360  10.445   5.407  0.00  0.00     0.035 H 
ATOM     26  H2  L20 d   1       4.972   9.611   6.185  0.00  0.00     0.035 H 
ATOM     27  H3  L20 d   1       4.941  11.393   5.967  0.00  0.00     0.035 H 
ENDBRANCH  21  24
ENDBRANCH   7  11
ENDBRANCH   1   2
BRANCH   1  28
ATOM     28  C18 L20 d   1      11.978   8.124   2.435  0.00  0.00     0.053 C 
ATOM     29  H10 L20 d   1      11.314   7.271   2.232  0.00  0.00     0.078 H 
ATOM     30  H11 L20 d   1      11.755   8.534   3.431  0.00  0.00     0.078 H 
BRANCH  28  31
ATOM     31  C19 L20 d   1      13.477   7.706   2.325  0.00  0.00     0.124 C 
ATOM     32  H12 L20 d   1      13.676   6.994   3.139  0.00  0.00     0.087 H 
BRANCH  31  33
ATOM     33  N21 L20 d   1      13.678   6.953   1.009  0.00  0.00    -0.073 N 
ATOM     34  H13 L20 d   1      14.644   6.676   0.924  0.00  0.00     0.274 HD
ATOM     35  H14 L20 d   1      13.431   7.553   0.237  0.00  0.00     0.274 HD
ATOM     36  H15 L20 d   1      13.091   6.133   0.998  0.00  0.00     0.274 HD
ENDBRANCH  31  33
BRANCH  31  37
ATOM     37  C25 L20 d   1      14.485   8.909   2.536  0.00  0.00    -0.010 C 
ATOM     38  H16 L20 d   1      15.474   8.483   2.761  0.00  0.00     0.043 H 
ATOM     39  H17 L20 d   1      14.133   9.495   3.398  0.00  0.00     0.043 H 
BRANCH  37  40
ATOM     40  C26 L20 d   1      14.642   9.841   1.387  0.00  0.00    -0.028 A 
ATOM     41  C27 L20 d   1      15.369   9.575   0.216  0.00  0.00    -0.015 A 
ATOM     42  N28 L20 d   1      15.287  10.640  -0.680  0.00  0.00    -0.365 N 
ATOM     43  H18 L20 d   1      15.925   8.657   0.032  0.00  0.00     0.112 H 
ATOM     44  C30 L20 d   1      14.479  11.651  -0.126  0.00  0.00     0.042 A 
ATOM     45  H19 L20 d   1      15.745  10.681  -1.602  0.00  0.00     0.165 HD
ATOM     46  C31 L20 d   1      14.080  12.900  -0.661  0.00  0.00    -0.056 A 
ATOM     47  C35 L20 d   1      14.059  11.189   1.186  0.00  0.00    -0.002 A 
ATOM     48  C32 L20 d   1      13.260  13.716   0.123  0.00  0.00    -0.081 A 
ATOM     49  H20 L20 d   1      14.401  13.213  -1.648  0.00  0.00     0.086 H 
ATOM     50  C33 L20 d   1      12.840  13.279   1.407  0.00  0.00    -0.082 A 
ATOM     51  H21 L20 d   1      12.944  14.684  -0.250  0.00  0.00     0.083 H 
ATOM     52  C34 L20 d   1      13.222  12.046   1.929  0.00  0.00    -0.070 A 
ATOM     53  H22 L20 d   1      12.202  13.925   1.999  0.00  0.00     0.083 H 
ATOM     54  H23 L20 d   1      12.874  11.744   2.910  0.00  0.00     0.084 H 
ENDBRANCH  37  40
ENDBRANCH  31  37
ENDBRANCH  28  31
ENDBRANCH   1  28
TORSDOF 8
