REMARK  10 active torsions:
REMARK  status: ('A' for Active; 'I' for Inactive)
REMARK    1  A    between atoms: CA_2  and  N_1 
REMARK    2  A    between atoms: CH_7  and  CA_2 
REMARK    3  A    between atoms: CZ_6  and  CE1_4 
REMARK    4  A    between atoms: CE2_5  and  CZ_6 
REMARK    5  A    between atoms: N1_15  and  CE2_5 
REMARK    6  A    between atoms: CM_8  and  CH_7 
REMARK    7  A    between atoms: CA2_9  and  CM_8 
REMARK    8  A    between atoms: CB2_10  and  CA2_9 
REMARK    9  A    between atoms: CA2_9  and  C_14 
REMARK   10  A    between atoms: CG2_11  and  CB2_10 
ROOT
ATOM      1  CB2 720 d   1      79.287  21.405   1.237  0.00  0.00    -0.011 C 
ATOM      2  H19 720 d   1      78.555  20.946   1.917  0.00  0.00     0.043 H 
ATOM      3  H20 720 d   1      78.780  21.727   0.315  0.00  0.00     0.043 H 
ENDROOT
BRANCH   1   4
ATOM      4  CA2 720 d   1      80.396  20.374   0.891  0.00  0.00     0.036 C 
ATOM      5  H18 720 d   1      81.208  20.903   0.370  0.00  0.00     0.057 H 
BRANCH   4   6
ATOM      6  CM  720 d   1      79.831  19.338  -0.096  0.00  0.00    -0.051 C 
ATOM      7  H16 720 d   1      78.993  18.807   0.378  0.00  0.00     0.034 H 
ATOM      8  H17 720 d   1      79.474  19.856  -0.999  0.00  0.00     0.034 H 
BRANCH   6   9
ATOM      9  CH  720 d   1      80.925  18.312  -0.495  0.00  0.00    -0.042 C 
ATOM     10  H14 720 d   1      81.749  18.835  -1.002  0.00  0.00     0.035 H 
ATOM     11  H15 720 d   1      81.308  17.816   0.409  0.00  0.00     0.035 H 
BRANCH   9  12
ATOM     12  CA  720 d   1      80.329  17.256  -1.444  0.00  0.00     0.080 C 
ATOM     13  H4  720 d   1      79.738  17.759  -2.223  0.00  0.00     0.075 H 
ATOM     14  H5  720 d   1      81.144  16.686  -1.913  0.00  0.00     0.075 H 
BRANCH  12  15
ATOM     15  N   720 d   1      79.466  16.341  -0.695  0.00  0.00    -0.079 N 
ATOM     16  H1  720 d   1      79.080  15.653  -1.323  0.00  0.00     0.274 HD
ATOM     17  H2  720 d   1      78.717  16.861  -0.265  0.00  0.00     0.274 HD
ATOM     18  H3  720 d   1      80.006  15.878   0.019  0.00  0.00     0.274 HD
ENDBRANCH  12  15
ENDBRANCH   9  12
ENDBRANCH   6   9
ENDBRANCH   4   6
BRANCH   4  19
ATOM     19  C   720 d   1      80.975  19.828   2.152  0.00  0.00     0.177 C 
ATOM     20  O   720 d   1      82.202  19.981   2.371  0.00  0.00    -0.648 OA
ATOM     21  OXT 720 d   1      80.226  19.229   2.954  0.00  0.00    -0.648 OA
ENDBRANCH   4  19
ENDBRANCH   1   4
BRANCH   1  22
ATOM     22  CG2 720 d   1      79.922  22.591   1.904  0.00  0.00     0.052 A 
ATOM     23  CD3 720 d   1      81.024  23.284   1.631  0.00  0.00     0.004 A 
ATOM     24  N1  720 d   1      81.131  24.308   2.456  0.00  0.00    -0.350 N 
ATOM     25  H21 720 d   1      81.734  23.042   0.842  0.00  0.00     0.114 H 
ATOM     26  CG  720 d   1      80.164  24.351   3.295  0.00  0.00     0.066 A 
ATOM     27  N2  720 d   1      79.476  23.365   2.989  0.00  0.00    -0.247 NA
ATOM     28  H6  720 d   1      79.988  25.078   4.086  0.00  0.00     0.143 H 
BRANCH  24  29
ATOM     29  CE2 720 d   1      82.221  25.258   2.541  0.00  0.00    -0.000 C 
ATOM     30  H10 720 d   1      82.306  25.584   3.588  0.00  0.00     0.064 H 
ATOM     31  H11 720 d   1      83.145  24.742   2.241  0.00  0.00     0.064 H 
BRANCH  29  32
ATOM     32  CZ  720 d   1      82.074  26.497   1.675  0.00  0.00    -0.053 C 
ATOM     33  H12 720 d   1      82.363  26.250   0.643  0.00  0.00     0.034 H 
ATOM     34  H13 720 d   1      81.025  26.826   1.694  0.00  0.00     0.034 H 
BRANCH  32  35
ATOM     35  CE1 720 d   1      82.968  27.640   2.187  0.00  0.00    -0.075 C 
ATOM     36  H7  720 d   1      82.841  28.522   1.542  0.00  0.00     0.027 H 
ATOM     37  H8  720 d   1      84.020  27.320   2.167  0.00  0.00     0.027 H 
ATOM     38  H9  720 d   1      82.682  27.895   3.218  0.00  0.00     0.027 H 
ENDBRANCH  32  35
ENDBRANCH  29  32
ENDBRANCH  24  29
ENDBRANCH   1  22
TORSDOF 10
