REMARK  12 active torsions:
REMARK  status: ('A' for Active; 'I' for Inactive)
REMARK    1  A    between atoms: O7_1  and  C7_2 
REMARK    2  A    between atoms: C7_2  and  C5_3 
REMARK    3  A    between atoms: C4_5  and  O4_6 
REMARK    4  A    between atoms: C3_7  and  O3_8 
REMARK    5  A    between atoms: C2_9  and  O2_10 
REMARK    6  A    between atoms: C1_11  and  N1'_12 
REMARK    7  A    between atoms: N1'_12  and  C1'_13 
REMARK    8  A    between atoms: C2'_14  and  O2'_15 
REMARK    9  A    between atoms: C5'_17  and  C7'_18 
REMARK   10  A    between atoms: C7'_18  and  O7'_19 
REMARK   11  A    between atoms: C4'_20  and  O4'_21 
REMARK   12  A    between atoms: C3'_22  and  O3'_23 
ROOT
ATOM      1  N1' VDM d   1      30.438  52.957   9.893  0.00  0.00    -0.058 N 
ATOM      2  H12 VDM d   1      31.105  53.611  10.271  0.00  0.00     0.278 HD
ATOM      3  H13 VDM d   1      30.055  53.326   9.037  0.00  0.00     0.278 HD
ENDROOT
BRANCH   1   4
ATOM      4  C1  VDM d   1      29.327  52.889  10.854  0.00  0.00     0.146 C 
ATOM      5  C6  VDM d   1      29.647  51.840  11.917  0.00  0.00    -0.064 C 
ATOM      6  C5  VDM d   1      30.173  52.166  13.119  0.00  0.00    -0.027 C 
ATOM      7  H4  VDM d   1      29.444  50.792  11.699  0.00  0.00     0.080 H 
ATOM      8  C4  VDM d   1      30.406  53.598  13.560  0.00  0.00     0.086 C 
ATOM      9  C3  VDM d   1      30.282  54.586  12.422  0.00  0.00     0.091 C 
ATOM     10  H5  VDM d   1      29.637  53.836  14.310  0.00  0.00     0.094 H 
ATOM     11  C2  VDM d   1      29.053  54.227  11.579  0.00  0.00     0.093 C 
ATOM     12  H7  VDM d   1      31.175  54.537  11.781  0.00  0.00     0.091 H 
ATOM     13  H9  VDM d   1      28.199  54.075  12.255  0.00  0.00     0.090 H 
ATOM     14  H11 VDM d   1      28.418  52.593  10.310  0.00  0.00     0.095 H 
BRANCH   6  15
ATOM     15  C7  VDM d   1      30.453  51.070  14.108  0.00  0.00     0.039 C 
ATOM     16  H2  VDM d   1      30.504  50.094  13.604  0.00  0.00     0.081 H 
ATOM     17  H3  VDM d   1      31.397  51.257  14.641  0.00  0.00     0.081 H 
BRANCH  15  18
ATOM     18  O7  VDM d   1      29.348  51.117  15.007  0.00  0.00    -0.397 OA
ATOM     19  H1  VDM d   1      29.315  51.971  15.422  0.00  0.00     0.209 HD
ENDBRANCH  15  18
ENDBRANCH   6  15
BRANCH   8  20
ATOM     20  O4  VDM d   1      31.681  53.801  14.150  0.00  0.00    -0.388 OA
ATOM     21  H6  VDM d   1      31.766  53.247  14.917  0.00  0.00     0.210 HD
ENDBRANCH   8  20
BRANCH   9  22
ATOM     22  O3  VDM d   1      30.203  55.886  13.020  0.00  0.00    -0.390 OA
ATOM     23  H8  VDM d   1      30.124  56.543  12.338  0.00  0.00     0.210 HD
ENDBRANCH   9  22
BRANCH  11  24
ATOM     24  O2  VDM d   1      28.716  55.302  10.696  0.00  0.00    -0.390 OA
ATOM     25  H10 VDM d   1      29.448  55.475  10.116  0.00  0.00     0.210 HD
ENDBRANCH  11  24
ENDBRANCH   1   4
BRANCH   1  26
ATOM     26  C1' VDM d   1      31.198  51.748   9.526  0.00  0.00     0.130 C 
ATOM     27  C2' VDM d   1      32.695  51.999   9.340  0.00  0.00     0.090 C 
ATOM     28  C3' VDM d   1      33.017  52.518   7.934  0.00  0.00     0.087 C 
ATOM     29  H15 VDM d   1      33.206  51.032   9.457  0.00  0.00     0.090 H 
ATOM     30  C4' VDM d   1      32.591  51.464   6.910  0.00  0.00     0.068 C 
ATOM     31  H25 VDM d   1      32.460  53.449   7.755  0.00  0.00     0.091 H 
ATOM     32  C5' VDM d   1      31.063  51.304   6.955  0.00  0.00    -0.004 C 
ATOM     33  H23 VDM d   1      33.054  50.504   7.182  0.00  0.00     0.087 H 
ATOM     34  C6' VDM d   1      30.573  50.945   8.363  0.00  0.00    -0.028 C 
ATOM     35  H19 VDM d   1      30.631  52.282   6.698  0.00  0.00     0.047 H 
ATOM     36  H17 VDM d   1      29.485  51.105   8.391  0.00  0.00     0.036 H 
ATOM     37  H18 VDM d   1      30.792  49.881   8.534  0.00  0.00     0.036 H 
ATOM     38  H14 VDM d   1      31.123  51.088  10.403  0.00  0.00     0.088 H 
BRANCH  27  39
ATOM     39  O2' VDM d   1      33.203  52.878  10.348  0.00  0.00    -0.391 OA
ATOM     40  H16 VDM d   1      32.748  53.711  10.299  0.00  0.00     0.210 HD
ENDBRANCH  27  39
BRANCH  28  41
ATOM     41  O3' VDM d   1      34.416  52.777   7.798  0.00  0.00    -0.390 OA
ATOM     42  H26 VDM d   1      34.594  53.097   6.921  0.00  0.00     0.210 HD
ENDBRANCH  28  41
BRANCH  30  43
ATOM     43  O4' VDM d   1      33.027  51.816   5.589  0.00  0.00    -0.392 OA
ATOM     44  H24 VDM d   1      33.972  51.910   5.583  0.00  0.00     0.210 HD
ENDBRANCH  30  43
BRANCH  32  45
ATOM     45  C7' VDM d   1      30.546  50.300   5.924  0.00  0.00     0.022 C 
ATOM     46  H20 VDM d   1      30.925  49.297   6.171  0.00  0.00     0.074 H 
ATOM     47  H21 VDM d   1      30.900  50.590   4.924  0.00  0.00     0.074 H 
BRANCH  45  48
ATOM     48  O7' VDM d   1      29.105  50.280   5.932  0.00  0.00    -0.400 OA
ATOM     49  H22 VDM d   1      28.776  51.145   5.718  0.00  0.00     0.209 HD
ENDBRANCH  45  48
ENDBRANCH  32  45
ENDBRANCH   1  26
TORSDOF 12
