REMARK  8 active torsions:
REMARK  status: ('A' for Active; 'I' for Inactive)
REMARK    1  A    between atoms: N3_3  and  C7_4 
REMARK    2  A    between atoms: C7_4  and  C8_5 
REMARK    3  A    between atoms: C8_5  and  C10_6 
REMARK    4  A    between atoms: C8_5  and  C9_7 
REMARK    5  A    between atoms: N15_10  and  C23_11 
REMARK    6  A    between atoms: C23_11  and  C24_12 
REMARK    7  A    between atoms: C14_22  and  C17_23 
REMARK    8  A    between atoms: N1_32  and  C12_33 
ROOT
ATOM      1  C2  003 d   1      15.229  56.504  36.336  0.00  0.00     0.333 A 
ATOM      2  O11 003 d   1      15.872  55.553  35.883  0.00  0.00    -0.246 OA
ATOM      3  N3  003 d   1      15.347  56.832  37.680  0.00  0.00    -0.281 N 
ATOM      4  C4  003 d   1      14.636  57.891  38.181  0.00  0.00     0.172 A 
ATOM      5  N16 003 d   1      14.628  58.344  39.361  0.00  0.00    -0.152 NA
ATOM      6  N15 003 d   1      13.787  59.404  39.418  0.00  0.00    -0.262 N 
ATOM      7  C14 003 d   1      13.224  59.615  38.219  0.00  0.00     0.083 A 
ATOM      8  C5  003 d   1      13.722  58.699  37.372  0.00  0.00     0.109 A 
ATOM      9  C6  003 d   1      13.620  58.311  35.947  0.00  0.00     0.267 A 
ATOM     10  O13 003 d   1      12.881  58.941  35.211  0.00  0.00    -0.267 OA
ATOM     11  N1  003 d   1      14.371  57.239  35.521  0.00  0.00    -0.270 N 
ENDROOT
BRANCH   6  12
ATOM     12  C23 003 d   1      13.574  60.201  40.652  0.00  0.00     0.042 C 
ATOM     13  H10 003 d   1      14.089  59.732  41.503  0.00  0.00     0.074 H 
ATOM     14  H11 003 d   1      12.500  60.282  40.873  0.00  0.00     0.074 H 
BRANCH  12  15
ATOM     15  C24 003 d   1      14.177  61.615  40.365  0.00  0.00    -0.027 A 
ATOM     16  C29 003 d   1      15.574  61.787  40.020  0.00  0.00    -0.018 A 
ATOM     17  C30 003 d   1      16.491  60.678  39.950  0.00  0.00    -0.072 A 
ATOM     18  C28 003 d   1      16.071  63.112  39.727  0.00  0.00    -0.025 A 
ATOM     19  C31 003 d   1      17.854  60.879  39.603  0.00  0.00    -0.082 A 
ATOM     20  H12 003 d   1      16.136  59.676  40.165  0.00  0.00     0.084 H 
ATOM     21  C32 003 d   1      18.324  62.192  39.315  0.00  0.00    -0.082 A 
ATOM     22  H13 003 d   1      18.534  60.036  39.558  0.00  0.00     0.083 H 
ATOM     23  C33 003 d   1      17.437  63.304  39.377  0.00  0.00    -0.072 A 
ATOM     24  H14 003 d   1      19.363  62.346  39.047  0.00  0.00     0.083 H 
ATOM     25  H15 003 d   1      17.803  64.300  39.157  0.00  0.00     0.084 H 
ATOM     26  C27 003 d   1      15.198  64.232  39.783  0.00  0.00    -0.072 A 
ATOM     27  C26 003 d   1      13.829  64.056  40.129  0.00  0.00    -0.082 A 
ATOM     28  H16 003 d   1      15.576  65.223  39.561  0.00  0.00     0.084 H 
ATOM     29  C25 003 d   1      13.322  62.761  40.417  0.00  0.00    -0.074 A 
ATOM     30  H17 003 d   1      13.169  64.915  40.173  0.00  0.00     0.083 H 
ATOM     31  H18 003 d   1      12.277  62.640  40.679  0.00  0.00     0.084 H 
ENDBRANCH  12  15
ENDBRANCH   6  12
BRANCH   7  32
ATOM     32  C17 003 d   1      12.214  60.722  37.880  0.00  0.00    -0.004 A 
ATOM     33  C22 003 d   1      10.902  60.683  38.443  0.00  0.00    -0.054 A 
ATOM     34  C21 003 d   1       9.981  61.718  38.139  0.00  0.00     0.003 A 
ATOM     35  H19 003 d   1      10.612  59.869  39.097  0.00  0.00     0.087 H 
ATOM     36  N20 003 d   1      10.356  62.748  37.310  0.00  0.00    -0.273 NA
ATOM     37  H20 003 d   1       8.982  61.697  38.560  0.00  0.00     0.114 H 
ATOM     38  C19 003 d   1      11.609  62.812  36.753  0.00  0.00     0.003 A 
ATOM     39  C18 003 d   1      12.564  61.805  37.024  0.00  0.00    -0.054 A 
ATOM     40  H21 003 d   1      11.868  63.639  36.102  0.00  0.00     0.114 H 
ATOM     41  H22 003 d   1      13.553  61.857  36.584  0.00  0.00     0.087 H 
ENDBRANCH   7  32
BRANCH   3  42
ATOM     42  C7  003 d   1      16.244  56.066  38.574  0.00  0.00     0.009 C 
ATOM     43  H1  003 d   1      16.413  55.079  38.119  0.00  0.00     0.065 H 
ATOM     44  H2  003 d   1      15.734  55.942  39.541  0.00  0.00     0.065 H 
BRANCH  42  45
ATOM     45  C8  003 d   1      17.632  56.714  38.844  0.00  0.00    -0.045 C 
ATOM     46  H3  003 d   1      17.500  57.799  38.967  0.00  0.00     0.041 H 
BRANCH  45  47
ATOM     47  C10 003 d   1      18.576  56.443  37.657  0.00  0.00    -0.072 C 
ATOM     48  H4  003 d   1      19.555  56.904  37.855  0.00  0.00     0.028 H 
ATOM     49  H5  003 d   1      18.146  56.874  36.741  0.00  0.00     0.028 H 
ATOM     50  H6  003 d   1      18.701  55.358  37.528  0.00  0.00     0.028 H 
ENDBRANCH  45  47
BRANCH  45  51
ATOM     51  C9  003 d   1      18.283  56.135  40.116  0.00  0.00    -0.072 C 
ATOM     52  H7  003 d   1      17.626  56.317  40.979  0.00  0.00     0.028 H 
ATOM     53  H8  003 d   1      19.254  56.623  40.285  0.00  0.00     0.028 H 
ATOM     54  H9  003 d   1      18.433  55.053  39.991  0.00  0.00     0.028 H 
ENDBRANCH  45  51
ENDBRANCH  42  45
ENDBRANCH   3  42
BRANCH  11  55
ATOM     55  C12 003 d   1      14.267  56.869  34.104  0.00  0.00    -0.007 C 
ATOM     56  H23 003 d   1      14.915  56.003  33.903  0.00  0.00     0.057 H 
ATOM     57  H24 003 d   1      14.584  57.717  33.479  0.00  0.00     0.057 H 
ATOM     58  H25 003 d   1      13.224  56.610  33.868  0.00  0.00     0.057 H 
ENDBRANCH  11  55
TORSDOF 8
