REMARK  12 active torsions:
REMARK  status: ('A' for Active; 'I' for Inactive)
REMARK    1  A    between atoms: O7_1  and  C7_2 
REMARK    2  A    between atoms: C7_2  and  C5_3 
REMARK    3  A    between atoms: C5_3  and  O5_4 
REMARK    4  A    between atoms: C4_5  and  O4_6 
REMARK    5  A    between atoms: C3_7  and  O3_8 
REMARK    6  A    between atoms: C1_13  and  N1'_14 
REMARK    7  A    between atoms: N1'_14  and  C1'_15 
REMARK    8  A    between atoms: C2'_16  and  O2'_17 
REMARK    9  A    between atoms: C5'_19  and  C6'_20 
REMARK   10  A    between atoms: C6'_20  and  O6'_21 
REMARK   11  A    between atoms: C4'_22  and  O4'_23 
REMARK   12  A    between atoms: C3'_24  and  O3'_25 
ROOT
ATOM      1  N1' TTZ d   1      19.036  49.519   9.689  0.00  0.00    -0.341 N 
ATOM      2  H11 TTZ d   1      19.021  48.895   8.870  0.00  0.00     0.164 HD
ENDROOT
BRANCH   1   3
ATOM      3  C1  TTZ d   1      19.817  49.148  10.731  0.00  0.00     0.160 C 
ATOM      4  S1  TTZ d   1      20.608  47.647  10.929  0.00  0.00    -0.083 SA
ATOM      5  C2  TTZ d   1      20.499  47.826  12.700  0.00  0.00     0.050 C 
ATOM      6  C3  TTZ d   1      19.100  47.478  13.240  0.00  0.00     0.077 C 
ATOM      7  C6  TTZ d   1      20.583  49.330  12.942  0.00  0.00     0.084 C 
ATOM      8  H9  TTZ d   1      21.288  47.255  13.211  0.00  0.00     0.064 H 
ATOM      9  C4  TTZ d   1      18.828  48.450  14.400  0.00  0.00     0.095 C 
ATOM     10  H7  TTZ d   1      18.371  47.694  12.445  0.00  0.00     0.089 H 
ATOM     11  C5  TTZ d   1      19.810  49.616  14.236  0.00  0.00     0.130 C 
ATOM     12  H5  TTZ d   1      19.030  47.949  15.358  0.00  0.00     0.091 H 
ATOM     13  N1  TTZ d   1      19.954  49.906  11.726  0.00  0.00    -0.257 NA
ATOM     14  H10 TTZ d   1      21.622  49.676  13.042  0.00  0.00     0.083 H 
BRANCH   6  15
ATOM     15  O3  TTZ d   1      18.930  46.098  13.574  0.00  0.00    -0.392 OA
ATOM     16  H8  TTZ d   1      19.115  45.563  12.811  0.00  0.00     0.210 HD
ENDBRANCH   6  15
BRANCH   9  17
ATOM     17  O4  TTZ d   1      17.454  48.841  14.380  0.00  0.00    -0.390 OA
ATOM     18  H6  TTZ d   1      17.289  49.450  15.090  0.00  0.00     0.210 HD
ENDBRANCH   9  17
BRANCH  11  19
ATOM     19  C7  TTZ d   1      19.228  51.007  14.383  0.00  0.00     0.050 C 
ATOM     20  H2  TTZ d   1      18.747  51.086  15.369  0.00  0.00     0.078 H 
ATOM     21  H3  TTZ d   1      20.045  51.740  14.314  0.00  0.00     0.078 H 
BRANCH  19  22
ATOM     22  O7  TTZ d   1      18.281  51.298  13.399  0.00  0.00    -0.398 OA
ATOM     23  H1  TTZ d   1      18.688  51.240  12.543  0.00  0.00     0.209 HD
ENDBRANCH  19  22
ENDBRANCH  11  19
BRANCH  11  24
ATOM     24  O5  TTZ d   1      20.733  49.559  15.299  0.00  0.00    -0.383 OA
ATOM     25  H4  TTZ d   1      20.275  49.683  16.122  0.00  0.00     0.210 HD
ENDBRANCH  11  24
ENDBRANCH   1   3
BRANCH   1  26
ATOM     26  C1' TTZ d   1      18.220  50.712   9.622  0.00  0.00     0.133 C 
ATOM     27  C2' TTZ d   1      16.719  50.361   9.539  0.00  0.00     0.104 C 
ATOM     28  C3' TTZ d   1      16.344  49.733   8.202  0.00  0.00     0.091 C 
ATOM     29  H13 TTZ d   1      16.147  51.294   9.650  0.00  0.00     0.093 H 
ATOM     30  C4' TTZ d   1      16.752  50.722   7.112  0.00  0.00     0.089 C 
ATOM     31  H21 TTZ d   1      16.880  48.781   8.071  0.00  0.00     0.091 H 
ATOM     32  C5' TTZ d   1      18.248  51.000   7.179  0.00  0.00     0.088 C 
ATOM     33  H19 TTZ d   1      16.226  51.667   7.313  0.00  0.00     0.091 H 
ATOM     34  O5' TTZ d   1      18.597  51.512   8.472  0.00  0.00    -0.354 OA
ATOM     35  H15 TTZ d   1      18.803  50.070   6.985  0.00  0.00     0.090 H 
ATOM     36  H12 TTZ d   1      18.391  51.302  10.535  0.00  0.00     0.122 H 
BRANCH  27  37
ATOM     37  O2' TTZ d   1      16.356  49.479  10.600  0.00  0.00    -0.389 OA
ATOM     38  H14 TTZ d   1      16.866  48.680  10.534  0.00  0.00     0.210 HD
ENDBRANCH  27  37
BRANCH  28  39
ATOM     39  O3' TTZ d   1      14.961  49.505   8.133  0.00  0.00    -0.390 OA
ATOM     40  H22 TTZ d   1      14.742  49.146   7.281  0.00  0.00     0.210 HD
ENDBRANCH  28  39
BRANCH  30  41
ATOM     41  O4' TTZ d   1      16.374  50.298   5.806  0.00  0.00    -0.390 OA
ATOM     42  H20 TTZ d   1      15.439  50.130   5.787  0.00  0.00     0.210 HD
ENDBRANCH  30  41
BRANCH  32  43
ATOM     43  C6' TTZ d   1      18.617  52.052   6.139  0.00  0.00     0.043 C 
ATOM     44  H16 TTZ d   1      18.177  53.019   6.425  0.00  0.00     0.078 H 
ATOM     45  H17 TTZ d   1      18.227  51.748   5.157  0.00  0.00     0.078 H 
BRANCH  43  46
ATOM     46  O6' TTZ d   1      20.046  52.180   6.066  0.00  0.00    -0.398 OA
ATOM     47  H18 TTZ d   1      20.425  51.345   5.819  0.00  0.00     0.209 HD
ENDBRANCH  43  46
ENDBRANCH  32  43
ENDBRANCH   1  26
TORSDOF 12
