REMARK  5 active torsions:
REMARK  status: ('A' for Active; 'I' for Inactive)
REMARK    1  A    between atoms: C11_1  and  C10_4 
REMARK    2  A    between atoms: C10_4  and  C9_5 
REMARK    3  A    between atoms: C9_5  and  C8_6 
REMARK    4  A    between atoms: C8_6  and  C7_7 
REMARK    5  A    between atoms: C7_7  and  C2_8 
ROOT
ATOM      1  C2  BTN d   1      36.164  11.344  52.751  0.00  0.00     0.012 C 
ATOM      2  S1  BTN d   1      34.953  11.170  51.579  0.00  0.00    -0.160 SA
ATOM      3  C6  BTN d   1      33.792  10.847  52.930  0.00  0.00    -0.002 C 
ATOM      4  C5  BTN d   1      34.186  11.680  54.137  0.00  0.00     0.041 A 
ATOM      5  N1  BTN d   1      33.550  12.983  54.110  0.00  0.00    -0.347 N 
ATOM      6  C3  BTN d   1      34.440  13.970  53.995  0.00  0.00     0.248 A 
ATOM      7  O3  BTN d   1      34.105  15.320  53.981  0.00  0.00    -0.152 OA
ATOM      8  N2  BTN d   1      35.678  13.511  53.926  0.00  0.00    -0.347 N 
ATOM      9  C4  BTN d   1      35.659  12.060  54.001  0.00  0.00     0.045 A 
ATOM     10  H9  BTN d   1      36.477  10.334  53.053  0.00  0.00     0.059 H 
ATOM     11  H10 BTN d   1      33.822   9.780  53.194  0.00  0.00     0.052 H 
ATOM     12  H11 BTN d   1      32.774  11.117  52.613  0.00  0.00     0.052 H 
ATOM     13  H12 BTN d   1      33.973  11.136  55.069  0.00  0.00     0.076 H 
ATOM     14  H13 BTN d   1      32.562  13.125  54.170  0.00  0.00     0.163 HD
ATOM     15  H14 BTN d   1      36.499  14.075  53.836  0.00  0.00     0.163 HD
ATOM     16  H15 BTN d   1      36.241  11.729  54.873  0.00  0.00     0.077 H 
ENDROOT
BRANCH   1  17
ATOM     17  C7  BTN d   1      37.379  12.051  52.178  0.00  0.00    -0.051 C 
ATOM     18  H7  BTN d   1      37.055  12.852  51.497  0.00  0.00     0.034 H 
ATOM     19  H8  BTN d   1      37.976  12.483  52.995  0.00  0.00     0.034 H 
BRANCH  17  20
ATOM     20  C8  BTN d   1      38.206  11.044  51.421  0.00  0.00    -0.063 C 
ATOM     21  H5  BTN d   1      38.462  10.203  52.083  0.00  0.00     0.033 H 
ATOM     22  H6  BTN d   1      37.635  10.671  50.558  0.00  0.00     0.033 H 
BRANCH  20  23
ATOM     23  C9  BTN d   1      39.486  11.722  50.935  0.00  0.00    -0.056 C 
ATOM     24  H3  BTN d   1      39.254  12.744  50.600  0.00  0.00     0.033 H 
ATOM     25  H4  BTN d   1      40.214  11.762  51.759  0.00  0.00     0.033 H 
BRANCH  23  26
ATOM     26  C10 BTN d   1      40.080  10.926  49.768  0.00  0.00     0.016 C 
ATOM     27  H1  BTN d   1      39.266  10.482  49.177  0.00  0.00     0.049 H 
ATOM     28  H2  BTN d   1      40.671  11.600  49.130  0.00  0.00     0.049 H 
BRANCH  26  29
ATOM     29  C11 BTN d   1      40.976   9.822  50.302  0.00  0.00     0.172 C 
ATOM     30  O11 BTN d   1      41.435   8.949  49.541  0.00  0.00    -0.648 OA
ATOM     31  O12 BTN d   1      41.302   9.776  51.515  0.00  0.00    -0.648 OA
ENDBRANCH  26  29
ENDBRANCH  23  26
ENDBRANCH  20  23
ENDBRANCH  17  20
ENDBRANCH   1  17
TORSDOF 5
