REMARK  8 active torsions:
REMARK  status: ('A' for Active; 'I' for Inactive)
REMARK    1  A    between atoms: C9_6  and  C4_5 
REMARK    2  A    between atoms: C9_6  and  C8_7 
REMARK    3  A    between atoms: S1_8  and  N1_11 
REMARK    4  A    between atoms: S1_8  and  C6_29 
REMARK    5  A    between atoms: N1_11  and  C12_12 
REMARK    6  A    between atoms: N2_17  and  C16_18 
REMARK    7  A    between atoms: C16_18  and  C17_19 
REMARK    8  A    between atoms: C16_18  and  C18_20 
REMARK       I    between atoms: C18_20  and  N3_22 
ROOT
ATOM      1  C12 701 d   1       7.344  17.947  49.525  0.00  0.00     0.098 C 
ATOM      2  C13 701 d   1       6.384  16.832  49.984  0.00  0.00    -0.022 C 
ATOM      3  C14 701 d   1       4.998  17.139  49.380  0.00  0.00     0.001 C 
ATOM      4  C15 701 d   1       6.427  19.041  49.063  0.00  0.00     0.244 C 
ATOM      5  O3  701 d   1       6.769  20.203  48.859  0.00  0.00    -0.271 OA
ATOM      6  N2  701 d   1       5.218  18.516  48.915  0.00  0.00    -0.337 N 
ATOM      7  H7  701 d   1       7.933  17.585  48.670  0.00  0.00     0.088 H 
ATOM      8  H8  701 d   1       6.321  16.819  51.082  0.00  0.00     0.039 H 
ATOM      9  H9  701 d   1       6.742  15.856  49.625  0.00  0.00     0.039 H 
ATOM     10  H10 701 d   1       4.202  17.087  50.138  0.00  0.00     0.064 H 
ATOM     11  H11 701 d   1       4.757  16.461  48.548  0.00  0.00     0.064 H 
ENDROOT
BRANCH   6  12
ATOM     12  C16 701 d   1       4.107  19.232  48.300  0.00  0.00     0.088 C 
ATOM     13  H12 701 d   1       4.357  20.303  48.313  0.00  0.00     0.087 H 
BRANCH  12  14
ATOM     14  C17 701 d   1       3.962  18.809  46.835  0.00  0.00    -0.049 C 
ATOM     15  H13 701 d   1       3.122  19.353  46.378  0.00  0.00     0.030 H 
ATOM     16  H14 701 d   1       3.770  17.727  46.783  0.00  0.00     0.030 H 
ATOM     17  H15 701 d   1       4.890  19.043  46.292  0.00  0.00     0.030 H 
ENDBRANCH  12  14
BRANCH  12  18
ATOM     18  C18 701 d   1       2.826  19.072  49.063  0.00  0.00     0.242 C 
ATOM     19  O4  701 d   1       1.893  18.491  48.529  0.00  0.00    -0.271 OA
ATOM     20  N3  701 d   1       2.771  19.521  50.322  0.00  0.00    -0.346 N 
ATOM     21  C19 701 d   1       3.919  20.072  51.060  0.00  0.00     0.017 C 
ATOM     22  C23 701 d   1       1.527  19.427  51.074  0.00  0.00     0.017 C 
ATOM     23  C20 701 d   1       3.479  21.424  51.578  0.00  0.00     0.034 C 
ATOM     24  H16 701 d   1       4.785  20.184  50.391  0.00  0.00     0.067 H 
ATOM     25  H17 701 d   1       4.186  19.411  51.898  0.00  0.00     0.067 H 
ATOM     26  O5  701 d   1       2.279  21.254  52.339  0.00  0.00    -0.388 OA
ATOM     27  H18 701 d   1       3.288  22.101  50.732  0.00  0.00     0.076 H 
ATOM     28  H19 701 d   1       4.266  21.850  52.218  0.00  0.00     0.076 H 
ATOM     29  C22 701 d   1       1.207  20.847  51.497  0.00  0.00     0.034 C 
ATOM     30  H20 701 d   1       1.142  21.503  50.616  0.00  0.00     0.076 H 
ATOM     31  H21 701 d   1       0.255  20.877  52.048  0.00  0.00     0.076 H 
ATOM     32  H22 701 d   1       1.658  18.782  51.956  0.00  0.00     0.067 H 
ATOM     33  H23 701 d   1       0.723  19.023  50.441  0.00  0.00     0.067 H 
ENDBRANCH  12  18
ENDBRANCH   6  12
BRANCH   1  34
ATOM     34  N1  701 d   1       8.288  18.371  50.549  0.00  0.00    -0.302 N 
ATOM     35  H6  701 d   1       7.965  18.630  51.459  0.00  0.00     0.173 HD
BRANCH  34  36
ATOM     36  S1  701 d   1       9.838  18.417  50.203  0.00  0.00     0.250 S 
ATOM     37  O2  701 d   1      10.570  18.444  51.429  0.00  0.00    -0.201 OA
ATOM     38  O1  701 d   1      10.215  17.261  49.424  0.00  0.00    -0.201 OA
BRANCH  36  39
ATOM     39  C6  701 d   1      10.207  19.658  49.269  0.00  0.00     0.034 C 
ATOM     40  C9  701 d   1       9.994  20.976  49.519  0.00  0.00    -0.032 C 
ATOM     41  H24 701 d   1      10.686  19.420  48.320  0.00  0.00     0.105 H 
BRANCH  40  42
ATOM     42  C4  701 d   1      10.416  21.930  48.443  0.00  0.00     0.013 A 
ATOM     43  C3  701 d   1      11.385  21.801  47.437  0.00  0.00    -0.064 A 
ATOM     44  C2  701 d   1      11.482  22.909  46.570  0.00  0.00    -0.054 A 
ATOM     45  H2  701 d   1      12.012  20.916  47.334  0.00  0.00     0.085 H 
ATOM     46  C1  701 d   1      10.549  23.869  46.926  0.00  0.00     0.075 A 
ATOM     47  H1  701 d   1      12.186  22.997  45.744  0.00  0.00     0.086 H 
ATOM     48 CL1  701 d   1      10.254  25.463  46.129  0.00  0.00    -0.076 Cl
ATOM     49  S6  701 d   1       9.557  23.498  48.311  0.00  0.00    -0.078 SA
ENDBRANCH  40  42
BRANCH  40  50
ATOM     50  C8  701 d   1       9.369  21.509  50.774  0.00  0.00    -0.049 C 
ATOM     51  H3  701 d   1       9.125  20.673  51.446  0.00  0.00     0.033 H 
ATOM     52  H4  701 d   1       8.449  22.057  50.522  0.00  0.00     0.033 H 
ATOM     53  H5  701 d   1      10.075  22.188  51.275  0.00  0.00     0.033 H 
ENDBRANCH  40  50
ENDBRANCH  36  39
ENDBRANCH  34  36
ENDBRANCH   1  34
TORSDOF 8
