REMARK  7 active torsions:
REMARK  status: ('A' for Active; 'I' for Inactive)
REMARK    1  A    between atoms: C9_6  and  C4_5 
REMARK    2  A    between atoms: S1_7  and  N1_10 
REMARK    3  A    between atoms: S1_7  and  C6_28 
REMARK    4  A    between atoms: N1_10  and  C12_11 
REMARK    5  A    between atoms: N2_16  and  C16_17 
REMARK    6  A    between atoms: C16_17  and  C17_18 
REMARK    7  A    between atoms: C16_17  and  C18_19 
REMARK       I    between atoms: C18_19  and  N3_21 
ROOT
ATOM      1  C12 895 d   1       6.907  17.934  49.700  0.00  0.00     0.098 C 
ATOM      2  C13 895 d   1       5.960  16.930  50.384  0.00  0.00    -0.022 C 
ATOM      3  C14 895 d   1       4.559  17.285  49.864  0.00  0.00     0.001 C 
ATOM      4  C15 895 d   1       6.027  18.985  49.071  0.00  0.00     0.244 C 
ATOM      5  O3  895 d   1       6.408  20.086  48.695  0.00  0.00    -0.271 OA
ATOM      6  N2  895 d   1       4.779  18.454  49.006  0.00  0.00    -0.337 N 
ATOM      7  H5  895 d   1       7.442  17.415  48.891  0.00  0.00     0.088 H 
ATOM      8  H6  895 d   1       6.005  17.040  51.478  0.00  0.00     0.039 H 
ATOM      9  H7  895 d   1       6.225  15.899  50.107  0.00  0.00     0.039 H 
ATOM     10  H8  895 d   1       3.885  17.534  50.697  0.00  0.00     0.064 H 
ATOM     11  H9  895 d   1       4.135  16.451  49.286  0.00  0.00     0.064 H 
ENDROOT
BRANCH   6  12
ATOM     12  C16 895 d   1       3.722  18.992  48.148  0.00  0.00     0.088 C 
ATOM     13  H10 895 d   1       3.990  20.029  47.897  0.00  0.00     0.087 H 
BRANCH  12  14
ATOM     14  C17 895 d   1       3.673  18.182  46.843  0.00  0.00    -0.049 C 
ATOM     15  H11 895 d   1       2.880  18.581  46.193  0.00  0.00     0.030 H 
ATOM     16  H12 895 d   1       3.462  17.128  47.074  0.00  0.00     0.030 H 
ATOM     17  H13 895 d   1       4.642  18.258  46.328  0.00  0.00     0.030 H 
ENDBRANCH  12  14
BRANCH  12  18
ATOM     18  C18 895 d   1       2.350  19.029  48.833  0.00  0.00     0.242 C 
ATOM     19  O4  895 d   1       1.424  18.389  48.326  0.00  0.00    -0.271 OA
ATOM     20  N3  895 d   1       2.240  19.786  49.996  0.00  0.00    -0.346 N 
ATOM     21  C19 895 d   1       0.981  19.796  50.750  0.00  0.00     0.017 C 
ATOM     22  C23 895 d   1       3.285  20.660  50.578  0.00  0.00     0.017 C 
ATOM     23  C20 895 d   1       1.169  19.767  52.271  0.00  0.00     0.034 C 
ATOM     24  H14 895 d   1       0.394  18.913  50.456  0.00  0.00     0.067 H 
ATOM     25  H15 895 d   1       0.427  20.709  50.487  0.00  0.00     0.067 H 
ATOM     26  O5  895 d   1       2.184  20.669  52.712  0.00  0.00    -0.388 OA
ATOM     27  H16 895 d   1       1.448  18.747  52.573  0.00  0.00     0.076 H 
ATOM     28  H17 895 d   1       0.218  20.044  52.750  0.00  0.00     0.076 H 
ATOM     29  C22 895 d   1       3.442  20.418  52.089  0.00  0.00     0.034 C 
ATOM     30  H18 895 d   1       3.746  19.377  52.270  0.00  0.00     0.076 H 
ATOM     31  H19 895 d   1       4.203  21.099  52.498  0.00  0.00     0.076 H 
ATOM     32  H20 895 d   1       3.006  21.711  50.411  0.00  0.00     0.067 H 
ATOM     33  H21 895 d   1       4.244  20.451  50.081  0.00  0.00     0.067 H 
ENDBRANCH  12  18
ENDBRANCH   6  12
BRANCH   1  34
ATOM     34  N1  895 d   1       7.913  18.434  50.610  0.00  0.00    -0.302 N 
ATOM     35  H4  895 d   1       7.655  18.940  51.433  0.00  0.00     0.173 HD
BRANCH  34  36
ATOM     36  S1  895 d   1       9.477  18.151  50.260  0.00  0.00     0.249 S 
ATOM     37  O2  895 d   1      10.171  18.257  51.508  0.00  0.00    -0.201 OA
ATOM     38  O1  895 d   1       9.620  16.996  49.427  0.00  0.00    -0.201 OA
BRANCH  36  39
ATOM     39  C6  895 d   1       9.927  19.486  49.239  0.00  0.00     0.028 C 
ATOM     40  C9  895 d   1       9.712  20.781  49.552  0.00  0.00    -0.054 C 
ATOM     41  H3  895 d   1       9.333  21.077  50.529  0.00  0.00     0.086 H 
ATOM     42  H22 895 d   1      10.412  19.263  48.290  0.00  0.00     0.104 H 
BRANCH  40  43
ATOM     43  C4  895 d   1      10.019  21.788  48.492  0.00  0.00     0.007 A 
ATOM     44  C3  895 d   1      10.959  21.655  47.457  0.00  0.00    -0.064 A 
ATOM     45  C2  895 d   1      11.013  22.772  46.603  0.00  0.00    -0.054 A 
ATOM     46  H2  895 d   1      11.585  20.773  47.328  0.00  0.00     0.085 H 
ATOM     47  C1  895 d   1      10.093  23.744  47.019  0.00  0.00     0.075 A 
ATOM     48  H1  895 d   1      11.674  22.867  45.743  0.00  0.00     0.086 H 
ATOM     49 CL1  895 d   1       9.846  25.266  46.266  0.00  0.00    -0.076 Cl
ATOM     50  S6  895 d   1       9.234  23.276  48.421  0.00  0.00    -0.078 SA
ENDBRANCH  40  43
ENDBRANCH  36  39
ENDBRANCH  34  36
ENDBRANCH   1  34
TORSDOF 7
