REMARK  8 active torsions:
REMARK  status: ('A' for Active; 'I' for Inactive)
REMARK    1  A    between atoms: C9_6  and  C4_5 
REMARK    2  A    between atoms: C6_28  and  C9_6 
REMARK    3  A    between atoms: S1_7  and  N1_10 
REMARK    4  A    between atoms: S1_7  and  C6_28 
REMARK    5  A    between atoms: N1_10  and  C12_11 
REMARK    6  A    between atoms: N2_16  and  C16_17 
REMARK    7  A    between atoms: C16_17  and  C17_18 
REMARK    8  A    between atoms: C16_17  and  C18_19 
REMARK       I    between atoms: C18_19  and  N3_21 
ROOT
ATOM      1  C12 894 d   1       7.022  17.962  49.497  0.00  0.00     0.098 C 
ATOM      2  C13 894 d   1       6.016  17.024  50.210  0.00  0.00    -0.022 C 
ATOM      3  C14 894 d   1       4.675  17.383  49.533  0.00  0.00     0.001 C 
ATOM      4  C15 894 d   1       6.186  19.102  48.930  0.00  0.00     0.244 C 
ATOM      5  O3  894 d   1       6.636  20.201  48.612  0.00  0.00    -0.271 OA
ATOM      6  N2  894 d   1       4.902  18.679  48.870  0.00  0.00    -0.337 N 
ATOM      7  H6  894 d   1       7.468  17.413  48.655  0.00  0.00     0.088 H 
ATOM      8  H7  894 d   1       5.981  17.228  51.290  0.00  0.00     0.039 H 
ATOM      9  H8  894 d   1       6.273  15.967  50.044  0.00  0.00     0.039 H 
ATOM     10  H9  894 d   1       3.877  17.471  50.285  0.00  0.00     0.064 H 
ATOM     11  H10 894 d   1       4.400  16.616  48.794  0.00  0.00     0.064 H 
ENDROOT
BRANCH   6  12
ATOM     12  C16 894 d   1       3.822  19.454  48.236  0.00  0.00     0.088 C 
ATOM     13  H11 894 d   1       4.190  20.483  48.105  0.00  0.00     0.087 H 
BRANCH  12  14
ATOM     14  C17 894 d   1       3.453  18.904  46.841  0.00  0.00    -0.049 C 
ATOM     15  H12 894 d   1       2.645  19.513  46.409  0.00  0.00     0.030 H 
ATOM     16  H13 894 d   1       3.116  17.861  46.935  0.00  0.00     0.030 H 
ATOM     17  H14 894 d   1       4.335  18.946  46.185  0.00  0.00     0.030 H 
ENDBRANCH  12  14
BRANCH  12  18
ATOM     18  C18 894 d   1       2.572  19.512  49.111  0.00  0.00     0.242 C 
ATOM     19  O4  894 d   1       1.571  18.907  48.775  0.00  0.00    -0.271 OA
ATOM     20  N3  894 d   1       2.610  20.231  50.258  0.00  0.00    -0.346 N 
ATOM     21  C19 894 d   1       1.420  20.297  51.110  0.00  0.00     0.017 C 
ATOM     22  C23 894 d   1       3.767  21.000  50.748  0.00  0.00     0.017 C 
ATOM     23  C20 894 d   1       1.792  19.946  52.543  0.00  0.00     0.034 C 
ATOM     24  H15 894 d   1       0.668  19.583  50.743  0.00  0.00     0.067 H 
ATOM     25  H16 894 d   1       1.005  21.315  51.080  0.00  0.00     0.067 H 
ATOM     26  O5  894 d   1       2.909  20.737  52.986  0.00  0.00    -0.388 OA
ATOM     27  H17 894 d   1       2.060  18.881  52.596  0.00  0.00     0.076 H 
ATOM     28  H18 894 d   1       0.930  20.140  53.198  0.00  0.00     0.076 H 
ATOM     29  C22 894 d   1       4.081  20.544  52.180  0.00  0.00     0.034 C 
ATOM     30  H19 894 d   1       4.359  19.480  52.178  0.00  0.00     0.076 H 
ATOM     31  H20 894 d   1       4.912  21.140  52.585  0.00  0.00     0.076 H 
ATOM     32  H21 894 d   1       3.528  22.074  50.744  0.00  0.00     0.067 H 
ATOM     33  H22 894 d   1       4.637  20.816  50.100  0.00  0.00     0.067 H 
ENDBRANCH  12  18
ENDBRANCH   6  12
BRANCH   1  34
ATOM     34  N1  894 d   1       8.129  18.393  50.347  0.00  0.00    -0.306 N 
ATOM     35  H5  894 d   1       7.941  18.790  51.245  0.00  0.00     0.173 HD
BRANCH  34  36
ATOM     36  S1  894 d   1       9.646  18.232  49.845  0.00  0.00     0.227 S 
ATOM     37  O2  894 d   1       9.782  17.012  49.110  0.00  0.00    -0.206 OA
ATOM     38  O1  894 d   1      10.402  18.409  51.049  0.00  0.00    -0.206 OA
BRANCH  36  39
ATOM     39  C6  894 d   1      10.043  19.539  48.691  0.00  0.00     0.050 C 
ATOM     40  H23 894 d   1      11.083  19.415  48.356  0.00  0.00     0.059 H 
ATOM     41  H24 894 d   1       9.368  19.468  47.825  0.00  0.00     0.059 H 
BRANCH  39  42
ATOM     42  C9  894 d   1       9.888  20.924  49.331  0.00  0.00    -0.021 C 
ATOM     43  H3  894 d   1       8.851  21.060  49.673  0.00  0.00     0.042 H 
ATOM     44  H4  894 d   1      10.572  21.015  50.188  0.00  0.00     0.042 H 
BRANCH  42  45
ATOM     45  C4  894 d   1      10.224  21.971  48.300  0.00  0.00    -0.015 A 
ATOM     46  C3  894 d   1      11.260  21.824  47.309  0.00  0.00    -0.068 A 
ATOM     47  C2  894 d   1      11.334  22.969  46.437  0.00  0.00    -0.054 A 
ATOM     48  H2  894 d   1      11.909  20.953  47.229  0.00  0.00     0.085 H 
ATOM     49  C1  894 d   1      10.344  23.952  46.820  0.00  0.00     0.075 A 
ATOM     50  H1  894 d   1      12.034  23.078  45.610  0.00  0.00     0.086 H 
ATOM     51 CL1  894 d   1      10.182  25.484  46.027  0.00  0.00    -0.076 Cl
ATOM     52  S6  894 d   1       9.415  23.475  48.186  0.00  0.00    -0.083 SA
ENDBRANCH  42  45
ENDBRANCH  39  42
ENDBRANCH  36  39
ENDBRANCH  34  36
ENDBRANCH   1  34
TORSDOF 8
