REMARK  7 active torsions:
REMARK  status: ('A' for Active; 'I' for Inactive)
REMARK    1  A    between atoms: C'_1  and  O1'_2 
REMARK    2  A    between atoms: C'_1  and  C1_3 
REMARK    3  A    between atoms: C3_5  and  N3_6 
REMARK    4  A    between atoms: C4_7  and  N4_8 
REMARK       I    between atoms: N4_8  and  C4'_9 
REMARK    5  A    between atoms: C4'_9  and  CM4_11 
REMARK    6  A    between atoms: C5_12  and  O5_13 
REMARK    7  A    between atoms: C6_14  and  O4_15 
ROOT
ATOM      1  C1  BEU d   1       5.204 -11.856   2.278  0.00  0.00    -0.027 C 
ATOM      2  C2  BEU d   1       5.236 -12.556   3.427  0.00  0.00    -0.065 C 
ATOM      3  C3  BEU d   1       6.542 -12.922   4.086  0.00  0.00     0.138 C 
ATOM      4  C4  BEU d   1       7.623 -11.817   3.944  0.00  0.00     0.070 C 
ATOM      5  C5  BEU d   1       7.321 -10.748   2.883  0.00  0.00     0.086 C 
ATOM      6  C6  BEU d   1       6.506 -11.334   1.714  0.00  0.00     0.086 C 
ATOM      7  H4  BEU d   1       4.300 -12.864   3.890  0.00  0.00     0.080 H 
ATOM      8  H5  BEU d   1       6.353 -13.053   5.162  0.00  0.00     0.093 H 
ATOM      9  H9  BEU d   1       8.533 -12.333   3.605  0.00  0.00     0.080 H 
ATOM     10  H14 BEU d   1       6.730  -9.947   3.350  0.00  0.00     0.090 H 
ATOM     11  H16 BEU d   1       7.061 -12.160   1.246  0.00  0.00     0.094 H 
ENDROOT
BRANCH   4  12
ATOM     12  N4  BEU d   1       7.953 -11.188   5.227  0.00  0.00    -0.352 N 
ATOM     13  C4' BEU d   1       7.051 -10.595   6.019  0.00  0.00     0.214 C 
ATOM     14  O4' BEU d   1       5.882 -10.534   5.728  0.00  0.00    -0.274 OA
ATOM     15  H10 BEU d   1       8.907 -11.203   5.528  0.00  0.00     0.163 HD
BRANCH  13  16
ATOM     16  CM4 BEU d   1       7.541 -10.014   7.302  0.00  0.00    -0.003 C 
ATOM     17  H11 BEU d   1       6.698  -9.563   7.846  0.00  0.00     0.040 H 
ATOM     18  H12 BEU d   1       8.296  -9.242   7.090  0.00  0.00     0.040 H 
ATOM     19  H13 BEU d   1       7.991 -10.808   7.916  0.00  0.00     0.040 H 
ENDBRANCH  13  16
ENDBRANCH   4  12
BRANCH   3  20
ATOM     20  N3  BEU d   1       6.988 -14.213   3.542  0.00  0.00    -0.070 N 
ATOM     21  H6  BEU d   1       6.256 -14.897   3.656  0.00  0.00     0.275 HD
ATOM     22  H7  BEU d   1       7.813 -14.518   4.035  0.00  0.00     0.275 HD
ATOM     23  H8  BEU d   1       7.201 -14.109   2.562  0.00  0.00     0.275 HD
ENDBRANCH   3  20
BRANCH   5  24
ATOM     24  O5  BEU d   1       8.553 -10.195   2.407  0.00  0.00    -0.391 OA
ATOM     25  H15 BEU d   1       8.369  -9.533   1.750  0.00  0.00     0.210 HD
ENDBRANCH   5  24
BRANCH   6  26
ATOM     26  O4  BEU d   1       6.280 -10.308   0.743  0.00  0.00    -0.388 OA
ATOM     27  H17 BEU d   1       5.778 -10.664   0.019  0.00  0.00     0.210 HD
ENDBRANCH   6  26
BRANCH   1  28
ATOM     28  C'  BEU d   1       3.856 -11.601   1.632  0.00  0.00     0.039 C 
ATOM     29  H1  BEU d   1       3.058 -11.767   2.371  0.00  0.00     0.081 H 
ATOM     30  H2  BEU d   1       3.813 -10.562   1.273  0.00  0.00     0.081 H 
BRANCH  28  31
ATOM     31  O1' BEU d   1       3.678 -12.489   0.536  0.00  0.00    -0.397 OA
ATOM     32  H3  BEU d   1       4.367 -12.345  -0.102  0.00  0.00     0.209 HD
ENDBRANCH  28  31
ENDBRANCH   1  28
TORSDOF 7
