REMARK  12 active torsions:
REMARK  status: ('A' for Active; 'I' for Inactive)
REMARK    1  A    between atoms: C7_2  and  O7_1 
REMARK    2  A    between atoms: C1_4  and  O1_5 
REMARK    3  A    between atoms: C2_6  and  O2_7 
REMARK    4  A    between atoms: C3_8  and  C8_9 
REMARK    5  A    between atoms: C8_9  and  O8_10 
REMARK    6  A    between atoms: O1_20  and  C6_13 
REMARK    7  A    between atoms: C1_14  and  O1_20 
REMARK    8  A    between atoms: C2_15  and  O2_21 
REMARK    9  A    between atoms: C3_16  and  O3_22 
REMARK   10  A    between atoms: C4_17  and  O4_23 
REMARK   11  A    between atoms: C5_18  and  C6_19 
REMARK   12  A    between atoms: C6_19  and  O6_25 
ROOT
ATOM      1  C7  3CU d   1      -5.756 -34.458  43.876  0.00  0.00     0.092 C 
ATOM      2  C7A 3CU d   1      -6.814 -34.224  42.799  0.00  0.00     0.158 C 
ATOM      3  C1  3CU d   1      -6.955 -35.360  41.776  0.00  0.00     0.092 C 
ATOM      4  C2  3CU d   1      -7.109 -34.649  40.424  0.00  0.00     0.092 C 
ATOM      5  C3  3CU d   1      -6.006 -33.583  40.487  0.00  0.00     0.151 C 
ATOM      6  N4  3CU d   1      -6.053 -33.309  41.938  0.00  0.00    -0.050 N 
ATOM      7  C5  3CU d   1      -5.081 -32.508  42.664  0.00  0.00     0.111 C 
ATOM      8  C6  3CU d   1      -4.479 -33.709  43.430  0.00  0.00     0.091 C 
ATOM      9  H2  3CU d   1      -5.563 -35.531  44.025  0.00  0.00     0.090 H 
ATOM     10  H3  3CU d   1      -7.774 -33.864  43.198  0.00  0.00     0.093 H 
ATOM     11  H4  3CU d   1      -6.039 -35.970  41.775  0.00  0.00     0.090 H 
ATOM     12  H6  3CU d   1      -8.112 -34.209  40.318  0.00  0.00     0.090 H 
ATOM     13  H8  3CU d   1      -5.038 -34.051  40.253  0.00  0.00     0.092 H 
ATOM     14  H12 3CU d   1      -6.753 -32.587  41.869  0.00  0.00     0.281 HD
ATOM     15  H13 3CU d   1      -5.546 -31.763  43.327  0.00  0.00     0.080 H 
ATOM     16  H14 3CU d   1      -4.355 -32.010  42.005  0.00  0.00     0.080 H 
ATOM     17  H15 3CU d   1      -3.842 -33.357  44.254  0.00  0.00     0.090 H 
ENDROOT
BRANCH   8  18
ATOM     18  O1  GLC d   1      -3.818 -34.783  42.687  0.00  0.00    -0.349 OA
BRANCH  18  19
ATOM     19  C1  GLC d   1      -2.767 -34.459  41.786  0.00  0.00     0.159 C 
ATOM     20  C2  GLC d   1      -2.198 -35.699  41.085  0.00  0.00     0.110 C 
ATOM     21  C3  GLC d   1      -1.377 -36.567  42.062  0.00  0.00     0.092 C 
ATOM     22  H17 3CU d   1      -1.509 -35.360  40.298  0.00  0.00     0.094 H 
ATOM     23  C4  GLC d   1      -0.271 -35.685  42.672  0.00  0.00     0.090 C 
ATOM     24  H18 3CU d   1      -2.031 -36.951  42.858  0.00  0.00     0.091 H 
ATOM     25  C5  GLC d   1      -0.882 -34.471  43.371  0.00  0.00     0.089 C 
ATOM     26  H19 3CU d   1       0.372 -35.325  41.855  0.00  0.00     0.091 H 
ATOM     27  O5  GLC d   1      -1.739 -33.766  42.480  0.00  0.00    -0.348 OA
ATOM     28  H20 3CU d   1      -1.479 -34.835  44.220  0.00  0.00     0.090 H 
ATOM     29  H16 3CU d   1      -3.175 -33.791  41.013  0.00  0.00     0.133 H 
BRANCH  20  30
ATOM     30  O2  GLC d   1      -3.260 -36.391  40.453  0.00  0.00    -0.388 OA
ATOM     31  H23 3CU d   1      -3.861 -36.717  41.113  0.00  0.00     0.210 HD
ENDBRANCH  20  30
BRANCH  21  32
ATOM     32  O3  GLC d   1      -0.791 -37.646  41.375  0.00  0.00    -0.390 OA
ATOM     33  H24 3CU d   1      -1.474 -38.189  40.999  0.00  0.00     0.210 HD
ENDBRANCH  21  32
BRANCH  23  34
ATOM     34  O4  GLC d   1       0.534 -36.430  43.573  0.00  0.00    -0.390 OA
ATOM     35  H25 3CU d   1       0.904 -37.179  43.120  0.00  0.00     0.210 HD
ENDBRANCH  23  34
BRANCH  25  36
ATOM     36  C6  GLC d   1       0.182 -33.492  43.913  0.00  0.00     0.043 C 
ATOM     37  H21 3CU d   1       0.836 -33.180  43.086  0.00  0.00     0.078 H 
ATOM     38  H22 3CU d   1       0.781 -34.003  44.681  0.00  0.00     0.078 H 
BRANCH  36  39
ATOM     39  O6  GLC d   1      -0.427 -32.329  44.492  0.00  0.00    -0.398 OA
ATOM     40  H26 3CU d   1      -0.943 -31.881  43.832  0.00  0.00     0.209 HD
ENDBRANCH  36  39
ENDBRANCH  25  36
ENDBRANCH  18  19
ENDBRANCH   8  18
BRANCH   1  41
ATOM     41  O7  3CU d   1      -6.225 -33.836  45.086  0.00  0.00    -0.391 OA
ATOM     42  H1  3CU d   1      -5.585 -33.966  45.776  0.00  0.00     0.210 HD
ENDBRANCH   1  41
BRANCH   3  43
ATOM     43  O1  3CU d   1      -8.063 -36.220  42.048  0.00  0.00    -0.391 OA
ATOM     44  H5  3CU d   1      -7.953 -36.614  42.905  0.00  0.00     0.210 HD
ENDBRANCH   3  43
BRANCH   5  45
ATOM     45  C8  3CU d   1      -6.140 -32.413  39.490  0.00  0.00     0.046 C 
ATOM     46  H9  3CU d   1      -6.009 -32.796  38.467  0.00  0.00     0.077 H 
ATOM     47  H10 3CU d   1      -5.361 -31.667  39.705  0.00  0.00     0.077 H 
BRANCH  45  48
ATOM     48  O8  3CU d   1      -7.397 -31.803  39.592  0.00  0.00    -0.399 OA
ATOM     49  H11 3CU d   1      -7.514 -31.467  40.473  0.00  0.00     0.209 HD
ENDBRANCH  45  48
ENDBRANCH   5  45
BRANCH   4  50
ATOM     50  O2  3CU d   1      -6.816 -35.504  39.295  0.00  0.00    -0.391 OA
ATOM     51  H7  3CU d   1      -6.928 -35.013  38.490  0.00  0.00     0.210 HD
ENDBRANCH   4  50
TORSDOF 12
