REMARK  5 active torsions:
REMARK  status: ('A' for Active; 'I' for Inactive)
REMARK    1  A    between atoms: C2_2  and  O2_3 
REMARK    2  A    between atoms: C3_4  and  O3_5 
REMARK    3  A    between atoms: C4_6  and  O4_7 
REMARK    4  A    between atoms: C5_8  and  C6_10 
REMARK    5  A    between atoms: C6_10  and  O6_11 
ROOT
ATOM      1  C1  NOJ d   1      23.556  44.257  68.629  0.00  0.00     0.108 C 
ATOM      2  C2  NOJ d   1      23.230  43.223  69.722  0.00  0.00     0.086 C 
ATOM      3  C3  NOJ d   1      24.559  42.627  70.212  0.00  0.00     0.088 C 
ATOM      4  C4  NOJ d   1      25.171  41.802  69.082  0.00  0.00     0.092 C 
ATOM      5  C5  NOJ d   1      25.389  42.721  67.860  0.00  0.00     0.149 C 
ATOM      6  N5  NOJ d   1      24.238  43.592  67.509  0.00  0.00    -0.064 N 
ATOM      7  H1  NOJ d   1      24.211  45.036  69.046  0.00  0.00     0.079 H 
ATOM      8  H2  NOJ d   1      22.623  44.716  68.269  0.00  0.00     0.079 H 
ATOM      9  H3  NOJ d   1      22.581  42.429  69.323  0.00  0.00     0.089 H 
ATOM     10  H5  NOJ d   1      25.241  43.447  70.481  0.00  0.00     0.091 H 
ATOM     11  H7  NOJ d   1      24.528  40.949  68.820  0.00  0.00     0.090 H 
ATOM     12  H9  NOJ d   1      26.243  43.371  68.100  0.00  0.00     0.091 H 
ATOM     13  H10 NOJ d   1      24.575  44.309  66.886  0.00  0.00     0.277 HD
ATOM     14  H11 NOJ d   1      23.558  43.023  67.030  0.00  0.00     0.277 HD
ENDROOT
BRANCH   5  15
ATOM     15  C6  NOJ d   1      25.725  41.923  66.593  0.00  0.00     0.046 C 
ATOM     16  H12 NOJ d   1      26.641  41.337  66.759  0.00  0.00     0.077 H 
ATOM     17  H13 NOJ d   1      25.880  42.615  65.752  0.00  0.00     0.077 H 
BRANCH  15  18
ATOM     18  O6  NOJ d   1      24.629  41.033  66.291  0.00  0.00    -0.399 OA
ATOM     19  H14 NOJ d   1      23.839  41.542  66.149  0.00  0.00     0.209 HD
ENDBRANCH  15  18
ENDBRANCH   5  15
BRANCH   4  20
ATOM     20  O4  NOJ d   1      26.455  41.362  69.549  0.00  0.00    -0.391 OA
ATOM     21  H8  NOJ d   1      26.875  40.842  68.874  0.00  0.00     0.210 HD
ENDBRANCH   4  20
BRANCH   3  22
ATOM     22  O3  NOJ d   1      24.379  41.800  71.327  0.00  0.00    -0.390 OA
ATOM     23  H6  NOJ d   1      23.999  42.305  72.036  0.00  0.00     0.210 HD
ENDBRANCH   3  22
BRANCH   2  24
ATOM     24  O2  NOJ d   1      22.583  43.893  70.779  0.00  0.00    -0.391 OA
ATOM     25  H4  NOJ d   1      21.784  44.293  70.457  0.00  0.00     0.210 HD
ENDBRANCH   2  24
TORSDOF 5
