REMARK  9 active torsions:
REMARK  status: ('A' for Active; 'I' for Inactive)
REMARK    1  A    between atoms: N12_3  and  C19_4 
REMARK    2  A    between atoms: C19_4  and  C21_5 
REMARK    3  A    between atoms: C21_5  and  C23_6 
REMARK    4  A    between atoms: C23_6  and  N29_7 
REMARK    5  A    between atoms: N29_7  and  C30_8 
REMARK    6  A    between atoms: N29_7  and  C31_9 
REMARK    7  A    between atoms: N29_7  and  C32_10 
REMARK    8  A    between atoms: C1_12  and  C4_21 
REMARK    9  A    between atoms: C17_25  and  C20_26 
ROOT
ATOM      1  O13 BI7 d   1      -3.379  10.146  22.338  0.00  0.00    -0.279 OA
ATOM      2  C6  BI7 d   1      -3.941  11.158  21.918  0.00  0.00     0.213 C 
ATOM      3  N12 BI7 d   1      -4.991  11.085  21.036  0.00  0.00    -0.188 NA
ATOM      4  C2  BI7 d   1      -3.544  12.584  22.220  0.00  0.00     0.065 C 
ATOM      5  C1  BI7 d   1      -3.379  12.984  23.688  0.00  0.00     0.160 C 
ATOM      6  N3  BI7 d   1      -4.717  13.372  24.164  0.00  0.00    -0.055 N 
ATOM      7  C8  BI7 d   1      -4.637  14.412  25.204  0.00  0.00     0.085 C 
ATOM      8  C15 BI7 d   1      -4.710  15.765  24.500  0.00  0.00    -0.040 C 
ATOM      9  C14 BI7 d   1      -5.138  15.487  23.062  0.00  0.00    -0.036 C 
ATOM     10  C7  BI7 d   1      -5.372  13.977  22.979  0.00  0.00     0.117 C 
ATOM     11  C5  BI7 d   1      -4.743  13.381  21.734  0.00  0.00     0.060 C 
ATOM     12  C11 BI7 d   1      -5.591  12.329  21.082  0.00  0.00     0.213 C 
ATOM     13  O18 BI7 d   1      -6.697  12.532  20.591  0.00  0.00    -0.279 OA
ATOM     14  H16 BI7 d   1      -2.625  12.835  21.670  0.00  0.00     0.059 H 
ATOM     15  H17 BI7 d   1      -2.796  13.917  23.697  0.00  0.00     0.096 H 
ATOM     16  H18 BI7 d   1      -5.226  12.571  24.505  0.00  0.00     0.281 HD
ATOM     17  H19 BI7 d   1      -3.688  14.324  25.752  0.00  0.00     0.076 H 
ATOM     18  H20 BI7 d   1      -5.477  14.307  25.906  0.00  0.00     0.076 H 
ATOM     19  H21 BI7 d   1      -3.725  16.254  24.515  0.00  0.00     0.035 H 
ATOM     20  H22 BI7 d   1      -5.448  16.412  24.997  0.00  0.00     0.035 H 
ATOM     21  H23 BI7 d   1      -4.346  15.791  22.361  0.00  0.00     0.036 H 
ATOM     22  H24 BI7 d   1      -6.064  16.031  22.826  0.00  0.00     0.036 H 
ATOM     23  H25 BI7 d   1      -6.451  13.765  22.984  0.00  0.00     0.086 H 
ATOM     24  H26 BI7 d   1      -4.470  14.172  21.020  0.00  0.00     0.058 H 
ENDROOT
BRANCH   3  25
ATOM     25  C19 BI7 d   1      -5.880   9.909  21.148  0.00  0.00    -0.005 C 
ATOM     26  H1  BI7 d   1      -6.938  10.207  21.192  0.00  0.00     0.057 H 
ATOM     27  H2  BI7 d   1      -5.634   9.300  22.031  0.00  0.00     0.057 H 
BRANCH  25  28
ATOM     28  C21 BI7 d   1      -5.561   9.170  19.854  0.00  0.00    -0.030 C 
ATOM     29  H3  BI7 d   1      -4.486   8.936  19.850  0.00  0.00     0.037 H 
ATOM     30  H4  BI7 d   1      -5.794   9.838  19.012  0.00  0.00     0.037 H 
BRANCH  28  31
ATOM     31  C23 BI7 d   1      -6.326   7.875  19.654  0.00  0.00     0.085 C 
ATOM     32  H5  BI7 d   1      -7.402   8.099  19.702  0.00  0.00     0.076 H 
ATOM     33  H6  BI7 d   1      -6.058   7.187  20.470  0.00  0.00     0.076 H 
BRANCH  31  34
ATOM     34  N29 BI7 d   1      -6.051   7.199  18.370  0.00  0.00    -0.079 N 
BRANCH  34  35
ATOM     35  C30 BI7 d   1      -4.637   6.854  18.201  0.00  0.00     0.067 C 
ATOM     36  H7  BI7 d   1      -4.495   6.355  17.231  0.00  0.00     0.068 H 
ATOM     37  H8  BI7 d   1      -4.325   6.177  19.010  0.00  0.00     0.068 H 
ATOM     38  H9  BI7 d   1      -4.029   7.770  18.235  0.00  0.00     0.068 H 
ENDBRANCH  34  35
BRANCH  34  39
ATOM     39  C31 BI7 d   1      -6.791   5.939  18.393  0.00  0.00     0.067 C 
ATOM     40  H10 BI7 d   1      -7.864   6.146  18.519  0.00  0.00     0.068 H 
ATOM     41  H11 BI7 d   1      -6.436   5.321  19.231  0.00  0.00     0.068 H 
ATOM     42  H12 BI7 d   1      -6.630   5.402  17.447  0.00  0.00     0.068 H 
ENDBRANCH  34  39
BRANCH  34  43
ATOM     43  C32 BI7 d   1      -6.519   7.992  17.212  0.00  0.00     0.067 C 
ATOM     44  H13 BI7 d   1      -5.973   8.946  17.177  0.00  0.00     0.068 H 
ATOM     45  H14 BI7 d   1      -7.596   8.189  17.314  0.00  0.00     0.068 H 
ATOM     46  H15 BI7 d   1      -6.335   7.430  16.284  0.00  0.00     0.068 H 
ENDBRANCH  34  43
ENDBRANCH  31  34
ENDBRANCH  28  31
ENDBRANCH  25  28
ENDBRANCH   3  25
BRANCH   5  47
ATOM     47  C4  BI7 d   1      -2.526  12.030  24.449  0.00  0.00     0.096 A 
ATOM     48  C16 BI7 d   1      -3.064  11.118  25.385  0.00  0.00    -0.019 A 
ATOM     49  C17 BI7 d   1      -1.919  10.462  25.860  0.00  0.00     0.120 A 
ATOM     50  H27 BI7 d   1      -4.105  10.964  25.666  0.00  0.00     0.091 H 
ATOM     51  O10 BI7 d   1      -0.819  10.870  25.195  0.00  0.00    -0.212 OA
ATOM     52  N9  BI7 d   1      -1.185  11.912  24.296  0.00  0.00    -0.130 NA
BRANCH  49  53
ATOM     53  C20 BI7 d   1      -1.873   9.376  26.728  0.00  0.00     0.042 A 
ATOM     54  C22 BI7 d   1      -2.763   9.054  27.745  0.00  0.00    -0.061 A 
ATOM     55  C24 BI7 d   1      -2.411   7.837  28.330  0.00  0.00    -0.054 A 
ATOM     56  H28 BI7 d   1      -3.614   9.664  28.043  0.00  0.00     0.085 H 
ATOM     57  C25 BI7 d   1      -1.289   7.339  27.683  0.00  0.00     0.075 A 
ATOM     58  H29 BI7 d   1      -2.931   7.357  29.158  0.00  0.00     0.086 H 
ATOM     59  S1  BI7 d   1      -0.575   8.264  26.420  0.00  0.00    -0.075 SA
ATOM     60 CL1  BI7 d   1      -0.495   5.774  28.107  0.00  0.00    -0.076 Cl
ENDBRANCH  49  53
ENDBRANCH   5  47
TORSDOF 9
