REMARK  4 active torsions:
REMARK  status: ('A' for Active; 'I' for Inactive)
REMARK    1  A    between atoms: C2_2  and  O2_7 
REMARK    2  A    between atoms: C3_3  and  O3_8 
REMARK    3  A    between atoms: C4_4  and  O4_9 
REMARK    4  A    between atoms: C6_6  and  O6_10 
ROOT
ATOM      1  C1  CTS d   1      22.168  43.831  69.976  0.00  0.00     0.110 C 
ATOM      2  C2  CTS d   1      21.777  42.891  71.131  0.00  0.00     0.086 C 
ATOM      3  C3  CTS d   1      23.040  42.266  71.700  0.00  0.00     0.088 C 
ATOM      4  C4  CTS d   1      23.674  41.442  70.566  0.00  0.00     0.092 C 
ATOM      5  C5  CTS d   1      24.176  42.338  69.461  0.00  0.00     0.155 C 
ATOM      6  C6  CTS d   1      24.480  41.639  68.154  0.00  0.00     0.067 C 
ATOM      7  N   CTS d   1      23.132  43.266  69.046  0.00  0.00    -0.059 N 
ATOM      8  C7  CTS d   1      24.433  42.794  67.194  0.00  0.00    -0.016 C 
ATOM      9  C8  CTS d   1      23.279  43.677  67.656  0.00  0.00     0.086 C 
ATOM     10  H1  CTS d   1      22.601  44.746  70.407  0.00  0.00     0.080 H 
ATOM     11  H2  CTS d   1      21.257  44.086  69.415  0.00  0.00     0.080 H 
ATOM     12  H3  CTS d   1      21.119  42.086  70.772  0.00  0.00     0.089 H 
ATOM     13  H4  CTS d   1      23.740  43.039  72.050  0.00  0.00     0.091 H 
ATOM     14  H5  CTS d   1      22.912  40.752  70.176  0.00  0.00     0.090 H 
ATOM     15  H6  CTS d   1      25.066  42.874  69.823  0.00  0.00     0.092 H 
ATOM     16  H7  CTS d   1      25.459  41.138  68.173  0.00  0.00     0.086 H 
ATOM     17  H12 CTS d   1      22.490  42.526  68.810  0.00  0.00     0.280 HD
ATOM     18  H13 CTS d   1      24.253  42.433  66.171  0.00  0.00     0.039 H 
ATOM     19  H14 CTS d   1      25.379  43.355  67.224  0.00  0.00     0.039 H 
ATOM     20  H15 CTS d   1      23.534  44.744  67.578  0.00  0.00     0.076 H 
ATOM     21  H16 CTS d   1      22.364  43.476  67.079  0.00  0.00     0.076 H 
ENDROOT
BRANCH   2  22
ATOM     22  O2  CTS d   1      21.042  43.741  72.052  0.00  0.00    -0.391 OA
ATOM     23  H8  CTS d   1      20.272  44.087  71.616  0.00  0.00     0.210 HD
ENDBRANCH   2  22
BRANCH   3  24
ATOM     24  O3  CTS d   1      22.656  41.429  72.779  0.00  0.00    -0.390 OA
ATOM     25  H9  CTS d   1      22.268  41.958  73.466  0.00  0.00     0.210 HD
ENDBRANCH   3  24
BRANCH   4  26
ATOM     26  O4  CTS d   1      24.819  40.707  70.965  0.00  0.00    -0.391 OA
ATOM     27  H10 CTS d   1      25.149  40.211  70.225  0.00  0.00     0.210 HD
ENDBRANCH   4  26
BRANCH   6  28
ATOM     28  O6  CTS d   1      23.453  40.722  67.785  0.00  0.00    -0.393 OA
ATOM     29  H11 CTS d   1      22.632  41.190  67.687  0.00  0.00     0.210 HD
ENDBRANCH   6  28
TORSDOF 4
