REMARK  6 active torsions:
REMARK  status: ('A' for Active; 'I' for Inactive)
REMARK    1  A    between atoms: C2_2  and  C1'_8 
REMARK    2  A    between atoms: C5_5  and  N5_6 
REMARK    3  A    between atoms: C2'_9  and  O2'_10 
REMARK    4  A    between atoms: C3'_11  and  O3'_12 
REMARK    5  A    between atoms: C4'_13  and  C5'_15 
REMARK    6  A    between atoms: C5'_15  and  O5'_16 
ROOT
ATOM      1  C1' PIR d   1     105.333  35.004  82.931  0.00  0.00     0.154 C 
ATOM      2  C2' PIR d   1     105.137  36.133  83.927  0.00  0.00     0.093 C 
ATOM      3  C3' PIR d   1     103.670  36.569  83.769  0.00  0.00     0.092 C 
ATOM      4  C4' PIR d   1     103.269  36.099  82.393  0.00  0.00     0.149 C 
ATOM      5  N4' PIR d   1     104.038  34.872  82.277  0.00  0.00    -0.056 N 
ATOM      6  H7  PIR d   1     105.529  34.077  83.490  0.00  0.00     0.096 H 
ATOM      7  H8  PIR d   1     105.816  36.968  83.700  0.00  0.00     0.090 H 
ATOM      8  H10 PIR d   1     103.590  37.664  83.837  0.00  0.00     0.090 H 
ATOM      9  H12 PIR d   1     102.189  35.892  82.371  0.00  0.00     0.091 H 
ATOM     10  H13 PIR d   1     103.525  34.120  82.710  0.00  0.00     0.278 HD
ATOM     11  H14 PIR d   1     104.181  34.664  81.301  0.00  0.00     0.278 HD
ENDROOT
BRANCH   1  12
ATOM     12  C2  PIR d   1     106.522  35.202  82.007  0.00  0.00    -0.025 C 
ATOM     13  C1  PIR d   1     107.116  36.482  81.863  0.00  0.00    -0.073 C 
ATOM     14  C6  PIR d   1     108.124  36.686  80.908  0.00  0.00    -0.057 C 
ATOM     15  H1  PIR d   1     106.791  37.303  82.491  0.00  0.00     0.084 H 
ATOM     16  C5  PIR d   1     108.440  35.646  80.005  0.00  0.00     0.025 C 
ATOM     17  H6  PIR d   1     108.654  37.630  80.864  0.00  0.00     0.086 H 
ATOM     18  C4  PIR d   1     107.894  34.348  80.184  0.00  0.00    -0.057 C 
ATOM     19  C3  PIR d   1     107.033  34.113  81.264  0.00  0.00    -0.073 C 
ATOM     20  H3  PIR d   1     108.140  33.549  79.494  0.00  0.00     0.086 H 
ATOM     21  H2  PIR d   1     106.759  33.098  81.529  0.00  0.00     0.084 H 
BRANCH  16  22
ATOM     22  N5  PIR d   1     109.277  35.885  78.990  0.00  0.00    -0.399 N 
ATOM     23  H4  PIR d   1     109.673  36.827  78.860  0.00  0.00     0.156 HD
ATOM     24  H5  PIR d   1     109.525  35.127  78.338  0.00  0.00     0.156 HD
ENDBRANCH  16  22
ENDBRANCH   1  12
BRANCH   2  25
ATOM     25  O2' PIR d   1     105.365  35.682  85.253  0.00  0.00    -0.390 OA
ATOM     26  H9  PIR d   1     104.796  34.944  85.438  0.00  0.00     0.210 HD
ENDBRANCH   2  25
BRANCH   4  27
ATOM     27  C5' PIR d   1     103.597  37.045  81.228  0.00  0.00     0.046 C 
ATOM     28  H15 PIR d   1     104.550  37.554  81.432  0.00  0.00     0.077 H 
ATOM     29  H16 PIR d   1     102.796  37.792  81.132  0.00  0.00     0.077 H 
BRANCH  27  30
ATOM     30  O5' PIR d   1     103.707  36.314  80.008  0.00  0.00    -0.399 OA
ATOM     31  H17 PIR d   1     102.884  35.875  79.828  0.00  0.00     0.209 HD
ENDBRANCH  27  30
ENDBRANCH   4  27
BRANCH   3  32
ATOM     32  O3' PIR d   1     102.845  35.983  84.762  0.00  0.00    -0.391 OA
ATOM     33  H11 PIR d   1     103.115  36.292  85.619  0.00  0.00     0.210 HD
ENDBRANCH   3  32
TORSDOF 6
