REMARK  6 active torsions:
REMARK  status: ('A' for Active; 'I' for Inactive)
REMARK    1  A    between atoms: C1_1  and  S_7 
REMARK    2  A    between atoms: C4_4  and  C7_11 
REMARK    3  A    between atoms: S_7  and  N1_10 
REMARK    4  A    between atoms: C7_11  and  C8_12 
REMARK    5  A    between atoms: C8_12  and  N2_13 
REMARK       I    between atoms: N2_13  and  C9_14 
REMARK    6  A    between atoms: C9_14  and  C10_15 
ROOT
ATOM      1  C1  M25 d   1     -17.119  -0.335 -19.218  0.00  0.00     0.079 A 
ATOM      2  C2  M25 d   1     -17.267  -1.195 -18.126  0.00  0.00    -0.060 A 
ATOM      3  C3  M25 d   1     -17.837  -0.691 -16.968  0.00  0.00    -0.075 A 
ATOM      4  C4  M25 d   1     -18.263   0.647 -16.851  0.00  0.00    -0.057 A 
ATOM      5  C5  M25 d   1     -18.100   1.499 -17.967  0.00  0.00    -0.075 A 
ATOM      6  C6  M25 d   1     -17.528   1.028 -19.163  0.00  0.00    -0.060 A 
ATOM      7  H1  M25 d   1     -16.945  -2.228 -18.184  0.00  0.00     0.085 H 
ATOM      8  H2  M25 d   1     -17.960  -1.353 -16.118  0.00  0.00     0.084 H 
ATOM      9  H3  M25 d   1     -18.421   2.532 -17.900  0.00  0.00     0.084 H 
ATOM     10  H4  M25 d   1     -17.402   1.683 -20.017  0.00  0.00     0.085 H 
ENDROOT
BRANCH   4  11
ATOM     11  C7  M25 d   1     -18.866   1.136 -15.561  0.00  0.00    -0.026 C 
ATOM     12  H7  M25 d   1     -19.425   0.313 -15.092  0.00  0.00     0.042 H 
ATOM     13  H8  M25 d   1     -19.552   1.968 -15.779  0.00  0.00     0.042 H 
BRANCH  11  14
ATOM     14  C8  M25 d   1     -17.794   1.619 -14.595  0.00  0.00    -0.001 C 
ATOM     15  H9  M25 d   1     -17.238   2.452 -15.050  0.00  0.00     0.064 H 
ATOM     16  H10 M25 d   1     -17.101   0.794 -14.373  0.00  0.00     0.064 H 
BRANCH  14  17
ATOM     17  N2  M25 d   1     -18.426   2.072 -13.357  0.00  0.00    -0.361 N 
ATOM     18  C9  M25 d   1     -18.794   3.374 -13.158  0.00  0.00     0.213 C 
ATOM     19  O3  M25 d   1     -18.628   4.284 -13.980  0.00  0.00    -0.274 OA
ATOM     20  H11 M25 d   1     -18.595   1.406 -12.630  0.00  0.00     0.162 HD
BRANCH  18  21
ATOM     21  C10 M25 d   1     -19.434   3.621 -11.805  0.00  0.00    -0.003 C 
ATOM     22  H12 M25 d   1     -19.703   4.684 -11.715  0.00  0.00     0.040 H 
ATOM     23  H13 M25 d   1     -18.723   3.354 -11.009  0.00  0.00     0.040 H 
ATOM     24  H14 M25 d   1     -20.340   3.004 -11.710  0.00  0.00     0.040 H 
ENDBRANCH  18  21
ENDBRANCH  14  17
ENDBRANCH  11  14
ENDBRANCH   4  11
BRANCH   1  25
ATOM     25  S   M25 d   1     -16.399  -0.943 -20.710  0.00  0.00     0.256 S 
ATOM     26  O1  M25 d   1     -16.047   0.171 -21.558  0.00  0.00    -0.201 OA
ATOM     27  O2  M25 d   1     -17.381  -1.879 -21.242  0.00  0.00    -0.201 OA
BRANCH  25  28
ATOM     28  N1  M25 d   1     -15.029  -1.755 -20.331  0.00  0.00    -0.324 N 
ATOM     29  H5  M25 d   1     -14.480  -2.174 -21.054  0.00  0.00     0.169 HD
ATOM     30  H6  M25 d   1     -14.741  -1.832 -19.376  0.00  0.00     0.169 HD
ENDBRANCH  25  28
ENDBRANCH   1  25
TORSDOF 6
