REMARK  17 active torsions:
REMARK  status: ('A' for Active; 'I' for Inactive)
REMARK    1  A    between atoms: C1_2  and  C2_4 
REMARK    2  A    between atoms: C11_14  and  N2_13 
REMARK    3  A    between atoms: C12_15  and  C11_14 
REMARK    4  A    between atoms: C11_14  and  C13_17 
REMARK       I    between atoms: N4_24  and  C12_15 
REMARK    5  A    between atoms: C13_17  and  C14_18 
REMARK       I    between atoms: C14_18  and  N3_20 
REMARK    6  A    between atoms: C15_21  and  O4_22 
REMARK    7  A    between atoms: C16_23  and  C15_21 
REMARK    8  A    between atoms: C15_21  and  C24_33 
REMARK    9  A    between atoms: C16_23  and  N4_24 
REMARK   10  A    between atoms: C16_23  and  C17_25 
REMARK   11  A    between atoms: C17_25  and  C18_26 
REMARK   12  A    between atoms: C24_33  and  N5_32 
REMARK   13  A    between atoms: C25_34  and  C26_35 
REMARK       I    between atoms: C26_35  and  N6_45 
REMARK   14  A    between atoms: N6_45  and  C35_46 
REMARK   15  A    between atoms: C35_46  and  C36_47 
REMARK   16  A    between atoms: C35_46  and  C37_48 
REMARK   17  A    between atoms: C35_46  and  C38_49 
ROOT
ATOM      1  C15 ROC d   1      20.147  29.716  16.093  0.00  0.00     0.078 C 
ATOM      2  H13 ROC d   1      19.055  29.785  15.978  0.00  0.00     0.088 H 
ENDROOT
BRANCH   1   3
ATOM      3  O4  ROC d   1      20.378  29.414  17.462  0.00  0.00    -0.392 OA
ATOM      4  H14 ROC d   1      20.034  28.550  17.657  0.00  0.00     0.210 HD
ENDBRANCH   1   3
BRANCH   1   5
ATOM      5  C16 ROC d   1      20.684  31.100  15.729  0.00  0.00     0.042 C 
ATOM      6  H15 ROC d   1      20.554  31.255  14.648  0.00  0.00     0.077 H 
BRANCH   5   7
ATOM      7  N4  ROC d   1      19.894  32.084  16.474  0.00  0.00    -0.352 N 
ATOM      8  C12 ROC d   1      19.140  32.998  15.853  0.00  0.00     0.241 C 
ATOM      9  O2  ROC d   1      19.108  33.134  14.610  0.00  0.00    -0.271 OA
ATOM     10  H16 ROC d   1      19.919  32.072  17.474  0.00  0.00     0.163 HD
BRANCH   8  11
ATOM     11  C11 ROC d   1      18.322  33.950  16.713  0.00  0.00     0.096 C 
ATOM     12  H8  ROC d   1      18.194  33.486  17.702  0.00  0.00     0.088 H 
BRANCH  11  13
ATOM     13  N2  ROC d   1      19.124  35.177  16.900  0.00  0.00    -0.353 N 
ATOM     14  C1  ROC d   1      19.442  35.707  18.087  0.00  0.00     0.204 C 
ATOM     15  O1  ROC d   1      18.808  35.193  19.106  0.00  0.00    -0.170 OA
ATOM     16  H7  ROC d   1      19.453  35.645  16.080  0.00  0.00     0.162 HD
BRANCH  14  17
ATOM     17  C2  ROC d   1      20.381  36.855  18.038  0.00  0.00     0.111 C 
ATOM     18  N1  ROC d   1      20.519  37.513  16.816  0.00  0.00    -0.244 NA
ATOM     19  C10 ROC d   1      21.348  38.604  16.739  0.00  0.00     0.068 C 
ATOM     20  C5  ROC d   1      22.052  39.084  17.847  0.00  0.00    -0.007 C 
ATOM     21  C9R ROC d   1      21.567  39.221  15.491  0.00  0.00    -0.054 C 
ATOM     22  C4  ROC d   1      21.990  38.362  19.042  0.00  0.00    -0.068 C 
ATOM     23  C6  ROC d   1      22.874  40.213  17.749  0.00  0.00    -0.071 C 
ATOM     24  C3  ROC d   1      21.061  37.325  19.155  0.00  0.00    -0.050 C 
ATOM     25  H2  ROC d   1      22.651  38.602  19.867  0.00  0.00     0.085 H 
ATOM     26  H1  ROC d   1      20.868  36.882  20.125  0.00  0.00     0.087 H 
ATOM     27  C7  ROC d   1      22.875  40.941  16.583  0.00  0.00    -0.082 C 
ATOM     28  H3  ROC d   1      23.502  40.509  18.582  0.00  0.00     0.084 H 
ATOM     29  C8  ROC d   1      22.220  40.409  15.501  0.00  0.00    -0.081 C 
ATOM     30  H4  ROC d   1      23.375  41.901  16.520  0.00  0.00     0.083 H 
ATOM     31  H5  ROC d   1      22.225  40.984  14.582  0.00  0.00     0.083 H 
ATOM     32  H6  ROC d   1      21.229  38.767  14.566  0.00  0.00     0.087 H 
ENDBRANCH  14  17
ENDBRANCH  11  13
BRANCH  11  33
ATOM     33  C13 ROC d   1      16.967  34.171  16.177  0.00  0.00     0.036 C 
ATOM     34  H9  ROC d   1      16.446  33.207  16.077  0.00  0.00     0.051 H 
ATOM     35  H10 ROC d   1      17.032  34.657  15.192  0.00  0.00     0.051 H 
BRANCH  33  36
ATOM     36  C14 ROC d   1      16.219  35.051  17.123  0.00  0.00     0.217 C 
ATOM     37  O3  ROC d   1      15.956  36.241  16.885  0.00  0.00    -0.274 OA
ATOM     38  N3  ROC d   1      15.850  34.526  18.158  0.00  0.00    -0.370 N 
ATOM     39  H11 ROC d   1      15.344  35.059  18.836  0.00  0.00     0.159 HD
ATOM     40  H12 ROC d   1      16.053  33.562  18.330  0.00  0.00     0.159 HD
ENDBRANCH  33  36
ENDBRANCH  11  33
ENDBRANCH   8  11
ENDBRANCH   5   7
BRANCH   5  41
ATOM     41  C17 ROC d   1      22.147  31.312  16.074  0.00  0.00    -0.020 C 
ATOM     42  H17 ROC d   1      22.752  30.795  15.315  0.00  0.00     0.043 H 
ATOM     43  H18 ROC d   1      22.331  30.860  17.060  0.00  0.00     0.043 H 
BRANCH  41  44
ATOM     44  C18 ROC d   1      22.595  32.725  16.129  0.00  0.00    -0.056 A 
ATOM     45  C19 ROC d   1      22.840  33.401  14.920  0.00  0.00    -0.077 A 
ATOM     46  C21 ROC d   1      23.290  34.691  14.966  0.00  0.00    -0.082 A 
ATOM     47  H19 ROC d   1      22.675  32.908  13.969  0.00  0.00     0.084 H 
ATOM     48  C23 ROC d   1      23.475  35.360  16.149  0.00  0.00    -0.083 A 
ATOM     49  H21 ROC d   1      23.508  35.203  14.036  0.00  0.00     0.083 H 
ATOM     50  C22 ROC d   1      23.174  34.710  17.323  0.00  0.00    -0.082 A 
ATOM     51  H23 ROC d   1      23.850  36.377  16.158  0.00  0.00     0.083 H 
ATOM     52  C20 ROC d   1      22.784  33.393  17.326  0.00  0.00    -0.077 A 
ATOM     53  H22 ROC d   1      23.246  35.246  18.262  0.00  0.00     0.083 H 
ATOM     54  H20 ROC d   1      22.624  32.877  18.266  0.00  0.00     0.084 H 
ENDBRANCH  41  44
ENDBRANCH   5  41
ENDBRANCH   1   5
BRANCH   1  55
ATOM     55  C24 ROC d   1      20.576  28.592  15.163  0.00  0.00     0.110 C 
ATOM     56  H25 ROC d   1      20.410  27.628  15.665  0.00  0.00     0.080 H 
ATOM     57  H26 ROC d   1      21.645  28.706  14.932  0.00  0.00     0.080 H 
BRANCH  55  58
ATOM     58  N5  ROC d   1      19.825  28.618  13.935  0.00  0.00    -0.055 N 
ATOM     59  C25 ROC d   1      20.531  28.022  12.796  0.00  0.00     0.180 C 
ATOM     60  C27 ROC d   1      19.708  28.167  11.534  0.00  0.00    -0.026 C 
ATOM     61  H27 ROC d   1      20.738  26.966  13.022  0.00  0.00     0.100 H 
ATOM     62  C28 ROC d   1      18.378  27.423  11.698  0.00  0.00    -0.047 C 
ATOM     63  H28 ROC d   1      20.263  27.742  10.684  0.00  0.00     0.037 H 
ATOM     64  H29 ROC d   1      19.510  29.233  11.347  0.00  0.00     0.037 H 
ATOM     65  C29 ROC d   1      17.492  27.660  10.474  0.00  0.00    -0.061 C 
ATOM     66  C33 ROC d   1      17.667  27.934  12.973  0.00  0.00    -0.027 C 
ATOM     67  H30 ROC d   1      18.574  26.345  11.798  0.00  0.00     0.040 H 
ATOM     68  C30 ROC d   1      17.086  29.153  10.325  0.00  0.00    -0.065 C 
ATOM     69  H31 ROC d   1      16.580  27.053  10.573  0.00  0.00     0.033 H 
ATOM     70  H32 ROC d   1      18.042  27.351   9.573  0.00  0.00     0.033 H 
ATOM     71  C31 ROC d   1      16.196  29.413  11.546  0.00  0.00    -0.065 C 
ATOM     72  H33 ROC d   1      16.528  29.316   9.391  0.00  0.00     0.033 H 
ATOM     73  H34 ROC d   1      17.973  29.804  10.341  0.00  0.00     0.033 H 
ATOM     74  C32 ROC d   1      17.114  29.322  12.732  0.00  0.00    -0.060 C 
ATOM     75  H35 ROC d   1      15.403  28.654  11.614  0.00  0.00     0.033 H 
ATOM     76  H36 ROC d   1      15.742  30.413  11.486  0.00  0.00     0.033 H 
ATOM     77  H37 ROC d   1      16.555  29.633  13.627  0.00  0.00     0.033 H 
ATOM     78  H38 ROC d   1      17.958  30.008  12.570  0.00  0.00     0.033 H 
ATOM     79  C34 ROC d   1      18.595  27.843  14.164  0.00  0.00     0.088 C 
ATOM     80  H39 ROC d   1      16.812  27.272  13.175  0.00  0.00     0.043 H 
ATOM     81  H40 ROC d   1      18.080  28.239  15.052  0.00  0.00     0.076 H 
ATOM     82  H41 ROC d   1      18.860  26.789  14.334  0.00  0.00     0.076 H 
ATOM     83  H24 ROC d   1      19.596  29.574  13.711  0.00  0.00     0.281 HD
BRANCH  59  84
ATOM     84  C26 ROC d   1      21.821  28.749  12.392  0.00  0.00     0.249 C 
ATOM     85  O5  ROC d   1      21.712  29.944  12.196  0.00  0.00    -0.271 OA
ATOM     86  N6  ROC d   1      22.869  27.914  12.283  0.00  0.00    -0.351 N 
ATOM     87  H42 ROC d   1      22.708  26.948  12.486  0.00  0.00     0.163 HD
BRANCH  86  88
ATOM     88  C35 ROC d   1      24.219  28.297  11.894  0.00  0.00     0.022 C 
BRANCH  88  89
ATOM     89  C36 ROC d   1      25.000  27.004  11.737  0.00  0.00    -0.054 C 
ATOM     90  H43 ROC d   1      26.034  27.234  11.442  0.00  0.00     0.030 H 
ATOM     91  H44 ROC d   1      24.527  26.382  10.963  0.00  0.00     0.030 H 
ATOM     92  H45 ROC d   1      25.004  26.460  12.693  0.00  0.00     0.030 H 
ENDBRANCH  88  89
BRANCH  88  93
ATOM     93  C37 ROC d   1      24.488  29.403  12.746  0.00  0.00    -0.054 C 
ATOM     94  H46 ROC d   1      25.499  29.786  12.542  0.00  0.00     0.030 H 
ATOM     95  H47 ROC d   1      24.423  29.081  13.796  0.00  0.00     0.030 H 
ATOM     96  H48 ROC d   1      23.750  30.197  12.560  0.00  0.00     0.030 H 
ENDBRANCH  88  93
BRANCH  88  97
ATOM     97  C38 ROC d   1      24.131  29.094  10.573  0.00  0.00    -0.054 C 
ATOM     98  H49 ROC d   1      25.141  29.395  10.258  0.00  0.00     0.030 H 
ATOM     99  H50 ROC d   1      23.512  29.991  10.726  0.00  0.00     0.030 H 
ATOM    100  H51 ROC d   1      23.677  28.464   9.794  0.00  0.00     0.030 H 
ENDBRANCH  88  97
ENDBRANCH  86  88
ENDBRANCH  59  84
ENDBRANCH  55  58
ENDBRANCH   1  55
TORSDOF 17
