REMARK  5 active torsions:
REMARK  status: ('A' for Active; 'I' for Inactive)
REMARK    1  A    between atoms: C1_1  and  S_7 
REMARK    2  A    between atoms: C4_4  and  C7_11 
REMARK    3  A    between atoms: S_7  and  N3_10 
REMARK    4  A    between atoms: C7_11  and  C8_12 
REMARK    5  A    between atoms: C8_12  and  C9_13 
ROOT
ATOM      1  C1  M28 d   1     -17.285  -0.148 -19.504  0.00  0.00     0.079 A 
ATOM      2  C2  M28 d   1     -17.884   1.150 -19.659  0.00  0.00    -0.060 A 
ATOM      3  C3  M28 d   1     -18.491   1.766 -18.553  0.00  0.00    -0.075 A 
ATOM      4  C4  M28 d   1     -18.512   1.113 -17.298  0.00  0.00    -0.058 A 
ATOM      5  C5  M28 d   1     -17.894  -0.162 -17.197  0.00  0.00    -0.075 A 
ATOM      6  C6  M28 d   1     -17.286  -0.799 -18.262  0.00  0.00    -0.060 A 
ATOM      7  H1  M28 d   1     -17.867   1.649 -20.621  0.00  0.00     0.085 H 
ATOM      8  H2  M28 d   1     -18.945   2.744 -18.661  0.00  0.00     0.084 H 
ATOM      9  H3  M28 d   1     -17.900  -0.661 -16.235  0.00  0.00     0.084 H 
ATOM     10  H4  M28 d   1     -16.824  -1.772 -18.141  0.00  0.00     0.085 H 
ENDROOT
BRANCH   4  11
ATOM     11  C7  M28 d   1     -19.142   1.717 -16.104  0.00  0.00    -0.032 C 
ATOM     12  H7  M28 d   1     -20.099   1.222 -15.883  0.00  0.00     0.040 H 
ATOM     13  H8  M28 d   1     -19.314   2.792 -16.263  0.00  0.00     0.040 H 
BRANCH  11  14
ATOM     14  C8  M28 d   1     -18.147   1.497 -14.957  0.00  0.00     0.019 C 
ATOM     15  H9  M28 d   1     -17.193   1.925 -15.299  0.00  0.00     0.049 H 
ATOM     16  H10 M28 d   1     -18.043   0.407 -14.853  0.00  0.00     0.049 H 
BRANCH  14  17
ATOM     17  C9  M28 d   1     -18.360   2.025 -13.565  0.00  0.00     0.172 C 
ATOM     18  O4  M28 d   1     -19.064   3.040 -13.382  0.00  0.00    -0.648 OA
ATOM     19  O5  M28 d   1     -17.801   1.465 -12.588  0.00  0.00    -0.648 OA
ENDBRANCH  14  17
ENDBRANCH  11  14
ENDBRANCH   4  11
BRANCH   1  20
ATOM     20  S   M28 d   1     -16.520  -0.961 -20.842  0.00  0.00     0.256 S 
ATOM     21  O1  M28 d   1     -16.101   0.090 -21.732  0.00  0.00    -0.201 OA
ATOM     22  O2  M28 d   1     -17.498  -1.907 -21.358  0.00  0.00    -0.201 OA
BRANCH  20  23
ATOM     23  N3  M28 d   1     -15.284  -1.744 -20.210  0.00  0.00    -0.324 N 
ATOM     24  H5  M28 d   1     -14.687  -2.292 -20.796  0.00  0.00     0.169 HD
ATOM     25  H6  M28 d   1     -15.106  -1.688 -19.228  0.00  0.00     0.169 HD
ENDBRANCH  20  23
ENDBRANCH   1  20
TORSDOF 5
