REMARK  8 active torsions:
REMARK  status: ('A' for Active; 'I' for Inactive)
REMARK    1  A    between atoms: C1_1  and  S_7 
REMARK    2  A    between atoms: C4_4  and  C7_11 
REMARK    3  A    between atoms: S_7  and  N_10 
REMARK    4  A    between atoms: C7_11  and  C8_12 
REMARK    5  A    between atoms: C8_12  and  C9_13 
REMARK    6  A    between atoms: C9_13  and  O3_14 
REMARK    7  A    between atoms: O3_14  and  C10_16 
REMARK    8  A    between atoms: C10_16  and  C11_17 
ROOT
ATOM      1  C1  M29 d   1     -17.345  -0.094 -19.452  0.00  0.00     0.079 A 
ATOM      2  C2  M29 d   1     -18.099   1.118 -19.632  0.00  0.00    -0.060 A 
ATOM      3  C3  M29 d   1     -18.753   1.717 -18.530  0.00  0.00    -0.075 A 
ATOM      4  C4  M29 d   1     -18.673   1.135 -17.243  0.00  0.00    -0.058 A 
ATOM      5  C5  M29 d   1     -17.935  -0.043 -17.052  0.00  0.00    -0.075 A 
ATOM      6  C6  M29 d   1     -17.266  -0.664 -18.159  0.00  0.00    -0.060 A 
ATOM      7  H1  M29 d   1     -18.166   1.573 -20.614  0.00  0.00     0.085 H 
ATOM      8  H2  M29 d   1     -19.320   2.630 -18.673  0.00  0.00     0.084 H 
ATOM      9  H3  M29 d   1     -17.870  -0.485 -16.065  0.00  0.00     0.084 H 
ATOM     10  H4  M29 d   1     -16.698  -1.574 -18.004  0.00  0.00     0.085 H 
ENDROOT
BRANCH   4  11
ATOM     11  C7  M29 d   1     -19.390   1.751 -16.077  0.00  0.00    -0.033 C 
ATOM     12  H7  M29 d   1     -19.425   1.008 -15.267  0.00  0.00     0.040 H 
ATOM     13  H8  M29 d   1     -20.414   1.994 -16.396  0.00  0.00     0.040 H 
BRANCH  11  14
ATOM     14  C8  M29 d   1     -18.759   3.013 -15.528  0.00  0.00     0.019 C 
ATOM     15  H9  M29 d   1     -18.711   3.744 -16.348  0.00  0.00     0.048 H 
ATOM     16  H10 M29 d   1     -17.739   2.760 -15.202  0.00  0.00     0.048 H 
BRANCH  14  17
ATOM     17  C9  M29 d   1     -19.459   3.679 -14.362  0.00  0.00     0.259 C 
ATOM     18  O4  M29 d   1     -20.462   3.210 -13.895  0.00  0.00    -0.265 OA
BRANCH  17  19
ATOM     19  O3  M29 d   1     -18.860   4.842 -13.948  0.00  0.00    -0.322 OA
BRANCH  19  20
ATOM     20  C10 M29 d   1     -19.496   5.563 -12.858  0.00  0.00     0.025 C 
ATOM     21  H11 M29 d   1     -19.402   4.999 -11.918  0.00  0.00     0.074 H 
ATOM     22  H12 M29 d   1     -20.560   5.733 -13.079  0.00  0.00     0.074 H 
BRANCH  20  23
ATOM     23  C11 M29 d   1     -18.757   6.889 -12.757  0.00  0.00    -0.056 C 
ATOM     24  H13 M29 d   1     -19.191   7.490 -11.944  0.00  0.00     0.030 H 
ATOM     25  H14 M29 d   1     -18.852   7.435 -13.707  0.00  0.00     0.030 H 
ATOM     26  H15 M29 d   1     -17.694   6.701 -12.546  0.00  0.00     0.030 H 
ENDBRANCH  20  23
ENDBRANCH  19  20
ENDBRANCH  17  19
ENDBRANCH  14  17
ENDBRANCH  11  14
ENDBRANCH   4  11
BRANCH   1  27
ATOM     27  S   M29 d   1     -16.543  -0.861 -20.819  0.00  0.00     0.256 S 
ATOM     28  O1  M29 d   1     -16.217   0.208 -21.732  0.00  0.00    -0.201 OA
ATOM     29  O2  M29 d   1     -17.519  -1.837 -21.290  0.00  0.00    -0.201 OA
BRANCH  27  30
ATOM     30  N   M29 d   1     -15.232  -1.614 -20.281  0.00  0.00    -0.324 N 
ATOM     31  H5  M29 d   1     -14.644  -2.111 -20.919  0.00  0.00     0.169 HD
ATOM     32  H6  M29 d   1     -15.004  -1.586 -19.308  0.00  0.00     0.169 HD
ENDBRANCH  27  30
ENDBRANCH   1  27
TORSDOF 8
