REMARK  6 active torsions:
REMARK  status: ('A' for Active; 'I' for Inactive)
REMARK    1  A    between atoms: C2_2  and  C21_7 
REMARK    2  A    between atoms: C3_3  and  O31_11 
REMARK    3  A    between atoms: C21_7  and  C22_8 
REMARK    4  A    between atoms: C22_8  and  C23_9 
REMARK    5  A    between atoms: C22_8  and  C24_10 
REMARK    6  A    between atoms: O31_11  and  C31_12 
ROOT
ATOM      1  N1  PRZ d   1      50.222  22.733  42.644  0.00  0.00    -0.260 NA
ATOM      2  C2  PRZ d   1      50.227  23.422  41.479  0.00  0.00     0.087 A 
ATOM      3  C3  PRZ d   1      51.399  23.467  40.723  0.00  0.00     0.189 A 
ATOM      4  N4  PRZ d   1      52.499  22.835  41.181  0.00  0.00    -0.234 NA
ATOM      5  C5  PRZ d   1      52.475  22.147  42.328  0.00  0.00     0.022 A 
ATOM      6  C6  PRZ d   1      51.313  22.101  43.085  0.00  0.00     0.019 A 
ATOM      7  H1  PRZ d   1      53.363  21.625  42.666  0.00  0.00     0.117 H 
ATOM      8  H2  PRZ d   1      51.291  21.558  44.023  0.00  0.00     0.117 H 
ENDROOT
BRANCH   2   9
ATOM      9  C21 PRZ d   1      48.937  24.074  41.014  0.00  0.00    -0.018 C 
ATOM     10  H3  PRZ d   1      48.116  23.649  41.610  0.00  0.00     0.043 H 
ATOM     11  H4  PRZ d   1      48.795  23.812  39.955  0.00  0.00     0.043 H 
BRANCH   9  12
ATOM     12  C22 PRZ d   1      48.853  25.579  41.128  0.00  0.00    -0.056 C 
ATOM     13  H5  PRZ d   1      49.783  26.023  40.744  0.00  0.00     0.039 H 
BRANCH  12  14
ATOM     14  C23 PRZ d   1      48.656  26.031  42.568  0.00  0.00    -0.073 C 
ATOM     15  H6  PRZ d   1      48.601  27.129  42.603  0.00  0.00     0.028 H 
ATOM     16  H7  PRZ d   1      49.503  25.687  43.179  0.00  0.00     0.028 H 
ATOM     17  H8  PRZ d   1      47.722  25.604  42.962  0.00  0.00     0.028 H 
ENDBRANCH  12  14
BRANCH  12  18
ATOM     18  C24 PRZ d   1      47.678  26.035  40.272  0.00  0.00    -0.073 C 
ATOM     19  H9  PRZ d   1      47.830  25.704  39.234  0.00  0.00     0.028 H 
ATOM     20  H10 PRZ d   1      47.608  27.132  40.300  0.00  0.00     0.028 H 
ATOM     21  H11 PRZ d   1      46.748  25.598  40.664  0.00  0.00     0.028 H 
ENDBRANCH  12  18
ENDBRANCH   9  12
ENDBRANCH   2   9
BRANCH   3  22
ATOM     22  O31 PRZ d   1      51.449  24.180  39.554  0.00  0.00    -0.338 OA
BRANCH  22  23
ATOM     23  C31 PRZ d   1      52.630  24.212  38.745  0.00  0.00     0.012 C 
ATOM     24  H12 PRZ d   1      52.451  24.840  37.859  0.00  0.00     0.067 H 
ATOM     25  H13 PRZ d   1      52.883  23.190  38.425  0.00  0.00     0.067 H 
ATOM     26  H14 PRZ d   1      53.463  24.631  39.329  0.00  0.00     0.067 H 
ENDBRANCH  22  23
ENDBRANCH   3  22
TORSDOF 6
