REMARK  8 active torsions:
REMARK  status: ('A' for Active; 'I' for Inactive)
REMARK    1  A    between atoms: O5'_14  and  PA_1 
REMARK    2  A    between atoms: C1'_22  and  N1_5 
REMARK    3  A    between atoms: C5_6  and  N5_10 
REMARK    4  A    between atoms: C4_7  and  C6_11 
REMARK    5  A    between atoms: C5'_19  and  O5'_14 
REMARK    6  A    between atoms: C2'_15  and  O2'_16 
REMARK    7  A    between atoms: C3'_17  and  O3'_18 
REMARK    8  A    between atoms: C5'_19  and  C4'_20 
ROOT
ATOM      1  C2' C2R d   1      13.175 -14.294 -13.102  0.00  0.00     0.105 C 
ATOM      2  C3' C2R d   1      12.556 -13.189 -12.244  0.00  0.00     0.091 C 
ATOM      3  C4' C2R d   1      13.395 -11.963 -12.622  0.00  0.00     0.089 C 
ATOM      4  O4' C2R d   1      14.428 -12.454 -13.493  0.00  0.00    -0.353 OA
ATOM      5  C1' C2R d   1      13.739 -13.457 -14.248  0.00  0.00     0.139 C 
ATOM      6  H4  C2R d   1      13.948 -14.863 -12.565  0.00  0.00     0.093 H 
ATOM      7  H6  C2R d   1      12.623 -13.418 -11.170  0.00  0.00     0.091 H 
ATOM      8  H10 C2R d   1      12.774 -11.222 -13.146  0.00  0.00     0.090 H 
ATOM      9  H11 C2R d   1      12.957 -13.023 -14.888  0.00  0.00     0.122 H 
ENDROOT
BRANCH   5  10
ATOM     10  N1  C2R d   1      14.640 -14.311 -15.052  0.00  0.00    -0.295 N 
ATOM     11  C5  C2R d   1      14.568 -14.510 -16.364  0.00  0.00     0.140 A 
ATOM     12  C4  C2R d   1      15.491 -15.497 -16.680  0.00  0.00     0.178 A 
ATOM     13  N3  C2R d   1      16.115 -15.845 -15.559  0.00  0.00    -0.233 NA
ATOM     14  C2  C2R d   1      15.590 -15.115 -14.576  0.00  0.00     0.071 A 
ATOM     15  H1  C2R d   1      15.894 -15.168 -13.532  0.00  0.00     0.144 H 
BRANCH  11  16
ATOM     16  N5  C2R d   1      13.835 -13.808 -17.222  0.00  0.00    -0.383 N 
ATOM     17  H2  C2R d   1      13.849 -14.044 -18.225  0.00  0.00     0.157 HD
ATOM     18  H3  C2R d   1      13.253 -13.028 -16.884  0.00  0.00     0.157 HD
ENDBRANCH  11  16
BRANCH  12  19
ATOM     19  C6  C2R d   1      15.685 -16.139 -18.054  0.00  0.00     0.232 C 
ATOM     20  O7  C2R d   1      14.958 -15.740 -18.989  0.00  0.00    -0.643 OA
ATOM     21  O8  C2R d   1      16.545 -17.040 -18.163  0.00  0.00    -0.643 OA
ENDBRANCH  12  19
ENDBRANCH   5  10
BRANCH   1  22
ATOM     22  O2' C2R d   1      12.166 -15.168 -13.614  0.00  0.00    -0.388 OA
ATOM     23  H5  C2R d   1      11.698 -15.568 -12.890  0.00  0.00     0.210 HD
ENDBRANCH   1  22
BRANCH   2  24
ATOM     24  O3' C2R d   1      11.195 -12.975 -12.626  0.00  0.00    -0.390 OA
ATOM     25  H7  C2R d   1      10.703 -13.778 -12.504  0.00  0.00     0.210 HD
ENDBRANCH   2  24
BRANCH   3  26
ATOM     26  C5' C2R d   1      14.004 -11.323 -11.374  0.00  0.00     0.059 C 
ATOM     27  H8  C2R d   1      14.601 -10.447 -11.667  0.00  0.00     0.079 H 
ATOM     28  H9  C2R d   1      13.198 -11.007 -10.695  0.00  0.00     0.079 H 
BRANCH  26  29
ATOM     29  O5' C2R d   1      14.844 -12.266 -10.706  0.00  0.00    -0.280 OA
BRANCH  29  30
ATOM     30  PA  C2R d   1      15.564 -11.881  -9.319  0.00  0.00     0.422 P 
ATOM     31  O1A C2R d   1      14.397 -11.672  -8.232  0.00  0.00    -0.617 OA
ATOM     32  O2A C2R d   1      16.540 -12.908  -8.891  0.00  0.00    -0.617 OA
ATOM     33  O3A C2R d   1      16.246 -10.442  -9.546  0.00  0.00    -0.617 OA
ENDBRANCH  29  30
ENDBRANCH  26  29
ENDBRANCH   3  26
TORSDOF 8
