REMARK  8 active torsions:
REMARK  status: ('A' for Active; 'I' for Inactive)
REMARK    1  A    between atoms: O5'_14  and  PA_1 
REMARK    2  A    between atoms: C1'_22  and  N1_5 
REMARK    3  A    between atoms: C5_6  and  N5_10 
REMARK    4  A    between atoms: C4_7  and  C6_11 
REMARK    5  A    between atoms: C5'_19  and  O5'_14 
REMARK    6  A    between atoms: C2'_15  and  O2'_16 
REMARK    7  A    between atoms: C3'_17  and  O3'_18 
REMARK    8  A    between atoms: C5'_19  and  C4'_20 
ROOT
ATOM      1  C2' C2R d   1      13.142 -14.012 -13.064  0.00  0.00     0.105 C 
ATOM      2  C3' C2R d   1      12.423 -12.918 -12.275  0.00  0.00     0.091 C 
ATOM      3  C4' C2R d   1      13.241 -11.666 -12.609  0.00  0.00     0.089 C 
ATOM      4  O4' C2R d   1      14.283 -12.096 -13.502  0.00  0.00    -0.353 OA
ATOM      5  C1' C2R d   1      13.672 -13.173 -14.224  0.00  0.00     0.139 C 
ATOM      6  H4  C2R d   1      13.934 -14.512 -12.487  0.00  0.00     0.093 H 
ATOM      7  H6  C2R d   1      12.417 -13.127 -11.195  0.00  0.00     0.091 H 
ATOM      8  H10 C2R d   1      12.604 -10.912 -13.095  0.00  0.00     0.090 H 
ATOM      9  H11 C2R d   1      12.870 -12.810 -14.883  0.00  0.00     0.122 H 
ENDROOT
BRANCH   5  10
ATOM     10  N1  C2R d   1      14.629 -13.990 -15.002  0.00  0.00    -0.295 N 
ATOM     11  C5  C2R d   1      14.519 -14.309 -16.287  0.00  0.00     0.140 A 
ATOM     12  C4  C2R d   1      15.533 -15.208 -16.579  0.00  0.00     0.178 A 
ATOM     13  N3  C2R d   1      16.244 -15.390 -15.471  0.00  0.00    -0.233 NA
ATOM     14  C2  C2R d   1      15.686 -14.642 -14.519  0.00  0.00     0.071 A 
ATOM     15  H1  C2R d   1      16.043 -14.573 -13.492  0.00  0.00     0.144 H 
BRANCH  11  16
ATOM     16  N5  C2R d   1      13.638 -13.805 -17.148  0.00  0.00    -0.383 N 
ATOM     17  H2  C2R d   1      13.637 -14.122 -18.128  0.00  0.00     0.157 HD
ATOM     18  H3  C2R d   1      12.958 -13.098 -16.834  0.00  0.00     0.157 HD
ENDBRANCH  11  16
BRANCH  12  19
ATOM     19  C6  C2R d   1      15.723 -15.945 -17.906  0.00  0.00     0.232 C 
ATOM     20  O7  C2R d   1      14.997 -15.609 -18.867  0.00  0.00    -0.643 OA
ATOM     21  O8  C2R d   1      16.585 -16.850 -17.953  0.00  0.00    -0.643 OA
ENDBRANCH  12  19
ENDBRANCH   5  10
BRANCH   1  22
ATOM     22  O2' C2R d   1      12.196 -14.955 -13.574  0.00  0.00    -0.388 OA
ATOM     23  H5  C2R d   1      11.724 -15.351 -12.851  0.00  0.00     0.210 HD
ENDBRANCH   1  22
BRANCH   2  24
ATOM     24  O3' C2R d   1      11.087 -12.774 -12.764  0.00  0.00    -0.390 OA
ATOM     25  H7  C2R d   1      10.623 -13.596 -12.660  0.00  0.00     0.210 HD
ENDBRANCH   2  24
BRANCH   3  26
ATOM     26  C5' C2R d   1      13.862 -11.075 -11.342  0.00  0.00     0.059 C 
ATOM     27  H8  C2R d   1      14.464 -10.194 -11.609  0.00  0.00     0.079 H 
ATOM     28  H9  C2R d   1      13.061 -10.776 -10.650  0.00  0.00     0.079 H 
BRANCH  26  29
ATOM     29  O5' C2R d   1      14.699 -12.044 -10.707  0.00  0.00    -0.280 OA
BRANCH  29  30
ATOM     30  PA  C2R d   1      15.590 -11.638  -9.429  0.00  0.00     0.422 P 
ATOM     31  O1A C2R d   1      16.412 -12.965  -9.036  0.00  0.00    -0.617 OA
ATOM     32  O2A C2R d   1      14.551 -11.390  -8.225  0.00  0.00    -0.617 OA
ATOM     33  O3A C2R d   1      16.464 -10.473  -9.688  0.00  0.00    -0.617 OA
ENDBRANCH  29  30
ENDBRANCH  26  29
ENDBRANCH   3  26
TORSDOF 8
