REMARK  10 active torsions:
REMARK  status: ('A' for Active; 'I' for Inactive)
REMARK    1  A    between atoms: C2_2  and  C6_6 
REMARK    2  A    between atoms: C3_3  and  O20_16 
REMARK    3  A    between atoms: C5_5  and  C9_9 
REMARK    4  A    between atoms: C11_11  and  N28_21 
REMARK    5  A    between atoms: O20_16  and  C21_17 
REMARK    6  A    between atoms: C21_17  and  C22_18 
REMARK    7  A    between atoms: N28_21  and  C29_22 
REMARK    8  A    between atoms: N32_25  and  S44_28 
REMARK    9  A    between atoms: S44_28  and  C47_31 
REMARK   10  A    between atoms: C47_31  and  C48_32 
ROOT
ATOM      1  C29 902 d   1      49.576   7.911   1.493  0.00  0.00     0.012 C 
ATOM      2  C30 902 d   1      48.994   7.816   2.923  0.00  0.00    -0.031 C 
ATOM      3  C31 902 d   1      49.336   6.429   3.498  0.00  0.00     0.007 C 
ATOM      4  N32 902 d   1      50.782   6.067   3.390  0.00  0.00    -0.310 N 
ATOM      5  C33 902 d   1      51.582   6.550   2.219  0.00  0.00     0.007 C 
ATOM      6  C34 902 d   1      51.106   7.890   1.607  0.00  0.00    -0.031 C 
ATOM      7  H8  902 d   1      49.246   7.027   0.928  0.00  0.00     0.072 H 
ATOM      8  H9  902 d   1      47.902   7.944   2.889  0.00  0.00     0.038 H 
ATOM      9  H10 902 d   1      49.436   8.600   3.556  0.00  0.00     0.038 H 
ATOM     10  H11 902 d   1      48.749   5.675   2.954  0.00  0.00     0.065 H 
ATOM     11  H12 902 d   1      49.054   6.416   4.561  0.00  0.00     0.065 H 
ATOM     12  H13 902 d   1      51.535   5.781   1.434  0.00  0.00     0.065 H 
ATOM     13  H14 902 d   1      52.624   6.676   2.547  0.00  0.00     0.065 H 
ATOM     14  H15 902 d   1      51.433   8.719   2.251  0.00  0.00     0.038 H 
ATOM     15  H16 902 d   1      51.546   8.008   0.606  0.00  0.00     0.038 H 
ENDROOT
BRANCH   1  16
ATOM     16  N28 902 d   1      49.147   9.108   0.749  0.00  0.00    -0.385 N 
ATOM     17  H7  902 d   1      49.876   9.657   0.271  0.00  0.00     0.160 HD
BRANCH  16  18
ATOM     18  C11 902 d   1      47.848   9.549   0.644  0.00  0.00     0.029 A 
ATOM     19  C10 902 d   1      47.587  10.886   1.062  0.00  0.00    -0.046 A 
ATOM     20  C9  902 d   1      46.261  11.397   0.981  0.00  0.00    -0.015 A 
ATOM     21  H1  902 d   1      48.391  11.508   1.438  0.00  0.00     0.088 H 
ATOM     22  C14 902 d   1      45.191  10.565   0.500  0.00  0.00    -0.072 A 
ATOM     23  C13 902 d   1      45.443   9.222   0.078  0.00  0.00    -0.080 A 
ATOM     24  H4  902 d   1      44.182  10.960   0.457  0.00  0.00     0.084 H 
ATOM     25  C12 902 d   1      46.777   8.711   0.158  0.00  0.00    -0.058 A 
ATOM     26  H3  902 d   1      44.637   8.601  -0.296  0.00  0.00     0.083 H 
ATOM     27  H2  902 d   1      46.984   7.692  -0.147  0.00  0.00     0.086 H 
BRANCH  20  28
ATOM     28  C5  902 d   1      45.934  12.776   1.407  0.00  0.00     0.036 A 
ATOM     29  S1  902 d   1      44.892  13.710   0.473  0.00  0.00    -0.081 SA
ATOM     30  C2  902 d   1      44.935  15.081   1.446  0.00  0.00     0.091 A 
ATOM     31  C3  902 d   1      45.782  14.840   2.538  0.00  0.00     0.109 A 
ATOM     32  C4  902 d   1      46.361  13.547   2.538  0.00  0.00     0.063 A 
ATOM     33 BR19 902 d   1      47.554  12.935   3.888  0.00  0.00    -0.047 Br
BRANCH  30  34
ATOM     34  C6  902 d   1      44.187  16.318   1.149  0.00  0.00     0.207 A 
ATOM     35  N7  902 d   1      43.704  16.598  -0.087  0.00  0.00    -0.138 NA
ATOM     36  N62 902 d   1      43.070  17.798  -0.031  0.00  0.00    -0.200 N 
ATOM     37  N61 902 d   1      43.163  18.260   1.249  0.00  0.00     0.022 NA
ATOM     38  H24 902 d   1      42.602  18.274  -0.815  0.00  0.00     0.208 HD
ATOM     39  N8  902 d   1      43.852  17.343   1.975  0.00  0.00    -0.135 NA
ENDBRANCH  30  34
BRANCH  31  40
ATOM     40  O20 902 d   1      46.039  15.807   3.574  0.00  0.00    -0.338 OA
BRANCH  40  41
ATOM     41  C21 902 d   1      47.317  16.466   3.463  0.00  0.00     0.106 C 
ATOM     42  H5  902 d   1      47.274  17.180   2.628  0.00  0.00     0.091 H 
ATOM     43  H6  902 d   1      48.087  15.708   3.258  0.00  0.00     0.091 H 
BRANCH  41  44
ATOM     44  C22 902 d   1      47.704  17.229   4.746  0.00  0.00     0.198 C 
ATOM     45  O25 902 d   1      46.934  17.273   5.705  0.00  0.00    -0.646 OA
ATOM     46  O26 902 d   1      48.795  17.789   4.782  0.00  0.00    -0.646 OA
ENDBRANCH  41  44
ENDBRANCH  40  41
ENDBRANCH  31  40
ENDBRANCH  20  28
ENDBRANCH  16  18
ENDBRANCH   1  16
BRANCH   4  47
ATOM     47  S44 902 d   1      51.468   5.105   4.545  0.00  0.00     0.232 S 
ATOM     48  O45 902 d   1      50.680   5.225   5.732  0.00  0.00    -0.205 OA
ATOM     49  O46 902 d   1      52.862   5.492   4.634  0.00  0.00    -0.205 OA
BRANCH  47  50
ATOM     50  C47 902 d   1      51.421   3.393   4.057  0.00  0.00     0.070 C 
ATOM     51  H17 902 d   1      52.041   3.261   3.158  0.00  0.00     0.066 H 
ATOM     52  H18 902 d   1      50.381   3.116   3.829  0.00  0.00     0.066 H 
BRANCH  50  53
ATOM     53  C48 902 d   1      51.942   2.485   5.149  0.00  0.00    -0.043 A 
ATOM     54  C51 902 d   1      51.021   1.975   6.127  0.00  0.00    -0.076 A 
ATOM     55  C52 902 d   1      51.494   1.114   7.166  0.00  0.00    -0.082 A 
ATOM     56  H19 902 d   1      49.972   2.242   6.077  0.00  0.00     0.084 H 
ATOM     57  C53 902 d   1      52.889   0.772   7.214  0.00  0.00    -0.083 A 
ATOM     58  H20 902 d   1      50.808   0.724   7.909  0.00  0.00     0.083 H 
ATOM     59  C54 902 d   1      53.819   1.277   6.242  0.00  0.00    -0.082 A 
ATOM     60  H21 902 d   1      53.248   0.118   8.001  0.00  0.00     0.083 H 
ATOM     61  C55 902 d   1      53.341   2.140   5.201  0.00  0.00    -0.076 A 
ATOM     62  H22 902 d   1      54.868   1.009   6.295  0.00  0.00     0.083 H 
ATOM     63  H23 902 d   1      54.027   2.530   4.458  0.00  0.00     0.084 H 
ENDBRANCH  50  53
ENDBRANCH  47  50
ENDBRANCH   4  47
TORSDOF 10
