REMARK  2 active torsions:
REMARK  status: ('A' for Active; 'I' for Inactive)
REMARK    1  A    between atoms: C7_7  and  C4_4 
REMARK    2  A    between atoms: C9_10  and  N1_8 
ROOT
ATOM      1  C7  521 d   1      32.638 -30.633  -1.198  0.00  0.00     0.039 A 
ATOM      2  C9  521 d   1      34.033 -29.396  -2.693  0.00  0.00     0.076 A 
ATOM      3  C8  521 d   1      32.684 -29.801  -2.352  0.00  0.00     0.080 A 
ATOM      4  C10 521 d   1      34.929 -29.960  -1.799  0.00  0.00    -0.016 A 
ATOM      5  S1  521 d   1      34.224 -30.919  -0.597  0.00  0.00    -0.097 SA
ATOM      6 CL1  521 d   1      31.303 -29.336  -3.263  0.00  0.00    -0.080 Cl
ATOM      7  H7  521 d   1      36.004 -29.798  -1.865  0.00  0.00     0.098 H 
ENDROOT
BRANCH   1   8
ATOM      8  C4  521 d   1      31.508 -31.285  -0.454  0.00  0.00    -0.017 A 
ATOM      9  C3  521 d   1      31.689 -32.566   0.140  0.00  0.00    -0.072 A 
ATOM     10  C2  521 d   1      30.644 -33.195   0.863  0.00  0.00    -0.082 A 
ATOM     11  H3  521 d   1      32.643 -33.070   0.038  0.00  0.00     0.084 H 
ATOM     12  C1  521 d   1      29.388 -32.553   1.009  0.00  0.00    -0.083 A 
ATOM     13  H2  521 d   1      30.806 -34.171   1.306  0.00  0.00     0.083 H 
ATOM     14  C6  521 d   1      29.176 -31.274   0.432  0.00  0.00    -0.082 A 
ATOM     15  H1  521 d   1      28.591 -33.038   1.560  0.00  0.00     0.083 H 
ATOM     16  C5  521 d   1      30.224 -30.642  -0.295  0.00  0.00    -0.072 A 
ATOM     17  H5  521 d   1      28.218 -30.779   0.545  0.00  0.00     0.083 H 
ATOM     18  H4  521 d   1      30.056 -29.666  -0.735  0.00  0.00     0.084 H 
ENDBRANCH   1   8
BRANCH   2  19
ATOM     19  N1  521 d   1      34.457 -28.523  -3.748  0.00  0.00    -0.248 N 
ATOM     20  C11 521 d   1      34.482 -27.038  -3.631  0.00  0.00     0.086 A 
ATOM     21  C12 521 d   1      34.991 -26.473  -4.934  0.00  0.00     0.251 A 
ATOM     22  H8  521 d   1      35.150 -26.740  -2.809  0.00  0.00     0.080 H 
ATOM     23  H9  521 d   1      33.467 -26.663  -3.433  0.00  0.00     0.080 H 
ATOM     24  N2  521 d   1      35.279 -27.497  -5.857  0.00  0.00    -0.235 N 
ATOM     25  O1  521 d   1      35.132 -25.289  -5.160  0.00  0.00    -0.271 OA
ATOM     26  S2  521 d   1      34.986 -29.067  -5.294  0.00  0.00     0.328 S 
ATOM     27  H6  521 d   1      35.630 -27.311  -6.775  0.00  0.00     0.183 HD
ATOM     28  O2  521 d   1      36.256 -29.762  -5.166  0.00  0.00    -0.182 OA
ATOM     29  O3  521 d   1      33.873 -29.630  -6.037  0.00  0.00    -0.182 OA
ENDBRANCH   2  19
TORSDOF 2
