REMARK  4 active torsions:
REMARK  status: ('A' for Active; 'I' for Inactive)
REMARK    1  A    between atoms: C25_4  and  C27_5 
REMARK       I    between atoms: N5_13  and  C25_4 
REMARK    2  A    between atoms: C27_5  and  C28_6 
REMARK    3  A    between atoms: C28_6  and  N29_7 
REMARK       I    between atoms: N12_22  and  C13_23 
REMARK    4  A    between atoms: C13_23  and  C15_25 
ROOT
ATOM      1  C1  C0M d   1      23.132   5.896  31.013  0.00  0.00    -0.023 C 
ATOM      2  C2  C0M d   1      22.729   7.298  31.372  0.00  0.00    -0.018 A 
ATOM      3  O26 C0M d   1      26.917   7.610  28.784  0.00  0.00    -0.273 OA
ATOM      4  C25 C0M d   1      26.272   6.764  29.418  0.00  0.00     0.221 C 
ATOM      5  N5  C0M d   1      24.973   7.011  29.747  0.00  0.00    -0.347 N 
ATOM      6  C6  C0M d   1      23.983   5.931  29.756  0.00  0.00     0.002 C 
ATOM      7  C4  C0M d   1      24.508   8.417  29.819  0.00  0.00     0.028 C 
ATOM      8  C3  C0M d   1      23.428   8.470  30.853  0.00  0.00     0.011 A 
ATOM      9  S9  C0M d   1      22.806   9.957  31.469  0.00  0.00    -0.073 SA
ATOM     10  C8  C0M d   1      21.601   9.212  32.455  0.00  0.00     0.098 A 
ATOM     11  C7  C0M d   1      21.717   7.751  32.321  0.00  0.00     0.086 A 
ATOM     12  C10 C0M d   1      21.036   6.775  32.921  0.00  0.00     0.103 C 
ATOM     13  N11 C0M d   1      20.435   5.953  33.428  0.00  0.00    -0.191 NA
ATOM     14  N12 C0M d   1      20.765   9.831  33.242  0.00  0.00    -0.316 N 
ATOM     15  C13 C0M d   1      20.762  11.162  33.491  0.00  0.00     0.257 C 
ATOM     16  O14 C0M d   1      21.359  11.990  32.853  0.00  0.00    -0.267 OA
ATOM     17  H1  C0M d   1      22.233   5.289  30.832  0.00  0.00     0.042 H 
ATOM     18  H2  C0M d   1      23.712   5.456  31.838  0.00  0.00     0.042 H 
ATOM     19  H18 C0M d   1      23.318   6.062  28.890  0.00  0.00     0.064 H 
ATOM     20  H19 C0M d   1      24.514   4.972  29.669  0.00  0.00     0.064 H 
ATOM     21  H20 C0M d   1      24.112   8.734  28.843  0.00  0.00     0.072 H 
ATOM     22  H21 C0M d   1      25.340   9.075  30.108  0.00  0.00     0.072 H 
ATOM     23  H22 C0M d   1      20.069   9.277  33.699  0.00  0.00     0.169 HD
ENDROOT
BRANCH  15  24
ATOM     24  C15 C0M d   1      19.859  11.517  34.621  0.00  0.00     0.043 A 
ATOM     25  C20 C0M d   1      19.873  10.756  35.805  0.00  0.00    -0.067 A 
ATOM     26  C19 C0M d   1      18.985  11.033  36.834  0.00  0.00    -0.081 A 
ATOM     27  H23 C0M d   1      20.585   9.946  35.914  0.00  0.00     0.085 H 
ATOM     28  C18 C0M d   1      18.039  12.035  36.723  0.00  0.00    -0.072 A 
ATOM     29  H24 C0M d   1      19.034  10.450  37.747  0.00  0.00     0.083 H 
ATOM     30  C17 C0M d   1      17.930  12.817  35.570  0.00  0.00    -0.025 A 
ATOM     31  H25 C0M d   1      17.365  12.219  37.551  0.00  0.00     0.084 H 
ATOM     32  C16 C0M d   1      18.855  12.592  34.444  0.00  0.00    -0.010 A 
ATOM     33  C24 C0M d   1      16.989  13.841  35.461  0.00  0.00    -0.072 A 
ATOM     34  C21 C0M d   1      18.772  13.380  33.294  0.00  0.00    -0.071 A 
ATOM     35  C22 C0M d   1      17.820  14.374  33.236  0.00  0.00    -0.082 A 
ATOM     36  H26 C0M d   1      19.445  13.212  32.461  0.00  0.00     0.084 H 
ATOM     37  C23 C0M d   1      16.919  14.598  34.300  0.00  0.00    -0.082 A 
ATOM     38  H27 C0M d   1      17.761  14.999  32.352  0.00  0.00     0.083 H 
ATOM     39  H28 C0M d   1      16.164  15.370  34.209  0.00  0.00     0.083 H 
ATOM     40  H29 C0M d   1      16.313  14.045  36.283  0.00  0.00     0.084 H 
ENDBRANCH  15  24
BRANCH   4  41
ATOM     41  C27 C0M d   1      26.905   5.446  29.901  0.00  0.00     0.032 C 
ATOM     42  H3  C0M d   1      26.092   4.729  30.089  0.00  0.00     0.049 H 
ATOM     43  H4  C0M d   1      27.437   5.651  30.841  0.00  0.00     0.049 H 
BRANCH  41  44
ATOM     44  C28 C0M d   1      27.902   4.787  28.926  0.00  0.00     0.091 C 
ATOM     45  H5  C0M d   1      27.389   4.576  27.976  0.00  0.00     0.076 H 
ATOM     46  H6  C0M d   1      28.264   3.845  29.365  0.00  0.00     0.076 H 
BRANCH  44  47
ATOM     47  N29 C0M d   1      29.054   5.669  28.664  0.00  0.00    -0.071 N 
ATOM     48  C34 C0M d   1      30.004   5.623  29.779  0.00  0.00     0.084 C 
ATOM     49  C33 C0M d   1      31.020   6.747  29.555  0.00  0.00    -0.042 C 
ATOM     50  H8  C0M d   1      30.517   4.650  29.797  0.00  0.00     0.076 H 
ATOM     51  H9  C0M d   1      29.475   5.777  30.731  0.00  0.00     0.076 H 
ATOM     52  C32 C0M d   1      31.772   6.545  28.239  0.00  0.00    -0.062 C 
ATOM     53  H10 C0M d   1      31.741   6.752  30.385  0.00  0.00     0.035 H 
ATOM     54  H11 C0M d   1      30.491   7.711  29.523  0.00  0.00     0.035 H 
ATOM     55  C31 C0M d   1      30.806   6.291  27.086  0.00  0.00    -0.042 C 
ATOM     56  H12 C0M d   1      32.446   5.681  28.340  0.00  0.00     0.033 H 
ATOM     57  H13 C0M d   1      32.362   7.447  28.021  0.00  0.00     0.033 H 
ATOM     58  C30 C0M d   1      29.756   5.233  27.447  0.00  0.00     0.084 C 
ATOM     59  H14 C0M d   1      31.377   5.943  26.213  0.00  0.00     0.035 H 
ATOM     60  H15 C0M d   1      30.293   7.232  26.837  0.00  0.00     0.035 H 
ATOM     61  H16 C0M d   1      29.037   5.127  26.621  0.00  0.00     0.076 H 
ATOM     62  H17 C0M d   1      30.250   4.267  27.629  0.00  0.00     0.076 H 
ATOM     63  H7  C0M d   1      28.724   6.614  28.543  0.00  0.00     0.279 HD
ENDBRANCH  44  47
ENDBRANCH  41  44
ENDBRANCH   4  41
TORSDOF 4
