REMARK  12 active torsions:
REMARK  status: ('A' for Active; 'I' for Inactive)
REMARK    1  A    between atoms: O3_1  and  C25_2 
REMARK    2  A    between atoms: C25_2  and  C26_3 
REMARK    3  A    between atoms: C25_2  and  C27_4 
REMARK    4  A    between atoms: C25_2  and  C24_5 
REMARK    5  A    between atoms: C24_5  and  C23_6 
REMARK    6  A    between atoms: C23_6  and  C22_7 
REMARK    7  A    between atoms: C22_7  and  C20_8 
REMARK    8  A    between atoms: C20_8  and  C21_9 
REMARK    9  A    between atoms: C13_11  and  C18_12 
REMARK   10  A    between atoms: C7_20  and  C6_21 
REMARK   11  A    between atoms: C1_24  and  O1_25 
REMARK   12  A    between atoms: C3_27  and  O2_28 
ROOT
ATOM      1  C20 VD4 d   1      62.290   1.145  -6.736  0.00  0.00    -0.081 C 
ATOM      2  C17 VD4 d   1      61.605   2.055  -5.973  0.00  0.00    -0.069 C 
ATOM      3  C13 VD4 d   1      62.081   3.384  -5.416  0.00  0.00    -0.013 C 
ATOM      4  C12 VD4 d   1      62.752   4.378  -6.379  0.00  0.00    -0.054 C 
ATOM      5  C11 VD4 d   1      62.901   5.798  -5.740  0.00  0.00    -0.061 C 
ATOM      6  C9  VD4 d   1      61.556   6.318  -5.195  0.00  0.00    -0.044 C 
ATOM      7  C16 VD4 d   1      60.173   1.758  -5.527  0.00  0.00    -0.043 C 
ATOM      8  C15 VD4 d   1      59.829   2.821  -4.470  0.00  0.00    -0.054 C 
ATOM      9  C14 VD4 d   1      60.680   3.933  -5.093  0.00  0.00    -0.021 C 
ATOM     10  C8  VD4 d   1      60.906   5.225  -4.341  0.00  0.00    -0.075 C 
ATOM     11  C7  VD4 d   1      60.634   5.370  -3.016  0.00  0.00    -0.080 C 
ATOM     12  H20 VD4 d   1      62.140   4.460  -7.289  0.00  0.00     0.034 H 
ATOM     13  H21 VD4 d   1      63.751   4.000  -6.642  0.00  0.00     0.034 H 
ATOM     14  H22 VD4 d   1      63.270   6.497  -6.505  0.00  0.00     0.033 H 
ATOM     15  H23 VD4 d   1      63.624   5.743  -4.913  0.00  0.00     0.033 H 
ATOM     16  H24 VD4 d   1      60.892   6.573  -6.034  0.00  0.00     0.039 H 
ATOM     17  H25 VD4 d   1      61.729   7.213  -4.579  0.00  0.00     0.039 H 
ATOM     18  H26 VD4 d   1      60.110   0.750  -5.090  0.00  0.00     0.039 H 
ATOM     19  H27 VD4 d   1      59.484   1.831  -6.381  0.00  0.00     0.039 H 
ATOM     20  H28 VD4 d   1      60.164   2.542  -3.460  0.00  0.00     0.034 H 
ATOM     21  H29 VD4 d   1      58.757   3.067  -4.446  0.00  0.00     0.034 H 
ATOM     22  H30 VD4 d   1      60.180   4.202  -6.035  0.00  0.00     0.048 H 
ATOM     23  H31 VD4 d   1      60.229   4.513  -2.481  0.00  0.00     0.083 H 
ENDROOT
BRANCH   1  24
ATOM     24  C22 VD4 d   1      63.735   1.292  -7.199  0.00  0.00    -0.044 C 
ATOM     25  H12 VD4 d   1      63.769   1.355  -8.297  0.00  0.00     0.039 H 
ATOM     26  H13 VD4 d   1      64.173   2.203  -6.766  0.00  0.00     0.039 H 
BRANCH  24  27
ATOM     27  C23 VD4 d   1      64.527   0.053  -6.721  0.00  0.00    -0.059 C 
ATOM     28  H10 VD4 d   1      64.391  -0.035  -5.633  0.00  0.00     0.033 H 
ATOM     29  H11 VD4 d   1      64.101  -0.832  -7.217  0.00  0.00     0.033 H 
BRANCH  27  30
ATOM     30  C24 VD4 d   1      66.045   0.071  -7.008  0.00  0.00    -0.037 C 
ATOM     31  H8  VD4 d   1      66.195   0.332  -8.066  0.00  0.00     0.037 H 
ATOM     32  H9  VD4 d   1      66.510   0.838  -6.372  0.00  0.00     0.037 H 
BRANCH  30  33
ATOM     33  C25 VD4 d   1      66.739  -1.269  -6.736  0.00  0.00     0.051 C 
BRANCH  33  34
ATOM     34  O3  VD4 d   1      66.078  -2.252  -7.503  0.00  0.00    -0.391 OA
ATOM     35  H1  VD4 d   1      66.113  -2.012  -8.421  0.00  0.00     0.210 HD
ENDBRANCH  33  34
BRANCH  33  36
ATOM     36  C26 VD4 d   1      68.170  -1.249  -7.255  0.00  0.00    -0.048 C 
ATOM     37  H2  VD4 d   1      68.751  -0.499  -6.699  0.00  0.00     0.031 H 
ATOM     38  H3  VD4 d   1      68.169  -0.992  -8.325  0.00  0.00     0.031 H 
ATOM     39  H4  VD4 d   1      68.624  -2.241  -7.117  0.00  0.00     0.031 H 
ENDBRANCH  33  36
BRANCH  33  40
ATOM     40  C27 VD4 d   1      66.717  -1.654  -5.252  0.00  0.00    -0.048 C 
ATOM     41  H5  VD4 d   1      67.235  -0.881  -4.665  0.00  0.00     0.031 H 
ATOM     42  H6  VD4 d   1      67.226  -2.620  -5.116  0.00  0.00     0.031 H 
ATOM     43  H7  VD4 d   1      65.675  -1.737  -4.910  0.00  0.00     0.031 H 
ENDBRANCH  33  40
ENDBRANCH  30  33
ENDBRANCH  27  30
ENDBRANCH  24  27
ENDBRANCH   1  24
BRANCH   1  44
ATOM     44  C21 VD4 d   1      61.561  -0.103  -7.151  0.00  0.00    -0.054 C 
ATOM     45  H14 VD4 d   1      60.536  -0.079  -6.752  0.00  0.00     0.033 H 
ATOM     46  H15 VD4 d   1      62.088  -0.984  -6.756  0.00  0.00     0.033 H 
ATOM     47  H16 VD4 d   1      61.526  -0.159  -8.249  0.00  0.00     0.033 H 
ENDBRANCH   1  44
BRANCH   3  48
ATOM     48  C18 VD4 d   1      62.979   3.133  -4.173  0.00  0.00    -0.065 C 
ATOM     49  H17 VD4 d   1      63.955   2.744  -4.498  0.00  0.00     0.028 H 
ATOM     50  H18 VD4 d   1      62.494   2.400  -3.512  0.00  0.00     0.028 H 
ATOM     51  H19 VD4 d   1      63.124   4.078  -3.629  0.00  0.00     0.028 H 
ENDBRANCH   3  48
BRANCH  11  52
ATOM     52  C6  VD4 d   1      60.857   6.634  -2.250  0.00  0.00    -0.080 C 
ATOM     53  C5  VD4 d   1      61.185   6.715  -0.931  0.00  0.00    -0.074 C 
ATOM     54  C10 VD4 d   1      61.414   5.471  -0.063  0.00  0.00    -0.017 C 
ATOM     55  C4  VD4 d   1      61.362   8.074  -0.273  0.00  0.00    -0.017 C 
ATOM     56  C1  VD4 d   1      60.739   5.608   1.316  0.00  0.00     0.062 C 
ATOM     57  H33 VD4 d   1      62.495   5.331   0.082  0.00  0.00     0.043 H 
ATOM     58  H34 VD4 d   1      60.996   4.594  -0.579  0.00  0.00     0.043 H 
ATOM     59  C2  VD4 d   1      61.143   6.902   1.936  0.00  0.00    -0.032 C 
ATOM     60  H35 VD4 d   1      59.648   5.611   1.172  0.00  0.00     0.090 H 
ATOM     61  C3  VD4 d   1      60.752   8.116   1.138  0.00  0.00     0.062 C 
ATOM     62  C28 VD4 d   1      61.769   7.041   3.093  0.00  0.00    -0.114 C 
ATOM     63  H39 VD4 d   1      61.114   9.018   1.653  0.00  0.00     0.090 H 
ATOM     64  H41 VD4 d   1      62.051   6.161   3.669  0.00  0.00     0.067 H 
ATOM     65  H42 VD4 d   1      62.002   8.036   3.470  0.00  0.00     0.067 H 
ATOM     66  H37 VD4 d   1      60.870   8.836  -0.895  0.00  0.00     0.043 H 
ATOM     67  H38 VD4 d   1      62.437   8.296  -0.202  0.00  0.00     0.043 H 
ATOM     68  H32 VD4 d   1      60.748   7.571  -2.794  0.00  0.00     0.083 H 
BRANCH  56  69
ATOM     69  O1  VD4 d   1      61.080   4.499   2.193  0.00  0.00    -0.391 OA
ATOM     70  H36 VD4 d   1      62.021   4.476   2.321  0.00  0.00     0.210 HD
ENDBRANCH  56  69
BRANCH  61  71
ATOM     71  O2  VD4 d   1      59.312   8.158   1.058  0.00  0.00    -0.391 OA
ATOM     72  H40 VD4 d   1      58.948   8.184   1.935  0.00  0.00     0.210 HD
ENDBRANCH  61  71
ENDBRANCH  11  52
TORSDOF 12
