REMARK  27 active torsions:
REMARK  status: ('A' for Active; 'I' for Inactive)
REMARK    1  A    between atoms: CAA_1  and  OBI_2 
REMARK    2  A    between atoms: OBI_2  and  CBK_3 
REMARK       I    between atoms: CBK_3  and  N_5 
REMARK    3  A    between atoms: N_5  and  CA_6 
REMARK    4  A    between atoms: CA_6  and  CB_7 
REMARK    5  A    between atoms: CA_6  and  C_11 
REMARK    6  A    between atoms: CB_7  and  CAE_8 
REMARK    7  A    between atoms: CB_7  and  CG2_9 
REMARK    8  A    between atoms: CB_7  and  CG1_10 
REMARK       I    between atoms: C_11  and  NBG_13 
REMARK    9  A    between atoms: NBG_13  and  CBT_14 
REMARK   10  A    between atoms: CBT_14  and  CBA_15 
REMARK   11  A    between atoms: CBT_14  and  CBS_22 
REMARK   12  A    between atoms: CBA_15  and  CBO_16 
REMARK   13  A    between atoms: CBS_22  and  OAM_23 
REMARK   14  A    between atoms: CBS_22  and  CBC_24 
REMARK   15  A    between atoms: CBC_24  and  NBW_25 
REMARK   16  A    between atoms: NBW_25  and  NBH_26 
REMARK   17  A    between atoms: NBW_25  and  CBB_39 
REMARK       I    between atoms: NBH_26  and  CBN_27 
REMARK   18  A    between atoms: CBN_27  and  CBV_29 
REMARK   19  A    between atoms: CBV_29  and  CBY_30 
REMARK   20  A    between atoms: CBV_29  and  NBF_34 
REMARK   21  A    between atoms: CBY_30  and  CAH_31 
REMARK   22  A    between atoms: CBY_30  and  CAF_32 
REMARK   23  A    between atoms: CBY_30  and  CAG_33 
REMARK       I    between atoms: NBF_34  and  CBL_35 
REMARK   24  A    between atoms: CBL_35  and  OBJ_37 
REMARK   25  A    between atoms: OBJ_37  and  CAB_38 
REMARK   26  A    between atoms: CBB_39  and  CBP_40 
REMARK   27  A    between atoms: CBQ_45  and  CBR_46 
ROOT
ATOM      1  NBW DR7 d   1      12.024  19.158  19.051  0.00  0.00     0.017 N 
ATOM      2  H28 DR7 d   1      11.752  19.976  18.529  0.00  0.00     0.309 HD
ENDROOT
BRANCH   1   3
ATOM      3  CBC DR7 d   1      13.427  19.510  18.999  0.00  0.00     0.130 C 
ATOM      4  H26 DR7 d   1      13.511  20.607  18.995  0.00  0.00     0.083 H 
ATOM      5  H27 DR7 d   1      13.921  19.107  19.895  0.00  0.00     0.083 H 
BRANCH   3   6
ATOM      6  CBS DR7 d   1      14.130  18.975  17.788  0.00  0.00     0.080 C 
ATOM      7  H24 DR7 d   1      13.505  18.236  17.265  0.00  0.00     0.088 H 
BRANCH   6   8
ATOM      8  CBT DR7 d   1      14.353  20.186  16.883  0.00  0.00     0.042 C 
ATOM      9  H16 DR7 d   1      13.393  20.659  16.627  0.00  0.00     0.077 H 
BRANCH   8  10
ATOM     10  NBG DR7 d   1      15.236  21.133  17.581  0.00  0.00    -0.352 N 
ATOM     11  C   DR7 d   1      14.946  22.434  17.832  0.00  0.00     0.241 C 
ATOM     12  O   DR7 d   1      13.895  22.988  17.501  0.00  0.00    -0.271 OA
ATOM     13  H15 DR7 d   1      16.121  20.790  17.896  0.00  0.00     0.163 HD
BRANCH  11  14
ATOM     14  CA  DR7 d   1      16.055  23.211  18.518  0.00  0.00     0.097 C 
ATOM     15  H5  DR7 d   1      16.757  22.481  18.948  0.00  0.00     0.088 H 
BRANCH  14  16
ATOM     16  N   DR7 d   1      16.742  23.959  17.470  0.00  0.00    -0.323 N 
ATOM     17  CBK DR7 d   1      18.066  23.990  17.330  0.00  0.00     0.360 C 
ATOM     18  OAI DR7 d   1      18.857  23.404  18.064  0.00  0.00    -0.239 OA
ATOM     19  H4  DR7 d   1      16.187  24.478  16.820  0.00  0.00     0.165 HD
BRANCH  17  20
ATOM     20  OBI DR7 d   1      18.601  24.768  16.244  0.00  0.00    -0.309 OA
BRANCH  20  21
ATOM     21  CAA DR7 d   1      19.996  24.642  15.940  0.00  0.00     0.015 C 
ATOM     22  H1  DR7 d   1      20.247  25.296  15.092  0.00  0.00     0.067 H 
ATOM     23  H2  DR7 d   1      20.221  23.598  15.677  0.00  0.00     0.067 H 
ATOM     24  H3  DR7 d   1      20.590  24.936  16.818  0.00  0.00     0.067 H 
ENDBRANCH  20  21
ENDBRANCH  17  20
ENDBRANCH  14  16
BRANCH  14  25
ATOM     25  CB  DR7 d   1      15.622  24.141  19.669  0.00  0.00    -0.022 C 
BRANCH  25  26
ATOM     26  CAE DR7 d   1      14.851  25.362  19.155  0.00  0.00    -0.067 C 
ATOM     27  H6  DR7 d   1      14.562  25.997  20.005  0.00  0.00     0.028 H 
ATOM     28  H7  DR7 d   1      13.948  25.028  18.623  0.00  0.00     0.028 H 
ATOM     29  H8  DR7 d   1      15.490  25.937  18.468  0.00  0.00     0.028 H 
ENDBRANCH  25  26
BRANCH  25  30
ATOM     30  CG2 DR7 d   1      14.780  23.376  20.693  0.00  0.00    -0.067 C 
ATOM     31  H9  DR7 d   1      15.345  22.503  21.053  0.00  0.00     0.028 H 
ATOM     32  H10 DR7 d   1      13.845  23.039  20.221  0.00  0.00     0.028 H 
ATOM     33  H11 DR7 d   1      14.545  24.036  21.541  0.00  0.00     0.028 H 
ENDBRANCH  25  30
BRANCH  25  34
ATOM     34  CG1 DR7 d   1      16.836  24.695  20.406  0.00  0.00    -0.067 C 
ATOM     35  H12 DR7 d   1      17.469  25.254  19.701  0.00  0.00     0.028 H 
ATOM     36  H13 DR7 d   1      17.413  23.864  20.838  0.00  0.00     0.028 H 
ATOM     37  H14 DR7 d   1      16.502  25.366  21.210  0.00  0.00     0.028 H 
ENDBRANCH  25  34
ENDBRANCH  14  25
ENDBRANCH  11  14
ENDBRANCH   8  10
BRANCH   8  38
ATOM     38  CBA DR7 d   1      15.091  19.731  15.619  0.00  0.00    -0.020 C 
ATOM     39  H17 DR7 d   1      14.423  19.095  15.020  0.00  0.00     0.043 H 
ATOM     40  H18 DR7 d   1      15.983  19.156  15.908  0.00  0.00     0.043 H 
BRANCH  38  41
ATOM     41  CBO DR7 d   1      15.516  20.926  14.790  0.00  0.00    -0.056 A 
ATOM     42  CAT DR7 d   1      14.553  21.611  14.039  0.00  0.00    -0.077 A 
ATOM     43  CAP DR7 d   1      14.939  22.712  13.272  0.00  0.00    -0.082 A 
ATOM     44  H19 DR7 d   1      13.518  21.290  14.053  0.00  0.00     0.084 H 
ATOM     45  CAN DR7 d   1      16.272  23.133  13.248  0.00  0.00    -0.083 A 
ATOM     46  H20 DR7 d   1      14.197  23.246  12.689  0.00  0.00     0.083 H 
ATOM     47  CAQ DR7 d   1      17.234  22.449  13.991  0.00  0.00    -0.082 A 
ATOM     48  H21 DR7 d   1      16.558  23.992  12.652  0.00  0.00     0.083 H 
ATOM     49  CAU DR7 d   1      16.853  21.345  14.757  0.00  0.00    -0.077 A 
ATOM     50  H22 DR7 d   1      18.269  22.772  13.974  0.00  0.00     0.083 H 
ATOM     51  H23 DR7 d   1      17.599  20.807  15.331  0.00  0.00     0.084 H 
ENDBRANCH  38  41
ENDBRANCH   8  38
ENDBRANCH   6   8
BRANCH   6  52
ATOM     52  OAM DR7 d   1      15.343  18.335  18.238  0.00  0.00    -0.392 OA
ATOM     53  H25 DR7 d   1      15.123  17.596  18.792  0.00  0.00     0.210 HD
ENDBRANCH   6  52
ENDBRANCH   3   6
ENDBRANCH   1   3
BRANCH   1  54
ATOM     54  NBH DR7 d   1      11.268  18.319  18.171  0.00  0.00    -0.184 N 
ATOM     55  CBN DR7 d   1      10.507  18.627  17.113  0.00  0.00     0.265 C 
ATOM     56  OAL DR7 d   1      10.338  19.745  16.632  0.00  0.00    -0.269 OA
ATOM     57  H29 DR7 d   1      11.316  17.343  18.381  0.00  0.00     0.197 HD
BRANCH  55  58
ATOM     58  CBV DR7 d   1       9.791  17.426  16.544  0.00  0.00     0.099 C 
ATOM     59  H30 DR7 d   1      10.286  16.530  16.948  0.00  0.00     0.088 H 
BRANCH  58  60
ATOM     60  CBY DR7 d   1       9.822  17.283  15.016  0.00  0.00    -0.022 C 
BRANCH  60  61
ATOM     61  CAH DR7 d   1      11.262  17.420  14.527  0.00  0.00    -0.067 C 
ATOM     62  H31 DR7 d   1      11.289  17.318  13.432  0.00  0.00     0.028 H 
ATOM     63  H32 DR7 d   1      11.881  16.633  14.984  0.00  0.00     0.028 H 
ATOM     64  H33 DR7 d   1      11.654  18.407  14.813  0.00  0.00     0.028 H 
ENDBRANCH  60  61
BRANCH  60  65
ATOM     65  CAF DR7 d   1       9.319  15.895  14.626  0.00  0.00    -0.067 C 
ATOM     66  H34 DR7 d   1       8.281  15.772  14.968  0.00  0.00     0.028 H 
ATOM     67  H35 DR7 d   1       9.954  15.130  15.096  0.00  0.00     0.028 H 
ATOM     68  H36 DR7 d   1       9.360  15.784  13.532  0.00  0.00     0.028 H 
ENDBRANCH  60  65
BRANCH  60  69
ATOM     69  CAG DR7 d   1       8.946  18.306  14.299  0.00  0.00    -0.067 C 
ATOM     70  H37 DR7 d   1       9.281  19.321  14.558  0.00  0.00     0.028 H 
ATOM     71  H38 DR7 d   1       7.899  18.175  14.611  0.00  0.00     0.028 H 
ATOM     72  H39 DR7 d   1       9.026  18.160  13.212  0.00  0.00     0.028 H 
ENDBRANCH  60  69
ENDBRANCH  58  60
BRANCH  58  73
ATOM     73  NBF DR7 d   1       8.416  17.460  17.061  0.00  0.00    -0.323 N 
ATOM     74  CBL DR7 d   1       7.866  16.421  17.696  0.00  0.00     0.360 C 
ATOM     75  OAJ DR7 d   1       8.437  15.341  17.926  0.00  0.00    -0.239 OA
ATOM     76  H40 DR7 d   1       7.873  18.290  16.933  0.00  0.00     0.165 HD
BRANCH  74  77
ATOM     77  OBJ DR7 d   1       6.512  16.608  18.149  0.00  0.00    -0.309 OA
BRANCH  77  78
ATOM     78  CAB DR7 d   1       5.914  15.625  18.993  0.00  0.00     0.015 C 
ATOM     79  H41 DR7 d   1       4.886  15.929  19.239  0.00  0.00     0.067 H 
ATOM     80  H42 DR7 d   1       6.500  15.531  19.919  0.00  0.00     0.067 H 
ATOM     81  H43 DR7 d   1       5.895  14.657  18.472  0.00  0.00     0.067 H 
ENDBRANCH  77  78
ENDBRANCH  74  77
ENDBRANCH  58  73
ENDBRANCH  55  58
ENDBRANCH   1  54
BRANCH   1  82
ATOM     82  CBB DR7 d   1      11.427  19.617  20.309  0.00  0.00     0.128 C 
ATOM     83  H44 DR7 d   1      11.845  20.605  20.554  0.00  0.00     0.086 H 
ATOM     84  H45 DR7 d   1      11.689  18.901  21.102  0.00  0.00     0.086 H 
BRANCH  82  85
ATOM     85  CBP DR7 d   1       9.924  19.734  20.245  0.00  0.00    -0.030 A 
ATOM     86  CAW DR7 d   1       9.395  20.970  19.905  0.00  0.00    -0.074 A 
ATOM     87  CAY DR7 d   1       8.015  21.130  19.837  0.00  0.00    -0.070 A 
ATOM     88  H46 DR7 d   1      10.052  21.806  19.694  0.00  0.00     0.084 H 
ATOM     89  CBQ DR7 d   1       7.157  20.063  20.109  0.00  0.00    -0.007 A 
ATOM     90  H47 DR7 d   1       7.601  22.095  19.570  0.00  0.00     0.084 H 
ATOM     91  CAZ DR7 d   1       7.701  18.821  20.447  0.00  0.00    -0.070 A 
ATOM     92  CAX DR7 d   1       9.089  18.656  20.526  0.00  0.00    -0.074 A 
ATOM     93  H49 DR7 d   1       7.045  17.982  20.649  0.00  0.00     0.084 H 
ATOM     94  H48 DR7 d   1       9.510  17.697  20.804  0.00  0.00     0.084 H 
BRANCH  89  95
ATOM     95  CBR DR7 d   1       5.673  20.245  20.008  0.00  0.00     0.066 A 
ATOM     96  CAV DR7 d   1       5.141  21.127  19.061  0.00  0.00    -0.054 A 
ATOM     97  CAR DR7 d   1       3.759  21.281  18.969  0.00  0.00    -0.079 A 
ATOM     98  H50 DR7 d   1       5.798  21.686  18.404  0.00  0.00     0.087 H 
ATOM     99  CAO DR7 d   1       2.935  20.549  19.822  0.00  0.00    -0.066 A 
ATOM    100  H51 DR7 d   1       3.330  21.962  18.243  0.00  0.00     0.083 H 
ATOM    101  CAS DR7 d   1       3.503  19.677  20.751  0.00  0.00     0.003 A 
ATOM    102  H52 DR7 d   1       1.858  20.657  19.764  0.00  0.00     0.085 H 
ATOM    103  NBD DR7 d   1       4.838  19.549  20.824  0.00  0.00    -0.260 NA
ATOM    104  H53 DR7 d   1       2.867  19.102  21.414  0.00  0.00     0.114 H 
ENDBRANCH  89  95
ENDBRANCH  82  85
ENDBRANCH   1  82
TORSDOF 27
