REMARK  15 active torsions:
REMARK  status: ('A' for Active; 'I' for Inactive)
REMARK    1  A    between atoms: C3_3  and  C20_20 
REMARK    2  A    between atoms: C4_4  and  O8_8 
REMARK    3  A    between atoms: C6_6  and  C9_9 
REMARK    4  A    between atoms: C6_6  and  C12_12 
REMARK    5  A    between atoms: C9_9  and  C10_10 
REMARK    6  A    between atoms: C10_10  and  C11_11 
REMARK    7  A    between atoms: C12_12  and  C13_13 
REMARK    8  A    between atoms: C13_13  and  C14_14 
REMARK    9  A    between atoms: C20_20  and  C21_21 
REMARK   10  A    between atoms: C20_20  and  C23_23 
REMARK   11  A    between atoms: C21_21  and  C22_22 
REMARK   12  A    between atoms: C27_27  and  N28_28 
REMARK   13  A    between atoms: N28_28  and  S30_30 
REMARK   14  A    between atoms: S30_30  and  C33_33 
REMARK   15  A    between atoms: C36_36  and  C39_39 
ROOT
ATOM      1  O1  TPV d   1     -16.088  22.046  17.064  0.00  0.00    -0.306 OA
ATOM      2  C2  TPV d   1     -17.305  21.308  17.250  0.00  0.00     0.293 C 
ATOM      3  C3  TPV d   1     -17.257  19.970  17.844  0.00  0.00     0.055 C 
ATOM      4  C4  TPV d   1     -16.041  19.414  18.092  0.00  0.00     0.059 C 
ATOM      5  C5  TPV d   1     -14.745  20.129  17.751  0.00  0.00     0.009 C 
ATOM      6  C6  TPV d   1     -14.858  21.654  17.683  0.00  0.00     0.077 C 
ATOM      7  O7  TPV d   1     -18.321  21.864  16.875  0.00  0.00    -0.259 OA
ATOM      8  H1  TPV d   1     -14.400  19.766  16.771  0.00  0.00     0.047 H 
ATOM      9  H2  TPV d   1     -14.000  19.874  18.519  0.00  0.00     0.047 H 
ENDROOT
BRANCH   3  10
ATOM     10  C20 TPV d   1     -18.593  19.274  18.076  0.00  0.00     0.005 C 
ATOM     11  H20 TPV d   1     -19.344  20.074  18.160  0.00  0.00     0.055 H 
BRANCH  10  12
ATOM     12  C21 TPV d   1     -18.686  18.468  19.385  0.00  0.00    -0.057 C 
ATOM     13  H21 TPV d   1     -17.875  17.725  19.390  0.00  0.00     0.033 H 
ATOM     14  H22 TPV d   1     -19.657  17.951  19.403  0.00  0.00     0.033 H 
BRANCH  12  15
ATOM     15  C22 TPV d   1     -18.571  19.306  20.644  0.00  0.00    -0.076 C 
ATOM     16  H23 TPV d   1     -18.648  18.654  21.527  0.00  0.00     0.027 H 
ATOM     17  H24 TPV d   1     -19.382  20.049  20.666  0.00  0.00     0.027 H 
ATOM     18  H25 TPV d   1     -17.600  19.823  20.653  0.00  0.00     0.027 H 
ENDBRANCH  12  15
ENDBRANCH  10  12
BRANCH  10  19
ATOM     19  C23 TPV d   1     -18.978  18.439  16.878  0.00  0.00    -0.047 A 
ATOM     20  C24 TPV d   1     -18.034  18.009  15.941  0.00  0.00    -0.076 A 
ATOM     21  C25 TPV d   1     -18.425  17.243  14.846  0.00  0.00    -0.080 A 
ATOM     22  H26 TPV d   1     -16.991  18.274  16.068  0.00  0.00     0.084 H 
ATOM     23  C26 TPV d   1     -19.759  16.895  14.673  0.00  0.00    -0.057 A 
ATOM     24  H27 TPV d   1     -17.685  16.916  14.125  0.00  0.00     0.083 H 
ATOM     25  C27 TPV d   1     -20.719  17.300  15.593  0.00  0.00     0.043 A 
ATOM     26  H28 TPV d   1     -20.053  16.303  13.814  0.00  0.00     0.086 H 
ATOM     27  C29 TPV d   1     -20.321  18.074  16.687  0.00  0.00    -0.050 A 
ATOM     28  H30 TPV d   1     -21.066  18.400  17.404  0.00  0.00     0.087 H 
BRANCH  25  29
ATOM     29  N28 TPV d   1     -22.028  16.948  15.405  0.00  0.00    -0.279 N 
ATOM     30  H29 TPV d   1     -22.619  17.537  14.854  0.00  0.00     0.179 HD
BRANCH  29  31
ATOM     31  S30 TPV d   1     -22.640  15.598  16.056  0.00  0.00     0.280 S 
ATOM     32  O31 TPV d   1     -21.750  14.511  15.678  0.00  0.00    -0.199 OA
ATOM     33  O32 TPV d   1     -24.014  15.455  15.611  0.00  0.00    -0.199 OA
BRANCH  31  34
ATOM     34  C33 TPV d   1     -22.556  15.892  17.647  0.00  0.00     0.171 A 
ATOM     35  N34 TPV d   1     -21.505  15.415  18.375  0.00  0.00    -0.247 NA
ATOM     36  C35 TPV d   1     -21.379  15.676  19.693  0.00  0.00     0.018 A 
ATOM     37  C36 TPV d   1     -22.315  16.452  20.373  0.00  0.00     0.065 A 
ATOM     38  H31 TPV d   1     -20.531  15.273  20.235  0.00  0.00     0.116 H 
ATOM     39  C37 TPV d   1     -23.395  16.969  19.648  0.00  0.00    -0.064 A 
ATOM     40  C38 TPV d   1     -23.528  16.689  18.282  0.00  0.00    -0.041 A 
ATOM     41  H32 TPV d   1     -24.132  17.589  20.146  0.00  0.00     0.085 H 
ATOM     42  H33 TPV d   1     -24.369  17.081  17.721  0.00  0.00     0.088 H 
BRANCH  37  43
ATOM     43  C39 TPV d   1     -22.131  16.767  21.838  0.00  0.00     0.418 C 
ATOM     44  F40 TPV d   1     -21.431  15.857  22.494  0.00  0.00    -0.166 F 
ATOM     45  F41 TPV d   1     -23.275  16.980  22.452  0.00  0.00    -0.166 F 
ATOM     46  F42 TPV d   1     -21.421  17.885  21.874  0.00  0.00    -0.166 F 
ENDBRANCH  37  43
ENDBRANCH  31  34
ENDBRANCH  29  31
ENDBRANCH  25  29
ENDBRANCH  10  19
ENDBRANCH   3  10
BRANCH   4  47
ATOM     47  O8  TPV d   1     -15.919  18.198  18.610  0.00  0.00    -0.364 OA
ATOM     48  H3  TPV d   1     -15.425  18.248  19.420  0.00  0.00     0.217 HD
ENDBRANCH   4  47
BRANCH   6  49
ATOM     49  C9  TPV d   1     -14.779  22.201  19.119  0.00  0.00    -0.035 C 
ATOM     50  H4  TPV d   1     -13.795  21.937  19.533  0.00  0.00     0.037 H 
ATOM     51  H5  TPV d   1     -15.569  21.719  19.714  0.00  0.00     0.037 H 
BRANCH  49  52
ATOM     52  C10 TPV d   1     -14.954  23.716  19.232  0.00  0.00    -0.066 C 
ATOM     53  H6  TPV d   1     -15.950  23.995  18.857  0.00  0.00     0.032 H 
ATOM     54  H7  TPV d   1     -14.182  24.216  18.629  0.00  0.00     0.032 H 
BRANCH  52  55
ATOM     55  C11 TPV d   1     -14.823  24.153  20.671  0.00  0.00    -0.076 C 
ATOM     56  H8  TPV d   1     -14.951  25.244  20.736  0.00  0.00     0.027 H 
ATOM     57  H9  TPV d   1     -13.827  23.878  21.049  0.00  0.00     0.027 H 
ATOM     58  H10 TPV d   1     -15.595  23.656  21.277  0.00  0.00     0.027 H 
ENDBRANCH  52  55
ENDBRANCH  49  52
ENDBRANCH   6  49
BRANCH   6  59
ATOM     59  C12 TPV d   1     -13.747  22.222  16.796  0.00  0.00    -0.032 C 
ATOM     60  H11 TPV d   1     -12.780  21.892  17.205  0.00  0.00     0.037 H 
ATOM     61  H12 TPV d   1     -13.806  23.320  16.834  0.00  0.00     0.037 H 
BRANCH  59  62
ATOM     62  C13 TPV d   1     -13.815  21.792  15.329  0.00  0.00    -0.038 C 
ATOM     63  H13 TPV d   1     -14.792  22.070  14.907  0.00  0.00     0.040 H 
ATOM     64  H14 TPV d   1     -13.681  20.703  15.256  0.00  0.00     0.040 H 
BRANCH  62  65
ATOM     65  C14 TPV d   1     -12.710  22.494  14.562  0.00  0.00    -0.058 A 
ATOM     66  C15 TPV d   1     -11.409  21.996  14.629  0.00  0.00    -0.077 A 
ATOM     67  C16 TPV d   1     -10.378  22.630  13.942  0.00  0.00    -0.082 A 
ATOM     68  H15 TPV d   1     -11.200  21.111  15.219  0.00  0.00     0.084 H 
ATOM     69  C17 TPV d   1     -10.647  23.759  13.172  0.00  0.00    -0.083 A 
ATOM     70  H16 TPV d   1      -9.367  22.245  14.006  0.00  0.00     0.083 H 
ATOM     71  C18 TPV d   1     -11.952  24.261  13.098  0.00  0.00    -0.082 A 
ATOM     72  H17 TPV d   1      -9.846  24.249  12.630  0.00  0.00     0.083 H 
ATOM     73  C19 TPV d   1     -12.983  23.627  13.791  0.00  0.00    -0.077 A 
ATOM     74  H18 TPV d   1     -12.161  25.142  12.502  0.00  0.00     0.083 H 
ATOM     75  H19 TPV d   1     -13.994  24.012  13.732  0.00  0.00     0.084 H 
ENDBRANCH  62  65
ENDBRANCH  59  62
ENDBRANCH   6  59
TORSDOF 15
