REMARK  15 active torsions:
REMARK  status: ('A' for Active; 'I' for Inactive)
REMARK    1  A    between atoms: C3_3  and  C20_20 
REMARK    2  A    between atoms: C4_4  and  O8_8 
REMARK    3  A    between atoms: C6_6  and  C9_9 
REMARK    4  A    between atoms: C6_6  and  C12_12 
REMARK    5  A    between atoms: C9_9  and  C10_10 
REMARK    6  A    between atoms: C10_10  and  C11_11 
REMARK    7  A    between atoms: C12_12  and  C13_13 
REMARK    8  A    between atoms: C13_13  and  C14_14 
REMARK    9  A    between atoms: C20_20  and  C21_21 
REMARK   10  A    between atoms: C20_20  and  C23_23 
REMARK   11  A    between atoms: C21_21  and  C22_22 
REMARK   12  A    between atoms: C27_27  and  N28_28 
REMARK   13  A    between atoms: N28_28  and  S30_30 
REMARK   14  A    between atoms: S30_30  and  C33_33 
REMARK   15  A    between atoms: C36_36  and  C39_39 
ROOT
ATOM      1  O1  TPV d   1      13.439  22.088  17.325  0.00  0.00    -0.306 OA
ATOM      2  C2  TPV d   1      12.240  21.343  17.482  0.00  0.00     0.293 C 
ATOM      3  C3  TPV d   1      12.288  19.994  18.075  0.00  0.00     0.055 C 
ATOM      4  C4  TPV d   1      13.522  19.449  18.296  0.00  0.00     0.059 C 
ATOM      5  C5  TPV d   1      14.802  20.164  17.918  0.00  0.00     0.009 C 
ATOM      6  C6  TPV d   1      14.699  21.701  17.894  0.00  0.00     0.077 C 
ATOM      7  O7  TPV d   1      11.228  21.917  17.100  0.00  0.00    -0.259 OA
ATOM      8  H1  TPV d   1      15.100  19.825  16.915  0.00  0.00     0.047 H 
ATOM      9  H2  TPV d   1      15.578  19.884  18.645  0.00  0.00     0.047 H 
ENDROOT
BRANCH   3  10
ATOM     10  C20 TPV d   1      10.953  19.268  18.270  0.00  0.00     0.005 C 
ATOM     11  H20 TPV d   1      10.179  20.047  18.331  0.00  0.00     0.055 H 
BRANCH  10  12
ATOM     12  C21 TPV d   1      10.848  18.435  19.567  0.00  0.00    -0.057 C 
ATOM     13  H21 TPV d   1      11.658  17.690  19.565  0.00  0.00     0.033 H 
ATOM     14  H22 TPV d   1       9.876  17.920  19.568  0.00  0.00     0.033 H 
BRANCH  12  15
ATOM     15  C22 TPV d   1      10.956  19.255  20.848  0.00  0.00    -0.076 C 
ATOM     16  H23 TPV d   1      10.872  18.588  21.719  0.00  0.00     0.027 H 
ATOM     17  H24 TPV d   1      10.146  19.999  20.876  0.00  0.00     0.027 H 
ATOM     18  H25 TPV d   1      11.928  19.770  20.873  0.00  0.00     0.027 H 
ENDBRANCH  12  15
ENDBRANCH  10  12
BRANCH  10  19
ATOM     19  C23 TPV d   1      10.634  18.407  17.085  0.00  0.00    -0.047 A 
ATOM     20  C24 TPV d   1      11.620  17.905  16.224  0.00  0.00    -0.076 A 
ATOM     21  C25 TPV d   1      11.260  17.114  15.118  0.00  0.00    -0.080 A 
ATOM     22  H26 TPV d   1      12.664  18.127  16.411  0.00  0.00     0.084 H 
ATOM     23  C26 TPV d   1       9.916  16.788  14.901  0.00  0.00    -0.057 A 
ATOM     24  H27 TPV d   1      12.022  16.757  14.435  0.00  0.00     0.083 H 
ATOM     25  C27 TPV d   1       8.911  17.265  15.746  0.00  0.00     0.043 A 
ATOM     26  H28 TPV d   1       9.650  16.154  14.063  0.00  0.00     0.086 H 
ATOM     27  C29 TPV d   1       9.290  18.073  16.822  0.00  0.00    -0.050 A 
ATOM     28  H30 TPV d   1       8.520  18.458  17.480  0.00  0.00     0.087 H 
BRANCH  25  29
ATOM     29  N28 TPV d   1       7.575  16.982  15.531  0.00  0.00    -0.279 N 
ATOM     30  H29 TPV d   1       7.023  17.620  14.994  0.00  0.00     0.179 HD
BRANCH  29  31
ATOM     31  S30 TPV d   1       6.881  15.648  16.124  0.00  0.00     0.280 S 
ATOM     32  O31 TPV d   1       7.678  14.519  15.697  0.00  0.00    -0.199 OA
ATOM     33  O32 TPV d   1       5.513  15.528  15.718  0.00  0.00    -0.199 OA
BRANCH  31  34
ATOM     34  C33 TPV d   1       6.950  15.874  17.735  0.00  0.00     0.171 A 
ATOM     35  N34 TPV d   1       8.050  15.461  18.417  0.00  0.00    -0.247 NA
ATOM     36  C35 TPV d   1       8.199  15.702  19.752  0.00  0.00     0.018 A 
ATOM     37  C36 TPV d   1       7.203  16.355  20.499  0.00  0.00     0.065 A 
ATOM     38  H31 TPV d   1       9.108  15.382  20.249  0.00  0.00     0.116 H 
ATOM     39  C37 TPV d   1       6.052  16.790  19.820  0.00  0.00    -0.064 A 
ATOM     40  C38 TPV d   1       5.914  16.538  18.436  0.00  0.00    -0.041 A 
ATOM     41  H32 TPV d   1       5.272  17.318  20.357  0.00  0.00     0.085 H 
ATOM     42  H33 TPV d   1       5.018  16.852  17.913  0.00  0.00     0.088 H 
BRANCH  37  43
ATOM     43  C39 TPV d   1       7.383  16.661  21.962  0.00  0.00     0.418 C 
ATOM     44  F40 TPV d   1       7.986  15.720  22.668  0.00  0.00    -0.166 F 
ATOM     45  F41 TPV d   1       6.252  17.063  22.493  0.00  0.00    -0.166 F 
ATOM     46  F42 TPV d   1       8.160  17.728  22.030  0.00  0.00    -0.166 F 
ENDBRANCH  37  43
ENDBRANCH  31  34
ENDBRANCH  29  31
ENDBRANCH  25  29
ENDBRANCH  10  19
ENDBRANCH   3  10
BRANCH   4  47
ATOM     47  O8  TPV d   1      13.687  18.229  18.782  0.00  0.00    -0.364 OA
ATOM     48  H3  TPV d   1      14.121  17.687  18.134  0.00  0.00     0.217 HD
ENDBRANCH   4  47
BRANCH   6  49
ATOM     49  C9  TPV d   1      14.825  22.228  19.332  0.00  0.00    -0.035 C 
ATOM     50  H4  TPV d   1      15.870  22.101  19.652  0.00  0.00     0.037 H 
ATOM     51  H5  TPV d   1      14.168  21.625  19.976  0.00  0.00     0.037 H 
BRANCH  49  52
ATOM     52  C10 TPV d   1      14.445  23.711  19.516  0.00  0.00    -0.066 C 
ATOM     53  H6  TPV d   1      13.404  23.875  19.200  0.00  0.00     0.032 H 
ATOM     54  H7  TPV d   1      15.114  24.348  18.919  0.00  0.00     0.032 H 
BRANCH  52  55
ATOM     55  C11 TPV d   1      14.599  24.038  21.003  0.00  0.00    -0.076 C 
ATOM     56  H8  TPV d   1      14.336  25.092  21.176  0.00  0.00     0.027 H 
ATOM     57  H9  TPV d   1      15.641  23.865  21.311  0.00  0.00     0.027 H 
ATOM     58  H10 TPV d   1      13.931  23.392  21.592  0.00  0.00     0.027 H 
ENDBRANCH  52  55
ENDBRANCH  49  52
ENDBRANCH   6  49
BRANCH   6  59
ATOM     59  C12 TPV d   1      15.795  22.333  17.018  0.00  0.00    -0.032 C 
ATOM     60  H11 TPV d   1      16.770  21.945  17.348  0.00  0.00     0.037 H 
ATOM     61  H12 TPV d   1      15.767  23.423  17.161  0.00  0.00     0.037 H 
BRANCH  59  62
ATOM     62  C13 TPV d   1      15.639  22.037  15.517  0.00  0.00    -0.038 C 
ATOM     63  H13 TPV d   1      14.671  22.422  15.165  0.00  0.00     0.040 H 
ATOM     64  H14 TPV d   1      15.684  20.951  15.350  0.00  0.00     0.040 H 
BRANCH  62  65
ATOM     65  C14 TPV d   1      16.767  22.717  14.750  0.00  0.00    -0.058 A 
ATOM     66  C15 TPV d   1      16.499  23.841  13.958  0.00  0.00    -0.077 A 
ATOM     67  C16 TPV d   1      17.521  24.483  13.241  0.00  0.00    -0.082 A 
ATOM     68  H15 TPV d   1      15.486  24.221  13.898  0.00  0.00     0.084 H 
ATOM     69  C17 TPV d   1      18.821  23.989  13.356  0.00  0.00    -0.083 A 
ATOM     70  H16 TPV d   1      17.306  25.341  12.614  0.00  0.00     0.083 H 
ATOM     71  C18 TPV d   1      19.122  22.872  14.157  0.00  0.00    -0.082 A 
ATOM     72  H17 TPV d   1      19.621  24.479  12.813  0.00  0.00     0.083 H 
ATOM     73  C19 TPV d   1      18.080  22.234  14.853  0.00  0.00    -0.077 A 
ATOM     74  H18 TPV d   1      20.140  22.509  14.236  0.00  0.00     0.083 H 
ATOM     75  H19 TPV d   1      18.291  21.368  15.470  0.00  0.00     0.084 H 
ENDBRANCH  62  65
ENDBRANCH  59  62
ENDBRANCH   6  59
TORSDOF 15
