REMARK  12 active torsions:
REMARK  status: ('A' for Active; 'I' for Inactive)
REMARK    1  A    between atoms: O2_1  and  C3_2 
REMARK    2  A    between atoms: C1_5  and  O1_6 
REMARK    3  A    between atoms: C6_10  and  C7_11 
REMARK    4  A    between atoms: C13_17  and  C18_18 
REMARK    5  A    between atoms: C20_22  and  C21_23 
REMARK    6  A    between atoms: C20_22  and  C22_24 
REMARK    7  A    between atoms: C22_24  and  C23_25 
REMARK    8  A    between atoms: C23_25  and  C24_26 
REMARK    9  A    between atoms: C24_26  and  C25_27 
REMARK   10  A    between atoms: C25_27  and  C27_28 
REMARK   11  A    between atoms: C25_27  and  C26_29 
REMARK   12  A    between atoms: C25_27  and  O3_30 
ROOT
ATOM      1  C7  VD5 d   1      60.319   5.243  -2.888  0.00  0.00    -0.080 C 
ATOM      2  C8  VD5 d   1      60.495   5.138  -4.246  0.00  0.00    -0.075 C 
ATOM      3  C9  VD5 d   1      60.670   6.370  -5.136  0.00  0.00    -0.044 C 
ATOM      4  C11 VD5 d   1      61.924   6.213  -6.016  0.00  0.00    -0.061 C 
ATOM      5  C12 VD5 d   1      62.156   4.798  -6.619  0.00  0.00    -0.054 C 
ATOM      6  C14 VD5 d   1      60.607   3.814  -5.011  0.00  0.00    -0.021 C 
ATOM      7  C13 VD5 d   1      62.039   3.680  -5.563  0.00  0.00    -0.013 C 
ATOM      8  C15 VD5 d   1      60.283   2.458  -4.380  0.00  0.00    -0.054 C 
ATOM      9  C16 VD5 d   1      61.031   1.433  -5.285  0.00  0.00    -0.043 C 
ATOM     10  C17 VD5 d   1      62.080   2.235  -6.034  0.00  0.00    -0.069 C 
ATOM     11  C20 VD5 d   1      62.926   1.715  -6.970  0.00  0.00    -0.081 C 
ATOM     12  H12 VD5 d   1      60.176   4.338  -2.299  0.00  0.00     0.083 H 
ATOM     13  H13 VD5 d   1      60.779   7.263  -4.503  0.00  0.00     0.039 H 
ATOM     14  H14 VD5 d   1      59.785   6.482  -5.780  0.00  0.00     0.039 H 
ATOM     15  H15 VD5 d   1      62.801   6.466  -5.402  0.00  0.00     0.033 H 
ATOM     16  H16 VD5 d   1      61.842   6.926  -6.850  0.00  0.00     0.033 H 
ATOM     17  H17 VD5 d   1      63.163   4.763  -7.060  0.00  0.00     0.034 H 
ATOM     18  H18 VD5 d   1      61.406   4.622  -7.404  0.00  0.00     0.034 H 
ATOM     19  H19 VD5 d   1      59.915   3.917  -5.860  0.00  0.00     0.048 H 
ATOM     20  H23 VD5 d   1      59.199   2.271  -4.390  0.00  0.00     0.034 H 
ATOM     21  H24 VD5 d   1      60.654   2.409  -3.345  0.00  0.00     0.034 H 
ATOM     22  H25 VD5 d   1      60.331   0.963  -5.992  0.00  0.00     0.039 H 
ATOM     23  H26 VD5 d   1      61.509   0.656  -4.670  0.00  0.00     0.039 H 
ENDROOT
BRANCH   7  24
ATOM     24  C18 VD5 d   1      63.138   3.765  -4.474  0.00  0.00    -0.065 C 
ATOM     25  H20 VD5 d   1      64.128   3.662  -4.943  0.00  0.00     0.028 H 
ATOM     26  H21 VD5 d   1      62.993   2.957  -3.742  0.00  0.00     0.028 H 
ATOM     27  H22 VD5 d   1      63.074   4.737  -3.964  0.00  0.00     0.028 H 
ENDBRANCH   7  24
BRANCH  11  28
ATOM     28  C21 VD5 d   1      63.968   2.533  -7.707  0.00  0.00    -0.054 C 
ATOM     29  H27 VD5 d   1      64.518   1.884  -8.404  0.00  0.00     0.033 H 
ATOM     30  H28 VD5 d   1      64.670   2.971  -6.982  0.00  0.00     0.033 H 
ATOM     31  H29 VD5 d   1      63.472   3.338  -8.269  0.00  0.00     0.033 H 
ENDBRANCH  11  28
BRANCH  11  32
ATOM     32  C22 VD5 d   1      62.889   0.263  -7.387  0.00  0.00    -0.044 C 
ATOM     33  H30 VD5 d   1      63.256   0.173  -8.420  0.00  0.00     0.039 H 
ATOM     34  H31 VD5 d   1      61.853  -0.104  -7.333  0.00  0.00     0.039 H 
BRANCH  32  35
ATOM     35  C23 VD5 d   1      63.767  -0.575  -6.467  0.00  0.00    -0.059 C 
ATOM     36  H32 VD5 d   1      63.470  -1.631  -6.542  0.00  0.00     0.033 H 
ATOM     37  H33 VD5 d   1      63.641  -0.232  -5.430  0.00  0.00     0.033 H 
BRANCH  35  38
ATOM     38  C24 VD5 d   1      65.238  -0.430  -6.875  0.00  0.00    -0.037 C 
ATOM     39  H34 VD5 d   1      65.686   0.392  -6.297  0.00  0.00     0.037 H 
ATOM     40  H35 VD5 d   1      65.285  -0.191  -7.948  0.00  0.00     0.037 H 
BRANCH  38  41
ATOM     41  C25 VD5 d   1      66.037  -1.695  -6.622  0.00  0.00     0.051 C 
BRANCH  41  42
ATOM     42  C27 VD5 d   1      66.001  -2.175  -5.159  0.00  0.00    -0.048 C 
ATOM     43  H36 VD5 d   1      66.601  -3.092  -5.059  0.00  0.00     0.031 H 
ATOM     44  H37 VD5 d   1      64.961  -2.384  -4.867  0.00  0.00     0.031 H 
ATOM     45  H38 VD5 d   1      66.415  -1.393  -4.506  0.00  0.00     0.031 H 
ENDBRANCH  41  42
BRANCH  41  46
ATOM     46  C26 VD5 d   1      67.482  -1.399  -6.975  0.00  0.00    -0.048 C 
ATOM     47  H39 VD5 d   1      67.541  -1.053  -8.017  0.00  0.00     0.031 H 
ATOM     48  H40 VD5 d   1      68.083  -2.313  -6.857  0.00  0.00     0.031 H 
ATOM     49  H41 VD5 d   1      67.870  -0.617  -6.306  0.00  0.00     0.031 H 
ENDBRANCH  41  46
BRANCH  41  50
ATOM     50  O3  VD5 d   1      65.513  -2.745  -7.444  0.00  0.00    -0.391 OA
ATOM     51  H42 VD5 d   1      64.620  -2.935  -7.182  0.00  0.00     0.210 HD
ENDBRANCH  41  50
ENDBRANCH  38  41
ENDBRANCH  35  38
ENDBRANCH  32  35
ENDBRANCH  11  32
BRANCH   1  52
ATOM     52  C6  VD5 d   1      60.319   6.559  -2.204  0.00  0.00    -0.080 C 
ATOM     53  C5  VD5 d   1      60.554   6.688  -0.861  0.00  0.00    -0.074 C 
ATOM     54  C10 VD5 d   1      60.820   5.478   0.038  0.00  0.00    -0.017 C 
ATOM     55  C4  VD5 d   1      60.578   8.086  -0.267  0.00  0.00    -0.017 C 
ATOM     56  C1  VD5 d   1      60.155   5.610   1.429  0.00  0.00     0.062 C 
ATOM     57  H7  VD5 d   1      60.425   4.578  -0.457  0.00  0.00     0.043 H 
ATOM     58  H8  VD5 d   1      61.906   5.374   0.176  0.00  0.00     0.043 H 
ATOM     59  C2  VD5 d   1      60.499   6.942   1.970  0.00  0.00    -0.032 C 
ATOM     60  H5  VD5 d   1      59.065   5.513   1.319  0.00  0.00     0.090 H 
ATOM     61  C3  VD5 d   1      60.072   8.151   1.171  0.00  0.00     0.062 C 
ATOM     62  C28 VD5 d   1      61.118   7.043   3.142  0.00  0.00    -0.114 C 
ATOM     63  H2  VD5 d   1      60.429   9.072   1.654  0.00  0.00     0.090 H 
ATOM     64  H3  VD5 d   1      61.408   6.144   3.684  0.00  0.00     0.067 H 
ATOM     65  H4  VD5 d   1      61.335   8.025   3.560  0.00  0.00     0.067 H 
ATOM     66  H9  VD5 d   1      61.614   8.454  -0.287  0.00  0.00     0.043 H 
ATOM     67  H10 VD5 d   1      59.945   8.738  -0.887  0.00  0.00     0.043 H 
ATOM     68  H11 VD5 d   1      60.125   7.455  -2.791  0.00  0.00     0.083 H 
BRANCH  56  69
ATOM     69  O1  VD5 d   1      60.625   4.631   2.366  0.00  0.00    -0.391 OA
ATOM     70  H6  VD5 d   1      61.566   4.717   2.467  0.00  0.00     0.210 HD
ENDBRANCH  56  69
BRANCH  61  71
ATOM     71  O2  VD5 d   1      58.641   8.112   1.129  0.00  0.00    -0.391 OA
ATOM     72  H1  VD5 d   1      58.298   8.147   2.014  0.00  0.00     0.210 HD
ENDBRANCH  61  71
ENDBRANCH   1  52
TORSDOF 12
