REMARK  8 active torsions:
REMARK  status: ('A' for Active; 'I' for Inactive)
REMARK    1  A    between atoms: N33_19  and  C34_1 
REMARK    2  A    between atoms: C9_5  and  O14_34 
REMARK    3  A    between atoms: C13_6  and  O17_12 
REMARK    4  A    between atoms: O17_12  and  C21_8 
REMARK    5  A    between atoms: C2_28  and  N5_9 
REMARK    6  A    between atoms: O14_34  and  C18_10 
REMARK    7  A    between atoms: C19_13  and  S22_15 
REMARK    8  A    between atoms: S22_15  and  N25_17 
ROOT
ATOM      1  C20 227 d   1      11.361  23.723  43.599  0.00  0.00    -0.047 A 
ATOM      2  N5  227 d   1      10.566  20.942  43.553  0.00  0.00    -0.360 N 
ATOM      3  C16 227 d   1      10.632  23.124  44.771  0.00  0.00    -0.025 C 
ATOM      4  C19 227 d   1      12.208  23.610  41.349  0.00  0.00     0.083 A 
ATOM      5  C23 227 d   1      12.704  24.918  41.480  0.00  0.00    -0.060 A 
ATOM      6  C28 227 d   1      12.533  25.606  42.685  0.00  0.00    -0.081 A 
ATOM      7  C15 227 d   1      11.532  23.010  42.403  0.00  0.00    -0.011 A 
ATOM      8  C10 227 d   1      10.992  21.598  42.285  0.00  0.00     0.022 C 
ATOM      9  C24 227 d   1      11.865  25.005  43.731  0.00  0.00    -0.076 A 
ATOM     10  C11 227 d   1       9.783  21.911  44.329  0.00  0.00     0.001 C 
ATOM     11  H14 227 d   1       9.971  23.885  45.212  0.00  0.00     0.042 H 
ATOM     12  H15 227 d   1      11.366  22.796  45.522  0.00  0.00     0.042 H 
ATOM     13  H23 227 d   1      13.217  25.392  40.651  0.00  0.00     0.085 H 
ATOM     14  H24 227 d   1      12.925  26.610  42.797  0.00  0.00     0.083 H 
ATOM     15  H25 227 d   1      10.120  21.628  41.615  0.00  0.00     0.071 H 
ATOM     16  H26 227 d   1      11.779  20.976  41.835  0.00  0.00     0.071 H 
ATOM     17  H27 227 d   1      11.734  25.541  44.664  0.00  0.00     0.084 H 
ATOM     18  H28 227 d   1       9.386  21.410  45.225  0.00  0.00     0.064 H 
ATOM     19  H29 227 d   1       8.948  22.270  43.709  0.00  0.00     0.064 H 
ENDROOT
BRANCH   2  20
ATOM     20  C2  227 d   1      11.404  19.957  44.184  0.00  0.00     0.140 C 
ATOM     21  C1  227 d   1      11.999  18.829  43.544  0.00  0.00     0.041 A 
ATOM     22  C4  227 d   1      11.774  18.497  42.200  0.00  0.00    -0.032 A 
ATOM     23  C3  227 d   1      12.838  17.965  44.298  0.00  0.00     0.075 A 
ATOM     24  C9  227 d   1      12.359  17.389  41.630  0.00  0.00     0.102 A 
ATOM     25  H6  227 d   1      11.127  19.125  41.599  0.00  0.00     0.089 H 
ATOM     26  C13 227 d   1      13.216  16.553  42.388  0.00  0.00     0.103 A 
ATOM     27  C7  227 d   1      13.450  16.853  43.739  0.00  0.00    -0.019 A 
ATOM     28  H7  227 d   1      14.100  16.224  44.337  0.00  0.00     0.091 H 
ATOM     29  N8  227 d   1      13.048  18.231  45.578  0.00  0.00    -0.241 NA
ATOM     30  C12 227 d   1      12.334  19.190  46.184  0.00  0.00     0.089 C 
ATOM     31  N6  227 d   1      11.670  20.139  45.493  0.00  0.00    -0.224 NA
ATOM     32  H30 227 d   1      12.289  19.203  47.267  0.00  0.00     0.146 H 
BRANCH  24  33
ATOM     33  O14 227 d   1      12.155  17.118  40.311  0.00  0.00    -0.353 OA
BRANCH  33  34
ATOM     34  C18 227 d   1      11.225  17.868  39.486  0.00  0.00     0.010 C 
ATOM     35  H11 227 d   1      11.235  17.465  38.463  0.00  0.00     0.066 H 
ATOM     36  H12 227 d   1      11.524  18.926  39.466  0.00  0.00     0.066 H 
ATOM     37  H13 227 d   1      10.211  17.781  39.904  0.00  0.00     0.066 H 
ENDBRANCH  33  34
ENDBRANCH  24  33
BRANCH  26  38
ATOM     38  O17 227 d   1      13.785  15.480  41.760  0.00  0.00    -0.353 OA
BRANCH  38  39
ATOM     39  C21 227 d   1      14.884  14.758  42.320  0.00  0.00     0.010 C 
ATOM     40  H8  227 d   1      15.170  13.941  41.641  0.00  0.00     0.066 H 
ATOM     41  H9  227 d   1      14.590  14.339  43.294  0.00  0.00     0.066 H 
ATOM     42  H10 227 d   1      15.738  15.438  42.456  0.00  0.00     0.066 H 
ENDBRANCH  38  39
ENDBRANCH  26  38
ENDBRANCH   2  20
BRANCH   4  43
ATOM     43  S22 227 d   1      12.484  22.852  39.682  0.00  0.00     0.244 S 
ATOM     44  O26 227 d   1      12.492  21.435  39.610  0.00  0.00    -0.206 OA
ATOM     45  O27 227 d   1      13.733  23.348  39.335  0.00  0.00    -0.206 OA
BRANCH  43  46
ATOM     46  N25 227 d   1      11.198  23.394  38.664  0.00  0.00    -0.203 NA
ATOM     47  C30 227 d   1      11.046  24.861  38.741  0.00  0.00     0.016 C 
ATOM     48  C32 227 d   1      10.070  25.234  37.623  0.00  0.00     0.095 C 
ATOM     49  H16 227 d   1      10.638  25.154  39.720  0.00  0.00     0.059 H 
ATOM     50  H17 227 d   1      12.016  25.356  38.585  0.00  0.00     0.059 H 
ATOM     51  N33 227 d   1       8.795  24.529  37.788  0.00  0.00    -0.073 N 
ATOM     52  H4  227 d   1      10.511  24.960  36.653  0.00  0.00     0.077 H 
ATOM     53  H5  227 d   1       9.888  26.319  37.650  0.00  0.00     0.077 H 
ATOM     54  C31 227 d   1       8.906  23.066  37.922  0.00  0.00     0.095 C 
ATOM     55  H18 227 d   1       8.352  24.884  38.621  0.00  0.00     0.279 HD
ATOM     56  C29 227 d   1       9.946  22.698  38.968  0.00  0.00     0.016 C 
ATOM     57  H19 227 d   1       9.201  22.636  36.953  0.00  0.00     0.077 H 
ATOM     58  H20 227 d   1       7.931  22.656  38.223  0.00  0.00     0.077 H 
ATOM     59  H21 227 d   1       9.589  22.999  39.964  0.00  0.00     0.059 H 
ATOM     60  H22 227 d   1      10.116  21.611  38.953  0.00  0.00     0.059 H 
BRANCH  51  61
ATOM     61  C34 227 d   1       7.937  24.817  36.622  0.00  0.00     0.066 C 
ATOM     62  H1  227 d   1       7.838  25.906  36.500  0.00  0.00     0.068 H 
ATOM     63  H2  227 d   1       6.943  24.374  36.780  0.00  0.00     0.068 H 
ATOM     64  H3  227 d   1       8.391  24.386  35.717  0.00  0.00     0.068 H 
ENDBRANCH  51  61
ENDBRANCH  43  46
ENDBRANCH   4  43
TORSDOF 8
