REMARK  6 active torsions:
REMARK  status: ('A' for Active; 'I' for Inactive)
REMARK    1  A    between atoms: C7_4  and  C3_14 
REMARK    2  A    between atoms: S1_29  and  C10_6 
REMARK    3  A    between atoms: C19_24  and  C21_9 
REMARK    4  A    between atoms: C26_11  and  S1_29 
REMARK    5  A    between atoms: C9_15  and  N22_25 
REMARK    6  A    between atoms: C14_20  and  N11_17 
ROOT
ATOM      1  C7  DLI d   1      31.620   6.061  63.146  0.00  0.00     0.019 C 
ATOM      2  C8  DLI d   1      32.845   6.800  62.724  0.00  0.00     0.006 C 
ATOM      3  C9  DLI d   1      31.821   5.504  64.573  0.00  0.00     0.124 C 
ATOM      4  N11 DLI d   1      33.841   5.999  63.438  0.00  0.00    -0.363 N 
ATOM      5  C12 DLI d   1      33.307   5.199  64.572  0.00  0.00     0.024 C 
ATOM      6  H2  DLI d   1      31.590   5.193  62.471  0.00  0.00     0.053 H 
ATOM      7  H3  DLI d   1      32.835   7.846  63.063  0.00  0.00     0.065 H 
ATOM      8  H4  DLI d   1      32.993   6.769  61.634  0.00  0.00     0.065 H 
ATOM      9  H12 DLI d   1      31.601   6.267  65.334  0.00  0.00     0.087 H 
ATOM     10  H13 DLI d   1      33.485   4.126  64.411  0.00  0.00     0.067 H 
ATOM     11  H14 DLI d   1      33.770   5.509  65.520  0.00  0.00     0.067 H 
ENDROOT
BRANCH   4  12
ATOM     12  C14 DLI d   1      35.167   5.985  63.051  0.00  0.00     0.129 A 
ATOM     13  C20 DLI d   1      36.098   5.216  63.783  0.00  0.00    -0.010 A 
ATOM     14  C19 DLI d   1      37.437   5.186  63.382  0.00  0.00     0.072 A 
ATOM     15  H9  DLI d   1      35.776   4.652  64.651  0.00  0.00     0.093 H 
ATOM     16  N18 DLI d   1      37.789   5.964  62.264  0.00  0.00    -0.241 NA
ATOM     17  C17 DLI d   1      36.849   6.685  61.613  0.00  0.00     0.089 A 
ATOM     18  N16 DLI d   1      35.543   6.741  61.976  0.00  0.00    -0.225 NA
ATOM     19  H8  DLI d   1      37.159   7.255  60.745  0.00  0.00     0.146 H 
BRANCH  14  20
ATOM     20  C21 DLI d   1      38.486   4.383  64.124  0.00  0.00    -0.006 A 
ATOM     21  C23 DLI d   1      38.170   3.597  65.279  0.00  0.00    -0.071 A 
ATOM     22  C24 DLI d   1      39.146   2.841  65.965  0.00  0.00    -0.081 A 
ATOM     23  H18 DLI d   1      37.148   3.582  65.639  0.00  0.00     0.084 H 
ATOM     24  C25 DLI d   1      40.472   2.842  65.506  0.00  0.00    -0.062 A 
ATOM     25  H10 DLI d   1      38.872   2.264  66.841  0.00  0.00     0.083 H 
ATOM     26  C26 DLI d   1      40.810   3.608  64.363  0.00  0.00     0.059 A 
ATOM     27  H19 DLI d   1      41.230   2.263  66.021  0.00  0.00     0.085 H 
ATOM     28  C27 DLI d   1      39.828   4.367  63.686  0.00  0.00    -0.050 A 
ATOM     29  H20 DLI d   1      40.111   4.947  62.815  0.00  0.00     0.087 H 
BRANCH  26  30
ATOM     30  S1  DLI d   1      42.503   3.557  63.824  0.00  0.00     0.171 S 
ATOM     31  O2  DLI d   1      42.741   2.219  63.363  0.00  0.00    -0.223 OA
ATOM     32  O1  DLI d   1      43.298   4.042  64.911  0.00  0.00    -0.223 OA
BRANCH  30  33
ATOM     33  C10 DLI d   1      42.735   4.672  62.439  0.00  0.00     0.020 C 
ATOM     34  H5  DLI d   1      43.784   4.636  62.111  0.00  0.00     0.049 H 
ATOM     35  H6  DLI d   1      42.483   5.697  62.747  0.00  0.00     0.049 H 
ATOM     36  H7  DLI d   1      42.080   4.367  61.609  0.00  0.00     0.049 H 
ENDBRANCH  30  33
ENDBRANCH  26  30
ENDBRANCH  14  20
ENDBRANCH   4  12
BRANCH   1  37
ATOM     37  C3  DLI d   1      30.238   6.651  63.042  0.00  0.00    -0.009 A 
ATOM     38  C4  DLI d   1      29.190   5.831  62.543  0.00  0.00     0.126 A 
ATOM     39  C5  DLI d   1      27.863   6.334  62.428  0.00  0.00    -0.005 A 
ATOM     40  F10 DLI d   1      29.531   4.560  62.192  0.00  0.00    -0.205 F 
ATOM     41  C6  DLI d   1      27.612   7.690  62.817  0.00  0.00     0.157 A 
ATOM     42  H1  DLI d   1      27.062   5.706  62.055  0.00  0.00     0.093 H 
ATOM     43  C1  DLI d   1      28.671   8.510  63.315  0.00  0.00     0.155 A 
ATOM     44  F13 DLI d   1      26.354   8.150  62.703  0.00  0.00    -0.203 F 
ATOM     45  C2  DLI d   1      29.980   8.000  63.420  0.00  0.00    -0.033 A 
ATOM     46  F15 DLI d   1      28.571   9.794  63.717  0.00  0.00    -0.203 F 
ATOM     47  H11 DLI d   1      30.784   8.629  63.785  0.00  0.00     0.089 H 
ENDBRANCH   1  37
BRANCH   3  48
ATOM     48  N22 DLI d   1      30.909   4.372  64.782  0.00  0.00    -0.073 N 
ATOM     49  H15 DLI d   1      29.956   4.700  64.762  0.00  0.00     0.274 HD
ATOM     50  H16 DLI d   1      31.099   3.948  65.676  0.00  0.00     0.274 HD
ATOM     51  H17 DLI d   1      31.046   3.691  64.051  0.00  0.00     0.274 HD
ENDBRANCH   3  48
TORSDOF 6
