REMARK  5 active torsions:
REMARK  status: ('A' for Active; 'I' for Inactive)
REMARK    1  A    between atoms: C5_3  and  C10_10 
REMARK    2  A    between atoms: C2_4  and  C11_11 
REMARK    3  A    between atoms: C16_16  and  C17_17 
REMARK    4  A    between atoms: S61_29  and  C16_16 
REMARK    5  A    between atoms: C22_22  and  S61_29 
ROOT
ATOM      1  C8  SNL d   1     -22.965  57.783   2.881  0.00  0.00    -0.034 C 
ATOM      2  C4  SNL d   1     -21.441  61.431   3.234  0.00  0.00    -0.055 C 
ATOM      3  C5  SNL d   1     -21.642  59.860   2.607  0.00  0.00    -0.008 C 
ATOM      4  C2  SNL d   1     -17.679  61.079   4.575  0.00  0.00    -0.016 C 
ATOM      5  C6  SNL d   1     -20.995  58.858   3.722  0.00  0.00    -0.039 C 
ATOM      6  C1  SNL d   1     -17.454  62.604   5.236  0.00  0.00    -0.048 C 
ATOM      7  C3  SNL d   1     -19.998  61.784   3.489  0.00  0.00    -0.059 C 
ATOM      8  C7  SNL d   1     -21.615  57.450   3.453  0.00  0.00    -0.058 C 
ATOM      9  C9  SNL d   1     -23.098  59.272   2.643  0.00  0.00     0.079 C 
ATOM     10  C12 SNL d   1     -16.008  62.874   5.800  0.00  0.00    -0.005 C 
ATOM     11  C13 SNL d   1     -24.129  59.857   3.686  0.00  0.00    -0.026 C 
ATOM     12  C14 SNL d   1     -25.147  60.705   2.876  0.00  0.00     0.018 C 
ATOM     13  C15 SNL d   1     -24.740  60.484   1.450  0.00  0.00     0.259 C 
ATOM     14  C18 SNL d   1     -15.482  61.625   6.654  0.00  0.00     0.149 C 
ATOM     15  C19 SNL d   1     -15.949  60.238   6.401  0.00  0.00    -0.036 C 
ATOM     16  C20 SNL d   1     -16.879  59.945   5.404  0.00  0.00    -0.067 C 
ATOM     17  C21 SNL d   1     -17.278  58.407   5.135  0.00  0.00    -0.031 C 
ATOM     18  C22 SNL d   1     -18.812  58.154   4.983  0.00  0.00     0.006 C 
ATOM     19  C23 SNL d   1     -19.491  59.096   3.969  0.00  0.00    -0.033 C 
ATOM     20  C24 SNL d   1     -19.225  60.712   4.406  0.00  0.00    -0.038 C 
ATOM     21  O57 SNL d   1     -25.135  61.162   0.490  0.00  0.00    -0.265 OA
ATOM     22  O58 SNL d   1     -23.821  59.422   1.358  0.00  0.00    -0.309 OA
ATOM     23  O60 SNL d   1     -14.704  61.823   7.550  0.00  0.00    -0.293 OA
ATOM     24  H1  SNL d   1     -23.745  57.460   3.586  0.00  0.00     0.037 H 
ATOM     25  H2  SNL d   1     -23.092  57.253   1.926  0.00  0.00     0.037 H 
ATOM     26  H3  SNL d   1     -21.992  61.503   4.183  0.00  0.00     0.034 H 
ATOM     27  H4  SNL d   1     -21.856  62.151   2.514  0.00  0.00     0.034 H 
ATOM     28  H5  SNL d   1     -21.439  59.157   4.683  0.00  0.00     0.042 H 
ATOM     29  H6  SNL d   1     -18.171  62.729   6.061  0.00  0.00     0.035 H 
ATOM     30  H7  SNL d   1     -17.661  63.350   4.454  0.00  0.00     0.035 H 
ATOM     31  H8  SNL d   1     -19.963  62.761   3.992  0.00  0.00     0.033 H 
ATOM     32  H9  SNL d   1     -19.480  61.851   2.521  0.00  0.00     0.033 H 
ATOM     33  H10 SNL d   1     -21.009  56.882   2.732  0.00  0.00     0.033 H 
ATOM     34  H11 SNL d   1     -21.711  56.875   4.386  0.00  0.00     0.033 H 
ATOM     35  H18 SNL d   1     -16.034  63.765   6.445  0.00  0.00     0.044 H 
ATOM     36  H19 SNL d   1     -15.321  63.050   4.959  0.00  0.00     0.044 H 
ATOM     37  H20 SNL d   1     -23.608  60.489   4.421  0.00  0.00     0.038 H 
ATOM     38  H21 SNL d   1     -24.647  59.039   4.208  0.00  0.00     0.038 H 
ATOM     39  H22 SNL d   1     -25.073  61.769   3.145  0.00  0.00     0.048 H 
ATOM     40  H23 SNL d   1     -26.175  60.354   3.049  0.00  0.00     0.048 H 
ATOM     41  H27 SNL d   1     -15.554  59.427   7.011  0.00  0.00     0.089 H 
ATOM     42  H28 SNL d   1     -16.912  57.804   5.979  0.00  0.00     0.041 H 
ATOM     43  H29 SNL d   1     -16.782  58.080   4.209  0.00  0.00     0.041 H 
ATOM     44  H30 SNL d   1     -18.939  57.124   4.617  0.00  0.00     0.058 H 
ATOM     45  H31 SNL d   1     -18.988  58.926   3.005  0.00  0.00     0.043 H 
ATOM     46  H32 SNL d   1     -19.665  60.814   5.409  0.00  0.00     0.042 H 
ENDROOT
BRANCH   3  47
ATOM     47  C10 SNL d   1     -20.980  59.765   1.120  0.00  0.00    -0.066 C 
ATOM     48  H12 SNL d   1     -19.964  60.187   1.143  0.00  0.00     0.028 H 
ATOM     49  H13 SNL d   1     -21.597  60.332   0.407  0.00  0.00     0.028 H 
ATOM     50  H14 SNL d   1     -20.932  58.712   0.806  0.00  0.00     0.028 H 
ENDBRANCH   3  47
BRANCH  18  51
ATOM     51  S61 SNL d   1     -19.716  58.300   6.708  0.00  0.00    -0.087 SA
BRANCH  51  52
ATOM     52  C16 SNL d   1     -19.294  56.754   7.612  0.00  0.00     0.182 C 
ATOM     53  O59 SNL d   1     -18.393  56.032   7.205  0.00  0.00    -0.286 OA
BRANCH  52  54
ATOM     54  C17 SNL d   1     -20.003  56.358   8.899  0.00  0.00    -0.011 C 
ATOM     55  H24 SNL d   1     -19.594  55.404   9.264  0.00  0.00     0.038 H 
ATOM     56  H25 SNL d   1     -21.080  56.245   8.704  0.00  0.00     0.038 H 
ATOM     57  H26 SNL d   1     -19.848  57.139   9.658  0.00  0.00     0.038 H 
ENDBRANCH  52  54
ENDBRANCH  51  52
ENDBRANCH  18  51
BRANCH   4  58
ATOM     58  C11 SNL d   1     -16.946  61.068   3.149  0.00  0.00    -0.065 C 
ATOM     59  H15 SNL d   1     -17.071  60.081   2.680  0.00  0.00     0.028 H 
ATOM     60  H16 SNL d   1     -15.875  61.276   3.286  0.00  0.00     0.028 H 
ATOM     61  H17 SNL d   1     -17.390  61.839   2.502  0.00  0.00     0.028 H 
ENDBRANCH   4  58
TORSDOF 5
