REMARK  13 active torsions:
REMARK  status: ('A' for Active; 'I' for Inactive)
REMARK    1  A    between atoms: C24_2  and  C23_4 
REMARK    2  A    between atoms: C23_4  and  C25_5 
REMARK    3  A    between atoms: C23_4  and  N2_15 
REMARK    4  A    between atoms: C25_5  and  C26_6 
REMARK       I    between atoms: N2_15  and  C19_16 
REMARK    5  A    between atoms: C19_16  and  C18_18 
REMARK    6  A    between atoms: C17_22  and  P1_23 
REMARK    7  A    between atoms: P1_23  and  C9_26 
REMARK    8  A    between atoms: C9_26  and  C10_27 
REMARK    9  A    between atoms: C9_26  and  N1_34 
REMARK   10  A    between atoms: C10_27  and  C11_28 
REMARK       I    between atoms: N1_34  and  C1_35 
REMARK   11  A    between atoms: C1_35  and  O1_37 
REMARK   12  A    between atoms: O1_37  and  C2_38 
REMARK   13  A    between atoms: C2_38  and  C3_39 
ROOT
ATOM      1  C18 RX3 d   1      42.557  34.671  45.465  0.00  0.00     0.036 C 
ATOM      2  C20 RX3 d   1      43.323  33.378  45.202  0.00  0.00    -0.053 C 
ATOM      3  C21 RX3 d   1      43.246  32.527  46.471  0.00  0.00    -0.063 C 
ATOM      4  C22 RX3 d   1      42.601  33.353  47.587  0.00  0.00    -0.052 C 
ATOM      5  C17 RX3 d   1      42.455  34.711  46.962  0.00  0.00     0.035 C 
ATOM      6  H11 RX3 d   1      43.141  35.536  45.117  0.00  0.00     0.056 H 
ATOM      7  H12 RX3 d   1      44.373  33.606  44.967  0.00  0.00     0.034 H 
ATOM      8  H13 RX3 d   1      42.867  32.837  44.360  0.00  0.00     0.034 H 
ATOM      9  H14 RX3 d   1      44.259  32.225  46.774  0.00  0.00     0.033 H 
ATOM     10  H15 RX3 d   1      42.639  31.631  46.278  0.00  0.00     0.033 H 
ATOM     11  H16 RX3 d   1      43.250  33.394  48.474  0.00  0.00     0.034 H 
ATOM     12  H17 RX3 d   1      41.621  32.940  47.868  0.00  0.00     0.034 H 
ATOM     13  H18 RX3 d   1      41.358  34.635  46.945  0.00  0.00     0.057 H 
ENDROOT
BRANCH   5  14
ATOM     14  P1  RX3 d   1      42.353  36.188  47.836  0.00  0.00     0.135 P 
ATOM     15  O3  RX3 d   1      42.002  37.280  46.842  0.00  0.00    -0.666 OA
ATOM     16  O4  RX3 d   1      43.722  36.349  48.429  0.00  0.00    -0.666 OA
BRANCH  14  17
ATOM     17  C9  RX3 d   1      41.144  36.380  49.067  0.00  0.00     0.093 C 
ATOM     18  H19 RX3 d   1      41.688  35.719  49.758  0.00  0.00     0.089 H 
BRANCH  17  19
ATOM     19  C10 RX3 d   1      39.885  35.528  49.181  0.00  0.00    -0.013 C 
ATOM     20  H20 RX3 d   1      40.196  34.479  49.294  0.00  0.00     0.044 H 
ATOM     21  H21 RX3 d   1      39.314  35.643  48.248  0.00  0.00     0.044 H 
BRANCH  19  22
ATOM     22  C11 RX3 d   1      38.957  35.869  50.343  0.00  0.00    -0.056 A 
ATOM     23  C13 RX3 d   1      38.677  34.897  51.311  0.00  0.00    -0.077 A 
ATOM     24  C15 RX3 d   1      37.831  35.182  52.391  0.00  0.00    -0.082 A 
ATOM     25  H22 RX3 d   1      39.120  33.912  51.224  0.00  0.00     0.084 H 
ATOM     26  C16 RX3 d   1      37.248  36.449  52.512  0.00  0.00    -0.083 A 
ATOM     27  H23 RX3 d   1      37.627  34.420  53.134  0.00  0.00     0.083 H 
ATOM     28  C14 RX3 d   1      37.520  37.427  51.551  0.00  0.00    -0.082 A 
ATOM     29  H24 RX3 d   1      36.590  36.670  53.345  0.00  0.00     0.083 H 
ATOM     30  C12 RX3 d   1      38.361  37.132  50.472  0.00  0.00    -0.077 A 
ATOM     31  H25 RX3 d   1      37.080  38.413  51.642  0.00  0.00     0.083 H 
ATOM     32  H26 RX3 d   1      38.555  37.892  49.724  0.00  0.00     0.084 H 
ENDBRANCH  19  22
ENDBRANCH  17  19
BRANCH  17  33
ATOM     33  N1  RX3 d   1      41.276  37.444  49.865  0.00  0.00    -0.322 N 
ATOM     34  C1  RX3 d   1      42.182  37.673  50.817  0.00  0.00     0.361 C 
ATOM     35  O2  RX3 d   1      43.056  36.897  51.157  0.00  0.00    -0.238 OA
ATOM     36  H27 RX3 d   1      40.602  38.170  49.730  0.00  0.00     0.165 HD
BRANCH  34  37
ATOM     37  O1  RX3 d   1      42.113  38.941  51.509  0.00  0.00    -0.299 OA
BRANCH  37  38
ATOM     38  C2  RX3 d   1      43.288  39.680  51.835  0.00  0.00     0.054 C 
ATOM     39  H28 RX3 d   1      43.972  39.675  50.974  0.00  0.00     0.082 H 
ATOM     40  H29 RX3 d   1      43.783  39.214  52.700  0.00  0.00     0.082 H 
BRANCH  38  41
ATOM     41  C3  RX3 d   1      42.922  41.112  52.177  0.00  0.00    -0.034 A 
ATOM     42  C4  RX3 d   1      42.859  42.081  51.176  0.00  0.00    -0.075 A 
ATOM     43  C6  RX3 d   1      42.527  43.398  51.504  0.00  0.00    -0.082 A 
ATOM     44  H30 RX3 d   1      43.067  41.813  50.146  0.00  0.00     0.084 H 
ATOM     45  C8  RX3 d   1      42.251  43.754  52.830  0.00  0.00    -0.083 A 
ATOM     46  H34 RX3 d   1      42.483  44.151  50.725  0.00  0.00     0.083 H 
ATOM     47  C7  RX3 d   1      42.313  42.788  53.830  0.00  0.00    -0.082 A 
ATOM     48  H33 RX3 d   1      41.990  44.777  53.076  0.00  0.00     0.083 H 
ATOM     49  C5  RX3 d   1      42.646  41.470  53.503  0.00  0.00    -0.075 A 
ATOM     50  H32 RX3 d   1      42.104  43.057  54.859  0.00  0.00     0.083 H 
ATOM     51  H31 RX3 d   1      42.691  40.718  54.283  0.00  0.00     0.084 H 
ENDBRANCH  38  41
ENDBRANCH  37  38
ENDBRANCH  34  37
ENDBRANCH  17  33
ENDBRANCH  14  17
ENDBRANCH   5  14
BRANCH   1  52
ATOM     52  C19 RX3 d   1      41.240  34.676  44.729  0.00  0.00     0.223 C 
ATOM     53  N2  RX3 d   1      41.374  34.765  43.405  0.00  0.00    -0.346 N 
ATOM     54  H10 RX3 d   1      42.298  34.838  43.031  0.00  0.00     0.163 HD
ATOM     55  O5  RX3 d   1      40.157  34.602  45.317  0.00  0.00    -0.273 OA
BRANCH  53  56
ATOM     56  C23 RX3 d   1      40.256  34.763  42.470  0.00  0.00     0.100 C 
ATOM     57  H1  RX3 d   1      39.516  35.507  42.800  0.00  0.00     0.090 H 
BRANCH  56  58
ATOM     58  C24 RX3 d   1      39.555  33.421  42.390  0.00  0.00     0.197 C 
ATOM     59  OXT RX3 d   1      40.074  32.424  42.935  0.00  0.00    -0.646 OA
ATOM     60  O6  RX3 d   1      38.463  33.336  41.784  0.00  0.00    -0.646 OA
ENDBRANCH  56  58
BRANCH  56  61
ATOM     61  C25 RX3 d   1      40.831  35.196  41.111  0.00  0.00    -0.011 C 
ATOM     62  H2  RX3 d   1      41.197  36.228  41.212  0.00  0.00     0.044 H 
ATOM     63  H3  RX3 d   1      40.016  35.167  40.373  0.00  0.00     0.044 H 
BRANCH  61  64
ATOM     64  C26 RX3 d   1      41.969  34.346  40.583  0.00  0.00    -0.028 A 
ATOM     65  C28 RX3 d   1      43.330  34.510  40.824  0.00  0.00    -0.002 A 
ATOM     66  C30 RX3 d   1      44.011  35.451  41.605  0.00  0.00    -0.070 A 
ATOM     67  C29 RX3 d   1      44.018  33.514  40.124  0.00  0.00     0.042 A 
ATOM     68  C32 RX3 d   1      45.405  35.383  41.683  0.00  0.00    -0.082 A 
ATOM     69  H4  RX3 d   1      43.466  36.220  42.141  0.00  0.00     0.084 H 
ATOM     70  C33 RX3 d   1      46.108  34.393  40.993  0.00  0.00    -0.081 A 
ATOM     71  H5  RX3 d   1      45.945  36.105  42.284  0.00  0.00     0.083 H 
ATOM     72  C31 RX3 d   1      45.422  33.454  40.213  0.00  0.00    -0.056 A 
ATOM     73  H6  RX3 d   1      47.189  34.351  41.062  0.00  0.00     0.083 H 
ATOM     74  H7  RX3 d   1      45.969  32.685  39.680  0.00  0.00     0.086 H 
ATOM     75  N3  RX3 d   1      43.097  32.765  39.465  0.00  0.00    -0.365 N 
ATOM     76  C27 RX3 d   1      41.857  33.256  39.727  0.00  0.00    -0.015 A 
ATOM     77  H8  RX3 d   1      43.305  31.955  38.863  0.00  0.00     0.165 HD
ATOM     78  H9  RX3 d   1      40.924  32.859  39.330  0.00  0.00     0.112 H 
ENDBRANCH  61  64
ENDBRANCH  56  61
ENDBRANCH  53  56
ENDBRANCH   1  52
TORSDOF 13
