REMARK  10 active torsions:
REMARK  status: ('A' for Active; 'I' for Inactive)
REMARK    1  A    between atoms: N5_8  and  C11_15 
REMARK    2  A    between atoms: C9_13  and  C6_9 
REMARK    3  A    between atoms: N10_14  and  C9_13 
REMARK    4  A    between atoms: C15_19  and  N10_14 
REMARK    5  A    between atoms: C12_16  and  C_22 
REMARK       I    between atoms: C_22  and  N_24 
REMARK    6  A    between atoms: N_24  and  CA_25 
REMARK    7  A    between atoms: CA_25  and  CB_26 
REMARK    8  A    between atoms: CA_25  and  CT_31 
REMARK    9  A    between atoms: CB_26  and  CG_27 
REMARK   10  A    between atoms: CG_27  and  CD_28 
ROOT
ATOM      1  C12 C2F d   1      -9.387  68.293 115.743  0.00  0.00     0.032 A 
ATOM      2  C13 C2F d   1      -9.540  67.875 117.099  0.00  0.00    -0.066 A 
ATOM      3  C14 C2F d   1      -9.360  68.796 118.153  0.00  0.00    -0.057 A 
ATOM      4  C15 C2F d   1      -9.026  70.144 117.866  0.00  0.00     0.028 A 
ATOM      5  C16 C2F d   1      -8.873  70.561 116.493  0.00  0.00    -0.057 A 
ATOM      6  C17 C2F d   1      -9.055  69.638 115.443  0.00  0.00    -0.066 A 
ATOM      7  H14 C2F d   1      -9.796  66.845 117.320  0.00  0.00     0.085 H 
ATOM      8  H15 C2F d   1      -9.477  68.473 119.181  0.00  0.00     0.086 H 
ATOM      9  H16 C2F d   1      -8.617  71.590 116.268  0.00  0.00     0.086 H 
ATOM     10  H17 C2F d   1      -8.942  69.955 114.413  0.00  0.00     0.085 H 
ENDROOT
BRANCH   4  11
ATOM     11  N10 C2F d   1      -8.865  70.994 118.926  0.00  0.00    -0.388 N 
ATOM     12  H10 C2F d   1      -8.810  70.581 119.868  0.00  0.00     0.159 HD
BRANCH  11  13
ATOM     13  C9  C2F d   1      -8.766  72.440 118.814  0.00  0.00     0.009 C 
ATOM     14  H8  C2F d   1      -8.284  72.829 119.723  0.00  0.00     0.066 H 
ATOM     15  H9  C2F d   1      -8.147  72.682 117.938  0.00  0.00     0.066 H 
BRANCH  13  16
ATOM     16  C6  C2F d   1     -10.144  73.132 118.651  0.00  0.00     0.029 C 
ATOM     17  N5  C2F d   1      -9.945  74.487 118.027  0.00  0.00    -0.272 NA
ATOM     18  C4A C2F d   1      -9.480  75.480 118.979  0.00  0.00     0.126 A 
ATOM     19  C4  C2F d   1      -8.729  76.705 118.567  0.00  0.00     0.285 A 
ATOM     20  C8A C2F d   1      -9.723  75.341 120.463  0.00  0.00     0.170 A 
ATOM     21  N3  C2F d   1      -8.330  77.584 119.525  0.00  0.00    -0.153 N 
ATOM     22  O4  C2F d   1      -8.473  76.912 117.372  0.00  0.00    -0.266 OA
ATOM     23  C2  C2F d   1      -8.585  77.399 120.858  0.00  0.00     0.703 A 
ATOM     24  H3  C2F d   1      -7.828  78.402 119.244  0.00  0.00     0.187 HD
ATOM     25  N1  C2F d   1      -9.263  76.306 121.315  0.00  0.00    -0.045 NA
ATOM     26  NA2 C2F d   1      -8.156  78.320 121.759  0.00  0.00    -0.233 N 
ATOM     27  H1  C2F d   1      -8.345  78.186 122.763  0.00  0.00     0.174 HD
ATOM     28  H2  C2F d   1      -7.641  79.153 121.439  0.00  0.00     0.174 HD
ATOM     29  N8  C2F d   1     -10.390  74.253 120.925  0.00  0.00    -0.371 N 
ATOM     30  C7  C2F d   1     -10.886  73.194 120.034  0.00  0.00     0.011 C 
ATOM     31  H7  C2F d   1     -10.555  74.166 121.938  0.00  0.00     0.161 HD
ATOM     32  H5  C2F d   1     -10.758  72.226 120.540  0.00  0.00     0.066 H 
ATOM     33  H6  C2F d   1     -11.955  73.371 119.847  0.00  0.00     0.066 H 
ATOM     34  H4  C2F d   1     -10.759  72.530 117.966  0.00  0.00     0.069 H 
BRANCH  17  35
ATOM     35  C11 C2F d   1     -11.193  74.959 117.384  0.00  0.00    -0.028 C 
ATOM     36  H11 C2F d   1     -11.023  75.949 116.936  0.00  0.00     0.048 H 
ATOM     37  H12 C2F d   1     -11.990  75.030 118.139  0.00  0.00     0.048 H 
ATOM     38  H13 C2F d   1     -11.493  74.248 116.600  0.00  0.00     0.048 H 
ENDBRANCH  17  35
ENDBRANCH  13  16
ENDBRANCH  11  13
ENDBRANCH   4  11
BRANCH   1  39
ATOM     39  C   C2F d   1      -9.581  67.298 114.640  0.00  0.00     0.252 C 
ATOM     40  O   C2F d   1      -8.769  67.250 113.731  0.00  0.00    -0.268 OA
ATOM     41  N   C2F d   1     -10.659  66.510 114.726  0.00  0.00    -0.342 N 
ATOM     42  H18 C2F d   1     -11.237  66.665 115.528  0.00  0.00     0.163 HD
BRANCH  41  43
ATOM     43  CA  C2F d   1     -11.116  65.460 113.825  0.00  0.00     0.097 C 
ATOM     44  H19 C2F d   1     -10.284  64.755 113.681  0.00  0.00     0.089 H 
BRANCH  43  45
ATOM     45  CB  C2F d   1     -12.290  64.676 114.448  0.00  0.00    -0.028 C 
ATOM     46  H20 C2F d   1     -13.239  65.045 114.032  0.00  0.00     0.037 H 
ATOM     47  H21 C2F d   1     -12.288  64.818 115.539  0.00  0.00     0.037 H 
BRANCH  45  48
ATOM     48  CG  C2F d   1     -12.137  63.184 114.126  0.00  0.00     0.018 C 
ATOM     49  H22 C2F d   1     -11.184  62.822 114.540  0.00  0.00     0.049 H 
ATOM     50  H23 C2F d   1     -12.138  63.050 113.034  0.00  0.00     0.049 H 
BRANCH  48  51
ATOM     51  CD  C2F d   1     -13.285  62.373 114.731  0.00  0.00     0.172 C 
ATOM     52  OE1 C2F d   1     -14.400  62.970 114.753  0.00  0.00    -0.648 OA
ATOM     53  OE2 C2F d   1     -13.135  61.203 115.171  0.00  0.00    -0.648 OA
ENDBRANCH  48  51
ENDBRANCH  45  48
ENDBRANCH  43  45
BRANCH  43  54
ATOM     54  CT  C2F d   1     -11.475  66.033 112.462  0.00  0.00     0.196 C 
ATOM     55  O1  C2F d   1     -12.083  67.126 112.398  0.00  0.00    -0.646 OA
ATOM     56  O2  C2F d   1     -11.148  65.405 111.435  0.00  0.00    -0.646 OA
ENDBRANCH  43  54
ENDBRANCH  41  43
ENDBRANCH   1  39
TORSDOF 10
