REMARK  7 active torsions:
REMARK  status: ('A' for Active; 'I' for Inactive)
REMARK    1  A    between atoms: O_6  and  C4_5 
REMARK    2  A    between atoms: C5_7  and  O_6 
REMARK    3  A    between atoms: C8_10  and  C5_7 
REMARK    4  A    between atoms: C7_9  and  C6_8 
REMARK    5  A    between atoms: C9_11  and  S_14 
REMARK    6  A    between atoms: S_14  and  N_16 
REMARK    7  A    between atoms: C12_18  and  S1_19 
ROOT
ATOM      1  C   283 d   1      46.085  28.479   2.526  0.00  0.00    -0.049 A 
ATOM      2  C1  283 d   1      45.114  28.815   1.537  0.00  0.00    -0.058 A 
ATOM      3  C2  283 d   1      43.368  28.517   3.175  0.00  0.00    -0.058 A 
ATOM      4  C3  283 d   1      44.311  28.183   4.144  0.00  0.00    -0.049 A 
ATOM      5  C4  283 d   1      45.666  28.162   3.839  0.00  0.00     0.070 A 
ATOM      6  C9  283 d   1      43.753  28.833   1.884  0.00  0.00     0.074 A 
ATOM      7  H1  283 d   1      47.139  28.467   2.273  0.00  0.00     0.087 H 
ATOM      8  H2  283 d   1      45.424  29.055   0.526  0.00  0.00     0.086 H 
ATOM      9  H3  283 d   1      42.316  28.530   3.436  0.00  0.00     0.086 H 
ATOM     10  H4  283 d   1      43.984  27.937   5.148  0.00  0.00     0.087 H 
ENDROOT
BRANCH   6  11
ATOM     11  S   283 d   1      42.465  29.265   0.761  0.00  0.00     0.243 S 
ATOM     12  O1  283 d   1      42.995  28.767  -0.494  0.00  0.00    -0.206 OA
ATOM     13  O2  283 d   1      41.153  28.787   1.199  0.00  0.00    -0.206 OA
BRANCH  11  14
ATOM     14  N   283 d   1      42.224  31.016   0.755  0.00  0.00    -0.205 NA
ATOM     15  C10 283 d   1      40.884  31.586   0.411  0.00  0.00    -0.005 C 
ATOM     16  C13 283 d   1      40.290  31.901   1.762  0.00  0.00    -0.041 C 
ATOM     17  H10 283 d   1      40.269  30.851  -0.129  0.00  0.00     0.057 H 
ATOM     18  H11 283 d   1      40.986  32.497  -0.198  0.00  0.00     0.057 H 
ATOM     19  C12 283 d   1      41.200  31.432   2.888  0.00  0.00     0.002 C 
ATOM     20  H16 283 d   1      39.318  31.395   1.853  0.00  0.00     0.036 H 
ATOM     21  H17 283 d   1      40.147  32.988   1.846  0.00  0.00     0.036 H 
ATOM     22  C11 283 d   1      42.491  31.626   2.095  0.00  0.00     0.005 C 
ATOM     23  H14 283 d   1      41.026  30.351   2.992  0.00  0.00     0.058 H 
ATOM     24  H12 283 d   1      42.723  32.696   1.992  0.00  0.00     0.059 H 
ATOM     25  H13 283 d   1      43.329  31.115   2.591  0.00  0.00     0.059 H 
BRANCH  19  26
ATOM     26  S1  283 d   1      41.158  31.976   4.586  0.00  0.00    -0.176 SA
ATOM     27  H15 283 d   1      40.249  31.784   4.977  0.00  0.00     0.102 HD
ENDBRANCH  19  26
ENDBRANCH  11  14
ENDBRANCH   6  11
BRANCH   5  28
ATOM     28  O   283 d   1      46.472  27.817   4.923  0.00  0.00    -0.340 OA
BRANCH  28  29
ATOM     29  C5  283 d   1      47.914  27.774   4.760  0.00  0.00     0.080 C 
ATOM     30  H5  283 d   1      48.408  27.925   5.731  0.00  0.00     0.094 H 
ATOM     31  H6  283 d   1      48.238  28.556   4.058  0.00  0.00     0.094 H 
BRANCH  29  32
ATOM     32  C8  283 d   1      48.269  26.364   4.192  0.00  0.00    -0.080 C 
ATOM     33  C7  283 d   1      48.412  25.301   3.690  0.00  0.00    -0.109 C 
BRANCH  33  34
ATOM     34  C6  283 d   1      48.585  23.967   3.039  0.00  0.00    -0.021 C 
ATOM     35  H7  283 d   1      49.007  23.256   3.765  0.00  0.00     0.044 H 
ATOM     36  H8  283 d   1      49.267  24.063   2.182  0.00  0.00     0.044 H 
ATOM     37  H9  283 d   1      47.608  23.599   2.691  0.00  0.00     0.044 H 
ENDBRANCH  33  34
ENDBRANCH  29  32
ENDBRANCH  28  29
ENDBRANCH   5  28
TORSDOF 7
