REMARK  10 active torsions:
REMARK  status: ('A' for Active; 'I' for Inactive)
REMARK    1  A    between atoms: C3_14  and  C3A_1 
REMARK    2  A    between atoms: C3_14  and  O3A_4 
REMARK    3  A    between atoms: O6_9  and  PB_8 
REMARK    4  A    between atoms: PA_10  and  O6_9 
REMARK    5  A    between atoms: O5_11  and  PA_10 
REMARK    6  A    between atoms: C5_12  and  O5_11 
REMARK    7  A    between atoms: C4_13  and  C5_12 
REMARK    8  A    between atoms: C4_13  and  C3_14 
REMARK    9  A    between atoms: C3_14  and  C2_15 
REMARK   10  A    between atoms: C2_15  and  C1_16 
ROOT
ATOM      1  C4  DP6 d   1      25.996  25.511  48.001  0.00  0.00    -0.016 C 
ATOM      2  H7  DP6 d   1      26.424  26.515  48.143  0.00  0.00     0.040 H 
ATOM      3  H8  DP6 d   1      26.167  24.908  48.905  0.00  0.00     0.040 H 
ENDROOT
BRANCH   1   4
ATOM      4  C5  DP6 d   1      26.719  24.840  46.830  0.00  0.00     0.034 C 
ATOM      5  H5  DP6 d   1      26.320  23.826  46.679  0.00  0.00     0.075 H 
ATOM      6  H6  DP6 d   1      26.572  25.432  45.915  0.00  0.00     0.075 H 
BRANCH   4   7
ATOM      7  O5  DP6 d   1      28.114  24.769  47.141  0.00  0.00    -0.289 OA
BRANCH   7   8
ATOM      8  PA  DP6 d   1      29.206  24.517  45.990  0.00  0.00     0.418 P 
ATOM      9  O1A DP6 d   1      28.910  25.362  44.813  0.00  0.00    -0.624 OA
ATOM     10  O2A DP6 d   1      30.564  24.607  46.587  0.00  0.00    -0.624 OA
BRANCH   8  11
ATOM     11  O6  DP6 d   1      28.917  22.973  45.644  0.00  0.00    -0.173 OA
BRANCH  11  12
ATOM     12  PB  DP6 d   1      29.587  22.230  44.383  0.00  0.00     0.431 P 
ATOM     13  O1B DP6 d   1      30.068  23.169  43.348  0.00  0.00    -0.616 OA
ATOM     14  O2B DP6 d   1      28.444  21.248  43.833  0.00  0.00    -0.616 OA
ATOM     15  O3B DP6 d   1      30.746  21.292  44.982  0.00  0.00    -0.616 OA
ENDBRANCH  11  12
ENDBRANCH   8  11
ENDBRANCH   7   8
ENDBRANCH   4   7
ENDBRANCH   1   4
BRANCH   1  16
ATOM     16  C3  DP6 d   1      24.487  25.655  47.797  0.00  0.00     0.065 C 
BRANCH  16  17
ATOM     17  C3A DP6 d   1      23.813  24.338  48.187  0.00  0.00    -0.047 C 
ATOM     18  H1  DP6 d   1      24.171  23.534  47.528  0.00  0.00     0.031 H 
ATOM     19  H2  DP6 d   1      22.723  24.439  48.083  0.00  0.00     0.031 H 
ATOM     20  H3  DP6 d   1      24.061  24.094  49.230  0.00  0.00     0.031 H 
ENDBRANCH  16  17
BRANCH  16  21
ATOM     21  O3A DP6 d   1      24.017  26.694  48.658  0.00  0.00    -0.390 OA
ATOM     22  H4  DP6 d   1      24.433  27.514  48.419  0.00  0.00     0.210 HD
ENDBRANCH  16  21
BRANCH  16  23
ATOM     23  C2  DP6 d   1      24.165  26.003  46.337  0.00  0.00     0.044 C 
ATOM     24  H9  DP6 d   1      23.079  25.898  46.193  0.00  0.00     0.053 H 
ATOM     25  H10 DP6 d   1      24.692  25.285  45.692  0.00  0.00     0.053 H 
BRANCH  23  26
ATOM     26  C1  DP6 d   1      24.567  27.418  45.899  0.00  0.00     0.175 C 
ATOM     27  O1  DP6 d   1      25.058  27.621  44.791  0.00  0.00    -0.648 OA
ATOM     28  O2  DP6 d   1      24.384  28.374  46.643  0.00  0.00    -0.648 OA
ENDBRANCH  23  26
ENDBRANCH  16  23
ENDBRANCH   1  16
TORSDOF 10
