REMARK  9 active torsions:
REMARK  status: ('A' for Active; 'I' for Inactive)
REMARK    1  A    between atoms: C5_3  and  C7_7 
REMARK    2  A    between atoms: C9_11  and  N13_13 
REMARK    3  A    between atoms: N13_13  and  C14_14 
REMARK    4  A    between atoms: C19_15  and  C20_37 
REMARK    5  A    between atoms: C16_18  and  N21_20 
REMARK       I    between atoms: N21_20  and  C22_21 
REMARK    6  A    between atoms: C22_21  and  C23_22 
REMARK    7  A    between atoms: C27_25  and  C46_28 
REMARK    8  A    between atoms: C46_28  and  N48_29 
REMARK    9  A    between atoms: N51_32  and  C54_33 
ROOT
ATOM      1  N21 STI d   1      -1.869 -32.671   9.141  0.00  0.00    -0.323 N 
ATOM      2  C22 STI d   1      -1.908 -31.906   7.980  0.00  0.00     0.256 C 
ATOM      3  O29 STI d   1      -2.729 -32.046   7.073  0.00  0.00    -0.267 OA
ATOM      4  H11 STI d   1      -1.043 -32.569   9.696  0.00  0.00     0.169 HD
ENDROOT
BRANCH   1   5
ATOM      5  C16 STI d   1      -2.849 -33.586   9.654  0.00  0.00     0.037 A 
ATOM      6  C17 STI d   1      -2.554 -34.255  10.885  0.00  0.00    -0.057 A 
ATOM      7  C18 STI d   1      -3.486 -35.187  11.465  0.00  0.00    -0.073 A 
ATOM      8  H9  STI d   1      -1.615 -34.057  11.388  0.00  0.00     0.086 H 
ATOM      9  C19 STI d   1      -4.738 -35.471  10.823  0.00  0.00    -0.035 A 
ATOM     10  H8  STI d   1      -3.239 -35.680  12.398  0.00  0.00     0.084 H 
ATOM     11  C14 STI d   1      -5.047 -34.787   9.553  0.00  0.00     0.057 A 
ATOM     12  C15 STI d   1      -4.117 -33.870   8.995  0.00  0.00    -0.030 A 
ATOM     13  H10 STI d   1      -4.355 -33.372   8.062  0.00  0.00     0.090 H 
BRANCH   9  14
ATOM     14  C20 STI d   1      -5.694 -36.479  11.505  0.00  0.00    -0.049 C 
ATOM     15  H31 STI d   1      -6.604 -36.590  10.897  0.00  0.00     0.033 H 
ATOM     16  H32 STI d   1      -5.964 -36.109  12.505  0.00  0.00     0.033 H 
ATOM     17  H33 STI d   1      -5.194 -37.454  11.597  0.00  0.00     0.033 H 
ENDBRANCH   9  14
BRANCH  11  18
ATOM     18  N13 STI d   1      -6.257 -35.020   8.879  0.00  0.00    -0.188 N 
ATOM     19  H7  STI d   1      -7.046 -34.377   9.035  0.00  0.00     0.184 HD
BRANCH  18  20
ATOM     20  C9  STI d   1      -6.426 -36.096   8.003  0.00  0.00     0.727 A 
ATOM     21  N10 STI d   1      -5.418 -37.002   7.726  0.00  0.00    -0.075 NA
ATOM     22  C11 STI d   1      -5.629 -38.061   6.856  0.00  0.00     0.023 A 
ATOM     23  C12 STI d   1      -6.894 -38.234   6.231  0.00  0.00    -0.036 A 
ATOM     24  H6  STI d   1      -4.826 -38.760   6.652  0.00  0.00     0.115 H 
ATOM     25  C7  STI d   1      -7.915 -37.272   6.544  0.00  0.00     0.089 A 
ATOM     26  H5  STI d   1      -7.080 -39.055   5.548  0.00  0.00     0.089 H 
ATOM     27  N8  STI d   1      -7.636 -36.243   7.418  0.00  0.00    -0.062 NA
BRANCH  25  28
ATOM     28  C5  STI d   1      -9.298 -37.312   5.984  0.00  0.00     0.011 A 
ATOM     29  C6  STI d   1      -9.779 -38.386   5.130  0.00  0.00    -0.068 A 
ATOM     30  C1  STI d   1     -11.122 -38.379   4.620  0.00  0.00    -0.065 A 
ATOM     31  H2  STI d   1      -9.115 -39.204   4.875  0.00  0.00     0.085 H 
ATOM     32  C2  STI d   1     -11.978 -37.284   4.976  0.00  0.00     0.002 A 
ATOM     33  H1  STI d   1     -11.479 -39.180   3.983  0.00  0.00     0.085 H 
ATOM     34  N3  STI d   1     -11.504 -36.256   5.802  0.00  0.00    -0.272 NA
ATOM     35  H4  STI d   1     -12.996 -37.252   4.604  0.00  0.00     0.114 H 
ATOM     36  C4  STI d   1     -10.217 -36.237   6.306  0.00  0.00     0.014 A 
ATOM     37  H3  STI d   1      -9.895 -35.420   6.941  0.00  0.00     0.116 H 
ENDBRANCH  25  28
ENDBRANCH  18  20
ENDBRANCH  11  18
ENDBRANCH   1   5
BRANCH   2  38
ATOM     38  C23 STI d   1      -0.860 -30.841   7.806  0.00  0.00     0.032 A 
ATOM     39  C25 STI d   1      -1.009 -29.753   6.831  0.00  0.00    -0.067 A 
ATOM     40  C26 STI d   1       0.037 -28.761   6.694  0.00  0.00    -0.074 A 
ATOM     41  H12 STI d   1      -1.899 -29.693   6.216  0.00  0.00     0.085 H 
ATOM     42  C27 STI d   1       1.229 -28.856   7.532  0.00  0.00    -0.033 A 
ATOM     43  H13 STI d   1      -0.064 -27.955   5.976  0.00  0.00     0.084 H 
ATOM     44  C28 STI d   1       1.341 -29.939   8.486  0.00  0.00    -0.074 A 
ATOM     45  C29 STI d   1       0.327 -30.907   8.623  0.00  0.00    -0.067 A 
ATOM     46  H14 STI d   1       2.225 -30.007   9.109  0.00  0.00     0.084 H 
ATOM     47  H15 STI d   1       0.439 -31.706   9.347  0.00  0.00     0.085 H 
BRANCH  42  48
ATOM     48  C46 STI d   1       2.397 -27.861   7.448  0.00  0.00     0.107 C 
ATOM     49  H16 STI d   1       2.382 -27.263   8.371  0.00  0.00     0.083 H 
ATOM     50  H17 STI d   1       2.206 -27.207   6.584  0.00  0.00     0.083 H 
BRANCH  48  51
ATOM     51  N48 STI d   1       3.784 -28.404   7.295  0.00  0.00    -0.064 N 
ATOM     52  C53 STI d   1       3.878 -29.312   6.101  0.00  0.00     0.106 C 
ATOM     53  C52 STI d   1       5.310 -29.890   5.936  0.00  0.00     0.105 C 
ATOM     54  H19 STI d   1       3.616 -28.742   5.197  0.00  0.00     0.078 H 
ATOM     55  H20 STI d   1       3.169 -30.144   6.228  0.00  0.00     0.078 H 
ATOM     56  N51 STI d   1       6.328 -28.771   5.830  0.00  0.00    -0.072 N 
ATOM     57  H21 STI d   1       5.350 -30.503   5.023  0.00  0.00     0.078 H 
ATOM     58  H22 STI d   1       5.550 -30.516   6.808  0.00  0.00     0.078 H 
ATOM     59  C50 STI d   1       6.265 -27.848   7.044  0.00  0.00     0.105 C 
ATOM     60  H23 STI d   1       6.094 -28.229   5.013  0.00  0.00     0.279 HD
ATOM     61  C49 STI d   1       4.818 -27.286   7.193  0.00  0.00     0.106 C 
ATOM     62  H27 STI d   1       6.970 -27.015   6.908  0.00  0.00     0.078 H 
ATOM     63  H28 STI d   1       6.534 -28.413   7.949  0.00  0.00     0.078 H 
ATOM     64  H29 STI d   1       4.767 -26.670   8.103  0.00  0.00     0.078 H 
ATOM     65  H30 STI d   1       4.585 -26.665   6.316  0.00  0.00     0.078 H 
ATOM     66  H18 STI d   1       3.995 -28.947   8.118  0.00  0.00     0.280 HD
BRANCH  56  67
ATOM     67  C54 STI d   1       7.706 -29.257   5.664  0.00  0.00     0.066 C 
ATOM     68  H24 STI d   1       8.391 -28.399   5.594  0.00  0.00     0.068 H 
ATOM     69  H25 STI d   1       7.775 -29.858   4.745  0.00  0.00     0.068 H 
ATOM     70  H26 STI d   1       7.983 -29.878   6.529  0.00  0.00     0.068 H 
ENDBRANCH  56  67
ENDBRANCH  48  51
ENDBRANCH  42  48
ENDBRANCH   2  38
TORSDOF 9
