REMARK  5 active torsions:
REMARK  status: ('A' for Active; 'I' for Inactive)
REMARK    1  A    between atoms: C1_1  and  N2_2 
REMARK    2  A    between atoms: N2_2  and  C3_3 
REMARK       I    between atoms: N2_2  and  C4_4 
REMARK    3  A    between atoms: C4_4  and  C6_6 
REMARK    4  A    between atoms: C8_8  and  C12_11 
REMARK    5  A    between atoms: C17_15  and  C18_16 
ROOT
ATOM      1  C6  19A d   1     -12.664  11.933  40.269  0.00  0.00     0.101 A 
ATOM      2  C7  19A d   1     -13.700  12.321  41.096  0.00  0.00    -0.038 A 
ATOM      3  C8  19A d   1     -14.911  11.823  40.594  0.00  0.00     0.011 A 
ATOM      4  C9  19A d   1     -14.592  11.123  39.452  0.00  0.00    -0.010 A 
ATOM      5  N10 19A d   1     -13.244  11.188  39.259  0.00  0.00    -0.361 N 
ATOM      6  H7  19A d   1     -13.593  12.921  41.998  0.00  0.00     0.088 H 
ATOM      7  H8  19A d   1     -15.300  10.603  38.809  0.00  0.00     0.112 H 
ATOM      8  H9  19A d   1     -12.735  10.749  38.479  0.00  0.00     0.165 HD
ENDROOT
BRANCH   3   9
ATOM      9  C12 19A d   1     -16.293  12.005  41.194  0.00  0.00     0.074 A 
ATOM     10  N13 19A d   1     -17.251  11.090  41.127  0.00  0.00    -0.277 N 
ATOM     11  N14 19A d   1     -18.384  11.564  41.780  0.00  0.00    -0.186 NA
ATOM     12  H10 19A d   1     -17.169  10.173  40.664  0.00  0.00     0.189 HD
ATOM     13  C16 19A d   1     -18.131  12.785  42.261  0.00  0.00     0.035 A 
ATOM     14  C17 19A d   1     -16.837  13.124  41.933  0.00  0.00     0.022 A 
ATOM     15  H11 19A d   1     -18.830  13.407  42.818  0.00  0.00     0.118 H 
BRANCH  14  16
ATOM     16  C18 19A d   1     -16.183  14.428  42.311  0.00  0.00    -0.022 A 
ATOM     17  C19 19A d   1     -15.487  15.246  41.368  0.00  0.00    -0.072 A 
ATOM     18  C20 19A d   1     -14.896  16.461  41.779  0.00  0.00    -0.082 A 
ATOM     19  H12 19A d   1     -15.412  14.932  40.333  0.00  0.00     0.084 H 
ATOM     20  C21 19A d   1     -15.005  16.869  43.127  0.00  0.00    -0.083 A 
ATOM     21  H13 19A d   1     -14.362  17.077  41.064  0.00  0.00     0.083 H 
ATOM     22  C22 19A d   1     -15.696  16.063  44.074  0.00  0.00    -0.082 A 
ATOM     23  H14 19A d   1     -14.558  17.805  43.443  0.00  0.00     0.083 H 
ATOM     24  C23 19A d   1     -16.280  14.859  43.672  0.00  0.00    -0.072 A 
ATOM     25  H15 19A d   1     -15.769  16.383  45.107  0.00  0.00     0.083 H 
ATOM     26  H16 19A d   1     -16.809  14.248  44.395  0.00  0.00     0.084 H 
ENDBRANCH  14  16
ENDBRANCH   3   9
BRANCH   1  27
ATOM     27  C4  19A d   1     -11.176  12.224  40.412  0.00  0.00     0.269 C 
ATOM     28  N2  19A d   1     -10.626  13.263  41.177  0.00  0.00    -0.355 N 
ATOM     29  O5  19A d   1     -10.408  11.485  39.810  0.00  0.00    -0.266 OA
BRANCH  28  30
ATOM     30  C1  19A d   1      -9.160  13.415  41.239  0.00  0.00    -0.016 C 
ATOM     31  H1  19A d   1      -8.907  14.274  41.878  0.00  0.00     0.056 H 
ATOM     32  H2  19A d   1      -8.766  13.584  40.226  0.00  0.00     0.056 H 
ATOM     33  H3  19A d   1      -8.714  12.501  41.659  0.00  0.00     0.056 H 
ENDBRANCH  28  30
BRANCH  28  34
ATOM     34  C3  19A d   1     -11.436  14.225  41.934  0.00  0.00    -0.016 C 
ATOM     35  H4  19A d   1     -12.503  13.994  41.797  0.00  0.00     0.056 H 
ATOM     36  H5  19A d   1     -11.232  15.243  41.570  0.00  0.00     0.056 H 
ATOM     37  H6  19A d   1     -11.180  14.159  43.002  0.00  0.00     0.056 H 
ENDBRANCH  28  34
ENDBRANCH   1  27
TORSDOF 5
