REMARK  7 active torsions:
REMARK  status: ('A' for Active; 'I' for Inactive)
REMARK    1  A    between atoms: C10_23  and  C14_2 
REMARK    2  A    between atoms: C19_5  and  C20_6 
REMARK    3  A    between atoms: C3_17  and  C27_12 
REMARK    4  A    between atoms: C2_16  and  O1_15 
REMARK    5  A    between atoms: C3_17  and  C2_16 
REMARK    6  A    between atoms: N5_18  and  C3_17 
REMARK       I    between atoms: C6_19  and  N5_18 
REMARK    7  A    between atoms: C8_21  and  C6_19 
ROOT
ATOM      1  C11 82A d   1     -15.365  10.791  38.908  0.00  0.00    -0.010 A 
ATOM      2  C8  82A d   1     -13.456  11.812  39.373  0.00  0.00     0.101 A 
ATOM      3  C9  82A d   1     -14.412  12.346  40.191  0.00  0.00    -0.038 A 
ATOM      4  C10 82A d   1     -15.637  11.698  39.896  0.00  0.00     0.011 A 
ATOM      5  N12 82A d   1     -14.058  10.857  38.593  0.00  0.00    -0.361 N 
ATOM      6  H1  82A d   1     -16.091  10.122  38.449  0.00  0.00     0.112 H 
ATOM      7  H13 82A d   1     -14.260  13.127  40.934  0.00  0.00     0.088 H 
ATOM      8  H14 82A d   1     -13.585  10.283  37.880  0.00  0.00     0.165 HD
ENDROOT
BRANCH   2   9
ATOM      9  C6  82A d   1     -12.037  12.194  39.323  0.00  0.00     0.268 C 
ATOM     10  N5  82A d   1     -11.605  13.271  40.036  0.00  0.00    -0.345 N 
ATOM     11  H12 82A d   1     -12.259  13.766  40.609  0.00  0.00     0.163 HD
ATOM     12  O7  82A d   1     -11.267  11.563  38.615  0.00  0.00    -0.266 OA
BRANCH  10  13
ATOM     13  C3  82A d   1     -10.201  13.733  39.991  0.00  0.00     0.058 C 
ATOM     14  H11 82A d   1      -9.569  12.933  39.579  0.00  0.00     0.083 H 
BRANCH  13  15
ATOM     15  C27 82A d   1     -10.142  14.950  39.073  0.00  0.00    -0.032 A 
ATOM     16  C28 82A d   1     -11.062  16.018  39.247  0.00  0.00    -0.072 A 
ATOM     17  C29 82A d   1     -11.019  17.141  38.398  0.00  0.00    -0.043 A 
ATOM     18  H16 82A d   1     -11.802  15.969  40.038  0.00  0.00     0.084 H 
ATOM     19  C30 82A d   1     -10.062  17.212  37.365  0.00  0.00     0.138 A 
ATOM     20  H7  82A d   1     -11.723  17.953  38.539  0.00  0.00     0.088 H 
ATOM     21  F31 82A d   1     -10.038  18.298  36.559  0.00  0.00    -0.204 F 
ATOM     22  C32 82A d   1      -9.135  16.146  37.182  0.00  0.00     0.073 A 
ATOM     23 CL33 82A d   1      -7.944  16.214  35.909  0.00  0.00    -0.081 Cl
ATOM     24  C34 82A d   1      -9.181  15.017  38.039  0.00  0.00    -0.051 A 
ATOM     25  H17 82A d   1      -8.478  14.204  37.901  0.00  0.00     0.087 H 
ENDBRANCH  13  15
BRANCH  13  26
ATOM     26  C2  82A d   1      -9.688  14.093  41.399  0.00  0.00     0.039 C 
ATOM     27  H9  82A d   1      -8.910  13.374  41.695  0.00  0.00     0.077 H 
ATOM     28  H10 82A d   1      -9.262  15.107  41.381  0.00  0.00     0.077 H 
BRANCH  26  29
ATOM     29  O1  82A d   1     -10.757  14.048  42.349  0.00  0.00    -0.399 OA
ATOM     30  H8  82A d   1     -10.424  14.272  43.210  0.00  0.00     0.209 HD
ENDBRANCH  26  29
ENDBRANCH  13  26
ENDBRANCH  10  13
ENDBRANCH   2   9
BRANCH   4  31
ATOM     31  C14 82A d   1     -17.004  11.920  40.507  0.00  0.00     0.074 A 
ATOM     32  C19 82A d   1     -17.519  13.033  41.301  0.00  0.00     0.022 A 
ATOM     33  C18 82A d   1     -18.821  12.725  41.593  0.00  0.00     0.035 A 
ATOM     34  N16 82A d   1     -19.121  11.537  41.046  0.00  0.00    -0.186 NA
ATOM     35  H2  82A d   1     -19.503  13.344  42.175  0.00  0.00     0.118 H 
ATOM     36  N15 82A d   1     -17.995  11.055  40.382  0.00  0.00    -0.277 N 
ATOM     37  H15 82A d   1     -17.943  10.162  39.872  0.00  0.00     0.189 HD
BRANCH  32  38
ATOM     38  C20 82A d   1     -16.832  14.301  41.759  0.00  0.00    -0.021 A 
ATOM     39  C21 82A d   1     -16.876  14.668  43.141  0.00  0.00    -0.072 A 
ATOM     40  C22 82A d   1     -16.243  15.846  43.584  0.00  0.00    -0.081 A 
ATOM     41  H3  82A d   1     -17.399  14.037  43.850  0.00  0.00     0.084 H 
ATOM     42  C23 82A d   1     -15.562  16.671  42.665  0.00  0.00    -0.062 A 
ATOM     43  H4  82A d   1     -16.279  16.119  44.633  0.00  0.00     0.083 H 
ATOM     44  C24 82A d   1     -15.510  16.322  41.298  0.00  0.00     0.034 A 
ATOM     45  H5  82A d   1     -15.076  17.577  43.010  0.00  0.00     0.086 H 
ATOM     46  C26 82A d   1     -16.142  15.149  40.842  0.00  0.00    -0.051 A 
ATOM     47 CL25 82A d   1     -14.663  17.336  40.177  0.00  0.00    -0.084 Cl
ATOM     48  H6  82A d   1     -16.104  14.889  39.790  0.00  0.00     0.087 H 
ENDBRANCH  32  38
ENDBRANCH   4  31
TORSDOF 7
