REMARK  21 active torsions:
REMARK  status: ('A' for Active; 'I' for Inactive)
REMARK    1  A    between atoms: CA_2  and  N_1 
REMARK    2  A    between atoms: CA_2  and  CB_5 
REMARK    3  A    between atoms: C_3  and  CA_2 
REMARK       I    between atoms: N_10  and  C_3 
REMARK    4  A    between atoms: CB_5  and  CG_6 
REMARK    5  A    between atoms: CG_6  and  CD_7 
REMARK    6  A    between atoms: CD_7  and  CE_8 
REMARK    7  A    between atoms: CE_8  and  NZ_9 
REMARK    8  A    between atoms: CA_11  and  N_10 
REMARK    9  A    between atoms: CA_11  and  CB_14 
REMARK   10  A    between atoms: C_12  and  CA_11 
REMARK       I    between atoms: C_12  and  N_19 
REMARK   11  A    between atoms: CB_14  and  CG_15 
REMARK   12  A    between atoms: CG_15  and  CD_16 
REMARK   13  A    between atoms: CD_16  and  CE_17 
REMARK   14  A    between atoms: CE_17  and  NZ_18 
REMARK   15  A    between atoms: N_19  and  CA_20 
REMARK   16  A    between atoms: CA_20  and  CB_23 
REMARK   17  A    between atoms: CA_20  and  C_21 
REMARK   18  A    between atoms: CB_23  and  CG_24 
REMARK   19  A    between atoms: CG_24  and  CD_25 
REMARK   20  A    between atoms: CD_25  and  CE_26 
REMARK   21  A    between atoms: CE_26  and  NZ_27 
ROOT
ATOM      1  CA  LYS d   1       4.181  20.548  16.326  0.00  0.00     0.089 C 
ATOM      2  H17 LYS d   1       4.050  20.023  17.284  0.00  0.00     0.087 H 
ENDROOT
BRANCH   1   3
ATOM      3  N   LYS d   1       5.238  19.904  15.565  0.00  0.00    -0.346 N 
ATOM      4  C   LYS d   1       5.315  18.600  15.464  0.00  0.00     0.248 C 
ATOM      5  O   LYS d   1       4.519  17.834  16.026  0.00  0.00    -0.271 OA
ATOM      6  H16 LYS d   1       5.924  20.470  15.107  0.00  0.00     0.163 HD
BRANCH   4   7
ATOM      7  CA  LYS d   1       6.511  18.100  14.639  0.00  0.00     0.176 C 
ATOM      8  H4  LYS d   1       7.343  18.809  14.759  0.00  0.00     0.099 H 
BRANCH   7   9
ATOM      9  N   LYS d   1       6.940  16.780  15.242  0.00  0.00    -0.067 N 
ATOM     10  H1  LYS d   1       7.726  16.416  14.728  0.00  0.00     0.275 HD
ATOM     11  H2  LYS d   1       6.175  16.125  15.195  0.00  0.00     0.275 HD
ATOM     12  H3  LYS d   1       7.204  16.920  16.205  0.00  0.00     0.275 HD
ENDBRANCH   7   9
BRANCH   7  13
ATOM     13  CB  LYS d   1       6.169  18.065  13.168  0.00  0.00    -0.030 C 
ATOM     14  H5  LYS d   1       7.109  18.000  12.600  0.00  0.00     0.036 H 
ATOM     15  H6  LYS d   1       5.652  19.002  12.915  0.00  0.00     0.036 H 
BRANCH  13  16
ATOM     16  CG  LYS d   1       5.284  16.911  12.745  0.00  0.00    -0.061 C 
ATOM     17  H7  LYS d   1       4.265  17.083  13.123  0.00  0.00     0.033 H 
ATOM     18  H8  LYS d   1       5.681  15.979  13.173  0.00  0.00     0.033 H 
BRANCH  16  19
ATOM     19  CD  LYS d   1       5.235  16.779  11.209  0.00  0.00    -0.043 C 
ATOM     20  H9  LYS d   1       5.171  17.782  10.761  0.00  0.00     0.035 H 
ATOM     21  H10 LYS d   1       4.349  16.193  10.924  0.00  0.00     0.035 H 
BRANCH  19  22
ATOM     22  CE  LYS d   1       6.485  16.080  10.694  0.00  0.00     0.080 C 
ATOM     23  H11 LYS d   1       7.372  16.540  11.153  0.00  0.00     0.075 H 
ATOM     24  H12 LYS d   1       6.538  16.192   9.601  0.00  0.00     0.075 H 
BRANCH  22  25
ATOM     25  NZ  LYS d   1       6.449  14.619  11.041  0.00  0.00    -0.079 N 
ATOM     26  H13 LYS d   1       7.282  14.171  10.694  0.00  0.00     0.274 HD
ATOM     27  H14 LYS d   1       5.638  14.194  10.620  0.00  0.00     0.274 HD
ATOM     28  H15 LYS d   1       6.402  14.512  12.042  0.00  0.00     0.274 HD
ENDBRANCH  22  25
ENDBRANCH  19  22
ENDBRANCH  16  19
ENDBRANCH  13  16
ENDBRANCH   7  13
ENDBRANCH   4   7
ENDBRANCH   1   3
BRANCH   1  29
ATOM     29  CB  LYS d   1       4.572  22.049  16.594  0.00  0.00    -0.038 C 
ATOM     30  H18 LYS d   1       3.666  22.646  16.775  0.00  0.00     0.036 H 
ATOM     31  H19 LYS d   1       5.112  22.456  15.726  0.00  0.00     0.036 H 
BRANCH  29  32
ATOM     32  CG  LYS d   1       5.503  22.083  17.872  0.00  0.00    -0.061 C 
ATOM     33  H20 LYS d   1       6.468  21.621  17.615  0.00  0.00     0.033 H 
ATOM     34  H21 LYS d   1       5.020  21.503  18.672  0.00  0.00     0.033 H 
BRANCH  32  35
ATOM     35  CD  LYS d   1       5.755  23.450  18.369  0.00  0.00    -0.043 C 
ATOM     36  H22 LYS d   1       4.790  23.974  18.430  0.00  0.00     0.035 H 
ATOM     37  H23 LYS d   1       6.406  23.962  17.645  0.00  0.00     0.035 H 
BRANCH  35  38
ATOM     38  CE  LYS d   1       6.421  23.525  19.739  0.00  0.00     0.080 C 
ATOM     39  H24 LYS d   1       5.634  23.656  20.497  0.00  0.00     0.075 H 
ATOM     40  H25 LYS d   1       7.088  24.399  19.749  0.00  0.00     0.075 H 
BRANCH  38  41
ATOM     41  NZ  LYS d   1       7.218  22.331  20.102  0.00  0.00    -0.079 N 
ATOM     42  H26 LYS d   1       7.621  22.462  21.017  0.00  0.00     0.274 HD
ATOM     43  H27 LYS d   1       7.954  22.200  19.426  0.00  0.00     0.274 HD
ATOM     44  H28 LYS d   1       6.621  21.519  20.111  0.00  0.00     0.274 HD
ENDBRANCH  38  41
ENDBRANCH  35  38
ENDBRANCH  32  35
ENDBRANCH  29  32
ENDBRANCH   1  29
BRANCH   1  45
ATOM     45  C   LYS d   1       2.869  20.512  15.543  0.00  0.00     0.241 C 
ATOM     46  O   LYS d   1       2.813  20.759  14.357  0.00  0.00    -0.271 OA
ATOM     47  N   LYS d   1       1.801  20.207  16.310  0.00  0.00    -0.345 N 
ATOM     48  H29 LYS d   1       1.935  19.992  17.277  0.00  0.00     0.163 HD
BRANCH  47  49
ATOM     49  CA  LYS d   1       0.457  20.186  15.751  0.00  0.00     0.096 C 
ATOM     50  H30 LYS d   1       0.444  20.839  14.866  0.00  0.00     0.089 H 
BRANCH  49  51
ATOM     51  CB  LYS d   1       0.005  18.802  15.311  0.00  0.00    -0.037 C 
ATOM     52  H31 LYS d   1      -0.410  18.253  16.169  0.00  0.00     0.036 H 
ATOM     53  H32 LYS d   1       0.857  18.244  14.896  0.00  0.00     0.036 H 
BRANCH  51  54
ATOM     54  CG  LYS d   1      -1.089  18.988  14.221  0.00  0.00    -0.061 C 
ATOM     55  H33 LYS d   1      -0.639  19.430  13.319  0.00  0.00     0.033 H 
ATOM     56  H34 LYS d   1      -1.878  19.653  14.601  0.00  0.00     0.033 H 
BRANCH  54  57
ATOM     57  CD  LYS d   1      -1.683  17.640  13.882  0.00  0.00    -0.043 C 
ATOM     58  H35 LYS d   1      -2.245  17.281  14.757  0.00  0.00     0.035 H 
ATOM     59  H36 LYS d   1      -0.859  16.944  13.665  0.00  0.00     0.035 H 
BRANCH  57  60
ATOM     60  CE  LYS d   1      -2.623  17.656  12.683  0.00  0.00     0.080 C 
ATOM     61  H37 LYS d   1      -3.065  16.655  12.568  0.00  0.00     0.075 H 
ATOM     62  H38 LYS d   1      -2.042  17.907  11.783  0.00  0.00     0.075 H 
BRANCH  60  63
ATOM     63  NZ  LYS d   1      -3.733  18.658  12.835  0.00  0.00    -0.079 N 
ATOM     64  H39 LYS d   1      -4.325  18.630  12.020  0.00  0.00     0.274 HD
ATOM     65  H40 LYS d   1      -3.341  19.581  12.934  0.00  0.00     0.274 HD
ATOM     66  H41 LYS d   1      -4.278  18.435  13.653  0.00  0.00     0.274 HD
ENDBRANCH  60  63
ENDBRANCH  57  60
ENDBRANCH  54  57
ENDBRANCH  51  54
ENDBRANCH  49  51
BRANCH  49  67
ATOM     67  C   LYS d   1      -0.526  20.767  16.818  0.00  0.00     0.196 C 
ATOM     68  O   LYS d   1      -1.700  20.346  16.804  0.00  0.00    -0.646 OA
ATOM     69  OXT LYS d   1      -0.158  21.629  17.639  0.00  0.00    -0.646 OA
ENDBRANCH  49  67
ENDBRANCH  47  49
ENDBRANCH   1  45
TORSDOF 21
