REMARK  5 active torsions:
REMARK  status: ('A' for Active; 'I' for Inactive)
REMARK    1  A    between atoms: C1'_19  and  C9_1 
REMARK    2  A    between atoms: C5'_12  and  O5'_11 
REMARK    3  A    between atoms: C4'_13  and  C5'_12 
REMARK    4  A    between atoms: C3'_15  and  O3'_16 
REMARK    5  A    between atoms: C2'_17  and  O2'_18 
ROOT
ATOM      1  C4' IMH d   1      11.577  13.581  60.717  0.00  0.00     0.149 C 
ATOM      2  N4' IMH d   1      11.704  13.130  59.321  0.00  0.00    -0.055 N 
ATOM      3  C3' IMH d   1      12.996  13.538  61.297  0.00  0.00     0.092 C 
ATOM      4  C2' IMH d   1      13.832  12.719  60.276  0.00  0.00     0.094 C 
ATOM      5  C1' IMH d   1      12.840  12.209  59.182  0.00  0.00     0.158 C 
ATOM      6  H8  IMH d   1      10.917  12.896  61.270  0.00  0.00     0.091 H 
ATOM      7  H9  IMH d   1      11.850  13.930  58.725  0.00  0.00     0.278 HD
ATOM      8  H10 IMH d   1      10.857  12.657  59.046  0.00  0.00     0.278 HD
ATOM      9  H11 IMH d   1      13.392  14.564  61.299  0.00  0.00     0.090 H 
ATOM     10  H13 IMH d   1      14.502  13.434  59.776  0.00  0.00     0.090 H 
ATOM     11  H15 IMH d   1      12.457  11.231  59.508  0.00  0.00     0.096 H 
ENDROOT
BRANCH   5  12
ATOM     12  C9  IMH d   1      13.546  11.892  57.874  0.00  0.00     0.022 A 
ATOM     13  C8  IMH d   1      14.514  12.651  57.200  0.00  0.00    -0.012 A 
ATOM     14  N7  IMH d   1      14.950  11.932  56.093  0.00  0.00    -0.360 N 
ATOM     15  H1  IMH d   1      14.865  13.639  57.495  0.00  0.00     0.112 H 
ATOM     16  C5  IMH d   1      14.345  10.715  56.018  0.00  0.00     0.116 A 
ATOM     17  H2  IMH d   1      15.644  12.277  55.414  0.00  0.00     0.165 HD
ATOM     18  C6  IMH d   1      14.354   9.520  55.143  0.00  0.00     0.209 A 
ATOM     19  C4  IMH d   1      13.417  10.597  57.161  0.00  0.00     0.099 A 
ATOM     20  O6  IMH d   1      15.147   9.441  54.048  0.00  0.00    -0.170 OA
ATOM     21  N1  IMH d   1      13.534   8.475  55.452  0.00  0.00    -0.327 N 
ATOM     22  C2  IMH d   1      12.709   8.463  56.524  0.00  0.00     0.066 A 
ATOM     23  H3  IMH d   1      13.543   7.674  54.853  0.00  0.00     0.168 HD
ATOM     24  N3  IMH d   1      12.634   9.504  57.365  0.00  0.00    -0.241 NA
ATOM     25  H4  IMH d   1      12.091   7.586  56.708  0.00  0.00     0.143 H 
ENDBRANCH   5  12
BRANCH   4  26
ATOM     26  O2' IMH d   1      14.722  11.724  60.856  0.00  0.00    -0.390 OA
ATOM     27  H14 IMH d   1      15.189  11.275  60.161  0.00  0.00     0.210 HD
ENDBRANCH   4  26
BRANCH   1  28
ATOM     28  C5' IMH d   1      11.029  14.985  60.825  0.00  0.00     0.046 C 
ATOM     29  H6  IMH d   1      10.941  15.418  59.818  0.00  0.00     0.077 H 
ATOM     30  H7  IMH d   1      10.036  14.951  61.297  0.00  0.00     0.077 H 
BRANCH  28  31
ATOM     31  O5' IMH d   1      11.899  15.799  61.614  0.00  0.00    -0.399 OA
ATOM     32  H5  IMH d   1      12.757  15.831  61.207  0.00  0.00     0.209 HD
ENDBRANCH  28  31
ENDBRANCH   1  28
BRANCH   3  33
ATOM     33  O3' IMH d   1      13.053  13.091  62.670  0.00  0.00    -0.391 OA
ATOM     34  H12 IMH d   1      12.543  13.679  63.215  0.00  0.00     0.210 HD
ENDBRANCH   3  33
TORSDOF 5
