REMARK  7 active torsions:
REMARK  status: ('A' for Active; 'I' for Inactive)
REMARK    1  A    between atoms: N15_20  and  C7_2 
REMARK    2  A    between atoms: C21_5  and  O20_22 
REMARK    3  A    between atoms: O13_11  and  C14_10 
REMARK    4  A    between atoms: C2_12  and  O13_11 
REMARK    5  A    between atoms: C1_13  and  O11_14 
REMARK    6  A    between atoms: O11_14  and  C12_15 
REMARK    7  A    between atoms: O20_22  and  C17_21 
ROOT
ATOM      1  C18 PFH d   1       9.689  21.805  45.675  0.00  0.00    -0.028 C 
ATOM      2  C16 PFH d   1      11.276  20.705  44.144  0.00  0.00     0.009 C 
ATOM      3  C19 PFH d   1      10.461  20.689  46.412  0.00  0.00    -0.013 C 
ATOM      4  N15 PFH d   1      10.992  19.848  45.313  0.00  0.00    -0.264 NA
ATOM      5  C17 PFH d   1      10.344  21.962  44.271  0.00  0.00     0.058 C 
ATOM      6  H3  PFH d   1       9.764  22.749  46.234  0.00  0.00     0.038 H 
ATOM      7  H4  PFH d   1       8.630  21.525  45.569  0.00  0.00     0.038 H 
ATOM      8  H5  PFH d   1      11.056  20.162  43.213  0.00  0.00     0.060 H 
ATOM      9  H6  PFH d   1      12.332  21.014  44.148  0.00  0.00     0.060 H 
ATOM     10  H7  PFH d   1       9.788  20.109  47.061  0.00  0.00     0.056 H 
ATOM     11  H8  PFH d   1      11.279  21.110  47.015  0.00  0.00     0.056 H 
ATOM     12  H16 PFH d   1       9.573  21.950  43.486  0.00  0.00     0.086 H 
ENDROOT
BRANCH   4  13
ATOM     13  C7  PFH d   1      11.963  18.934  45.682  0.00  0.00     0.119 A 
ATOM     14  C6  PFH d   1      12.508  17.945  44.774  0.00  0.00     0.036 A 
ATOM     15  C3  PFH d   1      12.171  17.815  43.397  0.00  0.00    -0.033 A 
ATOM     16  C5  PFH d   1      13.446  17.031  45.318  0.00  0.00     0.074 A 
ATOM     17  C2  PFH d   1      12.736  16.847  42.588  0.00  0.00     0.102 A 
ATOM     18  H15 PFH d   1      11.447  18.498  42.968  0.00  0.00     0.089 H 
ATOM     19  C1  PFH d   1      13.681  15.958  43.156  0.00  0.00     0.103 A 
ATOM     20  C4  PFH d   1      14.030  16.049  44.500  0.00  0.00    -0.019 A 
ATOM     21  H1  PFH d   1      14.755  15.360  44.917  0.00  0.00     0.091 H 
ATOM     22  N10 PFH d   1      13.772  17.117  46.611  0.00  0.00    -0.241 NA
ATOM     23  C9  PFH d   1      13.243  18.035  47.394  0.00  0.00     0.089 A 
ATOM     24  N8  PFH d   1      12.359  18.922  46.960  0.00  0.00    -0.229 NA
ATOM     25  H2  PFH d   1      13.543  18.066  48.435  0.00  0.00     0.146 H 
BRANCH  17  26
ATOM     26  O13 PFH d   1      12.491  16.652  41.222  0.00  0.00    -0.353 OA
BRANCH  26  27
ATOM     27  C14 PFH d   1      11.469  17.412  40.538  0.00  0.00     0.010 C 
ATOM     28  H9  PFH d   1      11.435  17.112  39.480  0.00  0.00     0.066 H 
ATOM     29  H10 PFH d   1      11.701  18.485  40.608  0.00  0.00     0.066 H 
ATOM     30  H11 PFH d   1      10.492  17.217  41.005  0.00  0.00     0.066 H 
ENDBRANCH  26  27
ENDBRANCH  17  26
BRANCH  19  31
ATOM     31  O11 PFH d   1      14.179  15.033  42.296  0.00  0.00    -0.353 OA
BRANCH  31  32
ATOM     32  C12 PFH d   1      15.352  14.372  42.720  0.00  0.00     0.010 C 
ATOM     33  H12 PFH d   1      15.664  13.650  41.951  0.00  0.00     0.066 H 
ATOM     34  H13 PFH d   1      15.153  13.841  43.663  0.00  0.00     0.066 H 
ATOM     35  H14 PFH d   1      16.153  15.110  42.877  0.00  0.00     0.066 H 
ENDBRANCH  31  32
ENDBRANCH  19  31
ENDBRANCH   4  13
BRANCH   5  36
ATOM     36  O20 PFH d   1      11.104  23.195  44.164  0.00  0.00    -0.345 OA
BRANCH  36  37
ATOM     37  C21 PFH d   1      11.652  23.401  42.909  0.00  0.00     0.070 A 
ATOM     38  C22 PFH d   1      12.478  24.529  42.751  0.00  0.00    -0.050 A 
ATOM     39  C23 PFH d   1      13.071  24.806  41.544  0.00  0.00    -0.070 A 
ATOM     40  H17 PFH d   1      12.649  25.189  43.594  0.00  0.00     0.087 H 
ATOM     41  C26 PFH d   1      12.874  23.974  40.407  0.00  0.00    -0.026 A 
ATOM     42  H18 PFH d   1      13.705  25.681  41.455  0.00  0.00     0.085 H 
ATOM     43  C27 PFH d   1      13.456  24.252  39.157  0.00  0.00    -0.072 A 
ATOM     44  C25 PFH d   1      12.041  22.821  40.549  0.00  0.00    -0.023 A 
ATOM     45  C28 PFH d   1      13.192  23.385  38.124  0.00  0.00    -0.082 A 
ATOM     46  H19 PFH d   1      14.090  25.119  39.014  0.00  0.00     0.084 H 
ATOM     47  C29 PFH d   1      12.365  22.244  38.266  0.00  0.00    -0.082 A 
ATOM     48  H23 PFH d   1      13.637  23.584  37.156  0.00  0.00     0.083 H 
ATOM     49  C30 PFH d   1      11.803  21.957  39.460  0.00  0.00    -0.072 A 
ATOM     50  H22 PFH d   1      12.183  21.599  37.414  0.00  0.00     0.083 H 
ATOM     51  H21 PFH d   1      11.180  21.078  39.579  0.00  0.00     0.084 H 
ATOM     52  C24 PFH d   1      11.445  22.570  41.803  0.00  0.00    -0.040 A 
ATOM     53  H20 PFH d   1      10.804  21.703  41.913  0.00  0.00     0.089 H 
ENDBRANCH  36  37
ENDBRANCH   5  36
TORSDOF 7
