REMARK  7 active torsions:
REMARK  status: ('A' for Active; 'I' for Inactive)
REMARK    1  A    between atoms: N15_20  and  C7_2 
REMARK    2  A    between atoms: C21_5  and  O20_22 
REMARK    3  A    between atoms: O13_11  and  C14_10 
REMARK    4  A    between atoms: C2_12  and  O13_11 
REMARK    5  A    between atoms: C1_17  and  O11_18 
REMARK    6  A    between atoms: O11_18  and  C12_19 
REMARK    7  A    between atoms: O20_22  and  C17_21 
ROOT
ATOM      1  C18 PFJ d   1       9.764  21.924  45.679  0.00  0.00    -0.024 C 
ATOM      2  C16 PFJ d   1      10.673  20.420  44.026  0.00  0.00     0.021 C 
ATOM      3  C19 PFJ d   1      10.663  20.947  46.425  0.00  0.00    -0.001 C 
ATOM      4  N15 PFJ d   1      11.154  20.049  45.355  0.00  0.00    -0.362 N 
ATOM      5  C17 PFJ d   1      10.259  21.900  44.258  0.00  0.00     0.064 C 
ATOM      6  H3  PFJ d   1       9.855  22.935  46.103  0.00  0.00     0.039 H 
ATOM      7  H4  PFJ d   1       8.714  21.599  45.728  0.00  0.00     0.039 H 
ATOM      8  H5  PFJ d   1       9.814  19.804  43.721  0.00  0.00     0.068 H 
ATOM      9  H6  PFJ d   1      11.469  20.338  43.272  0.00  0.00     0.068 H 
ATOM     10  H7  PFJ d   1      10.093  20.385  47.180  0.00  0.00     0.064 H 
ATOM     11  H8  PFJ d   1      11.498  21.473  46.912  0.00  0.00     0.064 H 
ATOM     12  H16 PFJ d   1       9.468  22.169  43.542  0.00  0.00     0.086 H 
ENDROOT
BRANCH   4  13
ATOM     13  C7  PFJ d   1      12.006  19.047  45.760  0.00  0.00     0.139 A 
ATOM     14  C6  PFJ d   1      12.557  18.096  44.915  0.00  0.00     0.041 A 
ATOM     15  C3  PFJ d   1      12.173  18.032  43.530  0.00  0.00    -0.032 A 
ATOM     16  C5  PFJ d   1      13.380  17.152  45.419  0.00  0.00     0.075 A 
ATOM     17  C2  PFJ d   1      12.717  17.012  42.671  0.00  0.00     0.102 A 
ATOM     18  H12 PFJ d   1      11.471  18.755  43.131  0.00  0.00     0.089 H 
ATOM     19  C1  PFJ d   1      13.611  16.072  43.233  0.00  0.00     0.103 A 
ATOM     20  C4  PFJ d   1      13.959  16.161  44.592  0.00  0.00    -0.019 A 
ATOM     21  H1  PFJ d   1      14.677  15.464  45.010  0.00  0.00     0.091 H 
ATOM     22  N10 PFJ d   1      13.721  17.122  46.730  0.00  0.00    -0.241 NA
ATOM     23  C9  PFJ d   1      13.223  18.072  47.550  0.00  0.00     0.089 A 
ATOM     24  N8  PFJ d   1      12.347  19.008  47.090  0.00  0.00    -0.224 NA
ATOM     25  H2  PFJ d   1      13.525  18.090  48.591  0.00  0.00     0.146 H 
BRANCH  17  26
ATOM     26  O13 PFJ d   1      12.583  16.858  41.258  0.00  0.00    -0.353 OA
BRANCH  26  27
ATOM     27  C14 PFJ d   1      11.513  17.340  40.448  0.00  0.00     0.010 C 
ATOM     28  H9  PFJ d   1      11.694  17.064  39.399  0.00  0.00     0.066 H 
ATOM     29  H10 PFJ d   1      11.452  18.435  40.534  0.00  0.00     0.066 H 
ATOM     30  H11 PFJ d   1      10.567  16.893  40.786  0.00  0.00     0.066 H 
ENDBRANCH  26  27
ENDBRANCH  17  26
BRANCH  19  31
ATOM     31  O11 PFJ d   1      14.060  15.048  42.440  0.00  0.00    -0.353 OA
BRANCH  31  32
ATOM     32  C12 PFJ d   1      15.381  14.508  42.580  0.00  0.00     0.010 C 
ATOM     33  H13 PFJ d   1      15.527  13.700  41.847  0.00  0.00     0.066 H 
ATOM     34  H14 PFJ d   1      15.508  14.108  43.597  0.00  0.00     0.066 H 
ATOM     35  H15 PFJ d   1      16.122  15.301  42.403  0.00  0.00     0.066 H 
ENDBRANCH  31  32
ENDBRANCH  19  31
ENDBRANCH   4  13
BRANCH   5  36
ATOM     36  O20 PFJ d   1      11.303  22.921  44.221  0.00  0.00    -0.326 OA
BRANCH  36  37
ATOM     37  C21 PFJ d   1      11.895  23.374  43.085  0.00  0.00     0.183 A 
ATOM     38  N24 PFJ d   1      11.744  22.645  41.922  0.00  0.00    -0.221 NA
ATOM     39  C25 PFJ d   1      12.361  22.951  40.745  0.00  0.00     0.088 A 
ATOM     40  C26 PFJ d   1      13.103  24.127  40.702  0.00  0.00     0.085 A 
ATOM     41  C30 PFJ d   1      12.178  22.130  39.640  0.00  0.00    -0.053 A 
ATOM     42  C27 PFJ d   1      13.639  24.539  39.489  0.00  0.00    -0.053 A 
ATOM     43  N23 PFJ d   1      13.171  24.898  41.860  0.00  0.00    -0.254 NA
ATOM     44  C28 PFJ d   1      13.420  23.721  38.373  0.00  0.00    -0.081 A 
ATOM     45  H20 PFJ d   1      14.206  25.459  39.409  0.00  0.00     0.087 H 
ATOM     46  C29 PFJ d   1      12.648  22.526  38.427  0.00  0.00    -0.081 A 
ATOM     47  H19 PFJ d   1      13.858  24.011  37.425  0.00  0.00     0.083 H 
ATOM     48  H18 PFJ d   1      12.442  21.951  37.531  0.00  0.00     0.083 H 
ATOM     49  C22 PFJ d   1      12.663  24.548  43.061  0.00  0.00     0.054 A 
ATOM     50  H21 PFJ d   1      12.838  25.139  43.953  0.00  0.00     0.121 H 
ATOM     51  H17 PFJ d   1      11.665  21.181  39.744  0.00  0.00     0.087 H 
ENDBRANCH  36  37
ENDBRANCH   5  36
TORSDOF 7
