REMARK  9 active torsions:
REMARK  status: ('A' for Active; 'I' for Inactive)
REMARK    1  A    between atoms: CAH_1  and  CAG_2 
REMARK       I    between atoms: CAG_2  and  NAI_4 
REMARK    2  A    between atoms: NAI_4  and  CAB_5 
REMARK    3  A    between atoms: CAC_6  and  OAJ_7 
REMARK    4  A    between atoms: CAD_8  and  OAK_9 
REMARK    5  A    between atoms: CAE_10  and  CAF_11 
REMARK    6  A    between atoms: CAF_11  and  OAM_12 
REMARK    7  A    between atoms: NAY_15  and  OAQ_16 
REMARK    8  A    between atoms: OAQ_16  and  CAP_17 
REMARK       I    between atoms: CAP_17  and  NAO_19 
REMARK    9  A    between atoms: NAO_19  and  CAS_20 
ROOT
ATOM      1  CAB OAN d   1       4.197  -8.900  10.312  0.00  0.00     0.105 C 
ATOM      2  CAC OAN d   1       3.129  -7.799  10.301  0.00  0.00     0.089 C 
ATOM      3  CAD OAN d   1       2.420  -7.766   8.944  0.00  0.00     0.090 C 
ATOM      4  CAE OAN d   1       1.742  -9.100   8.620  0.00  0.00     0.094 C 
ATOM      5  OAL OAN d   1       2.636 -10.226   8.711  0.00  0.00    -0.324 OA
ATOM      6  CAA OAN d   1       3.733 -10.156   9.643  0.00  0.00     0.194 C 
ATOM      7  NAY OAN d   1       4.376 -11.208   9.889  0.00  0.00    -0.100 NA
ATOM      8  H5  OAN d   1       5.082  -8.538   9.768  0.00  0.00     0.090 H 
ATOM      9  H6  OAN d   1       2.384  -7.998  11.085  0.00  0.00     0.090 H 
ATOM     10  H8  OAN d   1       3.176  -7.571   8.169  0.00  0.00     0.091 H 
ATOM     11  H10 OAN d   1       0.897  -9.246   9.309  0.00  0.00     0.091 H 
ENDROOT
BRANCH   1  12
ATOM     12  NAI OAN d   1       4.565  -9.131  11.714  0.00  0.00    -0.347 N 
ATOM     13  CAG OAN d   1       5.773  -8.762  12.144  0.00  0.00     0.214 C 
ATOM     14  OAN OAN d   1       6.590  -8.225  11.409  0.00  0.00    -0.274 OA
ATOM     15  H4  OAN d   1       3.916  -9.561  12.341  0.00  0.00     0.163 HD
BRANCH  13  16
ATOM     16  CAH OAN d   1       6.076  -9.038  13.588  0.00  0.00    -0.003 C 
ATOM     17  H1  OAN d   1       5.208  -9.523  14.059  0.00  0.00     0.040 H 
ATOM     18  H2  OAN d   1       6.292  -8.091  14.105  0.00  0.00     0.040 H 
ATOM     19  H3  OAN d   1       6.950  -9.702  13.659  0.00  0.00     0.040 H 
ENDBRANCH  13  16
ENDBRANCH   1  12
BRANCH   7  20
ATOM     20  OAQ OAN d   1       3.944 -12.330   9.275  0.00  0.00    -0.153 OA
BRANCH  20  21
ATOM     21  CAP OAN d   1       4.730 -13.528   9.440  0.00  0.00     0.389 C 
ATOM     22  OAR OAN d   1       5.645 -13.465  10.252  0.00  0.00    -0.236 OA
ATOM     23  NAO OAN d   1       4.373 -14.586   8.707  0.00  0.00    -0.301 N 
ATOM     24  H14 OAN d   1       3.586 -14.461   8.103  0.00  0.00     0.171 HD
BRANCH  23  25
ATOM     25  CAS OAN d   1       4.976 -15.854   8.688  0.00  0.00     0.036 A 
ATOM     26  CAT OAN d   1       6.103 -16.160   9.452  0.00  0.00    -0.057 A 
ATOM     27  CAU OAN d   1       6.652 -17.433   9.391  0.00  0.00    -0.081 A 
ATOM     28  H15 OAN d   1       6.548 -15.406  10.091  0.00  0.00     0.086 H 
ATOM     29  CAV OAN d   1       6.097 -18.399   8.562  0.00  0.00    -0.083 A 
ATOM     30  H16 OAN d   1       7.519 -17.675   9.994  0.00  0.00     0.083 H 
ATOM     31  CAW OAN d   1       4.972 -18.106   7.793  0.00  0.00    -0.081 A 
ATOM     32  H17 OAN d   1       6.541 -19.387   8.513  0.00  0.00     0.083 H 
ATOM     33  CAX OAN d   1       4.418 -16.827   7.861  0.00  0.00    -0.057 A 
ATOM     34  H18 OAN d   1       4.533 -18.861   7.151  0.00  0.00     0.083 H 
ATOM     35  H19 OAN d   1       3.545 -16.588   7.265  0.00  0.00     0.086 H 
ENDBRANCH  23  25
ENDBRANCH  20  21
ENDBRANCH   7  20
BRANCH   2  36
ATOM     36  OAJ OAN d   1       3.798  -6.557  10.582  0.00  0.00    -0.390 OA
ATOM     37  H7  OAN d   1       4.216  -6.610  11.433  0.00  0.00     0.210 HD
ENDBRANCH   2  36
BRANCH   4  38
ATOM     38  CAF OAN d   1       1.252  -9.070   7.183  0.00  0.00     0.044 C 
ATOM     39  H11 OAN d   1       0.714  -8.121   7.045  0.00  0.00     0.078 H 
ATOM     40  H12 OAN d   1       0.551  -9.909   7.063  0.00  0.00     0.078 H 
BRANCH  38  41
ATOM     41  OAM OAN d   1       2.077  -9.154   6.271  0.00  0.00    -0.398 OA
ATOM     42  H13 OAN d   1       2.549  -9.975   6.347  0.00  0.00     0.209 HD
ENDBRANCH  38  41
ENDBRANCH   4  38
BRANCH   3  43
ATOM     43  OAK OAN d   1       1.454  -6.700   8.915  0.00  0.00    -0.390 OA
ATOM     44  H9  OAN d   1       1.021  -6.689   8.069  0.00  0.00     0.210 HD
ENDBRANCH   3  43
TORSDOF 9
