REMARK  10 active torsions:
REMARK  status: ('A' for Active; 'I' for Inactive)
REMARK    1  A    between atoms: C1B_2  and  C2B_3 
REMARK       I    between atoms: C1B_2  and  N1B_12 
REMARK    2  A    between atoms: C5B_6  and  N5B_7 
REMARK    3  A    between atoms: N5B_7  and  C8B_8 
REMARK    4  A    between atoms: N5B_7  and  C9B_9 
REMARK    5  A    between atoms: N1B_12  and  C1A_13 
REMARK    6  A    between atoms: C1A_13  and  C2A_14 
REMARK    7  A    between atoms: C5M_16  and  C6A_17 
REMARK    8  A    between atoms: C6A_17  and  O6A_18 
REMARK    9  A    between atoms: C4A_19  and  O4A_20 
REMARK   10  A    between atoms: C3A_21  and  O3A_22 
ROOT
ATOM      1  O1B MNI d   1      25.325  58.511 -32.708  0.00  0.00    -0.268 OA
ATOM      2  C1B MNI d   1      24.669  57.544 -32.347  0.00  0.00     0.251 C 
ATOM      3  N1B MNI d   1      23.911  57.625 -31.244  0.00  0.00    -0.355 N 
ATOM      4  H11 MNI d   1      23.476  56.789 -30.911  0.00  0.00     0.162 HD
ENDROOT
BRANCH   3   5
ATOM      5  C1A MNI d   1      23.683  58.860 -30.500  0.00  0.00     0.025 C 
ATOM      6  H12 MNI d   1      22.596  59.024 -30.476  0.00  0.00     0.067 H 
ATOM      7  H13 MNI d   1      24.163  59.670 -31.068  0.00  0.00     0.067 H 
BRANCH   5   8
ATOM      8  C2A MNI d   1      24.177  58.969 -29.074  0.00  0.00     0.144 C 
ATOM      9  N5A MNI d   1      23.790  57.845 -28.238  0.00  0.00    -0.058 N 
ATOM     10  C5M MNI d   1      24.904  57.426 -27.419  0.00  0.00     0.149 C 
ATOM     11  H15 MNI d   1      23.501  57.078 -28.824  0.00  0.00     0.278 HD
ATOM     12  H16 MNI d   1      23.024  58.120 -27.643  0.00  0.00     0.278 HD
ATOM     13  C4A MNI d   1      25.896  58.569 -27.533  0.00  0.00     0.091 C 
ATOM     14  H17 MNI d   1      25.354  56.522 -27.855  0.00  0.00     0.091 H 
ATOM     15  C3A MNI d   1      25.679  59.026 -28.960  0.00  0.00     0.091 C 
ATOM     16  H21 MNI d   1      25.637  59.372 -26.827  0.00  0.00     0.090 H 
ATOM     17  H23 MNI d   1      26.142  58.322 -29.667  0.00  0.00     0.090 H 
ATOM     18  H14 MNI d   1      23.752  59.891 -28.652  0.00  0.00     0.091 H 
BRANCH  10  19
ATOM     19  C6A MNI d   1      24.491  57.081 -25.999  0.00  0.00     0.046 C 
ATOM     20  H18 MNI d   1      24.154  57.989 -25.477  0.00  0.00     0.077 H 
ATOM     21  H19 MNI d   1      25.343  56.642 -25.459  0.00  0.00     0.077 H 
BRANCH  19  22
ATOM     22  O6A MNI d   1      23.421  56.136 -26.067  0.00  0.00    -0.399 OA
ATOM     23  H20 MNI d   1      23.147  55.906 -25.187  0.00  0.00     0.209 HD
ENDBRANCH  19  22
ENDBRANCH  10  19
BRANCH  13  24
ATOM     24  O4A MNI d   1      27.248  58.176 -27.287  0.00  0.00    -0.391 OA
ATOM     25  H22 MNI d   1      27.817  58.932 -27.373  0.00  0.00     0.210 HD
ENDBRANCH  13  24
BRANCH  15  26
ATOM     26  O3A MNI d   1      26.227  60.327 -29.200  0.00  0.00    -0.391 OA
ATOM     27  H24 MNI d   1      27.162  60.311 -29.033  0.00  0.00     0.210 HD
ENDBRANCH  15  26
ENDBRANCH   5   8
ENDBRANCH   3   5
BRANCH   2  28
ATOM     28  C2B MNI d   1      24.811  56.273 -33.133  0.00  0.00     0.032 A 
ATOM     29  C3B MNI d   1      24.107  55.112 -32.811  0.00  0.00    -0.066 A 
ATOM     30  C4B MNI d   1      24.266  53.960 -33.569  0.00  0.00    -0.056 A 
ATOM     31  H1  MNI d   1      23.431  55.110 -31.963  0.00  0.00     0.085 H 
ATOM     32  C5B MNI d   1      25.115  53.953 -34.680  0.00  0.00     0.029 A 
ATOM     33  H2  MNI d   1      23.728  53.059 -33.298  0.00  0.00     0.086 H 
ATOM     34  C6B MNI d   1      25.800  55.119 -35.001  0.00  0.00    -0.056 A 
ATOM     35  C7B MNI d   1      25.653  56.264 -34.234  0.00  0.00    -0.066 A 
ATOM     36  H9  MNI d   1      26.458  55.133 -35.862  0.00  0.00     0.086 H 
ATOM     37  H10 MNI d   1      26.202  57.161 -34.498  0.00  0.00     0.085 H 
BRANCH  32  38
ATOM     38  N5B MNI d   1      25.275  52.833 -35.447  0.00  0.00    -0.390 N 
BRANCH  38  39
ATOM     39  C8B MNI d   1      26.161  52.841 -36.602  0.00  0.00    -0.019 C 
ATOM     40  H3  MNI d   1      26.149  51.850 -37.080  0.00  0.00     0.056 H 
ATOM     41  H4  MNI d   1      27.185  53.079 -36.277  0.00  0.00     0.056 H 
ATOM     42  H5  MNI d   1      25.819  53.599 -37.322  0.00  0.00     0.056 H 
ENDBRANCH  38  39
BRANCH  38  43
ATOM     43  C9B MNI d   1      24.575  51.606 -35.118  0.00  0.00    -0.019 C 
ATOM     44  H6  MNI d   1      23.952  51.767 -34.226  0.00  0.00     0.056 H 
ATOM     45  H7  MNI d   1      25.306  50.810 -34.915  0.00  0.00     0.056 H 
ATOM     46  H8  MNI d   1      23.936  51.310 -35.963  0.00  0.00     0.056 H 
ENDBRANCH  38  43
ENDBRANCH  32  38
ENDBRANCH   2  28
TORSDOF 10
