REMARK  10 active torsions:
REMARK  status: ('A' for Active; 'I' for Inactive)
REMARK    1  A    between atoms: O3B_8  and  PG_1 
REMARK    2  A    between atoms: PB_5  and  O3B_8 
REMARK    3  A    between atoms: O3A_12  and  PB_5 
REMARK    4  A    between atoms: PA_9  and  O3A_12 
REMARK    5  A    between atoms: O5'_23  and  PA_9 
REMARK    6  A    between atoms: C1'_31  and  N9_13 
REMARK    7  A    between atoms: C5'_24  and  O5'_23 
REMARK    8  A    between atoms: C4'_25  and  C5'_24 
REMARK    9  A    between atoms: C3'_27  and  O3'_28 
REMARK   10  A    between atoms: C2'_29  and  O2'_30 
ROOT
ATOM      1  C4' ATP d   1       0.529  29.981  15.569  0.00  0.00     0.089 C 
ATOM      2  O4' ATP d   1       0.459  31.410  15.664  0.00  0.00    -0.353 OA
ATOM      3  C3' ATP d   1       2.006  29.641  15.662  0.00  0.00     0.091 C 
ATOM      4  C2' ATP d   1       2.542  30.829  16.481  0.00  0.00     0.105 C 
ATOM      5  C1' ATP d   1       1.742  31.990  15.834  0.00  0.00     0.139 C 
ATOM      6  H7  ATP d   1       0.158  29.659  14.585  0.00  0.00     0.090 H 
ATOM      7  H8  ATP d   1       2.196  28.665  16.131  0.00  0.00     0.091 H 
ATOM      8  H10 ATP d   1       2.303  30.707  17.548  0.00  0.00     0.093 H 
ATOM      9  H12 ATP d   1       2.191  32.325  14.888  0.00  0.00     0.122 H 
ENDROOT
BRANCH   1  10
ATOM     10  C5' ATP d   1      -0.362  29.329  16.637  0.00  0.00     0.058 C 
ATOM     11  H5  ATP d   1      -1.347  29.818  16.641  0.00  0.00     0.079 H 
ATOM     12  H6  ATP d   1      -0.484  28.260  16.409  0.00  0.00     0.079 H 
BRANCH  10  13
ATOM     13  O5' ATP d   1       0.257  29.478  17.942  0.00  0.00    -0.287 OA
BRANCH  13  14
ATOM     14  PA  ATP d   1      -0.277  28.681  19.186  0.00  0.00     0.417 P 
ATOM     15  O1A ATP d   1      -1.743  29.098  19.414  0.00  0.00    -0.624 OA
ATOM     16  O2A ATP d   1       0.692  28.914  20.334  0.00  0.00    -0.624 OA
BRANCH  14  17
ATOM     17  O3A ATP d   1      -0.091  27.180  18.642  0.00  0.00    -0.180 OA
BRANCH  17  18
ATOM     18  PB  ATP d   1      -0.721  25.752  19.145  0.00  0.00     0.428 P 
ATOM     19  O1B ATP d   1      -1.647  25.382  17.986  0.00  0.00    -0.624 OA
ATOM     20  O2B ATP d   1       0.476  24.839  19.507  0.00  0.00    -0.624 OA
BRANCH  18  21
ATOM     21  O3B ATP d   1      -1.590  25.987  20.507  0.00  0.00    -0.173 OA
BRANCH  21  22
ATOM     22  PG  ATP d   1      -3.240  26.027  20.614  0.00  0.00     0.431 P 
ATOM     23  O1G ATP d   1      -3.563  25.486  22.004  0.00  0.00    -0.616 OA
ATOM     24  O2G ATP d   1      -3.805  25.134  19.515  0.00  0.00    -0.616 OA
ATOM     25  O3G ATP d   1      -3.584  27.505  20.406  0.00  0.00    -0.616 OA
ENDBRANCH  21  22
ENDBRANCH  18  21
ENDBRANCH  17  18
ENDBRANCH  14  17
ENDBRANCH  13  14
ENDBRANCH  10  13
ENDBRANCH   1  10
BRANCH   3  26
ATOM     26  O3' ATP d   1       2.591  29.729  14.341  0.00  0.00    -0.390 OA
ATOM     27  H9  ATP d   1       3.516  29.517  14.391  0.00  0.00     0.210 HD
ENDBRANCH   3  26
BRANCH   5  28
ATOM     28  N9  ATP d   1       1.579  33.125  16.785  0.00  0.00    -0.294 N 
ATOM     29  C8  ATP d   1       0.615  33.249  17.737  0.00  0.00     0.071 A 
ATOM     30  N7  ATP d   1       0.775  34.425  18.405  0.00  0.00    -0.236 NA
ATOM     31  H1  ATP d   1      -0.167  32.518  17.935  0.00  0.00     0.144 H 
ATOM     32  C5  ATP d   1       1.834  35.060  17.876  0.00  0.00     0.149 A 
ATOM     33  C6  ATP d   1       2.531  36.325  18.130  0.00  0.00     0.155 A 
ATOM     34  C4  ATP d   1       2.364  34.189  16.796  0.00  0.00     0.167 A 
ATOM     35  N6  ATP d   1       2.101  37.153  19.126  0.00  0.00    -0.382 N 
ATOM     36  N1  ATP d   1       3.630  36.630  17.359  0.00  0.00    -0.222 NA
ATOM     37  H2  ATP d   1       2.591  38.041  19.304  0.00  0.00     0.157 HD
ATOM     38  H3  ATP d   1       1.287  36.889  19.699  0.00  0.00     0.157 HD
ATOM     39  C2  ATP d   1       4.048  35.775  16.369  0.00  0.00     0.091 A 
ATOM     40  N3  ATP d   1       3.449  34.593  16.092  0.00  0.00    -0.222 NA
ATOM     41  H4  ATP d   1       4.908  36.063  15.775  0.00  0.00     0.146 H 
ENDBRANCH   5  28
BRANCH   4  42
ATOM     42  O2' ATP d   1       3.923  31.082  16.345  0.00  0.00    -0.388 OA
ATOM     43  H11 ATP d   1       4.413  30.318  16.625  0.00  0.00     0.210 HD
ENDBRANCH   4  42
TORSDOF 10
