REMARK  6 active torsions:
REMARK  status: ('A' for Active; 'I' for Inactive)
REMARK    1  A    between atoms: C18_1  and  C13_2 
REMARK    2  A    between atoms: C3_9  and  O3_10 
REMARK    3  A    between atoms: C17_19  and  O17_20 
REMARK    4  A    between atoms: C17_19  and  C19_21 
REMARK    5  A    between atoms: C20_22  and  C21_23 
REMARK    6  A    between atoms: C26_28  and  C27_29 
ROOT
ATOM      1  C13 EZT d   1     -36.733   2.975  21.060  0.00  0.00    -0.005 C 
ATOM      2  C12 EZT d   1     -36.474   3.080  19.529  0.00  0.00    -0.054 C 
ATOM      3  C11 EZT d   1     -35.026   2.648  19.135  0.00  0.00    -0.057 C 
ATOM      4  C9  EZT d   1     -33.971   3.452  19.977  0.00  0.00    -0.024 C 
ATOM      5  C10 EZT d   1     -32.493   3.246  19.551  0.00  0.00    -0.047 A 
ATOM      6  C1  EZT d   1     -32.185   3.022  18.218  0.00  0.00    -0.073 A 
ATOM      7  C2  EZT d   1     -30.848   2.871  17.849  0.00  0.00    -0.051 A 
ATOM      8  C3  EZT d   1     -29.839   2.943  18.816  0.00  0.00     0.066 A 
ATOM      9  C4  EZT d   1     -30.147   3.167  20.144  0.00  0.00    -0.044 A 
ATOM     10  C5  EZT d   1     -31.469   3.348  20.516  0.00  0.00    -0.049 A 
ATOM     11  C6  EZT d   1     -31.728   3.561  22.026  0.00  0.00    -0.040 C 
ATOM     12  C7  EZT d   1     -33.135   4.144  22.266  0.00  0.00    -0.057 C 
ATOM     13  C8  EZT d   1     -34.185   3.279  21.513  0.00  0.00    -0.042 C 
ATOM     14  C14 EZT d   1     -35.635   3.763  21.819  0.00  0.00    -0.040 C 
ATOM     15  C15 EZT d   1     -36.152   3.754  23.282  0.00  0.00    -0.058 C 
ATOM     16  C16 EZT d   1     -37.671   3.929  23.100  0.00  0.00    -0.032 C 
ATOM     17  C17 EZT d   1     -37.977   3.781  21.586  0.00  0.00     0.083 C 
ATOM     18  H4  EZT d   1     -36.628   4.123  19.216  0.00  0.00     0.034 H 
ATOM     19  H5  EZT d   1     -37.191   2.430  19.005  0.00  0.00     0.034 H 
ATOM     20  H6  EZT d   1     -34.866   2.848  18.065  0.00  0.00     0.034 H 
ATOM     21  H7  EZT d   1     -34.902   1.572  19.329  0.00  0.00     0.034 H 
ATOM     22  H8  EZT d   1     -34.183   4.511  19.767  0.00  0.00     0.048 H 
ATOM     23  H9  EZT d   1     -32.971   2.965  17.474  0.00  0.00     0.084 H 
ATOM     24  H10 EZT d   1     -30.590   2.697  16.811  0.00  0.00     0.087 H 
ATOM     25  H12 EZT d   1     -29.360   3.201  20.889  0.00  0.00     0.088 H 
ATOM     26  H13 EZT d   1     -30.977   4.258  22.425  0.00  0.00     0.040 H 
ATOM     27  H14 EZT d   1     -31.645   2.595  22.545  0.00  0.00     0.040 H 
ATOM     28  H15 EZT d   1     -33.173   5.177  21.891  0.00  0.00     0.034 H 
ATOM     29  H16 EZT d   1     -33.357   4.136  23.343  0.00  0.00     0.034 H 
ATOM     30  H17 EZT d   1     -34.071   2.224  21.802  0.00  0.00     0.041 H 
ATOM     31  H18 EZT d   1     -35.663   4.808  21.475  0.00  0.00     0.042 H 
ATOM     32  H19 EZT d   1     -35.723   4.585  23.860  0.00  0.00     0.033 H 
ATOM     33  H20 EZT d   1     -35.919   2.801  23.780  0.00  0.00     0.033 H 
ATOM     34  H21 EZT d   1     -37.979   4.925  23.450  0.00  0.00     0.037 H 
ATOM     35  H22 EZT d   1     -38.209   3.157  23.669  0.00  0.00     0.037 H 
ENDROOT
BRANCH  17  36
ATOM     36  O17 EZT d   1     -39.221   3.082  21.376  0.00  0.00    -0.385 OA
ATOM     37  H23 EZT d   1     -39.928   3.567  21.784  0.00  0.00     0.211 HD
ENDBRANCH  17  36
BRANCH  17  38
ATOM     38  C19 EZT d   1     -38.023   5.058  20.944  0.00  0.00    -0.069 C 
ATOM     39  C20 EZT d   1     -37.773   6.308  21.541  0.00  0.00    -0.073 C 
ATOM     40  H25 EZT d   1     -37.586   6.335  22.613  0.00  0.00     0.084 H 
ATOM     41  H24 EZT d   1     -38.277   5.064  19.885  0.00  0.00     0.081 H 
BRANCH  39  42
ATOM     42  C21 EZT d   1     -37.750   7.533  20.831  0.00  0.00    -0.021 A 
ATOM     43  C22 EZT d   1     -38.621   7.770  19.763  0.00  0.00    -0.072 A 
ATOM     44  C23 EZT d   1     -38.555   8.977  19.045  0.00  0.00    -0.082 A 
ATOM     45  H26 EZT d   1     -39.352   7.018  19.487  0.00  0.00     0.084 H 
ATOM     46  C24 EZT d   1     -37.622   9.969  19.395  0.00  0.00    -0.082 A 
ATOM     47  H27 EZT d   1     -39.230   9.145  18.213  0.00  0.00     0.083 H 
ATOM     48  C25 EZT d   1     -36.740   9.739  20.445  0.00  0.00    -0.067 A 
ATOM     49  H28 EZT d   1     -37.591  10.906  18.851  0.00  0.00     0.083 H 
ATOM     50  C26 EZT d   1     -36.798   8.531  21.162  0.00  0.00     0.058 A 
ATOM     51  H29 EZT d   1     -36.007  10.492  20.711  0.00  0.00     0.084 H 
BRANCH  50  52
ATOM     52  C27 EZT d   1     -35.796   8.365  22.338  0.00  0.00     0.418 C 
ATOM     53  F02 EZT d   1     -34.992   9.406  22.359  0.00  0.00    -0.166 F 
ATOM     54  F03 EZT d   1     -36.394   8.352  23.537  0.00  0.00    -0.166 F 
ATOM     55  F01 EZT d   1     -35.069   7.254  22.250  0.00  0.00    -0.166 F 
ENDBRANCH  50  52
ENDBRANCH  39  42
ENDBRANCH  17  38
BRANCH   1  56
ATOM     56  C18 EZT d   1     -36.769   1.474  21.441  0.00  0.00    -0.066 C 
ATOM     57  H1  EZT d   1     -35.874   0.973  21.044  0.00  0.00     0.028 H 
ATOM     58  H2  EZT d   1     -37.669   1.009  21.014  0.00  0.00     0.028 H 
ATOM     59  H3  EZT d   1     -36.789   1.374  22.536  0.00  0.00     0.028 H 
ENDBRANCH   1  56
BRANCH   8  60
ATOM     60  O3  EZT d   1     -28.539   2.785  18.480  0.00  0.00    -0.361 OA
ATOM     61  H11 EZT d   1     -28.415   1.926  18.094  0.00  0.00     0.217 HD
ENDBRANCH   8  60
TORSDOF 6
