REMARK  7 active torsions:
REMARK  status: ('A' for Active; 'I' for Inactive)
REMARK    1  A    between atoms: C1_1  and  C24_19 
REMARK    2  A    between atoms: C6_6  and  C2_2 
REMARK    3  A    between atoms: C11_11  and  N9_9 
REMARK    4  A    between atoms: C15_15  and  C11_11 
REMARK    5  A    between atoms: C24_19  and  C25_20 
REMARK    6  A    between atoms: C25_20  and  C26_21 
REMARK    7  A    between atoms: C25_20  and  N29_24 
ROOT
ATOM      1  C1  MP9 d   1       6.243  24.495  21.191  0.00  0.00     0.040 A 
ATOM      2  C2  MP9 d   1       6.711  24.757  22.450  0.00  0.00     0.160 A 
ATOM      3  O3  MP9 d   1       5.963  24.125  23.392  0.00  0.00    -0.231 OA
ATOM      4  N4  MP9 d   1       4.918  23.428  22.730  0.00  0.00    -0.236 N 
ATOM      5  C5  MP9 d   1       5.146  23.615  21.441  0.00  0.00     0.208 A 
ATOM      6  O23 MP9 d   1       4.441  23.042  20.457  0.00  0.00    -0.170 OA
ATOM      7  H1  MP9 d   1       4.172  22.909  23.148  0.00  0.00     0.197 HD
ENDROOT
BRANCH   2   8
ATOM      8  C6  MP9 d   1       7.836  25.556  22.901  0.00  0.00     0.224 A 
ATOM      9  N7  MP9 d   1       8.130  25.859  24.186  0.00  0.00    -0.134 NA
ATOM     10  N8  MP9 d   1       9.223  26.597  24.130  0.00  0.00     0.025 NA
ATOM     11  N9  MP9 d   1       9.550  26.716  22.853  0.00  0.00    -0.187 N 
ATOM     12  N10 MP9 d   1       8.722  26.088  22.052  0.00  0.00    -0.134 NA
BRANCH  11  13
ATOM     13  C11 MP9 d   1      10.724  27.472  22.369  0.00  0.00     0.055 C 
ATOM     14  H2  MP9 d   1      10.385  28.189  21.607  0.00  0.00     0.076 H 
ATOM     15  H3  MP9 d   1      11.431  26.762  21.915  0.00  0.00     0.076 H 
BRANCH  13  16
ATOM     16  C15 MP9 d   1      11.447  28.236  23.455  0.00  0.00    -0.037 A 
ATOM     17  C14 MP9 d   1      11.188  29.620  23.648  0.00  0.00    -0.075 A 
ATOM     18  C13 MP9 d   1      11.871  30.341  24.669  0.00  0.00    -0.082 A 
ATOM     19  H6  MP9 d   1      10.469  30.128  23.016  0.00  0.00     0.084 H 
ATOM     20  C12 MP9 d   1      12.820  29.679  25.503  0.00  0.00    -0.083 A 
ATOM     21  H5  MP9 d   1      11.669  31.396  24.813  0.00  0.00     0.083 H 
ATOM     22  C17 MP9 d   1      13.083  28.293  25.312  0.00  0.00    -0.082 A 
ATOM     23  H4  MP9 d   1      13.339  30.229  26.279  0.00  0.00     0.083 H 
ATOM     24  C16 MP9 d   1      12.395  27.572  24.290  0.00  0.00    -0.075 A 
ATOM     25  H8  MP9 d   1      13.805  27.786  25.942  0.00  0.00     0.083 H 
ATOM     26  H7  MP9 d   1      12.593  26.516  24.148  0.00  0.00     0.084 H 
ENDBRANCH  13  16
ENDBRANCH  11  13
ENDBRANCH   2   8
BRANCH   1  27
ATOM     27  C24 MP9 d   1       6.741  24.969  19.858  0.00  0.00     0.002 C 
ATOM     28  H9  MP9 d   1       7.346  25.874  20.019  0.00  0.00     0.044 H 
ATOM     29  H10 MP9 d   1       5.870  25.216  19.234  0.00  0.00     0.044 H 
BRANCH  27  30
ATOM     30  C25 MP9 d   1       7.601  23.945  19.099  0.00  0.00     0.186 C 
ATOM     31  H11 MP9 d   1       7.421  22.955  19.543  0.00  0.00     0.101 H 
BRANCH  30  32
ATOM     32  C26 MP9 d   1       7.241  23.881  17.574  0.00  0.00     0.204 C 
ATOM     33  O27 MP9 d   1       8.198  24.033  16.772  0.00  0.00    -0.646 OA
ATOM     34  O28 MP9 d   1       6.033  23.697  17.311  0.00  0.00    -0.646 OA
ENDBRANCH  30  32
BRANCH  30  35
ATOM     35  N29 MP9 d   1       9.081  24.276  19.225  0.00  0.00    -0.065 N 
ATOM     36  H12 MP9 d   1       9.622  23.592  18.720  0.00  0.00     0.275 HD
ATOM     37  H13 MP9 d   1       9.347  24.264  20.197  0.00  0.00     0.275 HD
ATOM     38  H14 MP9 d   1       9.254  25.192  18.841  0.00  0.00     0.275 HD
ENDBRANCH  30  35
ENDBRANCH  27  30
ENDBRANCH   1  27
TORSDOF 7
