REMARK WARNING: 32 MAX_TORS EXCEEDED!!!
REMARK  33 active torsions:
REMARK  status: ('A' for Active; 'I' for Inactive)
REMARK    1  A    between atoms: N1_1  and  C1_2 
REMARK       I    between atoms: C11_15  and  N1_1 
REMARK    2  A    between atoms: C1_2  and  C2_4 
REMARK    3  A    between atoms: C1_2  and  C3_5 
REMARK    4  A    between atoms: N2_3  and  C10_14 
REMARK       I    between atoms: C19_25  and  N2_3 
REMARK    5  A    between atoms: C2_4  and  O1_8 
REMARK    6  A    between atoms: C2_4  and  C52_58 
REMARK    7  A    between atoms: C3_5  and  C4_6 
REMARK    8  A    between atoms: C10_14  and  C11_15 
REMARK    9  A    between atoms: C10_14  and  C12_16 
REMARK   10  A    between atoms: C12_16  and  CG2_60 
REMARK   11  A    between atoms: C12_16  and  CG1_61 
REMARK   12  A    between atoms: N4_19  and  C18_24 
REMARK       I    between atoms: C31_62  and  N4_19 
REMARK   13  A    between atoms: C18_24  and  C19_25 
REMARK   14  A    between atoms: C18_24  and  C20_26 
REMARK   15  A    between atoms: C81_28  and  O59_29 
REMARK       I    between atoms: N54_37  and  C81_28 
REMARK   16  A    between atoms: O59_29  and  CA5_30 
REMARK   17  A    between atoms: CA5_30  and  C50_31 
REMARK   18  A    between atoms: C68_38  and  N54_37 
REMARK   19  A    between atoms: C68_38  and  C70_39 
REMARK   20  A    between atoms: C69_40  and  C68_38 
REMARK       I    between atoms: N52_42  and  C69_40 
REMARK   21  A    between atoms: C60_43  and  N52_42 
REMARK   22  A    between atoms: C60_43  and  C62_44 
REMARK   23  A    between atoms: C61_47  and  C60_43 
REMARK   24  A    between atoms: C62_44  and  CG6_45 
REMARK   25  A    between atoms: C62_44  and  CG5_46 
REMARK       I    between atoms: N51_49  and  C61_47 
REMARK   26  A    between atoms: C51_50  and  N51_49 
REMARK   27  A    between atoms: C51_50  and  C53_51 
REMARK   28  A    between atoms: C52_58  and  C51_50 
REMARK   29  A    between atoms: C53_51  and  C54_52 
REMARK   30  A    between atoms: C52_58  and  O51_59 
REMARK   31  A    between atoms: O9_64  and  C31_62 
REMARK   32  A    between atoms: CA_65  and  O9_64 
REMARK   33  A    between atoms: CA_65  and  C_66 
ROOT
ATOM      1  C2  3TL d   1      19.162   0.219  -0.029  0.00  0.00     0.082 C 
ATOM      2  H4  3TL d   1      19.155   0.258  -1.128  0.00  0.00     0.090 H 
ENDROOT
BRANCH   1   3
ATOM      3  C1  3TL d   1      18.240   1.290   0.524  0.00  0.00     0.043 C 
ATOM      4  H2  3TL d   1      17.220   1.146   0.138  0.00  0.00     0.077 H 
BRANCH   3   5
ATOM      5  N1  3TL d   1      18.219   1.275   1.974  0.00  0.00    -0.352 N 
ATOM      6  C11 3TL d   1      17.111   1.043   2.675  0.00  0.00     0.241 C 
ATOM      7  O2  3TL d   1      16.030   0.809   2.163  0.00  0.00    -0.271 OA
ATOM      8  H1  3TL d   1      19.072   1.446   2.468  0.00  0.00     0.163 HD
BRANCH   6   9
ATOM      9  C10 3TL d   1      17.255   1.107   4.168  0.00  0.00     0.092 C 
ATOM     10  H13 3TL d   1      18.284   1.430   4.382  0.00  0.00     0.088 H 
BRANCH   9  11
ATOM     11  N2  3TL d   1      16.344   2.122   4.685  0.00  0.00    -0.346 N 
ATOM     12  C19 3TL d   1      16.892   3.084   5.430  0.00  0.00     0.240 C 
ATOM     13  O4  3TL d   1      18.054   3.041   5.789  0.00  0.00    -0.271 OA
ATOM     14  H3  3TL d   1      15.363   2.098   4.492  0.00  0.00     0.163 HD
BRANCH  12  15
ATOM     15  C18 3TL d   1      16.004   4.250   5.787  0.00  0.00     0.088 C 
ATOM     16  H21 3TL d   1      14.962   3.981   5.558  0.00  0.00     0.087 H 
BRANCH  15  17
ATOM     17  N4  3TL d   1      16.104   4.600   7.175  0.00  0.00    -0.324 N 
ATOM     18  C31 3TL d   1      15.152   4.393   8.064  0.00  0.00     0.361 C 
ATOM     19  O8  3TL d   1      13.989   4.139   7.816  0.00  0.00    -0.238 OA
ATOM     20  H17 3TL d   1      16.951   5.029   7.489  0.00  0.00     0.165 HD
BRANCH  18  21
ATOM     21  O9  3TL d   1      15.574   4.507   9.445  0.00  0.00    -0.299 OA
BRANCH  21  22
ATOM     22  CA  3TL d   1      14.592   4.453  10.469  0.00  0.00     0.054 C 
ATOM     23  H63 3TL d   1      15.087   4.391  11.449  0.00  0.00     0.082 H 
ATOM     24  H64 3TL d   1      13.957   3.567  10.322  0.00  0.00     0.082 H 
BRANCH  22  25
ATOM     25  C   3TL d   1      13.742   5.696  10.412  0.00  0.00    -0.034 A 
ATOM     26  C13 3TL d   1      12.510   5.696  11.064  0.00  0.00    -0.075 A 
ATOM     27  C14 3TL d   1      11.714   6.848  11.030  0.00  0.00    -0.082 A 
ATOM     28  H15 3TL d   1      12.171   4.812  11.593  0.00  0.00     0.084 H 
ATOM     29  C15 3TL d   1      12.150   7.993  10.357  0.00  0.00    -0.083 A 
ATOM     30  H16 3TL d   1      10.752   6.852  11.530  0.00  0.00     0.083 H 
ATOM     31  C16 3TL d   1      13.393   7.984   9.711  0.00  0.00    -0.082 A 
ATOM     32  H18 3TL d   1      11.530   8.882  10.335  0.00  0.00     0.083 H 
ATOM     33  C17 3TL d   1      14.196   6.839   9.746  0.00  0.00    -0.075 A 
ATOM     34  H19 3TL d   1      13.734   8.867   9.182  0.00  0.00     0.083 H 
ATOM     35  H20 3TL d   1      15.165   6.838   9.260  0.00  0.00     0.084 H 
ENDBRANCH  22  25
ENDBRANCH  21  22
ENDBRANCH  18  21
ENDBRANCH  15  17
BRANCH  15  36
ATOM     36  C20 3TL d   1      16.403   5.468   4.977  0.00  0.00    -0.049 C 
ATOM     37  H22 3TL d   1      16.337   5.233   3.905  0.00  0.00     0.030 H 
ATOM     38  H23 3TL d   1      17.436   5.753   5.227  0.00  0.00     0.030 H 
ATOM     39  H24 3TL d   1      15.726   6.302   5.212  0.00  0.00     0.030 H 
ENDBRANCH  15  36
ENDBRANCH  12  15
ENDBRANCH   9  11
BRANCH   9  40
ATOM     40  C12 3TL d   1      17.046  -0.227   4.897  0.00  0.00    -0.033 C 
ATOM     41  H14 3TL d   1      15.964  -0.419   4.943  0.00  0.00     0.042 H 
BRANCH  40  42
ATOM     42  CG2 3TL d   1      17.569  -0.169   6.329  0.00  0.00    -0.071 C 
ATOM     43  H57 3TL d   1      17.403  -1.139   6.819  0.00  0.00     0.028 H 
ATOM     44  H58 3TL d   1      17.035   0.618   6.883  0.00  0.00     0.028 H 
ATOM     45  H59 3TL d   1      18.646   0.057   6.317  0.00  0.00     0.028 H 
ENDBRANCH  40  42
BRANCH  40  46
ATOM     46  CG1 3TL d   1      17.697  -1.379   4.116  0.00  0.00    -0.071 C 
ATOM     47  H60 3TL d   1      17.301  -1.396   3.090  0.00  0.00     0.028 H 
ATOM     48  H61 3TL d   1      17.469  -2.334   4.612  0.00  0.00     0.028 H 
ATOM     49  H62 3TL d   1      18.787  -1.232   4.087  0.00  0.00     0.028 H 
ENDBRANCH  40  46
ENDBRANCH   9  40
ENDBRANCH   6   9
ENDBRANCH   3   5
BRANCH   3  50
ATOM     50  C3  3TL d   1      18.802   2.618   0.065  0.00  0.00    -0.020 C 
ATOM     51  H5  3TL d   1      18.896   2.619  -1.031  0.00  0.00     0.043 H 
ATOM     52  H6  3TL d   1      19.792   2.775   0.518  0.00  0.00     0.043 H 
BRANCH  50  53
ATOM     53  C4  3TL d   1      17.876   3.717   0.489  0.00  0.00    -0.056 A 
ATOM     54  C5  3TL d   1      18.402   4.831   1.174  0.00  0.00    -0.077 A 
ATOM     55  C6  3TL d   1      17.537   5.858   1.566  0.00  0.00    -0.082 A 
ATOM     56  H7  3TL d   1      19.462   4.891   1.394  0.00  0.00     0.084 H 
ATOM     57  C7  3TL d   1      16.167   5.753   1.267  0.00  0.00    -0.083 A 
ATOM     58  H9  3TL d   1      17.918   6.724   2.094  0.00  0.00     0.083 H 
ATOM     59  C8  3TL d   1      15.656   4.635   0.591  0.00  0.00    -0.082 A 
ATOM     60  H10 3TL d   1      15.494   6.550   1.564  0.00  0.00     0.083 H 
ATOM     61  C9  3TL d   1      16.511   3.615   0.194  0.00  0.00    -0.077 A 
ATOM     62  H11 3TL d   1      14.595   4.567   0.379  0.00  0.00     0.083 H 
ATOM     63  H12 3TL d   1      16.127   2.752  -0.337  0.00  0.00     0.084 H 
ENDBRANCH  50  53
ENDBRANCH   3  50
ENDBRANCH   1   3
BRANCH   1  64
ATOM     64  O1  3TL d   1      20.463   0.495   0.465  0.00  0.00    -0.391 OA
ATOM     65  H8  3TL d   1      21.070  -0.158   0.138  0.00  0.00     0.210 HD
ENDBRANCH   1  64
BRANCH   1  66
ATOM     66  C52 3TL d   1      18.752  -1.177   0.429  0.00  0.00     0.082 C 
ATOM     67  H55 3TL d   1      18.630  -1.165   1.522  0.00  0.00     0.090 H 
BRANCH  66  68
ATOM     68  C51 3TL d   1      17.473  -1.692  -0.197  0.00  0.00     0.043 C 
ATOM     69  H47 3TL d   1      16.617  -1.064   0.091  0.00  0.00     0.077 H 
BRANCH  68  70
ATOM     70  N51 3TL d   1      17.587  -1.687  -1.645  0.00  0.00    -0.352 N 
ATOM     71  C61 3TL d   1      16.850  -0.957  -2.491  0.00  0.00     0.241 C 
ATOM     72  O52 3TL d   1      15.831  -0.387  -2.161  0.00  0.00    -0.271 OA
ATOM     73  H46 3TL d   1      18.281  -2.284  -2.047  0.00  0.00     0.163 HD
BRANCH  71  74
ATOM     74  C60 3TL d   1      17.308  -0.979  -3.929  0.00  0.00     0.092 C 
ATOM     75  H38 3TL d   1      18.405  -0.902  -3.959  0.00  0.00     0.088 H 
BRANCH  74  76
ATOM     76  N52 3TL d   1      16.887  -2.282  -4.417  0.00  0.00    -0.346 N 
ATOM     77  C69 3TL d   1      17.604  -3.085  -5.199  0.00  0.00     0.240 C 
ATOM     78  O54 3TL d   1      18.734  -2.862  -5.630  0.00  0.00    -0.271 OA
ATOM     79  H37 3TL d   1      15.981  -2.602  -4.141  0.00  0.00     0.163 HD
BRANCH  77  80
ATOM     80  C68 3TL d   1      16.890  -4.335  -5.610  0.00  0.00     0.088 C 
ATOM     81  H33 3TL d   1      15.835  -4.260  -5.309  0.00  0.00     0.087 H 
BRANCH  80  82
ATOM     82  N54 3TL d   1      16.979  -4.421  -7.054  0.00  0.00    -0.324 N 
ATOM     83  C81 3TL d   1      15.889  -4.397  -7.794  0.00  0.00     0.361 C 
ATOM     84  O58 3TL d   1      14.848  -3.832  -7.494  0.00  0.00    -0.238 OA
ATOM     85  H32 3TL d   1      17.875  -4.499  -7.492  0.00  0.00     0.165 HD
BRANCH  83  86
ATOM     86  O59 3TL d   1      15.936  -5.073  -9.063  0.00  0.00    -0.299 OA
BRANCH  86  87
ATOM     87  CA5 3TL d   1      14.699  -5.086  -9.797  0.00  0.00     0.054 C 
ATOM     88  H25 3TL d   1      14.934  -5.082 -10.871  0.00  0.00     0.082 H 
ATOM     89  H26 3TL d   1      14.136  -4.176  -9.542  0.00  0.00     0.082 H 
BRANCH  87  90
ATOM     90  C50 3TL d   1      13.822  -6.286  -9.506  0.00  0.00    -0.034 A 
ATOM     91  C63 3TL d   1      12.772  -6.571 -10.393  0.00  0.00    -0.075 A 
ATOM     92  C64 3TL d   1      11.927  -7.661 -10.174  0.00  0.00    -0.082 A 
ATOM     93  H27 3TL d   1      12.615  -5.937 -11.258  0.00  0.00     0.084 H 
ATOM     94  C65 3TL d   1      12.119  -8.492  -9.067  0.00  0.00    -0.083 A 
ATOM     95  H28 3TL d   1      11.118  -7.864 -10.866  0.00  0.00     0.083 H 
ATOM     96  C66 3TL d   1      13.169  -8.211  -8.171  0.00  0.00    -0.082 A 
ATOM     97  H29 3TL d   1      11.468  -9.342  -8.900  0.00  0.00     0.083 H 
ATOM     98  C67 3TL d   1      14.024  -7.118  -8.397  0.00  0.00    -0.075 A 
ATOM     99  H30 3TL d   1      13.319  -8.841  -7.302  0.00  0.00     0.083 H 
ATOM    100  H31 3TL d   1      14.841  -6.919  -7.712  0.00  0.00     0.084 H 
ENDBRANCH  87  90
ENDBRANCH  86  87
ENDBRANCH  83  86
ENDBRANCH  80  82
BRANCH  80 101
ATOM    101  C70 3TL d   1      17.483  -5.586  -4.982  0.00  0.00    -0.049 C 
ATOM    102  H34 3TL d   1      17.413  -5.515  -3.887  0.00  0.00     0.030 H 
ATOM    103  H35 3TL d   1      18.539  -5.679  -5.276  0.00  0.00     0.030 H 
ATOM    104  H36 3TL d   1      16.927  -6.469  -5.329  0.00  0.00     0.030 H 
ENDBRANCH  80 101
ENDBRANCH  77  80
ENDBRANCH  74  76
BRANCH  74 105
ATOM    105  C62 3TL d   1      16.727   0.151  -4.816  0.00  0.00    -0.033 C 
ATOM    106  H39 3TL d   1      15.649   0.171  -4.599  0.00  0.00     0.042 H 
BRANCH 105 107
ATOM    107  CG6 3TL d   1      16.858  -0.059  -6.312  0.00  0.00    -0.071 C 
ATOM    108  H40 3TL d   1      16.416   0.797  -6.843  0.00  0.00     0.028 H 
ATOM    109  H41 3TL d   1      16.331  -0.981  -6.600  0.00  0.00     0.028 H 
ATOM    110  H42 3TL d   1      17.922  -0.146  -6.578  0.00  0.00     0.028 H 
ENDBRANCH 105 107
BRANCH 105 111
ATOM    111  CG5 3TL d   1      17.280   1.542  -4.462  0.00  0.00    -0.071 C 
ATOM    112  H43 3TL d   1      17.191   1.707  -3.378  0.00  0.00     0.028 H 
ATOM    113  H44 3TL d   1      16.706   2.312  -4.999  0.00  0.00     0.028 H 
ATOM    114  H45 3TL d   1      18.338   1.602  -4.756  0.00  0.00     0.028 H 
ENDBRANCH 105 111
ENDBRANCH  74 105
ENDBRANCH  71  74
ENDBRANCH  68  70
BRANCH  68 115
ATOM    115  C53 3TL d   1      17.322  -3.095   0.409  0.00  0.00    -0.020 C 
ATOM    116  H48 3TL d   1      16.688  -2.997   1.303  0.00  0.00     0.043 H 
ATOM    117  H49 3TL d   1      18.326  -3.431   0.706  0.00  0.00     0.043 H 
BRANCH 115 118
ATOM    118  C54 3TL d   1      16.722  -4.183  -0.447  0.00  0.00    -0.056 A 
ATOM    119  C55 3TL d   1      15.424  -4.052  -0.920  0.00  0.00    -0.077 A 
ATOM    120  C56 3TL d   1      14.877  -5.063  -1.692  0.00  0.00    -0.082 A 
ATOM    121  H50 3TL d   1      14.844  -3.167  -0.687  0.00  0.00     0.084 H 
ATOM    122  C57 3TL d   1      15.608  -6.226  -1.975  0.00  0.00    -0.083 A 
ATOM    123  H51 3TL d   1      13.872  -4.954  -2.082  0.00  0.00     0.083 H 
ATOM    124  C58 3TL d   1      16.916  -6.371  -1.502  0.00  0.00    -0.082 A 
ATOM    125  H52 3TL d   1      15.157  -7.017  -2.563  0.00  0.00     0.083 H 
ATOM    126  C59 3TL d   1      17.464  -5.345  -0.729  0.00  0.00    -0.077 A 
ATOM    127  H53 3TL d   1      17.492  -7.260  -1.730  0.00  0.00     0.083 H 
ATOM    128  H54 3TL d   1      18.472  -5.445  -0.342  0.00  0.00     0.084 H 
ENDBRANCH 115 118
ENDBRANCH  68 115
ENDBRANCH  66  68
BRANCH  66 129
ATOM    129  O51 3TL d   1      19.783  -2.079   0.065  0.00  0.00    -0.391 OA
ATOM    130  H56 3TL d   1      20.605  -1.787   0.442  0.00  0.00     0.210 HD
ENDBRANCH  66 129
ENDBRANCH   1  66
TORSDOF 33
