REMARK WARNING: 32 MAX_TORS EXCEEDED!!!
REMARK  33 active torsions:
REMARK  status: ('A' for Active; 'I' for Inactive)
REMARK    1  A    between atoms: N1_1  and  C1_2 
REMARK       I    between atoms: C11_15  and  N1_1 
REMARK    2  A    between atoms: C1_2  and  C2_4 
REMARK    3  A    between atoms: C1_2  and  C3_5 
REMARK    4  A    between atoms: N2_3  and  C10_14 
REMARK       I    between atoms: C19_25  and  N2_3 
REMARK    5  A    between atoms: C2_4  and  O1_8 
REMARK    6  A    between atoms: C2_4  and  C52_58 
REMARK    7  A    between atoms: C3_5  and  C4_6 
REMARK    8  A    between atoms: C10_14  and  C11_15 
REMARK    9  A    between atoms: C10_14  and  C12_16 
REMARK   10  A    between atoms: C12_16  and  CG2_60 
REMARK   11  A    between atoms: C12_16  and  CG1_61 
REMARK   12  A    between atoms: N4_19  and  C18_24 
REMARK       I    between atoms: C31_62  and  N4_19 
REMARK   13  A    between atoms: C18_24  and  C19_25 
REMARK   14  A    between atoms: C18_24  and  C20_26 
REMARK   15  A    between atoms: C81_28  and  O59_29 
REMARK       I    between atoms: N54_37  and  C81_28 
REMARK   16  A    between atoms: O59_29  and  CA5_30 
REMARK   17  A    between atoms: CA5_30  and  C50_31 
REMARK   18  A    between atoms: C68_38  and  N54_37 
REMARK   19  A    between atoms: C68_38  and  C70_39 
REMARK   20  A    between atoms: C69_40  and  C68_38 
REMARK       I    between atoms: N52_42  and  C69_40 
REMARK   21  A    between atoms: C60_43  and  N52_42 
REMARK   22  A    between atoms: C60_43  and  C62_44 
REMARK   23  A    between atoms: C61_47  and  C60_43 
REMARK   24  A    between atoms: C62_44  and  CG6_45 
REMARK   25  A    between atoms: C62_44  and  CG5_46 
REMARK       I    between atoms: N51_49  and  C61_47 
REMARK   26  A    between atoms: C51_50  and  N51_49 
REMARK   27  A    between atoms: C51_50  and  C53_51 
REMARK   28  A    between atoms: C52_58  and  C51_50 
REMARK   29  A    between atoms: C53_51  and  C54_52 
REMARK   30  A    between atoms: C52_58  and  O51_59 
REMARK   31  A    between atoms: O9_64  and  C31_62 
REMARK   32  A    between atoms: CA_65  and  O9_64 
REMARK   33  A    between atoms: CA_65  and  C_66 
ROOT
ATOM      1  C2  3TL d   1      19.917   0.301   0.558  0.00  0.00     0.082 C 
ATOM      2  H4  3TL d   1      19.817   0.299  -0.537  0.00  0.00     0.090 H 
ENDROOT
BRANCH   1   3
ATOM      3  C1  3TL d   1      19.001   1.400   1.111  0.00  0.00     0.043 C 
ATOM      4  H2  3TL d   1      17.962   1.121   0.881  0.00  0.00     0.077 H 
BRANCH   3   5
ATOM      5  N1  3TL d   1      19.105   1.523   2.572  0.00  0.00    -0.352 N 
ATOM      6  C11 3TL d   1      18.106   1.225   3.414  0.00  0.00     0.241 C 
ATOM      7  O2  3TL d   1      16.975   0.945   3.029  0.00  0.00    -0.271 OA
ATOM      8  H1  3TL d   1      19.968   1.847   2.959  0.00  0.00     0.163 HD
BRANCH   6   9
ATOM      9  C10 3TL d   1      18.427   1.258   4.888  0.00  0.00     0.092 C 
ATOM     10  H13 3TL d   1      19.510   1.424   4.980  0.00  0.00     0.088 H 
BRANCH   9  11
ATOM     11  N2  3TL d   1      17.747   2.344   5.567  0.00  0.00    -0.346 N 
ATOM     12  C19 3TL d   1      18.400   3.258   6.291  0.00  0.00     0.240 C 
ATOM     13  O4  3TL d   1      19.571   3.126   6.619  0.00  0.00    -0.271 OA
ATOM     14  H3  3TL d   1      16.752   2.412   5.491  0.00  0.00     0.163 HD
BRANCH  12  15
ATOM     15  C18 3TL d   1      17.594   4.473   6.687  0.00  0.00     0.088 C 
ATOM     16  H21 3TL d   1      16.536   4.231   6.509  0.00  0.00     0.087 H 
BRANCH  15  17
ATOM     17  N4  3TL d   1      17.713   4.845   8.086  0.00  0.00    -0.324 N 
ATOM     18  C31 3TL d   1      16.667   4.677   8.903  0.00  0.00     0.361 C 
ATOM     19  O8  3TL d   1      15.656   4.102   8.566  0.00  0.00    -0.238 OA
ATOM     20  H17 3TL d   1      18.570   5.224   8.436  0.00  0.00     0.165 HD
BRANCH  18  21
ATOM     21  O9  3TL d   1      16.736   5.173  10.259  0.00  0.00    -0.299 OA
BRANCH  21  22
ATOM     22  CA  3TL d   1      15.585   5.287  11.119  0.00  0.00     0.054 C 
ATOM     23  H63 3TL d   1      15.943   5.488  12.140  0.00  0.00     0.082 H 
ATOM     24  H64 3TL d   1      15.050   4.326  11.100  0.00  0.00     0.082 H 
BRANCH  22  25
ATOM     25  C   3TL d   1      14.593   6.385  10.743  0.00  0.00    -0.034 A 
ATOM     26  C13 3TL d   1      13.366   6.465  11.422  0.00  0.00    -0.075 A 
ATOM     27  C14 3TL d   1      12.429   7.458  11.128  0.00  0.00    -0.082 A 
ATOM     28  H15 3TL d   1      13.141   5.738  12.194  0.00  0.00     0.084 H 
ATOM     29  C15 3TL d   1      12.704   8.380  10.123  0.00  0.00    -0.083 A 
ATOM     30  H16 3TL d   1      11.496   7.510  11.678  0.00  0.00     0.083 H 
ATOM     31  C16 3TL d   1      13.918   8.316   9.442  0.00  0.00    -0.082 A 
ATOM     32  H18 3TL d   1      11.978   9.144   9.871  0.00  0.00     0.083 H 
ATOM     33  C17 3TL d   1      14.854   7.322   9.754  0.00  0.00    -0.075 A 
ATOM     34  H19 3TL d   1      14.139   9.040   8.666  0.00  0.00     0.083 H 
ATOM     35  H20 3TL d   1      15.794   7.284   9.216  0.00  0.00     0.084 H 
ENDBRANCH  22  25
ENDBRANCH  21  22
ENDBRANCH  18  21
ENDBRANCH  15  17
BRANCH  15  36
ATOM     36  C20 3TL d   1      17.961   5.643   5.794  0.00  0.00    -0.049 C 
ATOM     37  H22 3TL d   1      17.865   5.344   4.740  0.00  0.00     0.030 H 
ATOM     38  H23 3TL d   1      18.999   5.947   5.996  0.00  0.00     0.030 H 
ATOM     39  H24 3TL d   1      17.285   6.487   5.998  0.00  0.00     0.030 H 
ENDBRANCH  15  36
ENDBRANCH  12  15
ENDBRANCH   9  11
BRANCH   9  40
ATOM     40  C12 3TL d   1      18.090  -0.061   5.611  0.00  0.00    -0.033 C 
ATOM     41  H14 3TL d   1      16.994  -0.147   5.648  0.00  0.00     0.042 H 
BRANCH  40  42
ATOM     42  CG2 3TL d   1      18.622  -0.089   7.033  0.00  0.00    -0.071 C 
ATOM     43  H57 3TL d   1      18.357  -1.047   7.505  0.00  0.00     0.028 H 
ATOM     44  H58 3TL d   1      18.178   0.738   7.607  0.00  0.00     0.028 H 
ATOM     45  H59 3TL d   1      19.716   0.021   7.017  0.00  0.00     0.028 H 
ENDBRANCH  40  42
BRANCH  40  46
ATOM     46  CG1 3TL d   1      18.645  -1.282   4.883  0.00  0.00    -0.071 C 
ATOM     47  H60 3TL d   1      18.276  -1.290   3.847  0.00  0.00     0.028 H 
ATOM     48  H61 3TL d   1      18.315  -2.197   5.397  0.00  0.00     0.028 H 
ATOM     49  H62 3TL d   1      19.744  -1.239   4.881  0.00  0.00     0.028 H 
ENDBRANCH  40  46
ENDBRANCH   9  40
ENDBRANCH   6   9
ENDBRANCH   3   5
BRANCH   3  50
ATOM     50  C3  3TL d   1      19.304   2.719   0.385  0.00  0.00    -0.020 C 
ATOM     51  H5  3TL d   1      19.049   2.611  -0.680  0.00  0.00     0.043 H 
ATOM     52  H6  3TL d   1      20.375   2.948   0.484  0.00  0.00     0.043 H 
BRANCH  50  53
ATOM     53  C4  3TL d   1      18.500   3.851   0.974  0.00  0.00    -0.056 A 
ATOM     54  C5  3TL d   1      19.074   4.718   1.909  0.00  0.00    -0.077 A 
ATOM     55  C6  3TL d   1      18.327   5.770   2.451  0.00  0.00    -0.082 A 
ATOM     56  H7  3TL d   1      20.104   4.574   2.216  0.00  0.00     0.084 H 
ATOM     57  C7  3TL d   1      16.993   5.936   2.070  0.00  0.00    -0.083 A 
ATOM     58  H9  3TL d   1      18.780   6.452   3.162  0.00  0.00     0.083 H 
ATOM     59  C8  3TL d   1      16.422   5.055   1.145  0.00  0.00    -0.082 A 
ATOM     60  H10 3TL d   1      16.403   6.743   2.489  0.00  0.00     0.083 H 
ATOM     61  C9  3TL d   1      17.169   4.021   0.589  0.00  0.00    -0.077 A 
ATOM     62  H11 3TL d   1      15.384   5.180   0.858  0.00  0.00     0.083 H 
ATOM     63  H12 3TL d   1      16.721   3.353  -0.137  0.00  0.00     0.084 H 
ENDBRANCH  50  53
ENDBRANCH   3  50
ENDBRANCH   1   3
BRANCH   1  64
ATOM     64  O1  3TL d   1      21.246   0.586   0.908  0.00  0.00    -0.391 OA
ATOM     65  H8  3TL d   1      21.815  -0.094   0.566  0.00  0.00     0.210 HD
ENDBRANCH   1  64
BRANCH   1  66
ATOM     66  C52 3TL d   1      19.626  -1.112   1.070  0.00  0.00     0.082 C 
ATOM     67  H55 3TL d   1      19.515  -1.074   2.164  0.00  0.00     0.090 H 
BRANCH  66  68
ATOM     68  C51 3TL d   1      18.402  -1.795   0.478  0.00  0.00     0.043 C 
ATOM     69  H47 3TL d   1      17.485  -1.300   0.830  0.00  0.00     0.077 H 
BRANCH  68  70
ATOM     70  N51 3TL d   1      18.446  -1.728  -0.984  0.00  0.00    -0.352 N 
ATOM     71  C61 3TL d   1      17.518  -1.186  -1.776  0.00  0.00     0.241 C 
ATOM     72  O52 3TL d   1      16.481  -0.711  -1.351  0.00  0.00    -0.271 OA
ATOM     73  H46 3TL d   1      19.247  -2.126  -1.431  0.00  0.00     0.163 HD
BRANCH  71  74
ATOM     74  C60 3TL d   1      17.818  -1.207  -3.257  0.00  0.00     0.092 C 
ATOM     75  H38 3TL d   1      18.901  -1.354  -3.383  0.00  0.00     0.088 H 
BRANCH  74  76
ATOM     76  N52 3TL d   1      17.123  -2.313  -3.905  0.00  0.00    -0.346 N 
ATOM     77  C69 3TL d   1      17.676  -3.199  -4.734  0.00  0.00     0.240 C 
ATOM     78  O54 3TL d   1      18.865  -3.180  -5.027  0.00  0.00    -0.271 OA
ATOM     79  H37 3TL d   1      16.147  -2.416  -3.711  0.00  0.00     0.163 HD
BRANCH  77  80
ATOM     80  C68 3TL d   1      16.723  -4.226  -5.321  0.00  0.00     0.088 C 
ATOM     81  H33 3TL d   1      15.705  -3.999  -4.971  0.00  0.00     0.087 H 
BRANCH  80  82
ATOM     82  N54 3TL d   1      16.739  -4.172  -6.766  0.00  0.00    -0.324 N 
ATOM     83  C81 3TL d   1      15.722  -4.451  -7.580  0.00  0.00     0.361 C 
ATOM     84  O58 3TL d   1      14.547  -4.218  -7.356  0.00  0.00    -0.238 OA
ATOM     85  H32 3TL d   1      17.599  -3.898  -7.197  0.00  0.00     0.165 HD
BRANCH  83  86
ATOM     86  O59 3TL d   1      16.062  -5.078  -8.829  0.00  0.00    -0.299 OA
BRANCH  86  87
ATOM     87  CA5 3TL d   1      15.085  -5.424  -9.819  0.00  0.00     0.054 C 
ATOM     88  H25 3TL d   1      15.608  -5.712 -10.743  0.00  0.00     0.082 H 
ATOM     89  H26 3TL d   1      14.454  -4.544 -10.013  0.00  0.00     0.082 H 
BRANCH  87  90
ATOM     90  C50 3TL d   1      14.195  -6.571  -9.390  0.00  0.00    -0.034 A 
ATOM     91  C63 3TL d   1      13.046  -6.866 -10.141  0.00  0.00    -0.075 A 
ATOM     92  C64 3TL d   1      12.195  -7.908  -9.767  0.00  0.00    -0.082 A 
ATOM     93  H27 3TL d   1      12.817  -6.278 -11.022  0.00  0.00     0.084 H 
ATOM     94  C65 3TL d   1      12.508  -8.663  -8.639  0.00  0.00    -0.083 A 
ATOM     95  H28 3TL d   1      11.305  -8.126 -10.345  0.00  0.00     0.083 H 
ATOM     96  C66 3TL d   1      13.648  -8.378  -7.884  0.00  0.00    -0.082 A 
ATOM     97  H29 3TL d   1      11.860  -9.480  -8.344  0.00  0.00     0.083 H 
ATOM     98  C67 3TL d   1      14.493  -7.330  -8.262  0.00  0.00    -0.075 A 
ATOM     99  H30 3TL d   1      13.878  -8.969  -7.005  0.00  0.00     0.083 H 
ATOM    100  H31 3TL d   1      15.379  -7.109  -7.678  0.00  0.00     0.084 H 
ENDBRANCH  87  90
ENDBRANCH  86  87
ENDBRANCH  83  86
ENDBRANCH  80  82
BRANCH  80 101
ATOM    101  C70 3TL d   1      17.101  -5.625  -4.854  0.00  0.00    -0.049 C 
ATOM    102  H34 3TL d   1      17.087  -5.661  -3.755  0.00  0.00     0.030 H 
ATOM    103  H35 3TL d   1      18.110  -5.872  -5.216  0.00  0.00     0.030 H 
ATOM    104  H36 3TL d   1      16.379  -6.353  -5.253  0.00  0.00     0.030 H 
ENDBRANCH  80 101
ENDBRANCH  77  80
ENDBRANCH  74  76
BRANCH  74 105
ATOM    105  C62 3TL d   1      17.431   0.109  -3.936  0.00  0.00    -0.033 C 
ATOM    106  H39 3TL d   1      16.352   0.258  -3.780  0.00  0.00     0.042 H 
BRANCH 105 107
ATOM    107  CG6 3TL d   1      17.689   0.049  -5.434  0.00  0.00    -0.071 C 
ATOM    108  H40 3TL d   1      17.402   1.006  -5.894  0.00  0.00     0.028 H 
ATOM    109  H41 3TL d   1      17.094  -0.763  -5.876  0.00  0.00     0.028 H 
ATOM    110  H42 3TL d   1      18.758  -0.139  -5.615  0.00  0.00     0.028 H 
ENDBRANCH 105 107
BRANCH 105 111
ATOM    111  CG5 3TL d   1      18.163   1.314  -3.341  0.00  0.00    -0.071 C 
ATOM    112  H43 3TL d   1      17.977   1.358  -2.258  0.00  0.00     0.028 H 
ATOM    113  H44 3TL d   1      17.795   2.237  -3.814  0.00  0.00     0.028 H 
ATOM    114  H45 3TL d   1      19.243   1.214  -3.524  0.00  0.00     0.028 H 
ENDBRANCH 105 111
ENDBRANCH  74 105
ENDBRANCH  71  74
ENDBRANCH  68  70
BRANCH  68 115
ATOM    115  C53 3TL d   1      18.440  -3.243   0.991  0.00  0.00    -0.020 C 
ATOM    116  H48 3TL d   1      18.377  -3.224   2.089  0.00  0.00     0.043 H 
ATOM    117  H49 3TL d   1      19.396  -3.694   0.687  0.00  0.00     0.043 H 
BRANCH 115 118
ATOM    118  C54 3TL d   1      17.318  -4.104   0.464  0.00  0.00    -0.056 A 
ATOM    119  C55 3TL d   1      17.379  -4.674  -0.809  0.00  0.00    -0.077 A 
ATOM    120  C56 3TL d   1      16.344  -5.480  -1.288  0.00  0.00    -0.082 A 
ATOM    121  H50 3TL d   1      18.244  -4.488  -1.436  0.00  0.00     0.084 H 
ATOM    122  C57 3TL d   1      15.248  -5.711  -0.460  0.00  0.00    -0.083 A 
ATOM    123  H51 3TL d   1      16.392  -5.915  -2.280  0.00  0.00     0.083 H 
ATOM    124  C58 3TL d   1      15.188  -5.145   0.820  0.00  0.00    -0.082 A 
ATOM    125  H52 3TL d   1      14.433  -6.335  -0.810  0.00  0.00     0.083 H 
ATOM    126  C59 3TL d   1      16.226  -4.347   1.286  0.00  0.00    -0.077 A 
ATOM    127  H53 3TL d   1      14.326  -5.331   1.451  0.00  0.00     0.083 H 
ATOM    128  H54 3TL d   1      16.183  -3.919   2.281  0.00  0.00     0.084 H 
ENDBRANCH 115 118
ENDBRANCH  68 115
ENDBRANCH  66  68
BRANCH  66 129
ATOM    129  O51 3TL d   1      20.731  -1.910   0.710  0.00  0.00    -0.391 OA
ATOM    130  H56 3TL d   1      21.526  -1.524   1.058  0.00  0.00     0.210 HD
ENDBRANCH  66 129
ENDBRANCH   1  66
TORSDOF 33
