REMARK WARNING: 32 MAX_TORS EXCEEDED!!!
REMARK  33 active torsions:
REMARK  status: ('A' for Active; 'I' for Inactive)
REMARK    1  A    between atoms: N1_1  and  C1_2 
REMARK       I    between atoms: C11_15  and  N1_1 
REMARK    2  A    between atoms: C1_2  and  C2_4 
REMARK    3  A    between atoms: C1_2  and  C3_5 
REMARK    4  A    between atoms: N2_3  and  C10_14 
REMARK       I    between atoms: C19_25  and  N2_3 
REMARK    5  A    between atoms: C2_4  and  O1_8 
REMARK    6  A    between atoms: C2_4  and  C52_58 
REMARK    7  A    between atoms: C3_5  and  C4_6 
REMARK    8  A    between atoms: C10_14  and  C11_15 
REMARK    9  A    between atoms: C10_14  and  C12_16 
REMARK   10  A    between atoms: C12_16  and  CG2_60 
REMARK   11  A    between atoms: C12_16  and  CG1_61 
REMARK   12  A    between atoms: N4_19  and  C18_24 
REMARK       I    between atoms: C31_62  and  N4_19 
REMARK   13  A    between atoms: C18_24  and  C19_25 
REMARK   14  A    between atoms: C18_24  and  C20_26 
REMARK   15  A    between atoms: C81_28  and  O59_29 
REMARK       I    between atoms: N54_37  and  C81_28 
REMARK   16  A    between atoms: O59_29  and  CA5_30 
REMARK   17  A    between atoms: CA5_30  and  C50_31 
REMARK   18  A    between atoms: C68_38  and  N54_37 
REMARK   19  A    between atoms: C68_38  and  C70_39 
REMARK   20  A    between atoms: C69_40  and  C68_38 
REMARK       I    between atoms: N52_42  and  C69_40 
REMARK   21  A    between atoms: C60_43  and  N52_42 
REMARK   22  A    between atoms: C60_43  and  C62_44 
REMARK   23  A    between atoms: C61_47  and  C60_43 
REMARK   24  A    between atoms: C62_44  and  CG6_45 
REMARK   25  A    between atoms: C62_44  and  CG5_46 
REMARK       I    between atoms: N51_49  and  C61_47 
REMARK   26  A    between atoms: C51_50  and  N51_49 
REMARK   27  A    between atoms: C51_50  and  C53_51 
REMARK   28  A    between atoms: C52_58  and  C51_50 
REMARK   29  A    between atoms: C53_51  and  C54_52 
REMARK   30  A    between atoms: C52_58  and  O51_59 
REMARK   31  A    between atoms: O9_64  and  C31_62 
REMARK   32  A    between atoms: CA_65  and  O9_64 
REMARK   33  A    between atoms: CA_65  and  C_66 
ROOT
ATOM      1  C2  3TL d   1      -9.885 -16.546  13.755  0.00  0.00     0.082 C 
ATOM      2  H4  3TL d   1      -9.889 -16.404  14.846  0.00  0.00     0.090 H 
ENDROOT
BRANCH   1   3
ATOM      3  C1  3TL d   1     -10.459 -15.308  13.089  0.00  0.00     0.043 C 
ATOM      4  H2  3TL d   1      -9.834 -14.443  13.354  0.00  0.00     0.077 H 
BRANCH   3   5
ATOM      5  N1  3TL d   1     -10.462 -15.467  11.652  0.00  0.00    -0.352 N 
ATOM      6  C11 3TL d   1      -9.714 -14.709  10.863  0.00  0.00     0.241 C 
ATOM      7  O2  3TL d   1      -8.937 -13.874  11.276  0.00  0.00    -0.271 OA
ATOM      8  H1  3TL d   1     -11.045 -16.169  11.242  0.00  0.00     0.163 HD
BRANCH   6   9
ATOM      9  C10 3TL d   1      -9.920 -14.903   9.397  0.00  0.00     0.092 C 
ATOM     10  H13 3TL d   1     -10.533 -15.802   9.236  0.00  0.00     0.088 H 
BRANCH   9  11
ATOM     11  N2  3TL d   1     -10.650 -13.732   8.927  0.00  0.00    -0.346 N 
ATOM     12  C19 3TL d   1     -11.612 -13.783   8.021  0.00  0.00     0.240 C 
ATOM     13  O4  3TL d   1     -11.956 -14.820   7.489  0.00  0.00    -0.271 OA
ATOM     14  H3  3TL d   1     -10.410 -12.840   9.311  0.00  0.00     0.163 HD
BRANCH  12  15
ATOM     15  C18 3TL d   1     -12.250 -12.472   7.659  0.00  0.00     0.088 C 
ATOM     16  H21 3TL d   1     -11.561 -11.662   7.939  0.00  0.00     0.087 H 
BRANCH  15  17
ATOM     17  N4  3TL d   1     -12.499 -12.382   6.231  0.00  0.00    -0.324 N 
ATOM     18  C31 3TL d   1     -11.697 -11.707   5.401  0.00  0.00     0.361 C 
ATOM     19  O8  3TL d   1     -10.662 -11.161   5.756  0.00  0.00    -0.238 OA
ATOM     20  H17 3TL d   1     -13.302 -12.843   5.854  0.00  0.00     0.165 HD
BRANCH  18  21
ATOM     21  O9  3TL d   1     -12.100 -11.604   4.005  0.00  0.00    -0.299 OA
BRANCH  21  22
ATOM     22  CA  3TL d   1     -11.518 -10.630   3.142  0.00  0.00     0.054 C 
ATOM     23  H63 3TL d   1     -11.734 -10.910   2.100  0.00  0.00     0.082 H 
ATOM     24  H64 3TL d   1     -10.430 -10.624   3.302  0.00  0.00     0.082 H 
BRANCH  22  25
ATOM     25  C   3TL d   1     -12.050  -9.234   3.387  0.00  0.00    -0.034 A 
ATOM     26  C13 3TL d   1     -11.217  -8.133   3.134  0.00  0.00    -0.075 A 
ATOM     27  C14 3TL d   1     -11.684  -6.838   3.331  0.00  0.00    -0.082 A 
ATOM     28  H15 3TL d   1     -10.204  -8.293   2.783  0.00  0.00     0.084 H 
ATOM     29  C15 3TL d   1     -12.988  -6.634   3.791  0.00  0.00    -0.083 A 
ATOM     30  H16 3TL d   1     -11.039  -5.990   3.129  0.00  0.00     0.083 H 
ATOM     31  C16 3TL d   1     -13.820  -7.730   4.043  0.00  0.00    -0.082 A 
ATOM     32  H18 3TL d   1     -13.354  -5.627   3.952  0.00  0.00     0.083 H 
ATOM     33  C17 3TL d   1     -13.348  -9.034   3.835  0.00  0.00    -0.075 A 
ATOM     34  H19 3TL d   1     -14.831  -7.571   4.400  0.00  0.00     0.083 H 
ATOM     35  H20 3TL d   1     -13.995  -9.883   4.024  0.00  0.00     0.084 H 
ENDBRANCH  22  25
ENDBRANCH  21  22
ENDBRANCH  18  21
ENDBRANCH  15  17
BRANCH  15  36
ATOM     36  C20 3TL d   1     -13.547 -12.297   8.442  0.00  0.00    -0.049 C 
ATOM     37  H22 3TL d   1     -13.337 -12.368   9.520  0.00  0.00     0.030 H 
ATOM     38  H23 3TL d   1     -14.258 -13.085   8.154  0.00  0.00     0.030 H 
ATOM     39  H24 3TL d   1     -13.981 -11.311   8.217  0.00  0.00     0.030 H 
ENDBRANCH  15  36
ENDBRANCH  12  15
ENDBRANCH   9  11
BRANCH   9  40
ATOM     40  C12 3TL d   1      -8.604 -15.086   8.642  0.00  0.00    -0.033 C 
ATOM     41  H14 3TL d   1      -8.102 -14.107   8.652  0.00  0.00     0.042 H 
BRANCH  40  42
ATOM     42  CG2 3TL d   1      -8.839 -15.460   7.182  0.00  0.00    -0.071 C 
ATOM     43  H57 3TL d   1      -7.871 -15.582   6.675  0.00  0.00     0.028 H 
ATOM     44  H58 3TL d   1      -9.414 -14.663   6.687  0.00  0.00     0.028 H 
ATOM     45  H59 3TL d   1      -9.402 -16.404   7.131  0.00  0.00     0.028 H 
ENDBRANCH  40  42
BRANCH  40  46
ATOM     46  CG1 3TL d   1      -7.635 -16.084   9.281  0.00  0.00    -0.071 C 
ATOM     47  H60 3TL d   1      -7.468 -15.811  10.333  0.00  0.00     0.028 H 
ATOM     48  H61 3TL d   1      -6.677 -16.062   8.741  0.00  0.00     0.028 H 
ATOM     49  H62 3TL d   1      -8.063 -17.096   9.228  0.00  0.00     0.028 H 
ENDBRANCH  40  46
ENDBRANCH   9  40
ENDBRANCH   6   9
ENDBRANCH   3   5
BRANCH   3  50
ATOM     50  C3  3TL d   1     -11.887 -15.052  13.563  0.00  0.00    -0.020 C 
ATOM     51  H5  3TL d   1     -11.972 -15.293  14.633  0.00  0.00     0.043 H 
ATOM     52  H6  3TL d   1     -12.587 -15.677  12.989  0.00  0.00     0.043 H 
BRANCH  50  53
ATOM     53  C4  3TL d   1     -12.207 -13.598  13.343  0.00  0.00    -0.056 A 
ATOM     54  C5  3TL d   1     -13.021 -13.224  12.271  0.00  0.00    -0.077 A 
ATOM     55  C6  3TL d   1     -13.302 -11.873  12.076  0.00  0.00    -0.082 A 
ATOM     56  H7  3TL d   1     -13.428 -13.973  11.601  0.00  0.00     0.084 H 
ATOM     57  C7  3TL d   1     -12.772 -10.914  12.941  0.00  0.00    -0.083 A 
ATOM     58  H9  3TL d   1     -13.934 -11.566  11.250  0.00  0.00     0.083 H 
ATOM     59  C8  3TL d   1     -11.972 -11.297  14.012  0.00  0.00    -0.082 A 
ATOM     60  H10 3TL d   1     -12.986  -9.864  12.777  0.00  0.00     0.083 H 
ATOM     61  C9  3TL d   1     -11.691 -12.644  14.218  0.00  0.00    -0.077 A 
ATOM     62  H11 3TL d   1     -11.569 -10.548  14.684  0.00  0.00     0.083 H 
ATOM     63  H12 3TL d   1     -11.074 -12.950  15.055  0.00  0.00     0.084 H 
ENDBRANCH  50  53
ENDBRANCH   3  50
ENDBRANCH   1   3
BRANCH   1  64
ATOM     64  O1  3TL d   1     -10.717 -17.622  13.381  0.00  0.00    -0.391 OA
ATOM     65  H8  3TL d   1     -10.394 -18.423  13.777  0.00  0.00     0.210 HD
ENDBRANCH   1  64
BRANCH   1  66
ATOM     66  C52 3TL d   1      -8.486 -16.926  13.304  0.00  0.00     0.082 C 
ATOM     67  H55 3TL d   1      -8.451 -16.879  12.206  0.00  0.00     0.090 H 
BRANCH  66  68
ATOM     68  C51 3TL d   1      -7.358 -16.073  13.853  0.00  0.00     0.043 C 
ATOM     69  H47 3TL d   1      -7.425 -15.028  13.516  0.00  0.00     0.077 H 
BRANCH  68  70
ATOM     70  N51 3TL d   1      -7.434 -16.142  15.307  0.00  0.00    -0.352 N 
ATOM     71  C61 3TL d   1      -7.554 -15.113  16.145  0.00  0.00     0.241 C 
ATOM     72  O52 3TL d   1      -7.489 -13.936  15.814  0.00  0.00    -0.271 OA
ATOM     73  H46 3TL d   1      -7.392 -17.053  15.717  0.00  0.00     0.163 HD
BRANCH  71  74
ATOM     74  C60 3TL d   1      -7.744 -15.515  17.579  0.00  0.00     0.092 C 
ATOM     75  H38 3TL d   1      -8.257 -16.488  17.589  0.00  0.00     0.088 H 
BRANCH  74  76
ATOM     76  N52 3TL d   1      -6.428 -15.708  18.186  0.00  0.00    -0.346 N 
ATOM     77  C69 3TL d   1      -6.069 -16.758  18.930  0.00  0.00     0.240 C 
ATOM     78  O54 3TL d   1      -6.861 -17.563  19.390  0.00  0.00    -0.271 OA
ATOM     79  H37 3TL d   1      -5.742 -14.997  18.032  0.00  0.00     0.163 HD
BRANCH  77  80
ATOM     80  C68 3TL d   1      -4.603 -16.867  19.257  0.00  0.00     0.088 C 
ATOM     81  H33 3TL d   1      -4.104 -15.975  18.851  0.00  0.00     0.087 H 
BRANCH  80  82
ATOM     82  N54 3TL d   1      -4.425 -16.884  20.696  0.00  0.00    -0.324 N 
ATOM     83  C81 3TL d   1      -4.089 -15.789  21.368  0.00  0.00     0.361 C 
ATOM     84  O58 3TL d   1      -3.848 -14.717  20.833  0.00  0.00    -0.238 OA
ATOM     85  H32 3TL d   1      -4.558 -17.741  21.194  0.00  0.00     0.165 HD
BRANCH  83  86
ATOM     86  O59 3TL d   1      -3.985 -15.917  22.811  0.00  0.00    -0.299 OA
BRANCH  86  87
ATOM     87  CA5 3TL d   1      -3.495 -14.833  23.600  0.00  0.00     0.054 C 
ATOM     88  H25 3TL d   1      -3.826 -14.970  24.640  0.00  0.00     0.082 H 
ATOM     89  H26 3TL d   1      -3.904 -13.891  23.206  0.00  0.00     0.082 H 
BRANCH  87  90
ATOM     90  C50 3TL d   1      -1.983 -14.763  23.571  0.00  0.00    -0.034 A 
ATOM     91  C63 3TL d   1      -1.357 -13.535  23.790  0.00  0.00    -0.075 A 
ATOM     92  C64 3TL d   1       0.036 -13.446  23.784  0.00  0.00    -0.082 A 
ATOM     93  H27 3TL d   1      -1.954 -12.648  23.965  0.00  0.00     0.084 H 
ATOM     94  C65 3TL d   1       0.808 -14.583  23.560  0.00  0.00    -0.083 A 
ATOM     95  H28 3TL d   1       0.518 -12.490  23.954  0.00  0.00     0.083 H 
ATOM     96  C66 3TL d   1       0.179 -15.812  23.349  0.00  0.00    -0.082 A 
ATOM     97  H29 3TL d   1       1.890 -14.515  23.549  0.00  0.00     0.083 H 
ATOM     98  C67 3TL d   1      -1.216 -15.910  23.359  0.00  0.00    -0.075 A 
ATOM     99  H30 3TL d   1       0.778 -16.699  23.176  0.00  0.00     0.083 H 
ATOM    100  H31 3TL d   1      -1.698 -16.869  23.203  0.00  0.00     0.084 H 
ENDBRANCH  87  90
ENDBRANCH  86  87
ENDBRANCH  83  86
ENDBRANCH  80  82
BRANCH  80 101
ATOM    101  C70 3TL d   1      -3.920 -18.095  18.659  0.00  0.00    -0.049 C 
ATOM    102  H34 3TL d   1      -4.050 -18.091  17.567  0.00  0.00     0.030 H 
ATOM    103  H35 3TL d   1      -4.371 -19.006  19.078  0.00  0.00     0.030 H 
ATOM    104  H36 3TL d   1      -2.847 -18.072  18.901  0.00  0.00     0.030 H 
ENDBRANCH  80 101
ENDBRANCH  77  80
ENDBRANCH  74  76
BRANCH  74 105
ATOM    105  C62 3TL d   1      -8.646 -14.530  18.346  0.00  0.00    -0.033 C 
ATOM    106  H39 3TL d   1      -8.282 -13.513  18.138  0.00  0.00     0.042 H 
BRANCH 105 107
ATOM    107  CG6 3TL d   1      -8.616 -14.741  19.867  0.00  0.00    -0.071 C 
ATOM    108  H40 3TL d   1      -9.278 -14.009  20.352  0.00  0.00     0.028 H 
ATOM    109  H41 3TL d   1      -7.588 -14.606  20.236  0.00  0.00     0.028 H 
ATOM    110  H42 3TL d   1      -8.960 -15.759  20.103  0.00  0.00     0.028 H 
ENDBRANCH 105 107
BRANCH 105 111
ATOM    111  CG5 3TL d   1     -10.084 -14.637  17.859  0.00  0.00    -0.071 C 
ATOM    112  H43 3TL d   1     -10.114 -14.487  16.770  0.00  0.00     0.028 H 
ATOM    113  H44 3TL d   1     -10.696 -13.868  18.352  0.00  0.00     0.028 H 
ATOM    114  H45 3TL d   1     -10.481 -15.634  18.103  0.00  0.00     0.028 H 
ENDBRANCH 105 111
ENDBRANCH  74 105
ENDBRANCH  71  74
ENDBRANCH  68  70
BRANCH  68 115
ATOM    115  C53 3TL d   1      -6.107 -16.749  13.300  0.00  0.00    -0.020 C 
ATOM    116  H48 3TL d   1      -6.113 -16.642  12.205  0.00  0.00     0.043 H 
ATOM    117  H49 3TL d   1      -6.146 -17.816  13.565  0.00  0.00     0.043 H 
BRANCH 115 118
ATOM    118  C54 3TL d   1      -4.815 -16.180  13.823  0.00  0.00    -0.056 A 
ATOM    119  C55 3TL d   1      -4.419 -16.408  15.132  0.00  0.00    -0.077 A 
ATOM    120  C56 3TL d   1      -3.224 -15.882  15.607  0.00  0.00    -0.082 A 
ATOM    121  H50 3TL d   1      -5.046 -17.000  15.789  0.00  0.00     0.084 H 
ATOM    122  C57 3TL d   1      -2.441 -15.130  14.749  0.00  0.00    -0.083 A 
ATOM    123  H51 3TL d   1      -2.911 -16.057  16.630  0.00  0.00     0.083 H 
ATOM    124  C58 3TL d   1      -2.836 -14.917  13.429  0.00  0.00    -0.082 A 
ATOM    125  H52 3TL d   1      -1.511 -14.702  15.107  0.00  0.00     0.083 H 
ATOM    126  C59 3TL d   1      -4.026 -15.446  12.965  0.00  0.00    -0.077 A 
ATOM    127  H53 3TL d   1      -2.208 -14.335  12.764  0.00  0.00     0.083 H 
ATOM    128  H54 3TL d   1      -4.335 -15.285  11.938  0.00  0.00     0.084 H 
ENDBRANCH 115 118
ENDBRANCH  68 115
ENDBRANCH  66  68
BRANCH  66 129
ATOM    129  O51 3TL d   1      -8.260 -18.262  13.746  0.00  0.00    -0.391 OA
ATOM    130  H56 3TL d   1      -8.952 -18.824  13.418  0.00  0.00     0.210 HD
ENDBRANCH  66 129
ENDBRANCH   1  66
TORSDOF 33
