REMARK  28 active torsions:
REMARK  status: ('A' for Active; 'I' for Inactive)
REMARK    1  A    between atoms: C17_19  and  C16_7 
REMARK    2  A    between atoms: S2_29  and  C20_8 
REMARK       I    between atoms: C21_9  and  N21_21 
REMARK    3  A    between atoms: C23_23  and  C21_9 
REMARK    4  A    between atoms: C22_10  and  C27_12 
REMARK       I    between atoms: N3_33  and  C22_10 
REMARK    5  A    between atoms: C30_13  and  C38_36 
REMARK       I    between atoms: N4_40  and  C30_13 
REMARK    6  A    between atoms: C32_15  and  C31_14 
REMARK    7  A    between atoms: C31_14  and  C33_16 
REMARK    8  A    between atoms: C31_14  and  N3_33 
REMARK    9  A    between atoms: C37_35  and  C32_15 
REMARK   10  A    between atoms: C32_15  and  O31_38 
REMARK   11  A    between atoms: C33_16  and  C34_17 
REMARK   12  A    between atoms: C34_17  and  C35_18 
REMARK   13  A    between atoms: C34_17  and  C36_34 
REMARK   14  A    between atoms: C17_19  and  C18_20 
REMARK   15  A    between atoms: N21_21  and  C17_19 
REMARK   16  A    between atoms: C25_24  and  N22_27 
REMARK   17  A    between atoms: N22_27  and  C29_28 
REMARK   18  A    between atoms: N22_27  and  S2_29 
REMARK   19  A    between atoms: C38_36  and  C37_35 
REMARK   20  A    between atoms: C38_36  and  C39_37 
REMARK   21  A    between atoms: C41_41  and  N4_40 
REMARK   22  A    between atoms: C41_41  and  C42_42 
REMARK   23  A    between atoms: C41_41  and  C45_45 
REMARK   24  A    between atoms: C42_42  and  C43_43 
REMARK   25  A    between atoms: C42_42  and  C44_44 
REMARK       I    between atoms: C45_45  and  N5_46 
REMARK   26  A    between atoms: N5_46  and  C51_47 
REMARK   27  A    between atoms: C51_47  and  C53_48 
REMARK   28  A    between atoms: C51_47  and  C52_49 
ROOT
ATOM      1  C31 23I d   1      -4.581  -4.630  32.133  0.00  0.00     0.037 C 
ATOM      2  H10 23I d   1      -5.401  -4.812  31.422  0.00  0.00     0.076 H 
ENDROOT
BRANCH   1   3
ATOM      3  C32 23I d   1      -5.046  -3.484  33.074  0.00  0.00     0.056 C 
ATOM      4  H11 23I d   1      -5.925  -3.834  33.635  0.00  0.00     0.086 H 
BRANCH   3   5
ATOM      5  C37 23I d   1      -5.417  -2.207  32.296  0.00  0.00    -0.028 C 
ATOM      6  H32 23I d   1      -5.546  -2.479  31.238  0.00  0.00     0.038 H 
ATOM      7  H33 23I d   1      -4.583  -1.496  32.392  0.00  0.00     0.038 H 
BRANCH   5   8
ATOM      8  C38 23I d   1      -6.697  -1.501  32.763  0.00  0.00     0.022 C 
ATOM      9  H34 23I d   1      -6.777  -1.605  33.855  0.00  0.00     0.054 H 
BRANCH   8  10
ATOM     10  C30 23I d   1      -7.975  -2.129  32.115  0.00  0.00     0.222 C 
ATOM     11  O32 23I d   1      -7.981  -2.527  30.947  0.00  0.00    -0.273 OA
ATOM     12  N4  23I d   1      -9.068  -2.190  32.891  0.00  0.00    -0.347 N 
ATOM     13  H39 23I d   1      -9.006  -1.862  33.834  0.00  0.00     0.163 HD
BRANCH  12  14
ATOM     14  C41 23I d   1     -10.365  -2.725  32.407  0.00  0.00     0.092 C 
ATOM     15  H40 23I d   1     -10.194  -3.684  31.896  0.00  0.00     0.088 H 
BRANCH  14  16
ATOM     16  C42 23I d   1     -11.311  -3.013  33.638  0.00  0.00    -0.033 C 
ATOM     17  H41 23I d   1     -10.778  -3.715  34.296  0.00  0.00     0.042 H 
BRANCH  16  18
ATOM     18  C43 23I d   1     -12.641  -3.661  33.196  0.00  0.00    -0.071 C 
ATOM     19  H42 23I d   1     -13.270  -3.845  34.079  0.00  0.00     0.028 H 
ATOM     20  H43 23I d   1     -12.433  -4.614  32.688  0.00  0.00     0.028 H 
ATOM     21  H44 23I d   1     -13.167  -2.985  32.506  0.00  0.00     0.028 H 
ENDBRANCH  16  18
BRANCH  16  22
ATOM     22  C44 23I d   1     -11.695  -1.767  34.477  0.00  0.00    -0.071 C 
ATOM     23  H45 23I d   1     -10.781  -1.261  34.822  0.00  0.00     0.028 H 
ATOM     24  H46 23I d   1     -12.291  -2.080  35.347  0.00  0.00     0.028 H 
ATOM     25  H47 23I d   1     -12.285  -1.076  33.858  0.00  0.00     0.028 H 
ENDBRANCH  16  22
ENDBRANCH  14  16
BRANCH  14  26
ATOM     26  C45 23I d   1     -10.896  -1.693  31.334  0.00  0.00     0.241 C 
ATOM     27  O4  23I d   1     -10.827  -0.467  31.523  0.00  0.00    -0.271 OA
ATOM     28  N5  23I d   1     -11.394  -2.226  30.210  0.00  0.00    -0.355 N 
ATOM     29  H48 23I d   1     -11.411  -3.223  30.134  0.00  0.00     0.162 HD
BRANCH  28  30
ATOM     30  C51 23I d   1     -11.916  -1.445  29.084  0.00  0.00     0.005 C 
ATOM     31  H49 23I d   1     -11.952  -0.375  29.335  0.00  0.00     0.071 H 
BRANCH  30  32
ATOM     32  C53 23I d   1     -13.322  -1.963  28.796  0.00  0.00    -0.058 C 
ATOM     33  H50 23I d   1     -13.754  -1.402  27.954  0.00  0.00     0.030 H 
ATOM     34  H51 23I d   1     -13.952  -1.829  29.688  0.00  0.00     0.030 H 
ATOM     35  H52 23I d   1     -13.274  -3.031  28.539  0.00  0.00     0.030 H 
ENDBRANCH  30  32
BRANCH  30  36
ATOM     36  C52 23I d   1     -10.987  -1.668  27.889  0.00  0.00    -0.058 C 
ATOM     37  H53 23I d   1     -11.354  -1.093  27.026  0.00  0.00     0.030 H 
ATOM     38  H54 23I d   1     -10.967  -2.738  27.634  0.00  0.00     0.030 H 
ATOM     39  H55 23I d   1      -9.971  -1.334  28.147  0.00  0.00     0.030 H 
ENDBRANCH  30  36
ENDBRANCH  28  30
ENDBRANCH  14  26
ENDBRANCH  12  14
ENDBRANCH   8  10
BRANCH   8  40
ATOM     40  C39 23I d   1      -6.591   0.011  32.408  0.00  0.00    -0.065 C 
ATOM     41  H35 23I d   1      -7.503   0.530  32.738  0.00  0.00     0.028 H 
ATOM     42  H36 23I d   1      -6.477   0.125  31.320  0.00  0.00     0.028 H 
ATOM     43  H37 23I d   1      -5.718   0.447  32.916  0.00  0.00     0.028 H 
ENDBRANCH   8  40
ENDBRANCH   5   8
ENDBRANCH   3   5
BRANCH   3  44
ATOM     44  O31 23I d   1      -4.025  -3.120  33.983  0.00  0.00    -0.393 OA
ATOM     45  H38 23I d   1      -4.350  -2.447  34.570  0.00  0.00     0.210 HD
ENDBRANCH   3  44
ENDBRANCH   1   3
BRANCH   1  46
ATOM     46  C33 23I d   1      -4.259  -5.979  32.873  0.00  0.00    -0.041 C 
ATOM     47  H12 23I d   1      -5.215  -6.480  33.086  0.00  0.00     0.036 H 
ATOM     48  H13 23I d   1      -3.757  -5.729  33.820  0.00  0.00     0.036 H 
BRANCH  46  49
ATOM     49  C34 23I d   1      -3.346  -7.001  32.105  0.00  0.00    -0.059 C 
ATOM     50  H14 23I d   1      -2.499  -6.444  31.678  0.00  0.00     0.038 H 
BRANCH  49  51
ATOM     51  C35 23I d   1      -2.800  -8.089  33.039  0.00  0.00    -0.073 C 
ATOM     52  H15 23I d   1      -2.168  -8.782  32.465  0.00  0.00     0.028 H 
ATOM     53  H16 23I d   1      -3.639  -8.643  33.486  0.00  0.00     0.028 H 
ATOM     54  H17 23I d   1      -2.202  -7.622  33.836  0.00  0.00     0.028 H 
ENDBRANCH  49  51
BRANCH  49  55
ATOM     55  C36 23I d   1      -4.099  -7.697  30.968  0.00  0.00    -0.073 C 
ATOM     56  H29 23I d   1      -4.504  -6.941  30.279  0.00  0.00     0.028 H 
ATOM     57  H30 23I d   1      -4.925  -8.292  31.385  0.00  0.00     0.028 H 
ATOM     58  H31 23I d   1      -3.410  -8.358  30.422  0.00  0.00     0.028 H 
ENDBRANCH  49  55
ENDBRANCH  46  49
ENDBRANCH   1  46
BRANCH   1  59
ATOM     59  N3  23I d   1      -3.366  -4.299  31.372  0.00  0.00    -0.350 N 
ATOM     60  C22 23I d   1      -3.319  -3.938  30.073  0.00  0.00     0.252 C 
ATOM     61  O22 23I d   1      -4.348  -3.845  29.374  0.00  0.00    -0.268 OA
ATOM     62  H28 23I d   1      -2.496  -4.346  31.862  0.00  0.00     0.163 HD
BRANCH  60  63
ATOM     63  C27 23I d   1      -1.951  -3.714  29.523  0.00  0.00     0.034 A 
ATOM     64  C26 23I d   1      -1.714  -2.761  28.517  0.00  0.00    -0.046 A 
ATOM     65  C25 23I d   1      -0.406  -2.555  27.973  0.00  0.00     0.026 A 
ATOM     66  H23 23I d   1      -2.541  -2.168  28.144  0.00  0.00     0.087 H 
ATOM     67  C24 23I d   1       0.662  -3.361  28.487  0.00  0.00    -0.046 A 
ATOM     68  C23 23I d   1       0.437  -4.326  29.502  0.00  0.00     0.034 A 
ATOM     69  H9  23I d   1       1.663  -3.230  28.092  0.00  0.00     0.087 H 
ATOM     70  C28 23I d   1      -0.862  -4.471  29.986  0.00  0.00    -0.052 A 
ATOM     71  H24 23I d   1      -1.042  -5.207  30.761  0.00  0.00     0.086 H 
BRANCH  65  72
ATOM     72  N22 23I d   1      -0.160  -1.568  26.896  0.00  0.00    -0.181 NA
BRANCH  72  73
ATOM     73  C29 23I d   1      -1.228  -0.566  26.564  0.00  0.00    -0.015 C 
ATOM     74  H25 23I d   1      -2.201  -1.075  26.500  0.00  0.00     0.050 H 
ATOM     75  H26 23I d   1      -0.998  -0.092  25.599  0.00  0.00     0.050 H 
ATOM     76  H27 23I d   1      -1.267   0.202  27.350  0.00  0.00     0.050 H 
ENDBRANCH  72  73
BRANCH  72  77
ATOM     77  S2  23I d   1       1.410  -0.747  26.999  0.00  0.00     0.211 S 
ATOM     78  O23 23I d   1       1.293   0.730  26.469  0.00  0.00    -0.211 OA
ATOM     79  O24 23I d   1       1.997  -0.627  28.454  0.00  0.00    -0.211 OA
BRANCH  77  80
ATOM     80  C20 23I d   1       2.564  -1.573  25.932  0.00  0.00     0.029 C 
ATOM     81  H6  23I d   1       3.541  -1.071  25.989  0.00  0.00     0.050 H 
ATOM     82  H7  23I d   1       2.195  -1.539  24.896  0.00  0.00     0.050 H 
ATOM     83  H8  23I d   1       2.671  -2.621  26.249  0.00  0.00     0.050 H 
ENDBRANCH  77  80
ENDBRANCH  72  77
ENDBRANCH  65  72
BRANCH  68  84
ATOM     84  C21 23I d   1       1.552  -5.171  30.028  0.00  0.00     0.252 C 
ATOM     85  N21 23I d   1       1.569  -5.379  31.358  0.00  0.00    -0.349 N 
ATOM     86  H22 23I d   1       0.849  -4.952  31.905  0.00  0.00     0.163 HD
ATOM     87  O21 23I d   1       2.407  -5.674  29.280  0.00  0.00    -0.268 OA
BRANCH  85  88
ATOM     88  C17 23I d   1       2.566  -6.185  32.058  0.00  0.00     0.034 C 
ATOM     89  H18 23I d   1       3.216  -6.674  31.317  0.00  0.00     0.079 H 
BRANCH  88  90
ATOM     90  C16 23I d   1       3.475  -5.329  32.968  0.00  0.00    -0.036 A 
ATOM     91  C11 23I d   1       4.892  -5.436  32.814  0.00  0.00    -0.075 A 
ATOM     92  C12 23I d   1       5.765  -4.675  33.624  0.00  0.00    -0.082 A 
ATOM     93  H1  23I d   1       5.301  -6.108  32.068  0.00  0.00     0.084 H 
ATOM     94  C13 23I d   1       5.230  -3.798  34.598  0.00  0.00    -0.083 A 
ATOM     95  H2  23I d   1       6.838  -4.762  33.500  0.00  0.00     0.083 H 
ATOM     96  C14 23I d   1       3.823  -3.681  34.761  0.00  0.00    -0.082 A 
ATOM     97  H3  23I d   1       5.896  -3.213  35.222  0.00  0.00     0.083 H 
ATOM     98  C15 23I d   1       2.948  -4.442  33.949  0.00  0.00    -0.075 A 
ATOM     99  H4  23I d   1       3.419  -3.008  35.508  0.00  0.00     0.083 H 
ATOM    100  H5  23I d   1       1.875  -4.349  34.074  0.00  0.00     0.084 H 
ENDBRANCH  88  90
BRANCH  88 101
ATOM    101  C18 23I d   1       1.760  -7.271  32.796  0.00  0.00    -0.053 C 
ATOM    102  H19 23I d   1       1.145  -7.827  32.072  0.00  0.00     0.030 H 
ATOM    103  H20 23I d   1       1.107  -6.798  33.544  0.00  0.00     0.030 H 
ATOM    104  H21 23I d   1       2.452  -7.964  33.298  0.00  0.00     0.030 H 
ENDBRANCH  88 101
ENDBRANCH  85  88
ENDBRANCH  68  84
ENDBRANCH  60  63
ENDBRANCH   1  59
TORSDOF 28
