REMARK  9 active torsions:
REMARK  status: ('A' for Active; 'I' for Inactive)
REMARK    1  A    between atoms: C1_1  and  O1_10 
REMARK    2  A    between atoms: N2_9  and  C2_2 
REMARK    3  A    between atoms: C3_3  and  O3_11 
REMARK    4  A    between atoms: C4_4  and  O4_12 
REMARK    5  A    between atoms: C5_5  and  C6_6 
REMARK    6  A    between atoms: C6_6  and  O6_14 
REMARK    7  A    between atoms: P7_7  and  C8_8 
REMARK    8  A    between atoms: P7_7  and  N2_9 
REMARK    9  A    between atoms: O6_14  and  P_17 
ROOT
ATOM      1  C1  NNG d   1     -35.346  15.520 -12.178  0.00  0.00     0.151 C 
ATOM      2  C2  NNG d   1     -34.840  15.598 -10.717  0.00  0.00     0.088 C 
ATOM      3  C3  NNG d   1     -34.840  17.079 -10.237  0.00  0.00     0.086 C 
ATOM      4  C4  NNG d   1     -34.062  17.969 -11.229  0.00  0.00     0.089 C 
ATOM      5  C5  NNG d   1     -34.632  17.762 -12.662  0.00  0.00     0.089 C 
ATOM      6  O5  NNG d   1     -34.538  16.362 -13.040  0.00  0.00    -0.349 OA
ATOM      7  H1  NNG d   1     -35.263  14.479 -12.523  0.00  0.00     0.132 H 
ATOM      8  H2  NNG d   1     -33.823  15.185 -10.648  0.00  0.00     0.084 H 
ATOM      9  H3  NNG d   1     -35.878  17.435 -10.166  0.00  0.00     0.090 H 
ATOM     10  H4  NNG d   1     -32.995  17.701 -11.211  0.00  0.00     0.091 H 
ATOM     11  H5  NNG d   1     -35.686  18.077 -12.682  0.00  0.00     0.090 H 
ENDROOT
BRANCH   2  12
ATOM     12  N2  NNG d   1     -35.751  14.826  -9.886  0.00  0.00    -0.337 N 
ATOM     13  H11 NNG d   1     -36.730  14.858 -10.086  0.00  0.00     0.164 HD
BRANCH  12  14
ATOM     14  P7  NNG d   1     -35.235  13.913  -8.644  0.00  0.00     0.201 P 
ATOM     15  O71 NNG d   1     -34.357  12.843  -9.212  0.00  0.00    -0.652 OA
ATOM     16  O72 NNG d   1     -34.338  14.853  -7.698  0.00  0.00    -0.652 OA
BRANCH  14  17
ATOM     17  C8  NNG d   1     -36.580  13.102  -7.803  0.00  0.00     0.013 C 
ATOM     18  H8  NNG d   1     -36.183  12.498  -6.974  0.00  0.00     0.044 H 
ATOM     19  H9  NNG d   1     -37.114  12.449  -8.509  0.00  0.00     0.044 H 
ATOM     20  H10 NNG d   1     -37.274  13.858  -7.407  0.00  0.00     0.044 H 
ENDBRANCH  14  17
ENDBRANCH  12  14
ENDBRANCH   2  12
BRANCH   1  21
ATOM     21  O1  NNG d   1     -36.721  15.922 -12.253  0.00  0.00    -0.369 OA
ATOM     22  H12 NNG d   1     -37.026  15.838 -13.149  0.00  0.00     0.212 HD
ENDBRANCH   1  21
BRANCH   3  23
ATOM     23  O3  NNG d   1     -34.216  17.166  -8.952  0.00  0.00    -0.391 OA
ATOM     24  H13 NNG d   1     -34.689  16.621  -8.334  0.00  0.00     0.210 HD
ENDBRANCH   3  23
BRANCH   4  25
ATOM     25  O4  NNG d   1     -34.225  19.346 -10.850  0.00  0.00    -0.390 OA
ATOM     26  H14 NNG d   1     -35.148  19.569 -10.862  0.00  0.00     0.210 HD
ENDBRANCH   4  25
BRANCH   5  27
ATOM     27  C6  NNG d   1     -33.824  18.602 -13.670  0.00  0.00     0.059 C 
ATOM     28  H6  NNG d   1     -33.971  19.672 -13.459  0.00  0.00     0.079 H 
ATOM     29  H7  NNG d   1     -34.166  18.379 -14.692  0.00  0.00     0.079 H 
BRANCH  27  30
ATOM     30  O6  NNG d   1     -32.436  18.277 -13.548  0.00  0.00    -0.280 OA
BRANCH  30  31
ATOM     31  P   NNG d   1     -31.582  19.154 -14.607  0.00  0.00     0.422 P 
ATOM     32  O1P NNG d   1     -30.164  19.113 -14.203  0.00  0.00    -0.617 OA
ATOM     33  O2P NNG d   1     -31.740  18.528 -16.080  0.00  0.00    -0.617 OA
ATOM     34  O3P NNG d   1     -32.092  20.686 -14.628  0.00  0.00    -0.617 OA
ENDBRANCH  30  31
ENDBRANCH  27  30
ENDBRANCH   5  27
TORSDOF 9
