REMARK  2 active torsions:
REMARK  status: ('A' for Active; 'I' for Inactive)
REMARK    1  A    between atoms: C3_3  and  C7_4 
REMARK    2  A    between atoms: C5_6  and  O1_9 
ROOT
ATOM      1  C1  43M d   1      49.217 -26.605 -94.652  0.00  0.00    -0.059 A 
ATOM      2  C2  43M d   1      48.598 -27.383 -95.667  0.00  0.00     0.040 A 
ATOM      3  C3  43M d   1      47.415 -26.903 -96.341  0.00  0.00    -0.038 A 
ATOM      4  C4  43M d   1      46.890 -25.631 -95.963  0.00  0.00    -0.044 A 
ATOM      5  C5  43M d   1      47.521 -24.862 -94.947  0.00  0.00     0.066 A 
ATOM      6  C6  43M d   1      48.681 -25.342 -94.288  0.00  0.00    -0.049 A 
ATOM      7 CL1  43M d   1      49.323 -28.903 -96.045  0.00  0.00    -0.084 Cl
ATOM      8  H1  43M d   1      50.104 -26.978 -94.153  0.00  0.00     0.086 H 
ATOM      9  H5  43M d   1      46.003 -25.248 -96.454  0.00  0.00     0.088 H 
ATOM     10  H6  43M d   1      49.154 -24.750 -93.513  0.00  0.00     0.087 H 
ENDROOT
BRANCH   3  11
ATOM     11  C7  43M d   1      46.712 -27.682 -97.427  0.00  0.00    -0.050 C 
ATOM     12  H2  43M d   1      45.842 -27.111 -97.783  0.00  0.00     0.033 H 
ATOM     13  H3  43M d   1      46.377 -28.650 -97.026  0.00  0.00     0.033 H 
ATOM     14  H4  43M d   1      47.406 -27.852 -98.264  0.00  0.00     0.033 H 
ENDBRANCH   3  11
BRANCH   5  15
ATOM     15  O1  43M d   1      46.974 -23.649 -94.633  0.00  0.00    -0.361 OA
ATOM     16  H7  43M d   1      46.722 -23.644 -93.717  0.00  0.00     0.217 HD
ENDBRANCH   5  15
TORSDOF 2
