REMARK  6 active torsions:
REMARK  status: ('A' for Active; 'I' for Inactive)
REMARK    1  A    between atoms: O2_1  and  C13_2 
REMARK    2  A    between atoms: C4_7  and  C2_8 
REMARK    3  A    between atoms: C2_8  and  C3_9 
REMARK    4  A    between atoms: C2_8  and  C5_10 
REMARK    5  A    between atoms: C2_8  and  C1_11 
REMARK    6  A    between atoms: C8_16  and  O1_17 
ROOT
ATOM      1  C2  2OH d   1      48.420 -28.969 -95.420  0.00  0.00     0.007 C 
ENDROOT
BRANCH   1   2
ATOM      2  C4  2OH d   1      48.458 -29.165 -96.992  0.00  0.00    -0.045 A 
ATOM      3  C11 2OH d   1      47.468 -29.936 -97.711  0.00  0.00    -0.073 A 
ATOM      4  C12 2OH d   1      47.525 -30.087 -99.129  0.00  0.00    -0.051 A 
ATOM      5  H3  2OH d   1      46.664 -30.410 -97.160  0.00  0.00     0.084 H 
ATOM      6  C13 2OH d   1      48.564 -29.478 -99.858  0.00  0.00     0.065 A 
ATOM      7  H2  2OH d   1      46.770 -30.670 -99.644  0.00  0.00     0.087 H 
ATOM      8  C14 2OH d   1      49.559 -28.714 -99.198  0.00  0.00    -0.051 A 
ATOM      9  C15 2OH d   1      49.508 -28.558 -97.784  0.00  0.00    -0.073 A 
ATOM     10  H4  2OH d   1      50.356 -28.250 -99.768  0.00  0.00     0.087 H 
ATOM     11  H5  2OH d   1      50.273 -27.971 -97.288  0.00  0.00     0.084 H 
BRANCH   6  12
ATOM     12  O2  2OH d   1      48.579 -29.648-101.211  0.00  0.00    -0.361 OA
ATOM     13  H1  2OH d   1      49.326 -29.190-101.578  0.00  0.00     0.217 HD
ENDBRANCH   6  12
ENDBRANCH   1   2
BRANCH   1  14
ATOM     14  C3  2OH d   1      49.724 -29.612 -94.829  0.00  0.00    -0.061 C 
ATOM     15  H6  2OH d   1      49.779 -30.670 -95.126  0.00  0.00     0.029 H 
ATOM     16  H7  2OH d   1      49.703 -29.540 -93.732  0.00  0.00     0.029 H 
ATOM     17  H8  2OH d   1      50.604 -29.077 -95.215  0.00  0.00     0.029 H 
ENDBRANCH   1  14
BRANCH   1  18
ATOM     18  C5  2OH d   1      47.232 -29.712 -94.754  0.00  0.00    -0.061 C 
ATOM     19  H9  2OH d   1      46.284 -29.301 -95.132  0.00  0.00     0.029 H 
ATOM     20  H10 2OH d   1      47.281 -29.578 -93.663  0.00  0.00     0.029 H 
ATOM     21  H11 2OH d   1      47.289 -30.784 -94.994  0.00  0.00     0.029 H 
ENDBRANCH   1  18
BRANCH   1  22
ATOM     22  C1  2OH d   1      48.215 -27.437 -95.066  0.00  0.00    -0.045 A 
ATOM     23  C10 2OH d   1      49.112 -26.665 -94.248  0.00  0.00    -0.073 A 
ATOM     24  C9  2OH d   1      48.846 -25.286 -93.971  0.00  0.00    -0.051 A 
ATOM     25  H12 2OH d   1      49.999 -27.133 -93.837  0.00  0.00     0.084 H 
ATOM     26  C8  2OH d   1      47.686 -24.662 -94.510  0.00  0.00     0.065 A 
ATOM     27  H13 2OH d   1      49.529 -24.717 -93.350  0.00  0.00     0.087 H 
ATOM     28  C7  2OH d   1      46.796 -25.386 -95.314  0.00  0.00    -0.051 A 
ATOM     29  C6  2OH d   1      47.051 -26.748 -95.586  0.00  0.00    -0.073 A 
ATOM     30  H15 2OH d   1      45.917 -24.903 -95.725  0.00  0.00     0.087 H 
ATOM     31  H14 2OH d   1      46.352 -27.297 -96.206  0.00  0.00     0.084 H 
BRANCH  26  32
ATOM     32  O1  2OH d   1      47.454 -23.342 -94.230  0.00  0.00    -0.361 OA
ATOM     33  H16 2OH d   1      48.151 -23.010 -93.677  0.00  0.00     0.217 HD
ENDBRANCH  26  32
ENDBRANCH   1  22
TORSDOF 6
