REMARK  12 active torsions:
REMARK  status: ('A' for Active; 'I' for Inactive)
REMARK    1  A    between atoms: C10_1  and  C9_2 
REMARK    2  A    between atoms: C9_2  and  C8_3 
REMARK    3  A    between atoms: C8_3  and  C11_4 
REMARK    4  A    between atoms: C7_10  and  C1_11 
REMARK    5  A    between atoms: C7_10  and  C17_18 
REMARK    6  A    between atoms: C4_14  and  O4_15 
REMARK    7  A    between atoms: C20_21  and  O20_22 
REMARK    8  A    between atoms: O20_22  and  C23_23 
REMARK    9  A    between atoms: C23_23  and  C24_24 
REMARK   10  A    between atoms: C24_24  and  N24_25 
REMARK   11  A    between atoms: N24_25  and  C25_26 
REMARK   12  A    between atoms: N24_25  and  C26_27 
ROOT
ATOM      1  C8  OHT d   1      49.070 -29.917 -97.470  0.00  0.00    -0.036 C 
ATOM      2  C7  OHT d   1      48.718 -29.403 -96.204  0.00  0.00    -0.009 C 
ENDROOT
BRANCH   2   3
ATOM      3  C1  OHT d   1      48.264 -27.955 -95.944  0.00  0.00    -0.024 A 
ATOM      4  C2  OHT d   1      49.015 -27.093 -95.074  0.00  0.00    -0.070 A 
ATOM      5  C3  OHT d   1      48.578 -25.757 -94.815  0.00  0.00    -0.050 A 
ATOM      6  H11 OHT d   1      49.923 -27.460 -94.609  0.00  0.00     0.085 H 
ATOM      7  C4  OHT d   1      47.388 -25.272 -95.425  0.00  0.00     0.065 A 
ATOM      8  H12 OHT d   1      49.152 -25.115 -94.156  0.00  0.00     0.087 H 
ATOM      9  C5  OHT d   1      46.633 -26.095 -96.287  0.00  0.00    -0.050 A 
ATOM     10  C6  OHT d   1      47.066 -27.428 -96.542  0.00  0.00    -0.070 A 
ATOM     11  H14 OHT d   1      45.730 -25.716 -96.752  0.00  0.00     0.087 H 
ATOM     12  H15 OHT d   1      46.480 -28.059 -97.201  0.00  0.00     0.085 H 
BRANCH   7  13
ATOM     13  O4  OHT d   1      46.994 -23.993 -95.154  0.00  0.00    -0.361 OA
ATOM     14  H13 OHT d   1      46.845 -23.900 -94.221  0.00  0.00     0.217 HD
ENDBRANCH   7  13
ENDBRANCH   2   3
BRANCH   2  15
ATOM     15  C17 OHT d   1      48.756 -30.294 -95.009  0.00  0.00    -0.024 A 
ATOM     16  C18 OHT d   1      49.943 -30.979 -94.577  0.00  0.00    -0.070 A 
ATOM     17  C19 OHT d   1      49.938 -31.739 -93.370  0.00  0.00    -0.050 A 
ATOM     18  H16 OHT d   1      50.847 -30.918 -95.172  0.00  0.00     0.085 H 
ATOM     19  C20 OHT d   1      48.747 -31.825 -92.583  0.00  0.00     0.068 A 
ATOM     20  H17 OHT d   1      50.837 -32.252 -93.049  0.00  0.00     0.087 H 
ATOM     21  C21 OHT d   1      47.578 -31.149 -93.033  0.00  0.00    -0.050 A 
ATOM     22  C22 OHT d   1      47.576 -30.389 -94.227  0.00  0.00    -0.070 A 
ATOM     23  H29 OHT d   1      46.668 -31.218 -92.448  0.00  0.00     0.087 H 
ATOM     24  H30 OHT d   1      46.673 -29.880 -94.544  0.00  0.00     0.085 H 
BRANCH  19  25
ATOM     25  O20 OHT d   1      48.775 -32.558 -91.486  0.00  0.00    -0.350 OA
BRANCH  25  26
ATOM     26  C23 OHT d   1      48.502 -32.050 -90.168  0.00  0.00     0.049 C 
ATOM     27  H18 OHT d   1      47.480 -31.645 -90.121  0.00  0.00     0.077 H 
ATOM     28  H19 OHT d   1      49.222 -31.260 -89.908  0.00  0.00     0.077 H 
BRANCH  26  29
ATOM     29  C24 OHT d   1      48.648 -33.245 -89.200  0.00  0.00     0.102 C 
ATOM     30  H20 OHT d   1      48.424 -34.164 -89.761  0.00  0.00     0.079 H 
ATOM     31  H21 OHT d   1      47.911 -33.119 -88.393  0.00  0.00     0.079 H 
BRANCH  29  32
ATOM     32  N24 OHT d   1      49.992 -33.407 -88.572  0.00  0.00    -0.077 N 
ATOM     33  H22 OHT d   1      50.239 -34.383 -88.613  0.00  0.00     0.279 HD
BRANCH  32  34
ATOM     34  C25 OHT d   1      50.996 -32.627 -89.333  0.00  0.00     0.066 C 
ATOM     35  H23 OHT d   1      51.985 -32.749 -88.867  0.00  0.00     0.068 H 
ATOM     36  H24 OHT d   1      50.716 -31.563 -89.326  0.00  0.00     0.068 H 
ATOM     37  H25 OHT d   1      51.032 -32.990 -90.371  0.00  0.00     0.068 H 
ENDBRANCH  32  34
BRANCH  32  38
ATOM     38  C26 OHT d   1      50.027 -32.980 -87.148  0.00  0.00     0.066 C 
ATOM     39  H26 OHT d   1      49.284 -33.554 -86.575  0.00  0.00     0.068 H 
ATOM     40  H27 OHT d   1      49.792 -31.907 -87.081  0.00  0.00     0.068 H 
ATOM     41  H28 OHT d   1      51.030 -33.163 -86.735  0.00  0.00     0.068 H 
ENDBRANCH  32  38
ENDBRANCH  29  32
ENDBRANCH  26  29
ENDBRANCH  25  26
ENDBRANCH  19  25
ENDBRANCH   2  15
BRANCH   1  42
ATOM     42  C9  OHT d   1      49.252 -29.089 -98.794  0.00  0.00    -0.043 C 
ATOM     43  H4  OHT d   1      49.188 -28.022 -98.533  0.00  0.00     0.039 H 
ATOM     44  H5  OHT d   1      50.253 -29.310 -99.192  0.00  0.00     0.039 H 
BRANCH  42  45
ATOM     45  C10 OHT d   1      48.233 -29.359 -99.914  0.00  0.00    -0.073 C 
ATOM     46  H1  OHT d   1      48.465 -28.724-100.781  0.00  0.00     0.028 H 
ATOM     47  H2  OHT d   1      47.220 -29.130 -99.551  0.00  0.00     0.028 H 
ATOM     48  H3  OHT d   1      48.285 -30.417-100.210  0.00  0.00     0.028 H 
ENDBRANCH  42  45
ENDBRANCH   1  42
BRANCH   1  49
ATOM     49  C11 OHT d   1      49.345 -31.329 -97.708  0.00  0.00    -0.029 A 
ATOM     50  C16 OHT d   1      48.350 -32.294 -97.417  0.00  0.00    -0.072 A 
ATOM     51  C15 OHT d   1      48.617 -33.662 -97.642  0.00  0.00    -0.082 A 
ATOM     52  H6  OHT d   1      47.389 -31.984 -97.024  0.00  0.00     0.084 H 
ATOM     53  C14 OHT d   1      49.882 -34.073 -98.157  0.00  0.00    -0.083 A 
ATOM     54  H7  OHT d   1      47.857 -34.403 -97.422  0.00  0.00     0.083 H 
ATOM     55  C13 OHT d   1      50.880 -33.121 -98.448  0.00  0.00    -0.082 A 
ATOM     56  H8  OHT d   1      50.078 -35.126 -98.326  0.00  0.00     0.083 H 
ATOM     57  C12 OHT d   1      50.615 -31.749 -98.225  0.00  0.00    -0.072 A 
ATOM     58  H9  OHT d   1      51.841 -33.437 -98.839  0.00  0.00     0.083 H 
ATOM     59  H10 OHT d   1      51.377 -31.011 -98.446  0.00  0.00     0.084 H 
ENDBRANCH   1  49
TORSDOF 12
