REMARK  5 active torsions:
REMARK  status: ('A' for Active; 'I' for Inactive)
REMARK    1  A    between atoms: C1_1  and  C3_3 
REMARK       I    between atoms: N1_25  and  C1_1 
REMARK    2  A    between atoms: C17_16  and  C7_4 
REMARK    3  A    between atoms: N4_23  and  C13_8 
REMARK    4  A    between atoms: C16_11  and  N2_18 
REMARK    5  A    between atoms: C19_12  and  N1_25 
REMARK       I    between atoms: C17_16  and  N4_23 
ROOT
ATOM      1  C8  ME5 d   1       5.043  45.616  63.487  0.00  0.00    -0.044 C 
ATOM      2  C10 ME5 d   1       4.384  44.505  64.269  0.00  0.00    -0.061 C 
ATOM      3  C12 ME5 d   1       4.938  43.419  63.377  0.00  0.00    -0.044 C 
ATOM      4  C13 ME5 d   1       5.391  43.979  62.047  0.00  0.00     0.032 C 
ATOM      5  C19 ME5 d   1       6.232  45.116  62.669  0.00  0.00     0.032 C 
ATOM      6  H2  ME5 d   1       5.395  46.385  64.191  0.00  0.00     0.036 H 
ATOM      7  H3  ME5 d   1       4.302  46.056  62.803  0.00  0.00     0.036 H 
ATOM      8  H4  ME5 d   1       3.285  44.558  64.258  0.00  0.00     0.033 H 
ATOM      9  H5  ME5 d   1       4.737  44.436  65.308  0.00  0.00     0.033 H 
ATOM     10  H6  ME5 d   1       4.156  42.666  63.201  0.00  0.00     0.036 H 
ATOM     11  H7  ME5 d   1       5.796  42.947  63.878  0.00  0.00     0.036 H 
ATOM     12  H8  ME5 d   1       4.563  44.368  61.437  0.00  0.00     0.075 H 
ATOM     13  H11 ME5 d   1       6.674  45.830  61.959  0.00  0.00     0.075 H 
ENDROOT
BRANCH   4  14
ATOM     14  N4  ME5 d   1       6.104  42.990  61.285  0.00  0.00    -0.350 N 
ATOM     15  C17 ME5 d   1       6.516  43.281  60.036  0.00  0.00     0.252 C 
ATOM     16  O2  ME5 d   1       6.344  44.383  59.535  0.00  0.00    -0.268 OA
ATOM     17  H18 ME5 d   1       6.293  42.091  61.680  0.00  0.00     0.163 HD
BRANCH  15  18
ATOM     18  C7  ME5 d   1       7.149  42.147  59.358  0.00  0.00     0.032 A 
ATOM     19  C22 ME5 d   1       6.927  40.807  59.931  0.00  0.00    -0.066 A 
ATOM     20  C18 ME5 d   1       7.376  39.642  59.194  0.00  0.00    -0.056 A 
ATOM     21  H12 ME5 d   1       6.435  40.694  60.890  0.00  0.00     0.085 H 
ATOM     22  C16 ME5 d   1       8.065  39.826  57.909  0.00  0.00     0.042 A 
ATOM     23  H15 ME5 d   1       7.205  38.646  59.587  0.00  0.00     0.087 H 
ATOM     24  C14 ME5 d   1       8.210  41.169  57.333  0.00  0.00    -0.056 A 
ATOM     25  C44 ME5 d   1       7.767  42.334  58.069  0.00  0.00    -0.066 A 
ATOM     26  H9  ME5 d   1       8.652  41.289  56.350  0.00  0.00     0.087 H 
ATOM     27  H14 ME5 d   1       7.897  43.329  57.658  0.00  0.00     0.085 H 
BRANCH  22  28
ATOM     28  N2  ME5 d   1       8.644  38.753  57.183  0.00  0.00    -0.290 N 
ATOM     29  C15 ME5 d   1       9.856  38.188  57.539  0.00  0.00    -0.011 A 
ATOM     30  C23 ME5 d   1      10.450  37.196  56.683  0.00  0.00    -0.067 A 
ATOM     31  H10 ME5 d   1      10.355  38.491  58.458  0.00  0.00     0.112 H 
ATOM     32  C26 ME5 d   1       9.823  36.776  55.480  0.00  0.00    -0.076 A 
ATOM     33  H16 ME5 d   1      11.405  36.756  56.965  0.00  0.00     0.085 H 
ATOM     34  C24 ME5 d   1       8.561  37.323  55.074  0.00  0.00    -0.017 A 
ATOM     35  H17 ME5 d   1      10.308  36.027  54.856  0.00  0.00     0.083 H 
ATOM     36  C21 ME5 d   1       7.952  38.356  55.976  0.00  0.00     0.252 A 
ATOM     37  H13 ME5 d   1       8.069  37.004  54.156  0.00  0.00     0.092 H 
ATOM     38  O1  ME5 d   1       6.873  38.887  55.713  0.00  0.00    -0.268 OA
ENDBRANCH  22  28
ENDBRANCH  15  18
ENDBRANCH   4  14
BRANCH   5  39
ATOM     39  N1  ME5 d   1       7.246  44.547  63.636  0.00  0.00    -0.350 N 
ATOM     40  C1  ME5 d   1       8.546  44.945  63.380  0.00  0.00     0.259 C 
ATOM     41  O3  ME5 d   1       8.865  45.654  62.418  0.00  0.00    -0.267 OA
ATOM     42  H19 ME5 d   1       7.000  43.939  64.391  0.00  0.00     0.163 HD
BRANCH  40  43
ATOM     43  C3  ME5 d   1       9.564  44.538  64.259  0.00  0.00     0.074 A 
ATOM     44  C2  ME5 d   1       9.296  43.886  65.500  0.00  0.00    -0.059 A 
ATOM     45  C4  ME5 d   1      10.537  43.602  66.150  0.00  0.00    -0.054 A 
ATOM     46  H1  ME5 d   1       8.308  43.644  65.888  0.00  0.00     0.086 H 
ATOM     47  C5  ME5 d   1      11.683  44.044  65.368  0.00  0.00     0.075 A 
ATOM     48  H20 ME5 d   1      10.616  43.111  67.119  0.00  0.00     0.086 H 
ATOM     49  S1  ME5 d   1      11.217  44.782  63.913  0.00  0.00    -0.072 SA
ATOM     50 CL1  ME5 d   1      13.413  43.857  65.783  0.00  0.00    -0.076 Cl
ENDBRANCH  40  43
ENDBRANCH   5  39
TORSDOF 5
