REMARK  9 active torsions:
REMARK  status: ('A' for Active; 'I' for Inactive)
REMARK    1  A    between atoms: CAQ_2  and  CAS_4 
REMARK    2  A    between atoms: CAS_4  and  CAB_5 
REMARK    3  A    between atoms: CAS_4  and  CAK_6 
REMARK    4  A    between atoms: CAI_7  and  CAJ_8 
REMARK    5  A    between atoms: CAP_9  and  CAA_10 
REMARK    6  A    between atoms: CAP_9  and  CAT_11 
REMARK    7  A    between atoms: CA_14  and  C_15 
REMARK    8  A    between atoms: CB_18  and  CG_19 
REMARK    9  A    between atoms: CG_19  and  CD_20 
ROOT
ATOM      1  CAT DOQ d   1      -2.567 -34.274  77.568  0.00  0.00    -0.003 C 
ATOM      2  CAL DOQ d   1      -1.560 -34.161  76.425  0.00  0.00     0.090 C 
ATOM      3  N   DOQ d   1      -2.407 -34.011  75.230  0.00  0.00    -0.060 N 
ATOM      4  CA  DOQ d   1      -3.738 -34.546  75.563  0.00  0.00     0.189 C 
ATOM      5  CB  DOQ d   1      -3.603 -35.205  76.937  0.00  0.00     0.001 C 
ATOM      6  H11 DOQ d   1      -3.002 -33.295  77.819  0.00  0.00     0.050 H 
ATOM      7  H12 DOQ d   1      -0.941 -35.068  76.356  0.00  0.00     0.076 H 
ATOM      8  H13 DOQ d   1      -0.911 -33.283  76.559  0.00  0.00     0.076 H 
ATOM      9  H14 DOQ d   1      -2.011 -34.527  74.460  0.00  0.00     0.278 HD
ATOM     10  H15 DOQ d   1      -2.480 -33.037  74.980  0.00  0.00     0.278 HD
ATOM     11  H16 DOQ d   1      -4.048 -35.291  74.816  0.00  0.00     0.102 H 
ATOM     12  H17 DOQ d   1      -4.553 -35.227  77.490  0.00  0.00     0.045 H 
ENDROOT
BRANCH   1  13
ATOM     13  CAP DOQ d   1      -1.950 -34.890  78.826  0.00  0.00    -0.078 C 
ATOM     14  CAJ DOQ d   1      -2.611 -34.810  80.047  0.00  0.00    -0.081 C 
ATOM     15  H7  DOQ d   1      -2.169 -35.259  80.935  0.00  0.00     0.083 H 
BRANCH  14  16
ATOM     16  CAI DOQ d   1      -3.836 -34.158  80.135  0.00  0.00    -0.086 C 
ATOM     17  CAK DOQ d   1      -4.503 -34.076  81.350  0.00  0.00    -0.089 C 
ATOM     18  H5  DOQ d   1      -4.079 -34.533  82.243  0.00  0.00     0.078 H 
ATOM     19  H6  DOQ d   1      -4.275 -33.709  79.245  0.00  0.00     0.083 H 
BRANCH  17  20
ATOM     20  CAS DOQ d   1      -5.840 -33.336  81.420  0.00  0.00     0.043 C 
ATOM     21  H1  DOQ d   1      -6.144 -33.031  80.408  0.00  0.00     0.062 H 
BRANCH  20  22
ATOM     22  CAQ DOQ d   1      -5.664 -32.094  82.296  0.00  0.00     0.180 C 
ATOM     23  OAD DOQ d   1      -6.174 -31.029  81.885  0.00  0.00    -0.647 OA
ATOM     24  OAG DOQ d   1      -5.005 -32.233  83.350  0.00  0.00    -0.647 OA
ENDBRANCH  20  22
BRANCH  20  25
ATOM     25  CAB DOQ d   1      -6.915 -34.248  82.014  0.00  0.00    -0.060 C 
ATOM     26  H2  DOQ d   1      -7.034 -35.137  81.378  0.00  0.00     0.029 H 
ATOM     27  H3  DOQ d   1      -7.870 -33.704  82.066  0.00  0.00     0.029 H 
ATOM     28  H4  DOQ d   1      -6.614 -34.559  83.025  0.00  0.00     0.029 H 
ENDBRANCH  20  25
ENDBRANCH  17  20
ENDBRANCH  14  16
BRANCH  13  29
ATOM     29  CAA DOQ d   1      -0.581 -35.567  78.753  0.00  0.00    -0.054 C 
ATOM     30  H8  DOQ d   1      -0.306 -35.946  79.748  0.00  0.00     0.033 H 
ATOM     31  H9  DOQ d   1       0.171 -34.838  78.418  0.00  0.00     0.033 H 
ATOM     32  H10 DOQ d   1      -0.623 -36.404  78.041  0.00  0.00     0.033 H 
ENDBRANCH  13  29
ENDBRANCH   1  13
BRANCH   5  33
ATOM     33  CG  DOQ d   1      -3.016 -36.614  76.817  0.00  0.00     0.022 C 
ATOM     34  H18 DOQ d   1      -2.667 -36.941  77.808  0.00  0.00     0.049 H 
ATOM     35  H19 DOQ d   1      -2.167 -36.589  76.119  0.00  0.00     0.049 H 
BRANCH  33  36
ATOM     36  CD  DOQ d   1      -4.054 -37.613  76.301  0.00  0.00     0.172 C 
ATOM     37  OE2 DOQ d   1      -5.258 -37.314  76.455  0.00  0.00    -0.648 OA
ATOM     38  OE1 DOQ d   1      -3.620 -38.661  75.774  0.00  0.00    -0.648 OA
ENDBRANCH  33  36
ENDBRANCH   5  33
BRANCH   4  39
ATOM     39  C   DOQ d   1      -4.762 -33.408  75.599  0.00  0.00     0.205 C 
ATOM     40  OXT DOQ d   1      -4.404 -32.307  75.130  0.00  0.00    -0.646 OA
ATOM     41  O   DOQ d   1      -5.885 -33.665  76.081  0.00  0.00    -0.646 OA
ENDBRANCH   4  39
TORSDOF 9
