REMARK  7 active torsions:
REMARK  status: ('A' for Active; 'I' for Inactive)
REMARK    1  A    between atoms: C1_1  and  O5_2 
REMARK    2  A    between atoms: O5_2  and  C6_3 
REMARK    3  A    between atoms: C6_3  and  C8_5 
REMARK    4  A    between atoms: N12_7  and  C14_8 
REMARK    5  A    between atoms: C29_13  and  O1_14 
REMARK    6  A    between atoms: O1_14  and  C2_15 
REMARK    7  A    between atoms: C2_15  and  C4_17 
ROOT
ATOM      1  C8  COC d   1     -10.953  19.974  63.584  0.00  0.00     0.083 C 
ATOM      2  C10 COC d   1     -11.809  18.840  64.184  0.00  0.00     0.118 C 
ATOM      3  N12 COC d   1     -13.192  19.262  64.201  0.00  0.00    -0.065 N 
ATOM      4  C18 COC d   1     -11.734  18.816  65.722  0.00  0.00    -0.035 C 
ATOM      5  C21 COC d   1     -12.743  19.854  66.254  0.00  0.00    -0.036 C 
ATOM      6  C24 COC d   1     -13.459  20.429  65.016  0.00  0.00     0.106 C 
ATOM      7  C26 COC d   1     -12.723  21.640  64.410  0.00  0.00    -0.013 C 
ATOM      8  C29 COC d   1     -11.222  21.346  64.215  0.00  0.00     0.064 C 
ATOM      9  H4  COC d   1      -9.899  19.723  63.776  0.00  0.00     0.062 H 
ATOM     10  H5  COC d   1     -11.610  17.875  63.694  0.00  0.00     0.086 H 
ATOM     11  H6  COC d   1     -13.142  19.768  63.331  0.00  0.00     0.280 HD
ATOM     12  H10 COC d   1     -10.718  19.077  66.052  0.00  0.00     0.036 H 
ATOM     13  H11 COC d   1     -11.995  17.814  66.095  0.00  0.00     0.036 H 
ATOM     14  H12 COC d   1     -12.218  20.654  66.797  0.00  0.00     0.036 H 
ATOM     15  H13 COC d   1     -13.469  19.372  66.925  0.00  0.00     0.036 H 
ATOM     16  H14 COC d   1     -14.524  20.651  65.176  0.00  0.00     0.084 H 
ATOM     17  H15 COC d   1     -12.834  22.501  65.085  0.00  0.00     0.040 H 
ATOM     18  H16 COC d   1     -13.171  21.879  63.434  0.00  0.00     0.040 H 
ATOM     19  H17 COC d   1     -10.721  21.404  65.193  0.00  0.00     0.085 H 
ENDROOT
BRANCH   8  20
ATOM     20  O1  COC d   1     -10.671  22.289  63.332  0.00  0.00    -0.311 OA
BRANCH  20  21
ATOM     21  C2  COC d   1      -9.912  23.320  63.981  0.00  0.00     0.293 C 
ATOM     22  O3  COC d   1      -9.732  23.294  65.188  0.00  0.00    -0.259 OA
BRANCH  21  23
ATOM     23  C4  COC d   1      -9.445  24.438  63.107  0.00  0.00     0.039 A 
ATOM     24  C5  COC d   1      -8.599  25.432  63.599  0.00  0.00    -0.067 A 
ATOM     25  C7  COC d   1      -8.219  26.461  62.749  0.00  0.00    -0.082 A 
ATOM     26  H18 COC d   1      -8.246  25.401  64.623  0.00  0.00     0.085 H 
ATOM     27  C9  COC d   1      -8.673  26.509  61.429  0.00  0.00    -0.083 A 
ATOM     28  H19 COC d   1      -7.560  27.240  63.115  0.00  0.00     0.083 H 
ATOM     29  C11 COC d   1      -9.530  25.531  60.942  0.00  0.00    -0.082 A 
ATOM     30  H20 COC d   1      -8.354  27.316  60.780  0.00  0.00     0.083 H 
ATOM     31  C13 COC d   1      -9.913  24.488  61.788  0.00  0.00    -0.067 A 
ATOM     32  H21 COC d   1      -9.896  25.576  59.922  0.00  0.00     0.083 H 
ATOM     33  H22 COC d   1     -10.576  23.713  61.422  0.00  0.00     0.085 H 
ENDBRANCH  21  23
ENDBRANCH  20  21
ENDBRANCH   8  20
BRANCH   1  34
ATOM     34  C6  COC d   1     -11.146  20.061  62.094  0.00  0.00     0.267 C 
ATOM     35  O7  COC d   1     -12.190  20.457  61.553  0.00  0.00    -0.265 OA
BRANCH  34  36
ATOM     36  O5  COC d   1     -10.046  19.692  61.251  0.00  0.00    -0.326 OA
BRANCH  36  37
ATOM     37  C1  COC d   1     -10.197  19.695  59.827  0.00  0.00     0.013 C 
ATOM     38  H1  COC d   1      -9.252  19.386  59.357  0.00  0.00     0.067 H 
ATOM     39  H2  COC d   1     -10.460  20.708  59.488  0.00  0.00     0.067 H 
ATOM     40  H3  COC d   1     -10.995  18.994  59.541  0.00  0.00     0.067 H 
ENDBRANCH  36  37
ENDBRANCH  34  36
ENDBRANCH   1  34
BRANCH   3  41
ATOM     41  C14 COC d   1     -14.267  18.395  63.747  0.00  0.00     0.067 C 
ATOM     42  H7  COC d   1     -15.229  18.919  63.849  0.00  0.00     0.068 H 
ATOM     43  H8  COC d   1     -14.282  17.480  64.357  0.00  0.00     0.068 H 
ATOM     44  H9  COC d   1     -14.104  18.130  62.692  0.00  0.00     0.068 H 
ENDBRANCH   3  41
TORSDOF 7
