REMARK  19 active torsions:
REMARK  status: ('A' for Active; 'I' for Inactive)
REMARK       I    between atoms: C20_2  and  N4_3 
REMARK    1  A    between atoms: C20_2  and  C17_14 
REMARK    2  A    between atoms: N4_3  and  C31_4 
REMARK    3  A    between atoms: C35_12  and  O7_13 
REMARK    4  A    between atoms: C18_15  and  C29_16 
REMARK    5  A    between atoms: C18_15  and  C30_17 
REMARK       I    between atoms: N3_20  and  C16_21 
REMARK    6  A    between atoms: C16_21  and  C14_23 
REMARK    7  A    between atoms: C14_23  and  O1_24 
REMARK    8  A    between atoms: C14_23  and  C13_25 
REMARK    9  A    between atoms: C13_25  and  C15_26 
REMARK   10  A    between atoms: C13_25  and  N2_33 
REMARK   11  A    between atoms: C15_26  and  C22_27 
REMARK       I    between atoms: N2_33  and  C12_34 
REMARK   12  A    between atoms: C12_34  and  C21_36 
REMARK   13  A    between atoms: C21_36  and  C11_37 
REMARK   14  A    between atoms: C21_36  and  N1_42 
REMARK   15  A    between atoms: C11_37  and  S_38 
REMARK   16  A    between atoms: S_38  and  C28_40 
REMARK       I    between atoms: N1_42  and  C10_43 
REMARK   17  A    between atoms: C10_43  and  C9_45 
REMARK   18  A    between atoms: C9_45  and  O_46 
REMARK   19  A    between atoms: O_46  and  C5_47 
ROOT
ATOM      1  C13 075 d   1      14.516 -20.585 -17.256  0.00  0.00     0.049 C 
ATOM      2  H22 075 d   1      13.549 -21.043 -17.002  0.00  0.00     0.077 H 
ENDROOT
BRANCH   1   3
ATOM      3  C14 075 d   1      14.383 -19.682 -18.476  0.00  0.00     0.132 C 
ATOM      4  H20 075 d   1      14.368 -20.314 -19.376  0.00  0.00     0.101 H 
BRANCH   3   5
ATOM      5  C16 075 d   1      13.095 -18.908 -18.415  0.00  0.00     0.252 C 
ATOM      6  N3  075 d   1      12.051 -19.431 -19.076  0.00  0.00    -0.326 N 
ATOM      7  C17 075 d   1      10.788 -18.690 -19.153  0.00  0.00     0.108 C 
ATOM      8  C19 075 d   1      12.015 -20.725 -19.781  0.00  0.00     0.040 C 
ATOM      9  C18 075 d   1       9.926 -19.240 -20.301  0.00  0.00     0.032 C 
ATOM     10  H11 075 d   1      11.026 -17.640 -19.376  0.00  0.00     0.090 H 
ATOM     11  S1  075 d   1      10.364 -20.929 -20.342  0.00  0.00    -0.137 SA
ATOM     12  H18 075 d   1      12.709 -20.714 -20.634  0.00  0.00     0.081 H 
ATOM     13  H19 075 d   1      12.289 -21.541 -19.096  0.00  0.00     0.081 H 
ATOM     14  O3  075 d   1      13.046 -17.859 -17.783  0.00  0.00    -0.270 OA
BRANCH   7  15
ATOM     15  C20 075 d   1      10.027 -18.722 -17.854  0.00  0.00     0.242 C 
ATOM     16  O4  075 d   1      10.034 -19.724 -17.120  0.00  0.00    -0.271 OA
ATOM     17  N4  075 d   1       9.372 -17.585 -17.596  0.00  0.00    -0.348 N 
ATOM     18  H1  075 d   1       9.467 -16.814 -18.226  0.00  0.00     0.163 HD
BRANCH  17  19
ATOM     19  C31 075 d   1       8.526 -17.441 -16.425  0.00  0.00     0.063 C 
ATOM     20  C32 075 d   1       9.153 -16.835 -15.246  0.00  0.00    -0.027 A 
ATOM     21  C33 075 d   1      10.416 -17.118 -14.736  0.00  0.00    -0.074 A 
ATOM     22  C36 075 d   1       8.295 -15.926 -14.678  0.00  0.00    -0.047 A 
ATOM     23  C34 075 d   1      10.814 -16.418 -13.592  0.00  0.00    -0.082 A 
ATOM     24  H3  075 d   1      11.064 -17.850 -15.205  0.00  0.00     0.084 H 
ATOM     25  C38 075 d   1       9.945 -15.473 -13.028  0.00  0.00    -0.082 A 
ATOM     26  H4  075 d   1      11.784 -16.604 -13.146  0.00  0.00     0.083 H 
ATOM     27  C37 075 d   1       8.671 -15.212 -13.551  0.00  0.00    -0.076 A 
ATOM     28  H5  075 d   1      10.271 -14.923 -12.153  0.00  0.00     0.083 H 
ATOM     29  H6  075 d   1       8.009 -14.485 -13.095  0.00  0.00     0.084 H 
ATOM     30  C39 075 d   1       6.988 -15.810 -15.440  0.00  0.00    -0.014 C 
ATOM     31  C35 075 d   1       7.406 -16.444 -16.767  0.00  0.00     0.063 C 
ATOM     32  H7  075 d   1       6.679 -14.762 -15.566  0.00  0.00     0.044 H 
ATOM     33  H8  075 d   1       6.179 -16.375 -14.954  0.00  0.00     0.044 H 
ATOM     34  H9  075 d   1       6.561 -16.962 -17.244  0.00  0.00     0.087 H 
ATOM     35  H2  075 d   1       8.118 -18.428 -16.161  0.00  0.00     0.084 H 
BRANCH  31  36
ATOM     36  O7  075 d   1       7.891 -15.388 -17.625  0.00  0.00    -0.393 OA
ATOM     37  H10 075 d   1       8.158 -15.757 -18.459  0.00  0.00     0.210 HD
ENDBRANCH  31  36
ENDBRANCH  17  19
ENDBRANCH   7  15
BRANCH   9  38
ATOM     38  C29 075 d   1      10.310 -18.552 -21.592  0.00  0.00    -0.058 C 
ATOM     39  H12 075 d   1       9.694 -18.945 -22.414  0.00  0.00     0.029 H 
ATOM     40  H13 075 d   1      11.372 -18.742 -21.807  0.00  0.00     0.029 H 
ATOM     41  H14 075 d   1      10.143 -17.469 -21.494  0.00  0.00     0.029 H 
ENDBRANCH   9  38
BRANCH   9  42
ATOM     42  C30 075 d   1       8.411 -19.110 -20.145  0.00  0.00    -0.058 C 
ATOM     43  H15 075 d   1       8.095 -19.601 -19.213  0.00  0.00     0.029 H 
ATOM     44  H16 075 d   1       7.912 -19.590 -21.000  0.00  0.00     0.029 H 
ATOM     45  H17 075 d   1       8.136 -18.046 -20.110  0.00  0.00     0.029 H 
ENDBRANCH   9  42
ENDBRANCH   3   5
BRANCH   3  46
ATOM     46  O1  075 d   1      15.498 -18.789 -18.570  0.00  0.00    -0.384 OA
ATOM     47  H21 075 d   1      15.415 -18.263 -19.356  0.00  0.00     0.210 HD
ENDBRANCH   3  46
ENDBRANCH   1   3
BRANCH   1  48
ATOM     48  C15 075 d   1      15.067 -19.819 -16.053  0.00  0.00    -0.019 C 
ATOM     49  H23 075 d   1      14.330 -19.077 -15.712  0.00  0.00     0.043 H 
ATOM     50  H24 075 d   1      16.001 -19.308 -16.330  0.00  0.00     0.043 H 
BRANCH  48  51
ATOM     51  C22 075 d   1      15.333 -20.810 -14.963  0.00  0.00    -0.056 A 
ATOM     52  C23 075 d   1      16.658 -21.060 -14.597  0.00  0.00    -0.077 A 
ATOM     53  C24 075 d   1      16.931 -21.987 -13.594  0.00  0.00    -0.082 A 
ATOM     54  H25 075 d   1      17.468 -20.536 -15.091  0.00  0.00     0.084 H 
ATOM     55  C25 075 d   1      15.877 -22.642 -12.957  0.00  0.00    -0.083 A 
ATOM     56  H26 075 d   1      17.956 -22.198 -13.310  0.00  0.00     0.083 H 
ATOM     57  C26 075 d   1      14.553 -22.388 -13.325  0.00  0.00    -0.082 A 
ATOM     58  H27 075 d   1      16.087 -23.355 -12.168  0.00  0.00     0.083 H 
ATOM     59  C27 075 d   1      14.267 -21.472 -14.337  0.00  0.00    -0.077 A 
ATOM     60  H28 075 d   1      13.744 -22.905 -12.822  0.00  0.00     0.083 H 
ATOM     61  H29 075 d   1      13.243 -21.276 -14.633  0.00  0.00     0.084 H 
ENDBRANCH  48  51
ENDBRANCH   1  48
BRANCH   1  62
ATOM     62  N2  075 d   1      15.501 -21.597 -17.644  0.00  0.00    -0.351 N 
ATOM     63  C12 075 d   1      15.157 -22.816 -18.088  0.00  0.00     0.241 C 
ATOM     64  O5  075 d   1      13.992 -23.192 -18.193  0.00  0.00    -0.271 OA
ATOM     65  H30 075 d   1      16.472 -21.370 -17.575  0.00  0.00     0.163 HD
BRANCH  63  66
ATOM     66  C21 075 d   1      16.324 -23.710 -18.445  0.00  0.00     0.102 C 
ATOM     67  H31 075 d   1      17.031 -23.122 -19.048  0.00  0.00     0.089 H 
BRANCH  66  68
ATOM     68  C11 075 d   1      15.944 -24.976 -19.237  0.00  0.00     0.055 C 
ATOM     69  H32 075 d   1      15.142 -24.708 -19.940  0.00  0.00     0.060 H 
ATOM     70  H33 075 d   1      15.570 -25.724 -18.522  0.00  0.00     0.060 H 
BRANCH  68  71
ATOM     71  S   075 d   1      17.191 -25.679 -20.117  0.00  0.00     0.143 S 
ATOM     72  O8  075 d   1      17.975 -24.680 -20.793  0.00  0.00    -0.228 OA
ATOM     73  O6  075 d   1      16.647 -26.534 -21.119  0.00  0.00    -0.228 OA
BRANCH  71  74
ATOM     74  C28 075 d   1      18.146 -26.596 -19.098  0.00  0.00     0.016 C 
ATOM     75  H34 075 d   1      18.962 -27.056 -19.675  0.00  0.00     0.048 H 
ATOM     76  H35 075 d   1      17.535 -27.385 -18.634  0.00  0.00     0.048 H 
ATOM     77  H36 075 d   1      18.570 -25.951 -18.314  0.00  0.00     0.048 H 
ENDBRANCH  71  74
ENDBRANCH  68  71
ENDBRANCH  66  68
BRANCH  66  78
ATOM     78  N1  075 d   1      16.977 -24.151 -17.221  0.00  0.00    -0.345 N 
ATOM     79  C10 075 d   1      18.254 -23.869 -16.985  0.00  0.00     0.242 C 
ATOM     80  O2  075 d   1      18.952 -23.253 -17.765  0.00  0.00    -0.271 OA
ATOM     81  H37 075 d   1      16.456 -24.675 -16.547  0.00  0.00     0.163 HD
BRANCH  79  82
ATOM     82  C9  075 d   1      18.885 -24.362 -15.697  0.00  0.00     0.099 C 
ATOM     83  H38 075 d   1      19.487 -23.547 -15.269  0.00  0.00     0.089 H 
ATOM     84  H39 075 d   1      19.537 -25.216 -15.932  0.00  0.00     0.089 H 
BRANCH  82  85
ATOM     85  O   075 d   1      17.929 -24.777 -14.725  0.00  0.00    -0.341 OA
BRANCH  85  86
ATOM     86  C5  075 d   1      18.343 -25.160 -13.473  0.00  0.00     0.080 A 
ATOM     87  C2  075 d   1      17.472 -25.834 -12.625  0.00  0.00     0.010 A 
ATOM     88  C1  075 d   1      16.168 -26.138 -13.006  0.00  0.00    -0.053 A 
ATOM     89  C3  075 d   1      17.896 -26.219 -11.352  0.00  0.00    -0.006 A 
ATOM     90  C   075 d   1      15.320 -26.824 -12.137  0.00  0.00     0.003 A 
ATOM     91  H40 075 d   1      15.809 -25.840 -13.985  0.00  0.00     0.087 H 
ATOM     92  N   075 d   1      15.764 -27.194 -10.923  0.00  0.00    -0.272 NA
ATOM     93  H42 075 d   1      14.306 -27.058 -12.439  0.00  0.00     0.114 H 
ATOM     94  C4  075 d   1      17.011 -26.907 -10.515  0.00  0.00     0.013 A 
ATOM     95  H41 075 d   1      17.335 -27.212  -9.527  0.00  0.00     0.116 H 
ATOM     96  C8  075 d   1      19.193 -25.925 -10.927  0.00  0.00    -0.071 A 
ATOM     97  C7  075 d   1      20.070 -25.234 -11.763  0.00  0.00    -0.079 A 
ATOM     98  H43 075 d   1      19.520 -26.236  -9.941  0.00  0.00     0.084 H 
ATOM     99  C6  075 d   1      19.640 -24.856 -13.041  0.00  0.00    -0.050 A 
ATOM    100  H44 075 d   1      21.072 -24.992 -11.428  0.00  0.00     0.083 H 
ATOM    101  H45 075 d   1      20.316 -24.324 -13.701  0.00  0.00     0.087 H 
ENDBRANCH  85  86
ENDBRANCH  82  85
ENDBRANCH  79  82
ENDBRANCH  66  78
ENDBRANCH  63  66
ENDBRANCH   1  62
TORSDOF 19
