REMARK  19 active torsions:
REMARK  status: ('A' for Active; 'I' for Inactive)
REMARK    1  A    between atoms: C21_17  and  C1_1 
REMARK       I    between atoms: C1_1  and  N1_47 
REMARK    2  A    between atoms: C2_2  and  C3_3 
REMARK    3  A    between atoms: C2_2  and  C20_16 
REMARK    4  A    between atoms: N1_47  and  C2_2 
REMARK       I    between atoms: C3_3  and  N2_44 
REMARK    5  A    between atoms: C4_4  and  C5_5 
REMARK    6  A    between atoms: C4_4  and  C7_7 
REMARK    7  A    between atoms: N2_44  and  C4_4 
REMARK    8  A    between atoms: C5_5  and  C6_6 
REMARK    9  A    between atoms: C5_5  and  O1_41 
REMARK       I    between atoms: C6_6  and  N3_39 
REMARK   10  A    between atoms: C7_7  and  C8_8 
REMARK   11  A    between atoms: C16_13  and  C17_26 
REMARK   12  A    between atoms: C15_37  and  C18_14 
REMARK   13  A    between atoms: C15_37  and  C19_15 
REMARK   14  A    between atoms: C20_16  and  S2_46 
REMARK   15  A    between atoms: O6_49  and  C21_17 
REMARK   16  A    between atoms: S2_46  and  C22_18 
REMARK   17  A    between atoms: N4_27  and  C32_24 
REMARK       I    between atoms: C17_26  and  N4_27 
REMARK   18  A    between atoms: C36_35  and  O7_36 
REMARK   19  A    between atoms: O6_49  and  C23_50 
ROOT
ATOM      1  C4  O33 d   1      14.350 -20.627 -17.412  0.00  0.00     0.049 C 
ATOM      2  H2  O33 d   1      13.375 -21.074 -17.167  0.00  0.00     0.077 H 
ENDROOT
BRANCH   1   3
ATOM      3  C5  O33 d   1      14.220 -19.760 -18.659  0.00  0.00     0.132 C 
ATOM      4  H3  O33 d   1      14.230 -20.398 -19.555  0.00  0.00     0.101 H 
BRANCH   3   5
ATOM      5  C6  O33 d   1      12.924 -19.008 -18.591  0.00  0.00     0.252 C 
ATOM      6  N3  O33 d   1      11.885 -19.513 -19.234  0.00  0.00    -0.326 N 
ATOM      7  C14 O33 d   1      11.866 -20.770 -19.984  0.00  0.00     0.040 C 
ATOM      8  C16 O33 d   1      10.647 -18.739 -19.229  0.00  0.00     0.108 C 
ATOM      9  S1  O33 d   1      10.181 -21.064 -20.353  0.00  0.00    -0.137 SA
ATOM     10  H9  O33 d   1      12.452 -20.675 -20.910  0.00  0.00     0.081 H 
ATOM     11  H10 O33 d   1      12.275 -21.589 -19.374  0.00  0.00     0.081 H 
ATOM     12  C15 O33 d   1       9.780 -19.317 -20.361  0.00  0.00     0.032 C 
ATOM     13  H11 O33 d   1      10.897 -17.694 -19.465  0.00  0.00     0.090 H 
ATOM     14  O2  O33 d   1      12.856 -17.994 -17.940  0.00  0.00    -0.270 OA
BRANCH  12  15
ATOM     15  C18 O33 d   1       8.269 -19.093 -20.245  0.00  0.00    -0.058 C 
ATOM     16  H12 O33 d   1       7.763 -19.550 -21.108  0.00  0.00     0.029 H 
ATOM     17  H13 O33 d   1       8.059 -18.014 -20.226  0.00  0.00     0.029 H 
ATOM     18  H14 O33 d   1       7.900 -19.555 -19.317  0.00  0.00     0.029 H 
ENDBRANCH  12  15
BRANCH  12  19
ATOM     19  C19 O33 d   1      10.215 -18.635 -21.664  0.00  0.00    -0.058 C 
ATOM     20  H15 O33 d   1      11.299 -18.764 -21.801  0.00  0.00     0.029 H 
ATOM     21  H16 O33 d   1       9.977 -17.562 -21.614  0.00  0.00     0.029 H 
ATOM     22  H17 O33 d   1       9.681 -19.090 -22.512  0.00  0.00     0.029 H 
ENDBRANCH  12  19
BRANCH   8  23
ATOM     23  C17 O33 d   1       9.880 -18.733 -17.915  0.00  0.00     0.242 C 
ATOM     24  O4  O33 d   1       9.857 -19.729 -17.139  0.00  0.00    -0.271 OA
ATOM     25  N4  O33 d   1       9.224 -17.584 -17.702  0.00  0.00    -0.348 N 
ATOM     26  H29 O33 d   1       9.337 -16.832 -18.352  0.00  0.00     0.163 HD
BRANCH  25  27
ATOM     27  C32 O33 d   1       8.346 -17.397 -16.545  0.00  0.00     0.063 C 
ATOM     28  C33 O33 d   1       8.898 -16.788 -15.318  0.00  0.00    -0.027 A 
ATOM     29  C37 O33 d   1      10.133 -17.072 -14.723  0.00  0.00    -0.074 A 
ATOM     30  C34 O33 d   1       8.020 -15.901 -14.771  0.00  0.00    -0.047 A 
ATOM     31  C38 O33 d   1      10.468 -16.410 -13.535  0.00  0.00    -0.082 A 
ATOM     32  H30 O33 d   1      10.814 -17.787 -15.171  0.00  0.00     0.084 H 
ATOM     33  C39 O33 d   1       9.575 -15.467 -13.006  0.00  0.00    -0.082 A 
ATOM     34  H31 O33 d   1      11.404 -16.623 -13.032  0.00  0.00     0.083 H 
ATOM     35  C40 O33 d   1       8.332 -15.214 -13.601  0.00  0.00    -0.076 A 
ATOM     36  H32 O33 d   1       9.854 -14.919 -12.113  0.00  0.00     0.083 H 
ATOM     37  H33 O33 d   1       7.636 -14.507 -13.165  0.00  0.00     0.084 H 
ATOM     38  C35 O33 d   1       6.765 -15.778 -15.607  0.00  0.00    -0.014 C 
ATOM     39  C36 O33 d   1       7.216 -16.422 -16.917  0.00  0.00     0.063 C 
ATOM     40  H34 O33 d   1       6.479 -14.726 -15.753  0.00  0.00     0.044 H 
ATOM     41  H35 O33 d   1       5.925 -16.327 -15.156  0.00  0.00     0.044 H 
ATOM     42  H36 O33 d   1       6.383 -16.952 -17.401  0.00  0.00     0.087 H 
ATOM     43  H28 O33 d   1       7.934 -18.384 -16.288  0.00  0.00     0.084 H 
BRANCH  39  44
ATOM     44  O7  O33 d   1       7.735 -15.408 -17.791  0.00  0.00    -0.393 OA
ATOM     45  H37 O33 d   1       7.057 -14.767 -17.968  0.00  0.00     0.210 HD
ENDBRANCH  39  44
ENDBRANCH  25  27
ENDBRANCH   8  23
ENDBRANCH   3   5
BRANCH   3  46
ATOM     46  O1  O33 d   1      15.317 -18.832 -18.719  0.00  0.00    -0.384 OA
ATOM     47  H38 O33 d   1      15.228 -18.287 -19.492  0.00  0.00     0.210 HD
ENDBRANCH   3  46
ENDBRANCH   1   3
BRANCH   1  48
ATOM     48  C7  O33 d   1      14.885 -19.875 -16.184  0.00  0.00    -0.019 C 
ATOM     49  H4  O33 d   1      14.137 -19.146 -15.837  0.00  0.00     0.043 H 
ATOM     50  H5  O33 d   1      15.816 -19.350 -16.444  0.00  0.00     0.043 H 
BRANCH  48  51
ATOM     51  C8  O33 d   1      15.155 -20.894 -15.096  0.00  0.00    -0.056 A 
ATOM     52  C9  O33 d   1      16.480 -21.144 -14.733  0.00  0.00    -0.077 A 
ATOM     53  C10 O33 d   1      16.737 -22.092 -13.759  0.00  0.00    -0.082 A 
ATOM     54  H6  O33 d   1      17.293 -20.605 -15.206  0.00  0.00     0.084 H 
ATOM     55  C11 O33 d   1      15.676 -22.740 -13.132  0.00  0.00    -0.083 A 
ATOM     56  H39 O33 d   1      17.759 -22.329 -13.485  0.00  0.00     0.083 H 
ATOM     57  C12 O33 d   1      14.348 -22.488 -13.460  0.00  0.00    -0.082 A 
ATOM     58  H7  O33 d   1      15.893 -23.468 -12.359  0.00  0.00     0.083 H 
ATOM     59  C13 O33 d   1      14.084 -21.541 -14.457  0.00  0.00    -0.077 A 
ATOM     60  H8  O33 d   1      13.541 -23.010 -12.958  0.00  0.00     0.083 H 
ATOM     61  H40 O33 d   1      13.062 -21.309 -14.733  0.00  0.00     0.084 H 
ENDBRANCH  48  51
ENDBRANCH   1  48
BRANCH   1  62
ATOM     62  N2  O33 d   1      15.324 -21.655 -17.764  0.00  0.00    -0.351 N 
ATOM     63  C3  O33 d   1      14.885 -22.885 -18.068  0.00  0.00     0.241 C 
ATOM     64  O3  O33 d   1      13.697 -23.218 -18.081  0.00  0.00    -0.271 OA
ATOM     65  H41 O33 d   1      16.302 -21.446 -17.778  0.00  0.00     0.163 HD
BRANCH  63  66
ATOM     66  C2  O33 d   1      15.953 -23.889 -18.386  0.00  0.00     0.097 C 
ATOM     67  H1  O33 d   1      16.631 -23.456 -19.136  0.00  0.00     0.088 H 
BRANCH  66  68
ATOM     68  C20 O33 d   1      15.302 -25.159 -18.959  0.00  0.00     0.003 C 
ATOM     69  H18 O33 d   1      14.399 -25.411 -18.384  0.00  0.00     0.052 H 
ATOM     70  H19 O33 d   1      16.011 -25.999 -18.914  0.00  0.00     0.052 H 
BRANCH  68  71
ATOM     71  S2  O33 d   1      14.872 -24.817 -20.648  0.00  0.00    -0.171 SA
BRANCH  71  72
ATOM     72  C22 O33 d   1      16.410 -25.193 -21.431  0.00  0.00    -0.035 C 
ATOM     73  H22 O33 d   1      16.319 -25.030 -22.515  0.00  0.00     0.041 H 
ATOM     74  H23 O33 d   1      16.672 -26.244 -21.239  0.00  0.00     0.041 H 
ATOM     75  H24 O33 d   1      17.197 -24.539 -21.027  0.00  0.00     0.041 H 
ENDBRANCH  71  72
ENDBRANCH  68  71
ENDBRANCH  66  68
BRANCH  66  76
ATOM     76  N1  O33 d   1      16.726 -24.257 -17.211  0.00  0.00    -0.345 N 
ATOM     77  C1  O33 d   1      18.034 -23.965 -17.173  0.00  0.00     0.242 C 
ATOM     78  O5  O33 d   1      18.635 -23.397 -18.063  0.00  0.00    -0.271 OA
ATOM     79  H42 O33 d   1      16.288 -24.722 -16.441  0.00  0.00     0.163 HD
BRANCH  77  80
ATOM     80  C21 O33 d   1      18.815 -24.337 -15.926  0.00  0.00     0.099 C 
ATOM     81  H20 O33 d   1      19.310 -23.436 -15.534  0.00  0.00     0.089 H 
ATOM     82  H21 O33 d   1      19.575 -25.086 -16.192  0.00  0.00     0.089 H 
BRANCH  80  83
ATOM     83  O6  O33 d   1      17.972 -24.875 -14.917  0.00  0.00    -0.341 OA
BRANCH  83  84
ATOM     84  C23 O33 d   1      18.479 -25.103 -13.662  0.00  0.00     0.080 A 
ATOM     85  C28 O33 d   1      17.692 -25.811 -12.759  0.00  0.00     0.010 A 
ATOM     86  C27 O33 d   1      18.180 -26.073 -11.469  0.00  0.00    -0.006 A 
ATOM     87  C31 O33 d   1      16.426 -26.259 -13.129  0.00  0.00    -0.053 A 
ATOM     88  C29 O33 d   1      17.381 -26.798 -10.584  0.00  0.00     0.013 A 
ATOM     89  C26 O33 d   1      19.451 -25.617 -11.082  0.00  0.00    -0.071 A 
ATOM     90  N5  O33 d   1      16.170 -27.234 -10.973  0.00  0.00    -0.272 NA
ATOM     91  H25 O33 d   1      17.737 -27.010  -9.582  0.00  0.00     0.116 H 
ATOM     92  C30 O33 d   1      15.686 -26.994 -12.195  0.00  0.00     0.003 A 
ATOM     93  H26 O33 d   1      14.708 -27.373 -12.467  0.00  0.00     0.114 H 
ATOM     94  C25 O33 d   1      20.229 -24.894 -11.993  0.00  0.00    -0.079 A 
ATOM     95  H45 O33 d   1      19.826 -25.823 -10.086  0.00  0.00     0.084 H 
ATOM     96  C24 O33 d   1      19.742 -24.632 -13.288  0.00  0.00    -0.050 A 
ATOM     97  H44 O33 d   1      21.209 -24.535 -11.701  0.00  0.00     0.083 H 
ATOM     98  H43 O33 d   1      20.343 -24.068 -13.992  0.00  0.00     0.087 H 
ATOM     99  H27 O33 d   1      16.025 -26.044 -14.113  0.00  0.00     0.087 H 
ENDBRANCH  83  84
ENDBRANCH  80  83
ENDBRANCH  77  80
ENDBRANCH  66  76
ENDBRANCH  63  66
ENDBRANCH   1  62
TORSDOF 19
