REMARK  3 active torsions:
REMARK  status: ('A' for Active; 'I' for Inactive)
REMARK    1  A    between atoms: C2_2  and  O3_3 
REMARK    2  A    between atoms: C9_9  and  C18_15 
REMARK    3  A    between atoms: C21_18  and  O22_19 
ROOT
ATOM      1  C1  WST d   1      14.505  51.083  58.995  0.00  0.00     0.013 A 
ATOM      2  C2  WST d   1      15.890  50.866  58.604  0.00  0.00     0.075 A 
ATOM      3  C4  WST d   1      16.076  50.067  57.422  0.00  0.00    -0.050 A 
ATOM      4  C5  WST d   1      15.001  49.508  56.668  0.00  0.00    -0.078 A 
ATOM      5  C6  WST d   1      13.670  49.732  57.074  0.00  0.00    -0.050 A 
ATOM      6  C7  WST d   1      13.423  50.510  58.225  0.00  0.00     0.079 A 
ATOM      7  O8  WST d   1      12.097  50.677  58.554  0.00  0.00    -0.340 OA
ATOM      8  C9  WST d   1      11.764  51.960  59.155  0.00  0.00     0.074 C 
ATOM      9  C11 WST d   1      12.645  52.265  60.420  0.00  0.00    -0.017 C 
ATOM     10  C13 WST d   1      14.154  51.921  60.237  0.00  0.00    -0.017 C 
ATOM     11  C15 WST d   1      14.579  51.241  61.560  0.00  0.00    -0.057 C 
ATOM     12  C16 WST d   1      13.498  51.596  62.559  0.00  0.00    -0.064 C 
ATOM     13  C17 WST d   1      12.237  51.552  61.722  0.00  0.00    -0.058 C 
ATOM     14  H2  WST d   1      17.089  49.879  57.085  0.00  0.00     0.087 H 
ATOM     15  H3  WST d   1      15.207  48.913  55.786  0.00  0.00     0.083 H 
ATOM     16  H4  WST d   1      12.846  49.312  56.509  0.00  0.00     0.087 H 
ATOM     17  H5  WST d   1      11.999  52.737  58.413  0.00  0.00     0.092 H 
ATOM     18  H6  WST d   1      12.559  53.348  60.592  0.00  0.00     0.045 H 
ATOM     19  H7  WST d   1      14.706  52.867  60.139  0.00  0.00     0.048 H 
ATOM     20  H8  WST d   1      15.554  51.626  61.895  0.00  0.00     0.034 H 
ATOM     21  H9  WST d   1      14.640  50.150  61.430  0.00  0.00     0.034 H 
ATOM     22  H10 WST d   1      13.660  52.600  62.978  0.00  0.00     0.033 H 
ATOM     23  H11 WST d   1      13.457  50.860  63.376  0.00  0.00     0.033 H 
ATOM     24  H12 WST d   1      11.933  50.514  61.523  0.00  0.00     0.033 H 
ATOM     25  H13 WST d   1      11.415  52.085  62.221  0.00  0.00     0.033 H 
ENDROOT
BRANCH   8  26
ATOM     26  C18 WST d   1      10.258  52.045  59.431  0.00  0.00    -0.028 A 
ATOM     27  C19 WST d   1       9.458  50.866  59.306  0.00  0.00    -0.072 A 
ATOM     28  C20 WST d   1       8.067  50.900  59.558  0.00  0.00    -0.050 A 
ATOM     29  H14 WST d   1       9.925  49.932  59.014  0.00  0.00     0.084 H 
ATOM     30  C21 WST d   1       7.375  52.094  59.947  0.00  0.00     0.065 A 
ATOM     31  H15 WST d   1       7.499  49.983  59.452  0.00  0.00     0.087 H 
ATOM     32  C23 WST d   1       8.201  53.263  60.064  0.00  0.00    -0.050 A 
ATOM     33  C24 WST d   1       9.607  53.255  59.817  0.00  0.00    -0.072 A 
ATOM     34  H17 WST d   1       7.734  54.197  60.354  0.00  0.00     0.087 H 
ATOM     35  H18 WST d   1      10.181  54.169  59.923  0.00  0.00     0.084 H 
BRANCH  30  36
ATOM     36  O22 WST d   1       6.126  52.110  60.173  0.00  0.00    -0.361 OA
ATOM     37  H16 WST d   1       5.861  52.989  60.416  0.00  0.00     0.217 HD
ENDBRANCH  30  36
ENDBRANCH   8  26
BRANCH   2  38
ATOM     38  O3  WST d   1      16.902  51.338  59.237  0.00  0.00    -0.360 OA
ATOM     39  H1  WST d   1      17.701  51.068  58.800  0.00  0.00     0.217 HD
ENDBRANCH   2  38
TORSDOF 3
