REMARK  4 active torsions:
REMARK  status: ('A' for Active; 'I' for Inactive)
REMARK    1  A    between atoms: S1_1  and  N1_4 
REMARK    2  A    between atoms: C1_9  and  S1_1 
REMARK    3  A    between atoms: S2_5  and  N2_8 
REMARK    4  A    between atoms: C3_11  and  S2_5 
ROOT
ATOM      1  C1  I7A d   1      -4.590   2.653  13.435  0.00  0.00     0.082 A 
ATOM      2  C2  I7A d   1      -4.929   1.671  14.382  0.00  0.00    -0.036 A 
ATOM      3  C3  I7A d   1      -5.526   2.058  15.595  0.00  0.00     0.104 A 
ATOM      4  C4  I7A d   1      -5.782   3.421  15.860  0.00  0.00     0.079 A 
ATOM      5  C5  I7A d   1      -5.431   4.387  14.907  0.00  0.00     0.058 A 
ATOM      6  C6  I7A d   1      -4.837   4.024  13.691  0.00  0.00    -0.038 A 
ATOM      7 CL1  I7A d   1      -6.514   3.904  17.314  0.00  0.00    -0.081 Cl
ATOM      8 CL2  I7A d   1      -5.734   6.046  15.232  0.00  0.00    -0.082 Cl
ATOM      9  H5  I7A d   1      -4.732   0.625  14.179  0.00  0.00     0.088 H 
ATOM     10  H6  I7A d   1      -4.571   4.779  12.960  0.00  0.00     0.088 H 
ENDROOT
BRANCH   1  11
ATOM     11  S1  I7A d   1      -3.852   2.169  11.907  0.00  0.00     0.256 S 
ATOM     12  O1  I7A d   1      -4.504   2.930  10.888  0.00  0.00    -0.201 OA
ATOM     13  O2  I7A d   1      -3.888   0.743  11.855  0.00  0.00    -0.201 OA
BRANCH  11  14
ATOM     14  N1  I7A d   1      -2.341   2.620  11.969  0.00  0.00    -0.324 N 
ATOM     15  H1  I7A d   1      -2.111   3.592  12.011  0.00  0.00     0.169 HD
ATOM     16  H2  I7A d   1      -1.614   1.934  11.967  0.00  0.00     0.169 HD
ENDBRANCH  11  14
ENDBRANCH   1  11
BRANCH   3  17
ATOM     17  S2  I7A d   1      -5.944   0.790  16.762  0.00  0.00     0.258 S 
ATOM     18  O3  I7A d   1      -5.242   1.114  17.971  0.00  0.00    -0.201 OA
ATOM     19  O4  I7A d   1      -7.369   0.769  16.772  0.00  0.00    -0.201 OA
BRANCH  17  20
ATOM     20  N2  I7A d   1      -5.409  -0.595  16.252  0.00  0.00    -0.324 N 
ATOM     21  H3  I7A d   1      -4.425  -0.755  16.181  0.00  0.00     0.169 HD
ATOM     22  H4  I7A d   1      -6.053  -1.317  15.998  0.00  0.00     0.169 HD
ENDBRANCH  17  20
ENDBRANCH   3  17
TORSDOF 4
