REMARK  5 active torsions:
REMARK  status: ('A' for Active; 'I' for Inactive)
REMARK    1  A    between atoms: C1_2  and  S1_7 
REMARK    2  A    between atoms: C6_3  and  N3_15 
REMARK    3  A    between atoms: C3_6  and  S2_11 
REMARK    4  A    between atoms: S1_7  and  N1_8 
REMARK    5  A    between atoms: S2_11  and  N2_12 
ROOT
ATOM      1  C2  I7B d   1      -5.001   1.888  14.428  0.00  0.00    -0.034 A 
ATOM      2  C1  I7B d   1      -4.688   2.868  13.469  0.00  0.00     0.107 A 
ATOM      3  C6  I7B d   1      -4.986   4.233  13.689  0.00  0.00     0.051 A 
ATOM      4  C5  I7B d   1      -5.603   4.596  14.895  0.00  0.00    -0.034 A 
ATOM      5  C4  I7B d   1      -5.928   3.629  15.870  0.00  0.00     0.059 A 
ATOM      6  C3  I7B d   1      -5.621   2.263  15.631  0.00  0.00     0.102 A 
ATOM      7 CL1  I7B d   1      -6.666   4.103  17.304  0.00  0.00    -0.083 Cl
ATOM      8  H1  I7B d   1      -4.765   0.847  14.239  0.00  0.00     0.088 H 
ATOM      9  H2  I7B d   1      -5.835   5.638  15.082  0.00  0.00     0.089 H 
ENDROOT
BRANCH   2  10
ATOM     10  S1  I7B d   1      -3.926   2.354  11.965  0.00  0.00     0.259 S 
ATOM     11  O2  I7B d   1      -3.922   0.930  11.935  0.00  0.00    -0.201 OA
ATOM     12  O1  I7B d   1      -4.600   3.062  10.926  0.00  0.00    -0.201 OA
BRANCH  10  13
ATOM     13  N1  I7B d   1      -2.421   2.828  11.987  0.00  0.00    -0.324 N 
ATOM     14  H3  I7B d   1      -1.822   2.627  11.212  0.00  0.00     0.169 HD
ATOM     15  H4  I7B d   1      -2.066   3.330  12.776  0.00  0.00     0.169 HD
ENDBRANCH  10  13
ENDBRANCH   2  10
BRANCH   3  16
ATOM     16  N3  I7B d   1      -4.695   5.229  12.764  0.00  0.00    -0.398 N 
ATOM     17  H7  I7B d   1      -4.242   4.986  11.871  0.00  0.00     0.156 HD
ATOM     18  H8  I7B d   1      -4.932   6.210  12.971  0.00  0.00     0.156 HD
ENDBRANCH   3  16
BRANCH   6  19
ATOM     19  S2  I7B d   1      -5.999   0.965  16.797  0.00  0.00     0.258 S 
ATOM     20  O3  I7B d   1      -5.327   1.262  18.024  0.00  0.00    -0.201 OA
ATOM     21  O4  I7B d   1      -7.427   0.862  16.803  0.00  0.00    -0.201 OA
BRANCH  19  22
ATOM     22  N2  I7B d   1      -5.432  -0.399  16.256  0.00  0.00    -0.324 N 
ATOM     23  H5  I7B d   1      -5.555  -1.237  16.787  0.00  0.00     0.169 HD
ATOM     24  H6  I7B d   1      -4.949  -0.428  15.381  0.00  0.00     0.169 HD
ENDBRANCH  19  22
ENDBRANCH   6  19
TORSDOF 5
