REMARK  6 active torsions:
REMARK  status: ('A' for Active; 'I' for Inactive)
REMARK    1  A    between atoms: C1_2  and  S1_7 
REMARK    2  A    between atoms: C6_3  and  N3_15 
REMARK    3  A    between atoms: C4_5  and  C7_16 
REMARK    4  A    between atoms: C3_6  and  S2_11 
REMARK    5  A    between atoms: S1_7  and  N1_8 
REMARK    6  A    between atoms: S2_11  and  N2_12 
ROOT
ATOM      1  C2  I7C d   1      -4.998   1.928  14.665  0.00  0.00    -0.035 A 
ATOM      2  C1  I7C d   1      -5.562   2.187  15.917  0.00  0.00     0.106 A 
ATOM      3  C6  I7C d   1      -5.784   3.512  16.361  0.00  0.00     0.050 A 
ATOM      4  C5  I7C d   1      -5.418   4.572  15.525  0.00  0.00    -0.040 A 
ATOM      5  C4  I7C d   1      -4.835   4.349  14.242  0.00  0.00     0.073 A 
ATOM      6  C3  I7C d   1      -4.631   2.982  13.813  0.00  0.00     0.096 A 
ATOM      7  H1  I7C d   1      -4.842   0.903  14.348  0.00  0.00     0.088 H 
ATOM      8  H2  I7C d   1      -5.582   5.590  15.861  0.00  0.00     0.088 H 
ENDROOT
BRANCH   2   9
ATOM      9  S1  I7C d   1      -6.007   0.833  16.947  0.00  0.00     0.259 S 
ATOM     10  O1  I7C d   1      -5.393   1.037  18.224  0.00  0.00    -0.201 OA
ATOM     11  O2  I7C d   1      -7.426   0.751  16.859  0.00  0.00    -0.201 OA
BRANCH   9  12
ATOM     12  N1  I7C d   1      -5.387  -0.484  16.340  0.00  0.00    -0.324 N 
ATOM     13  H3  I7C d   1      -5.536  -1.362  16.794  0.00  0.00     0.169 HD
ATOM     14  H4  I7C d   1      -4.845  -0.441  15.501  0.00  0.00     0.169 HD
ENDBRANCH   9  12
ENDBRANCH   2   9
BRANCH   3  15
ATOM     15  N3  I7C d   1      -6.344   3.807  17.584  0.00  0.00    -0.398 N 
ATOM     16  H7  I7C d   1      -6.623   3.046  18.220  0.00  0.00     0.156 HD
ATOM     17  H8  I7C d   1      -6.484   4.789  17.863  0.00  0.00     0.156 HD
ENDBRANCH   3  15
BRANCH   6  18
ATOM     18  S2  I7C d   1      -3.935   2.480  12.240  0.00  0.00     0.257 S 
ATOM     19  O3  I7C d   1      -4.153   1.069  12.125  0.00  0.00    -0.201 OA
ATOM     20  O4  I7C d   1      -4.525   3.321  11.245  0.00  0.00    -0.201 OA
BRANCH  18  21
ATOM     21  N2  I7C d   1      -2.386   2.747  12.234  0.00  0.00    -0.324 N 
ATOM     22  H5  I7C d   1      -1.843   2.521  11.425  0.00  0.00     0.169 HD
ATOM     23  H6  I7C d   1      -1.944   3.143  13.039  0.00  0.00     0.169 HD
ENDBRANCH  18  21
ENDBRANCH   6  18
BRANCH   5  24
ATOM     24  C7  I7C d   1      -4.465   5.527  13.403  0.00  0.00     0.419 C 
ATOM     25  F1  I7C d   1      -5.394   5.857  12.491  0.00  0.00    -0.166 F 
ATOM     26  F2  I7C d   1      -4.278   6.640  14.132  0.00  0.00    -0.166 F 
ATOM     27  F3  I7C d   1      -3.314   5.373  12.721  0.00  0.00    -0.166 F 
ENDBRANCH   5  24
TORSDOF 6
