REMARK  9 active torsions:
REMARK  status: ('A' for Active; 'I' for Inactive)
REMARK    1  A    between atoms: C1_1  and  C7_7 
REMARK    2  A    between atoms: C3_3  and  O1_8 
REMARK    3  A    between atoms: C4_4  and  O2_9 
REMARK    4  A    between atoms: C5_5  and  O3_10 
REMARK    5  A    between atoms: O1_8  and  P1_13 
REMARK    6  A    between atoms: O3_10  and  C8_17 
REMARK    7  A    between atoms: C8_17  and  C9_18 
REMARK    8  A    between atoms: C8_17  and  C10_19 
REMARK    9  A    between atoms: C8_17  and  P2_22 
ROOT
ATOM      1  C1  RC1 d   1    -127.442  32.127 127.330  0.00  0.00     0.020 C 
ATOM      2  C2  RC1 d   1    -127.106  32.599 125.992  0.00  0.00    -0.060 C 
ATOM      3  C3  RC1 d   1    -128.162  32.536 124.860  0.00  0.00     0.096 C 
ATOM      4  C4  RC1 d   1    -129.596  32.589 125.426  0.00  0.00     0.089 C 
ATOM      5  C5  RC1 d   1    -129.795  31.457 126.468  0.00  0.00     0.072 C 
ATOM      6  C6  RC1 d   1    -128.756  31.578 127.631  0.00  0.00    -0.008 C 
ATOM      7  H1  RC1 d   1    -126.113  32.996 125.788  0.00  0.00     0.082 H 
ATOM      8  H2  RC1 d   1    -128.018  33.411 124.209  0.00  0.00     0.095 H 
ATOM      9  H3  RC1 d   1    -129.756  33.557 125.924  0.00  0.00     0.091 H 
ATOM     10  H4  RC1 d   1    -129.632  30.495 125.960  0.00  0.00     0.088 H 
ATOM     11  H5  RC1 d   1    -129.206  32.218 128.404  0.00  0.00     0.044 H 
ATOM     12  H6  RC1 d   1    -128.601  30.567 128.036  0.00  0.00     0.044 H 
ENDROOT
BRANCH   5  13
ATOM     13  O3  RC1 d   1    -131.153  31.462 127.006  0.00  0.00    -0.349 OA
BRANCH  13  14
ATOM     14  C8  RC1 d   1    -131.799  30.152 126.699  0.00  0.00     0.259 C 
BRANCH  14  15
ATOM     15  C9  RC1 d   1    -132.090  29.826 125.223  0.00  0.00    -0.025 C 
ATOM     16  H8  RC1 d   1    -131.141  29.715 124.678  0.00  0.00     0.033 H 
ATOM     17  H9  RC1 d   1    -132.677  30.642 124.776  0.00  0.00     0.033 H 
ATOM     18  H10 RC1 d   1    -132.660  28.887 125.160  0.00  0.00     0.033 H 
ENDBRANCH  14  15
BRANCH  14  19
ATOM     19  C10 RC1 d   1    -130.995  28.958 127.308  0.00  0.00     0.223 C 
ATOM     20  O9  RC1 d   1    -130.698  27.976 126.577  0.00  0.00    -0.645 OA
ATOM     21  O10 RC1 d   1    -130.668  29.024 128.499  0.00  0.00    -0.645 OA
ENDBRANCH  14  19
BRANCH  14  22
ATOM     22  P2  RC1 d   1    -133.330  30.346 127.650  0.00  0.00     0.306 P 
ATOM     23  O11 RC1 d   1    -134.451  30.825 126.717  0.00  0.00    -0.637 OA
ATOM     24  O12 RC1 d   1    -133.145  31.329 128.799  0.00  0.00    -0.637 OA
ATOM     25  O13 RC1 d   1    -133.614  28.912 128.103  0.00  0.00    -0.637 OA
ENDBRANCH  14  22
ENDBRANCH  13  14
ENDBRANCH   5  13
BRANCH   4  26
ATOM     26  O2  RC1 d   1    -130.518  32.470 124.325  0.00  0.00    -0.390 OA
ATOM     27  H7  RC1 d   1    -131.408  32.518 124.653  0.00  0.00     0.210 HD
ENDBRANCH   4  26
BRANCH   3  28
ATOM     28  O1  RC1 d   1    -127.979  31.310 124.041  0.00  0.00    -0.271 OA
BRANCH  28  29
ATOM     29  P1  RC1 d   1    -127.122  31.219 122.727  0.00  0.00     0.422 P 
ATOM     30  O6  RC1 d   1    -125.688  31.176 123.116  0.00  0.00    -0.617 OA
ATOM     31  O7  RC1 d   1    -127.405  32.429 121.923  0.00  0.00    -0.617 OA
ATOM     32  O8  RC1 d   1    -127.467  29.984 121.982  0.00  0.00    -0.617 OA
ENDBRANCH  28  29
ENDBRANCH   3  28
BRANCH   1  33
ATOM     33  C7  RC1 d   1    -126.383  32.205 128.402  0.00  0.00     0.205 C 
ATOM     34  O4  RC1 d   1    -125.219  32.116 128.035  0.00  0.00    -0.644 OA
ATOM     35  O5  RC1 d   1    -126.715  32.295 129.580  0.00  0.00    -0.644 OA
ENDBRANCH   1  33
TORSDOF 9
