REMARK  3 active torsions:
REMARK  status: ('A' for Active; 'I' for Inactive)
REMARK    1  A    between atoms: N1_1  and  CA_2 
REMARK    2  A    between atoms: CA_2  and  CB_3 
REMARK    3  A    between atoms: CB_3  and  CG_4 
ROOT
ATOM      1  CG  TSS d   1      11.717 -20.553   5.727  0.00  0.00    -0.029 A 
ATOM      2  CD1 TSS d   1      10.355 -20.811   5.971  0.00  0.00    -0.015 A 
ATOM      3  NE1 TSS d   1       9.563 -19.831   5.433  0.00  0.00    -0.365 N 
ATOM      4  CE2 TSS d   1      10.405 -18.953   4.857  0.00  0.00     0.042 A 
ATOM      5  CD2 TSS d   1      11.680 -19.370   5.025  0.00  0.00    -0.002 A 
ATOM      6  CZ2 TSS d   1      10.008 -17.803   4.213  0.00  0.00    -0.056 C 
ATOM      7  CH2 TSS d   1      11.059 -17.013   3.766  0.00  0.00    -0.081 C 
ATOM      8  CZ3 TSS d   1      12.380 -17.476   3.813  0.00  0.00    -0.082 C 
ATOM      9  CE3 TSS d   1      12.726 -18.617   4.525  0.00  0.00    -0.070 C 
ATOM     10  H8  TSS d   1       9.980 -21.676   6.516  0.00  0.00     0.112 H 
ATOM     11  H9  TSS d   1       8.535 -19.777   5.463  0.00  0.00     0.165 HD
ATOM     12  H10 TSS d   1       8.967 -17.538   4.068  0.00  0.00     0.086 H 
ATOM     13  H11 TSS d   1      10.854 -16.023   3.375  0.00  0.00     0.083 H 
ATOM     14  H12 TSS d   1      13.151 -16.931   3.281  0.00  0.00     0.083 H 
ATOM     15  H13 TSS d   1      13.760 -18.902   4.680  0.00  0.00     0.084 H 
ENDROOT
BRANCH   1  16
ATOM     16  CB  TSS d   1      12.921 -21.388   6.127  0.00  0.00    -0.017 C 
ATOM     17  H6  TSS d   1      13.720 -21.269   5.380  0.00  0.00     0.042 H 
ATOM     18  H7  TSS d   1      13.288 -21.062   7.111  0.00  0.00     0.042 H 
BRANCH  16  19
ATOM     19  CA  TSS d   1      12.492 -22.857   6.196  0.00  0.00     0.083 C 
ATOM     20  H4  TSS d   1      11.818 -23.000   7.053  0.00  0.00     0.075 H 
ATOM     21  H5  TSS d   1      11.968 -23.128   5.268  0.00  0.00     0.075 H 
BRANCH  19  22
ATOM     22  N1  TSS d   1      13.661 -23.705   6.355  0.00  0.00    -0.079 N 
ATOM     23  H1  TSS d   1      13.373 -24.670   6.400  0.00  0.00     0.274 HD
ATOM     24  H2  TSS d   1      14.142 -23.458   7.206  0.00  0.00     0.274 HD
ATOM     25  H3  TSS d   1      14.280 -23.575   5.570  0.00  0.00     0.274 HD
ENDBRANCH  19  22
ENDBRANCH  16  19
ENDBRANCH   1  16
TORSDOF 3
