REMARK  10 active torsions:
REMARK  status: ('A' for Active; 'I' for Inactive)
REMARK    1  A    between atoms: S8_2  and  N28_3 
REMARK    2  A    between atoms: S8_2  and  C26_34 
REMARK    3  A    between atoms: N28_3  and  C7_4 
REMARK    4  A    between atoms: N28_3  and  C23_11 
REMARK    5  A    between atoms: C7_4  and  C12_5 
REMARK    6  A    between atoms: C24_15  and  N32_16 
REMARK    7  A    between atoms: N32_16  and  S9_17 
REMARK    8  A    between atoms: N32_16  and  C33_26 
REMARK    9  A    between atoms: S9_17  and  C27_19 
REMARK   10  A    between atoms: C33_26  and  C34_27 
ROOT
ATOM      1  C23 G0G d   1      12.309 -20.104 -18.138  0.00  0.00     0.068 C 
ATOM      2  C21 G0G d   1      13.690 -19.765 -18.768  0.00  0.00     0.103 C 
ATOM      3  N22 G0G d   1      13.924 -18.310 -18.630  0.00  0.00    -0.071 N 
ATOM      4  C25 G0G d   1      12.615 -17.652 -18.344  0.00  0.00     0.103 C 
ATOM      5  C24 G0G d   1      11.753 -18.705 -17.619  0.00  0.00     0.068 C 
ATOM      6  H8  G0G d   1      12.459 -20.752 -17.262  0.00  0.00     0.079 H 
ATOM      7  H9  G0G d   1      13.690 -20.042 -19.833  0.00  0.00     0.079 H 
ATOM      8  H10 G0G d   1      14.483 -20.320 -18.245  0.00  0.00     0.079 H 
ATOM      9  H11 G0G d   1      14.310 -17.944 -19.486  0.00  0.00     0.277 HD
ATOM     10  H12 G0G d   1      14.565 -18.138 -17.872  0.00  0.00     0.277 HD
ATOM     11  H13 G0G d   1      12.131 -17.343 -19.282  0.00  0.00     0.079 H 
ATOM     12  H14 G0G d   1      12.763 -16.772 -17.701  0.00  0.00     0.079 H 
ATOM     13  H15 G0G d   1      10.684 -18.560 -17.835  0.00  0.00     0.079 H 
ENDROOT
BRANCH   1  14
ATOM     14  N28 G0G d   1      11.472 -20.868 -19.094  0.00  0.00    -0.294 N 
BRANCH  14  15
ATOM     15  S8  G0G d   1      11.149 -22.544 -18.779  0.00  0.00     0.261 S 
ATOM     16  O10 G0G d   1      11.241 -22.817 -17.360  0.00  0.00    -0.200 OA
ATOM     17  O41 G0G d   1       9.952 -22.913 -19.553  0.00  0.00    -0.200 OA
BRANCH  15  18
ATOM     18  C26 G0G d   1      12.561 -23.161 -19.671  0.00  0.00     0.079 A 
ATOM     19  C19 G0G d   1      13.733 -23.529 -18.945  0.00  0.00    -0.060 A 
ATOM     20  C3  G0G d   1      14.900 -23.994 -19.650  0.00  0.00    -0.082 A 
ATOM     21  H28 G0G d   1      13.745 -23.459 -17.863  0.00  0.00     0.085 H 
ATOM     22  C4  G0G d   1      14.856 -24.099 -21.065  0.00  0.00    -0.083 A 
ATOM     23  H29 G0G d   1      15.800 -24.260 -19.107  0.00  0.00     0.083 H 
ATOM     24  C1  G0G d   1      13.670 -23.748 -21.787  0.00  0.00    -0.082 A 
ATOM     25  H30 G0G d   1      15.729 -24.448 -21.605  0.00  0.00     0.083 H 
ATOM     26  C17 G0G d   1      12.521 -23.307 -21.081  0.00  0.00    -0.060 A 
ATOM     27  H31 G0G d   1      13.650 -23.819 -22.869  0.00  0.00     0.083 H 
ATOM     28  H32 G0G d   1      11.609 -23.081 -21.622  0.00  0.00     0.085 H 
ENDBRANCH  15  18
ENDBRANCH  14  15
BRANCH  14  29
ATOM     29  C7  G0G d   1      10.950 -20.315 -20.360  0.00  0.00     0.029 C 
ATOM     30  H1  G0G d   1      10.758 -21.158 -21.040  0.00  0.00     0.072 H 
ATOM     31  H2  G0G d   1      11.729 -19.668 -20.789  0.00  0.00     0.072 H 
BRANCH  29  32
ATOM     32  C12 G0G d   1       9.667 -19.496 -20.263  0.00  0.00    -0.040 A 
ATOM     33  C13 G0G d   1       8.658 -19.786 -19.304  0.00  0.00    -0.075 A 
ATOM     34  C29 G0G d   1       7.462 -19.021 -19.251  0.00  0.00    -0.082 A 
ATOM     35  H3  G0G d   1       8.803 -20.601 -18.604  0.00  0.00     0.084 H 
ATOM     36  C31 G0G d   1       7.283 -17.928 -20.144  0.00  0.00    -0.083 A 
ATOM     37  H4  G0G d   1       6.689 -19.269 -18.533  0.00  0.00     0.083 H 
ATOM     38  C30 G0G d   1       8.282 -17.645 -21.113  0.00  0.00    -0.082 A 
ATOM     39  H5  G0G d   1       6.391 -17.316 -20.085  0.00  0.00     0.083 H 
ATOM     40  C14 G0G d   1       9.483 -18.389 -21.137  0.00  0.00    -0.075 A 
ATOM     41  H6  G0G d   1       8.122 -16.855 -21.837  0.00  0.00     0.083 H 
ATOM     42  H7  G0G d   1      10.271 -18.114 -21.828  0.00  0.00     0.084 H 
ENDBRANCH  29  32
ENDBRANCH  14  29
ENDBRANCH   1  14
BRANCH   5  43
ATOM     43  N32 G0G d   1      12.014 -18.749 -16.113  0.00  0.00    -0.294 N 
BRANCH  43  44
ATOM     44  S9  G0G d   1      10.649 -19.078 -15.171  0.00  0.00     0.261 S 
ATOM     45  O11 G0G d   1       9.887 -20.202 -15.728  0.00  0.00    -0.200 OA
ATOM     46  O40 G0G d   1      11.080 -19.176 -13.760  0.00  0.00    -0.200 OA
BRANCH  44  47
ATOM     47  C27 G0G d   1       9.674 -17.636 -15.048  0.00  0.00     0.079 A 
ATOM     48  C18 G0G d   1       8.347 -17.665 -15.588  0.00  0.00    -0.060 A 
ATOM     49  C2  G0G d   1       7.495 -16.534 -15.493  0.00  0.00    -0.082 A 
ATOM     50  H16 G0G d   1       7.989 -18.564 -16.076  0.00  0.00     0.085 H 
ATOM     51  C6  G0G d   1       7.983 -15.359 -14.891  0.00  0.00    -0.083 A 
ATOM     52  H17 G0G d   1       6.483 -16.575 -15.879  0.00  0.00     0.083 H 
ATOM     53  C5  G0G d   1       9.299 -15.337 -14.343  0.00  0.00    -0.082 A 
ATOM     54  H18 G0G d   1       7.360 -14.473 -14.844  0.00  0.00     0.083 H 
ATOM     55  C20 G0G d   1      10.167 -16.459 -14.432  0.00  0.00    -0.060 A 
ATOM     56  H19 G0G d   1       9.647 -14.440 -13.845  0.00  0.00     0.083 H 
ATOM     57  H20 G0G d   1      11.177 -16.416 -14.040  0.00  0.00     0.085 H 
ENDBRANCH  44  47
ENDBRANCH  43  44
BRANCH  43  58
ATOM     58  C33 G0G d   1      13.330 -18.599 -15.419  0.00  0.00     0.029 C 
ATOM     59  H21 G0G d   1      13.147 -18.203 -14.409  0.00  0.00     0.072 H 
ATOM     60  H22 G0G d   1      13.943 -17.884 -15.988  0.00  0.00     0.072 H 
BRANCH  58  61
ATOM     61  C34 G0G d   1      14.116 -19.916 -15.289  0.00  0.00    -0.040 C 
ATOM     62  C35 G0G d   1      13.465 -21.102 -14.865  0.00  0.00    -0.075 C 
ATOM     63  C36 G0G d   1      14.247 -22.288 -14.755  0.00  0.00    -0.082 C 
ATOM     64  H23 G0G d   1      12.406 -21.106 -14.632  0.00  0.00     0.084 H 
ATOM     65  C37 G0G d   1      15.625 -22.309 -15.109  0.00  0.00    -0.083 C 
ATOM     66  H24 G0G d   1      13.780 -23.197 -14.393  0.00  0.00     0.083 H 
ATOM     67  C39 G0G d   1      16.303 -21.103 -15.474  0.00  0.00    -0.082 C 
ATOM     68  H25 G0G d   1      16.166 -23.248 -15.102  0.00  0.00     0.083 H 
ATOM     69  C38 G0G d   1      15.504 -19.941 -15.625  0.00  0.00    -0.075 C 
ATOM     70  H26 G0G d   1      17.376 -21.079 -15.628  0.00  0.00     0.083 H 
ATOM     71  H27 G0G d   1      15.964 -19.038 -16.010  0.00  0.00     0.084 H 
ENDBRANCH  58  61
ENDBRANCH  43  58
ENDBRANCH   5  43
TORSDOF 10
