REMARK  15 active torsions:
REMARK  status: ('A' for Active; 'I' for Inactive)
REMARK       I    between atoms: C25_2  and  N27_3 
REMARK    1  A    between atoms: C25_2  and  C24_5 
REMARK    2  A    between atoms: N27_3  and  C28_4 
REMARK    3  A    between atoms: C24_5  and  C23_6 
REMARK    4  A    between atoms: C23_6  and  C21_7 
REMARK       I    between atoms: C21_7  and  N20_9 
REMARK    5  A    between atoms: N20_9  and  C19_10 
REMARK    6  A    between atoms: C19_10  and  C32_11 
REMARK    7  A    between atoms: C19_10  and  C17_18 
REMARK    8  A    between atoms: C32_11  and  C38_12 
REMARK    9  A    between atoms: C17_18  and  O18_19 
REMARK   10  A    between atoms: C17_18  and  C16_20 
REMARK   11  A    between atoms: C16_20  and  N11_21 
REMARK   12  A    between atoms: N11_21  and  C12_22 
REMARK   13  A    between atoms: N11_21  and  S8_26 
REMARK   14  A    between atoms: C12_22  and  C13_23 
REMARK   15  A    between atoms: S8_26  and  C5_29 
ROOT
ATOM      1  C19 MUV d   1      19.636  28.988  14.345  0.00  0.00     0.042 C 
ATOM      2  H10 MUV d   1      19.485  29.913  13.769  0.00  0.00     0.077 H 
ENDROOT
BRANCH   1   3
ATOM      3  N20 MUV d   1      20.732  28.214  13.766  0.00  0.00    -0.354 N 
ATOM      4  C21 MUV d   1      21.523  28.639  12.780  0.00  0.00     0.218 C 
ATOM      5  O22 MUV d   1      21.395  29.730  12.246  0.00  0.00    -0.274 OA
ATOM      6  H9  MUV d   1      20.901  27.300  14.136  0.00  0.00     0.163 HD
BRANCH   4   7
ATOM      7  C23 MUV d   1      22.617  27.709  12.278  0.00  0.00     0.017 C 
ATOM      8  H7  MUV d   1      23.358  28.269  11.688  0.00  0.00     0.047 H 
ATOM      9  H8  MUV d   1      23.119  27.213  13.122  0.00  0.00     0.047 H 
BRANCH   7  10
ATOM     10  C24 MUV d   1      21.907  26.688  11.408  0.00  0.00     0.017 C 
ATOM     11  H5  MUV d   1      21.193  26.118  12.020  0.00  0.00     0.047 H 
ATOM     12  H6  MUV d   1      21.367  27.206  10.601  0.00  0.00     0.047 H 
BRANCH  10  13
ATOM     13  C25 MUV d   1      22.925  25.741  10.807  0.00  0.00     0.217 C 
ATOM     14  O26 MUV d   1      23.679  25.125  11.556  0.00  0.00    -0.274 OA
ATOM     15  N27 MUV d   1      22.947  25.590   9.479  0.00  0.00    -0.365 N 
ATOM     16  H1  MUV d   1      22.314  26.132   8.926  0.00  0.00     0.161 HD
BRANCH  15  17
ATOM     17  C28 MUV d   1      23.849  24.674   8.803  0.00  0.00    -0.018 C 
ATOM     18  H2  MUV d   1      23.680  24.727   7.717  0.00  0.00     0.056 H 
ATOM     19  H3  MUV d   1      23.661  23.648   9.154  0.00  0.00     0.056 H 
ATOM     20  H4  MUV d   1      24.890  24.953   9.026  0.00  0.00     0.056 H 
ENDBRANCH  15  17
ENDBRANCH  10  13
ENDBRANCH   7  10
ENDBRANCH   4   7
ENDBRANCH   1   3
BRANCH   1  21
ATOM     21  C32 MUV d   1      18.370  28.131  14.254  0.00  0.00    -0.020 C 
ATOM     22  H11 MUV d   1      17.515  28.696  14.653  0.00  0.00     0.043 H 
ATOM     23  H12 MUV d   1      18.507  27.211  14.841  0.00  0.00     0.043 H 
BRANCH  21  24
ATOM     24  C38 MUV d   1      18.104  27.770  12.798  0.00  0.00    -0.056 A 
ATOM     25  C37 MUV d   1      17.565  28.716  11.931  0.00  0.00    -0.077 A 
ATOM     26  C36 MUV d   1      17.320  28.392  10.595  0.00  0.00    -0.082 A 
ATOM     27  H13 MUV d   1      17.334  29.710  12.295  0.00  0.00     0.084 H 
ATOM     28  C35 MUV d   1      17.620  27.118  10.123  0.00  0.00    -0.083 A 
ATOM     29  H14 MUV d   1      16.896  29.133   9.926  0.00  0.00     0.083 H 
ATOM     30  C34 MUV d   1      18.149  26.171  10.990  0.00  0.00    -0.082 A 
ATOM     31  H15 MUV d   1      17.442  26.866   9.084  0.00  0.00     0.083 H 
ATOM     32  C33 MUV d   1      18.392  26.497  12.318  0.00  0.00    -0.077 A 
ATOM     33  H16 MUV d   1      18.373  25.174  10.629  0.00  0.00     0.083 H 
ATOM     34  H17 MUV d   1      18.810  25.753  12.986  0.00  0.00     0.084 H 
ENDBRANCH  21  24
ENDBRANCH   1  21
BRANCH   1  35
ATOM     35  C17 MUV d   1      20.007  29.358  15.791  0.00  0.00     0.067 C 
ATOM     36  H18 MUV d   1      21.015  29.797  15.771  0.00  0.00     0.088 H 
BRANCH  35  37
ATOM     37  O18 MUV d   1      20.051  28.188  16.618  0.00  0.00    -0.392 OA
ATOM     38  H19 MUV d   1      19.199  27.769  16.617  0.00  0.00     0.210 HD
ENDBRANCH  35  37
BRANCH  35  39
ATOM     39  C16 MUV d   1      19.058  30.405  16.395  0.00  0.00     0.019 C 
ATOM     40  H20 MUV d   1      19.230  30.489  17.478  0.00  0.00     0.061 H 
ATOM     41  H21 MUV d   1      18.012  30.117  16.211  0.00  0.00     0.061 H 
BRANCH  39  42
ATOM     42  N11 MUV d   1      19.353  31.699  15.731  0.00  0.00    -0.202 NA
BRANCH  42  43
ATOM     43  C12 MUV d   1      20.095  32.644  16.588  0.00  0.00    -0.003 C 
ATOM     44  H22 MUV d   1      19.645  32.671  17.591  0.00  0.00     0.058 H 
ATOM     45  H23 MUV d   1      20.066  33.651  16.146  0.00  0.00     0.058 H 
BRANCH  43  46
ATOM     46  C13 MUV d   1      21.544  32.158  16.680  0.00  0.00    -0.042 A 
ATOM     47  C14 MUV d   1      22.422  32.334  15.441  0.00  0.00    -0.060 A 
ATOM     48  C15 MUV d   1      22.632  33.231  16.652  0.00  0.00    -0.060 A 
ATOM     49  H25 MUV d   1      21.992  32.749  14.517  0.00  0.00     0.033 H 
ATOM     50  H26 MUV d   1      23.172  31.571  15.186  0.00  0.00     0.033 H 
ATOM     51  H27 MUV d   1      23.534  33.116  17.271  0.00  0.00     0.033 H 
ATOM     52  H28 MUV d   1      22.354  34.294  16.603  0.00  0.00     0.033 H 
ATOM     53  H24 MUV d   1      21.628  31.268  17.321  0.00  0.00     0.041 H 
ENDBRANCH  43  46
ENDBRANCH  42  43
BRANCH  42  54
ATOM     54  S8  MUV d   1      18.087  32.340  14.948  0.00  0.00     0.266 S 
ATOM     55  O9  MUV d   1      18.633  33.303  14.035  0.00  0.00    -0.204 OA
ATOM     56  O10 MUV d   1      17.416  31.288  14.259  0.00  0.00    -0.204 OA
BRANCH  54  57
ATOM     57  C5  MUV d   1      16.961  33.109  15.900  0.00  0.00     0.184 A 
ATOM     58  O4  MUV d   1      16.739  34.460  15.921  0.00  0.00    -0.310 OA
ATOM     59  C3  MUV d   1      15.693  34.658  16.819  0.00  0.00     0.020 A 
ATOM     60  C2  MUV d   1      15.289  33.423  17.325  0.00  0.00    -0.058 A 
ATOM     61  H29 MUV d   1      15.260  35.622  17.083  0.00  0.00     0.123 H 
ATOM     62  C1  MUV d   1      16.105  32.418  16.707  0.00  0.00    -0.036 A 
ATOM     63  H30 MUV d   1      14.499  33.253  18.055  0.00  0.00     0.086 H 
ATOM     64  H31 MUV d   1      16.053  31.340  16.851  0.00  0.00     0.088 H 
ENDBRANCH  54  57
ENDBRANCH  42  54
ENDBRANCH  39  42
ENDBRANCH  35  39
ENDBRANCH   1  35
TORSDOF 15
