REMARK  3 active torsions:
REMARK  status: ('A' for Active; 'I' for Inactive)
REMARK    1  A    between atoms: C1_1  and  C2_2 
REMARK    2  A    between atoms: C1_1  and  P_9 
REMARK       I    between atoms: C2_2  and  N3_3 
REMARK    3  A    between atoms: N3_3  and  O3_4 
ROOT
ATOM      1  C1  PAH d   1      11.658  28.113  36.318  0.00  0.00     0.114 C 
ATOM      2  H1  PAH d   1      11.493  27.032  36.438  0.00  0.00     0.068 H 
ATOM      3  H2  PAH d   1      11.249  28.441  35.351  0.00  0.00     0.068 H 
ENDROOT
BRANCH   1   4
ATOM      4  C2  PAH d   1      13.126  28.420  36.386  0.00  0.00     0.253 C 
ATOM      5  N3  PAH d   1      13.554  29.295  35.511  0.00  0.00    -0.237 N 
ATOM      6  H3  PAH d   1      12.884  29.689  34.882  0.00  0.00     0.197 HD
ATOM      7  O2  PAH d   1      13.888  27.838  37.163  0.00  0.00    -0.271 OA
BRANCH   5   8
ATOM      8  O3  PAH d   1      14.841  29.705  35.398  0.00  0.00    -0.287 OA
ATOM      9  H4  PAH d   1      15.395  28.957  35.205  0.00  0.00     0.244 HD
ENDBRANCH   5   8
ENDBRANCH   1   4
BRANCH   1  10
ATOM     10  P   PAH d   1      10.846  29.027  37.686  0.00  0.00     0.268 P 
ATOM     11  O1P PAH d   1      10.496  30.359  37.180  0.00  0.00    -0.639 OA
ATOM     12  O2P PAH d   1      11.829  29.088  38.776  0.00  0.00    -0.639 OA
ATOM     13  O3P PAH d   1       9.601  28.191  37.908  0.00  0.00    -0.639 OA
ENDBRANCH   1  10
TORSDOF 3
