REMARK  6 active torsions:
REMARK  status: ('A' for Active; 'I' for Inactive)
REMARK    1  A    between atoms: C2_8  and  C23_9 
REMARK    2  A    between atoms: N8_12  and  C12_15 
REMARK    3  A    between atoms: C12_15  and  C13_16 
REMARK    4  A    between atoms: C12_15  and  C16_19 
REMARK    5  A    between atoms: C16_19  and  C17_20 
REMARK    6  A    between atoms: C20_23  and  O26_24 
ROOT
ATOM      1  C12 DK2 d   1      24.783   6.501  16.994  0.00  0.00     0.110 C 
ATOM      2  H4  DK2 d   1      23.956   6.551  17.717  0.00  0.00     0.091 H 
ENDROOT
BRANCH   1   3
ATOM      3  N8  DK2 d   1      24.254   6.039  15.670  0.00  0.00    -0.264 N 
ATOM      4  C7  DK2 d   1      24.991   5.710  14.592  0.00  0.00     0.262 A 
ATOM      5  O11 DK2 d   1      26.287   5.726  14.578  0.00  0.00    -0.267 OA
ATOM      6  C5  DK2 d   1      24.183   5.326  13.412  0.00  0.00     0.048 A 
ATOM      7  C4  DK2 d   1      22.861   5.436  13.819  0.00  0.00     0.049 A 
ATOM      8  C6  DK2 d   1      24.512   4.911  12.139  0.00  0.00    -0.066 A 
ATOM      9  C3  DK2 d   1      21.812   5.148  12.950  0.00  0.00    -0.050 A 
ATOM     10  C9  DK2 d   1      22.970   5.891  15.241  0.00  0.00     0.262 A 
ATOM     11  C2  DK2 d   1      22.135   4.719  11.660  0.00  0.00     0.041 A 
ATOM     12  H1  DK2 d   1      20.780   5.253  13.264  0.00  0.00     0.086 H 
ATOM     13  C1  DK2 d   1      23.471   4.616  11.263  0.00  0.00    -0.065 A 
ATOM     14  H3  DK2 d   1      23.701   4.300  10.252  0.00  0.00     0.085 H 
ATOM     15  O10 DK2 d   1      21.932   6.114  15.970  0.00  0.00    -0.267 OA
ATOM     16  H2  DK2 d   1      25.547   4.817  11.831  0.00  0.00     0.085 H 
BRANCH  11  17
ATOM     17  C23 DK2 d   1      21.083   4.394  10.640  0.00  0.00     0.209 C 
ATOM     18  O24 DK2 d   1      21.365   4.638   9.437  0.00  0.00    -0.644 OA
ATOM     19  O25 DK2 d   1      19.976   3.891  10.969  0.00  0.00    -0.644 OA
ENDBRANCH  11  17
ENDBRANCH   1   3
BRANCH   1  20
ATOM     20  C13 DK2 d   1      25.820   5.551  17.510  0.00  0.00     0.197 C 
ATOM     21  O14 DK2 d   1      26.851   6.023  18.041  0.00  0.00    -0.646 OA
ATOM     22  O15 DK2 d   1      25.629   4.333  17.359  0.00  0.00    -0.646 OA
ENDBRANCH   1  20
BRANCH   1  23
ATOM     23  C16 DK2 d   1      25.386   7.906  16.815  0.00  0.00    -0.012 C 
ATOM     24  H5  DK2 d   1      26.207   7.869  16.084  0.00  0.00     0.044 H 
ATOM     25  H6  DK2 d   1      25.770   8.272  17.779  0.00  0.00     0.044 H 
BRANCH  23  26
ATOM     26  C17 DK2 d   1      24.296   8.828  16.314  0.00  0.00    -0.056 A 
ATOM     27  C18 DK2 d   1      24.150   9.061  14.942  0.00  0.00    -0.074 A 
ATOM     28  C19 DK2 d   1      23.125   9.893  14.490  0.00  0.00    -0.051 A 
ATOM     29  H7  DK2 d   1      24.829   8.598  14.235  0.00  0.00     0.084 H 
ATOM     30  C20 DK2 d   1      22.253  10.479  15.413  0.00  0.00     0.065 A 
ATOM     31  H8  DK2 d   1      23.005  10.084  13.430  0.00  0.00     0.087 H 
ATOM     32  C21 DK2 d   1      22.389  10.235  16.786  0.00  0.00    -0.051 A 
ATOM     33  C22 DK2 d   1      23.416   9.407  17.235  0.00  0.00    -0.074 A 
ATOM     34  H10 DK2 d   1      21.702  10.686  17.492  0.00  0.00     0.087 H 
ATOM     35  H11 DK2 d   1      23.533   9.212  18.295  0.00  0.00     0.084 H 
BRANCH  30  36
ATOM     36  O26 DK2 d   1      21.249  11.283  14.972  0.00  0.00    -0.361 OA
ATOM     37  H9  DK2 d   1      20.749  11.600  15.715  0.00  0.00     0.217 HD
ENDBRANCH  30  36
ENDBRANCH  23  26
ENDBRANCH   1  23
TORSDOF 6
