REMARK  30 active torsions:
REMARK  status: ('A' for Active; 'I' for Inactive)
REMARK    1  A    between atoms: N_1  and  CA_2 
REMARK    2  A    between atoms: CA_2  and  C_3 
REMARK    3  A    between atoms: CA_2  and  CB_5 
REMARK       I    between atoms: C_3  and  N_15 
REMARK    4  A    between atoms: CB_5  and  CG_6 
REMARK    5  A    between atoms: N_15  and  CA_16 
REMARK    6  A    between atoms: CA_16  and  C_17 
REMARK    7  A    between atoms: CA_16  and  CB_19 
REMARK       I    between atoms: C_17  and  N_24 
REMARK    8  A    between atoms: CB_19  and  CG_20 
REMARK    9  A    between atoms: CG_20  and  CD_21 
REMARK   10  A    between atoms: N_24  and  CA_25 
REMARK   11  A    between atoms: CA_25  and  C_26 
REMARK   12  A    between atoms: CA_25  and  CB_28 
REMARK       I    between atoms: C_26  and  N_36 
REMARK   13  A    between atoms: CB_28  and  CG_29 
REMARK   14  A    between atoms: CZ_34  and  OH_35 
REMARK   15  A    between atoms: N_36  and  CA_37 
REMARK   16  A    between atoms: CA_37  and  C_38 
REMARK   17  A    between atoms: CA_37  and  CB_40 
REMARK       I    between atoms: C_38  and  N_44 
REMARK   18  A    between atoms: CB_40  and  CG1_41 
REMARK   19  A    between atoms: CB_40  and  CG2_42 
REMARK   20  A    between atoms: CG1_41  and  CD1_43 
REMARK   21  A    between atoms: CA_45  and  C_46 
REMARK       I    between atoms: C_46  and  N_51 
REMARK   22  A    between atoms: N_51  and  CA_52 
REMARK   23  A    between atoms: CA_52  and  C_53 
REMARK   24  A    between atoms: CA_52  and  CB_55 
REMARK       I    between atoms: C_53  and  N_59 
REMARK   25  A    between atoms: CB_55  and  CG_56 
REMARK       I    between atoms: CG_56  and  ND2_58 
REMARK   26  A    between atoms: N_59  and  CA_60 
REMARK   27  A    between atoms: CA_60  and  C_61 
REMARK   28  A    between atoms: CA_60  and  CB_63 
REMARK   29  A    between atoms: CB_63  and  CG1_64 
REMARK   30  A    between atoms: CB_63  and  CG2_65 
ROOT
ATOM      1  C   TYR d   1      17.686 -17.862  -5.015  0.00  0.00     0.241 C 
ATOM      2  O   TYR d   1      17.820 -17.167  -6.030  0.00  0.00    -0.271 OA
ATOM      3  N   ILE d   1      16.789 -18.845  -4.925  0.00  0.00    -0.346 N 
ATOM      4  H28 ILE d   1      16.752 -19.388  -4.086  0.00  0.00     0.163 HD
ENDROOT
BRANCH   3   5
ATOM      5  CA  ILE d   1      15.854 -19.159  -6.013  0.00  0.00     0.092 C 
ATOM      6  H29 ILE d   1      15.945 -18.394  -6.798  0.00  0.00     0.088 H 
BRANCH   5   7
ATOM      7  C   ILE d   1      14.444 -19.137  -5.424  0.00  0.00     0.243 C 
ATOM      8  O   ILE d   1      14.114 -19.932  -4.551  0.00  0.00    -0.271 OA
ATOM      9  N   PRO d   1      13.598 -18.202  -5.873  0.00  0.00    -0.337 N 
ATOM     10  CA  PRO d   1      12.243 -18.150  -5.323  0.00  0.00     0.091 C 
ATOM     11  CD  PRO d   1      13.842 -17.090  -6.804  0.00  0.00    -0.001 C 
ATOM     12  CB  PRO d   1      11.688 -16.821  -5.860  0.00  0.00    -0.036 C 
ATOM     13  H39 PRO d   1      12.292 -18.114  -4.225  0.00  0.00     0.087 H 
ATOM     14  CG  PRO d   1      12.435 -16.620  -7.117  0.00  0.00    -0.048 C 
ATOM     15  H40 PRO d   1      11.880 -16.000  -5.153  0.00  0.00     0.036 H 
ATOM     16  H41 PRO d   1      10.607 -16.895  -6.052  0.00  0.00     0.036 H 
ATOM     17  H42 PRO d   1      12.435 -15.558  -7.403  0.00  0.00     0.035 H 
ATOM     18  H43 PRO d   1      11.997 -17.219  -7.929  0.00  0.00     0.035 H 
ATOM     19  H44 PRO d   1      14.358 -17.436  -7.712  0.00  0.00     0.064 H 
ATOM     20  H45 PRO d   1      14.432 -16.293  -6.328  0.00  0.00     0.064 H 
BRANCH  10  21
ATOM     21  C   PRO d   1      11.390 -19.342  -5.709  0.00  0.00     0.241 C 
ATOM     22  O   PRO d   1      11.619 -20.016  -6.718  0.00  0.00    -0.271 OA
ATOM     23  N   ASN d   1      10.401 -19.603  -4.868  0.00  0.00    -0.346 N 
ATOM     24  H46 ASN d   1      10.296 -19.040  -4.048  0.00  0.00     0.163 HD
BRANCH  23  25
ATOM     25  CA  ASN d   1       9.470 -20.681  -5.106  0.00  0.00     0.097 C 
ATOM     26  H47 ASN d   1      10.010 -21.574  -5.453  0.00  0.00     0.088 H 
BRANCH  25  27
ATOM     27  C   ASN d   1       8.484 -20.218  -6.171  0.00  0.00     0.241 C 
ATOM     28  O   ASN d   1       8.211 -19.009  -6.302  0.00  0.00    -0.271 OA
ATOM     29  N   VAL d   1       7.966 -21.157  -6.952  0.00  0.00    -0.344 N 
ATOM     30  H52 VAL d   1       8.262 -22.106  -6.848  0.00  0.00     0.163 HD
BRANCH  29  31
ATOM     31  CA  VAL d   1       6.969 -20.818  -7.960  0.00  0.00     0.099 C 
ATOM     32  H53 VAL d   1       6.619 -19.790  -7.783  0.00  0.00     0.090 H 
BRANCH  31  33
ATOM     33  C   VAL d   1       5.803 -21.784  -7.794  0.00  0.00     0.197 C 
ATOM     34  O   VAL d   1       5.988 -22.817  -7.103  0.00  0.00    -0.646 OA
ATOM     35  OXT VAL d   1       4.724 -21.507  -8.350  0.00  0.00    -0.646 OA
ENDBRANCH  31  33
BRANCH  31  36
ATOM     36  CB  VAL d   1       7.539 -20.901  -9.417  0.00  0.00    -0.032 C 
ATOM     37  H54 VAL d   1       6.738 -20.631 -10.121  0.00  0.00     0.042 H 
BRANCH  36  38
ATOM     38  CG1 VAL d   1       8.678 -19.913  -9.580  0.00  0.00    -0.071 C 
ATOM     39  H55 VAL d   1       9.074 -19.976 -10.604  0.00  0.00     0.028 H 
ATOM     40  H56 VAL d   1       9.477 -20.153  -8.863  0.00  0.00     0.028 H 
ATOM     41  H57 VAL d   1       8.309 -18.894  -9.391  0.00  0.00     0.028 H 
ENDBRANCH  36  38
BRANCH  36  42
ATOM     42  CG2 VAL d   1       8.007 -22.314  -9.742  0.00  0.00    -0.071 C 
ATOM     43  H58 VAL d   1       7.169 -23.015  -9.618  0.00  0.00     0.028 H 
ATOM     44  H59 VAL d   1       8.824 -22.595  -9.061  0.00  0.00     0.028 H 
ATOM     45  H60 VAL d   1       8.366 -22.351 -10.781  0.00  0.00     0.028 H 
ENDBRANCH  36  42
ENDBRANCH  31  36
ENDBRANCH  29  31
ENDBRANCH  25  27
BRANCH  25  46
ATOM     46  CB  ASN d   1       8.706 -21.008  -3.822  0.00  0.00     0.036 C 
ATOM     47  H48 ASN d   1       7.849 -21.650  -4.075  0.00  0.00     0.051 H 
ATOM     48  H49 ASN d   1       8.342 -20.069  -3.379  0.00  0.00     0.051 H 
BRANCH  46  49
ATOM     49  CG  ASN d   1       9.563 -21.724  -2.803  0.00  0.00     0.217 C 
ATOM     50  OD1 ASN d   1       9.605 -21.336  -1.639  0.00  0.00    -0.274 OA
ATOM     51  ND2 ASN d   1      10.251 -22.777  -3.236  0.00  0.00    -0.370 N 
ATOM     52  H50 ASN d   1      10.834 -23.288  -2.604  0.00  0.00     0.159 HD
ATOM     53  H51 ASN d   1      10.185 -23.058  -4.193  0.00  0.00     0.159 HD
ENDBRANCH  46  49
ENDBRANCH  25  46
ENDBRANCH  23  25
ENDBRANCH  10  21
ENDBRANCH   5   7
BRANCH   5  54
ATOM     54  CB  ILE d   1      16.110 -20.562  -6.645  0.00  0.00    -0.030 C 
ATOM     55  H30 ILE d   1      15.994 -21.331  -5.867  0.00  0.00     0.043 H 
BRANCH  54  56
ATOM     56  CG1 ILE d   1      17.535 -20.635  -7.213  0.00  0.00    -0.063 C 
ATOM     57  H31 ILE d   1      18.244 -20.431  -6.397  0.00  0.00     0.033 H 
ATOM     58  H32 ILE d   1      17.638 -19.863  -7.990  0.00  0.00     0.033 H 
BRANCH  56  59
ATOM     59  CD1 ILE d   1      17.883 -21.971  -7.822  0.00  0.00    -0.076 C 
ATOM     60  H36 ILE d   1      18.914 -21.942  -8.204  0.00  0.00     0.027 H 
ATOM     61  H37 ILE d   1      17.191 -22.188  -8.649  0.00  0.00     0.027 H 
ATOM     62  H38 ILE d   1      17.797 -22.756  -7.057  0.00  0.00     0.027 H 
ENDBRANCH  56  59
ENDBRANCH  54  56
BRANCH  54  63
ATOM     63  CG2 ILE d   1      15.100 -20.826  -7.764  0.00  0.00    -0.071 C 
ATOM     64  H33 ILE d   1      14.079 -20.774  -7.357  0.00  0.00     0.028 H 
ATOM     65  H34 ILE d   1      15.275 -21.826  -8.187  0.00  0.00     0.028 H 
ATOM     66  H35 ILE d   1      15.220 -20.068  -8.552  0.00  0.00     0.028 H 
ENDBRANCH  54  63
ENDBRANCH   5  54
ENDBRANCH   3   5
BRANCH   1  67
ATOM     67  CA  TYR d   1      18.575 -17.615  -3.797  0.00  0.00     0.093 C 
ATOM     68  H20 TYR d   1      18.501 -18.481  -3.122  0.00  0.00     0.088 H 
BRANCH  67  69
ATOM     69  N   TYR d   1      19.958 -17.459  -4.212  0.00  0.00    -0.346 N 
ATOM     70  C   GLU d   1      20.975 -17.754  -3.410  0.00  0.00     0.241 C 
ATOM     71  O   GLU d   1      20.823 -18.180  -2.267  0.00  0.00    -0.271 OA
ATOM     72  H19 TYR d   1      20.151 -17.118  -5.132  0.00  0.00     0.163 HD
BRANCH  70  73
ATOM     73  CA  GLU d   1      22.363 -17.542  -3.996  0.00  0.00     0.090 C 
ATOM     74  H14 GLU d   1      23.063 -18.262  -3.547  0.00  0.00     0.087 H 
BRANCH  73  75
ATOM     75  N   GLU d   1      22.292 -17.764  -5.432  0.00  0.00    -0.346 N 
ATOM     76  C   TRP d   1      22.376 -18.988  -5.934  0.00  0.00     0.249 C 
ATOM     77  O   TRP d   1      22.528 -19.999  -5.224  0.00  0.00    -0.271 OA
ATOM     78  H13 GLU d   1      22.178 -16.984  -6.048  0.00  0.00     0.163 HD
BRANCH  76  79
ATOM     79  CA  TRP d   1      22.263 -19.106  -7.439  0.00  0.00     0.179 C 
ATOM     80  H4  TRP d   1      22.536 -18.143  -7.896  0.00  0.00     0.099 H 
BRANCH  79  81
ATOM     81  N   TRP d   1      23.187 -20.159  -7.952  0.00  0.00    -0.066 N 
ATOM     82  H1  TRP d   1      23.099 -20.224  -8.954  0.00  0.00     0.275 HD
ATOM     83  H2  TRP d   1      22.950 -21.046  -7.536  0.00  0.00     0.275 HD
ATOM     84  H3  TRP d   1      24.136 -19.919  -7.713  0.00  0.00     0.275 HD
ENDBRANCH  79  81
BRANCH  79  85
ATOM     85  CB  TRP d   1      20.810 -19.441  -7.807  0.00  0.00    -0.004 C 
ATOM     86  H5  TRP d   1      20.152 -18.675  -7.370  0.00  0.00     0.044 H 
ATOM     87  H6  TRP d   1      20.559 -20.425  -7.384  0.00  0.00     0.044 H 
BRANCH  85  88
ATOM     88  CG  TRP d   1      20.578 -19.483  -9.267  0.00  0.00    -0.028 A 
ATOM     89  CD1 TRP d   1      20.420 -20.599 -10.049  0.00  0.00    -0.015 A 
ATOM     90  NE1 TRP d   1      20.326 -20.236 -11.372  0.00  0.00    -0.365 N 
ATOM     91  H7  TRP d   1      20.376 -21.622  -9.677  0.00  0.00     0.112 H 
ATOM     92  CE2 TRP d   1      20.415 -18.867 -11.464  0.00  0.00     0.042 A 
ATOM     93  H8  TRP d   1      20.208 -20.884 -12.164  0.00  0.00     0.165 HD
ATOM     94  CD2 TRP d   1      20.572 -18.362 -10.157  0.00  0.00    -0.002 A 
ATOM     95  CZ2 TRP d   1      20.376 -18.039 -12.586  0.00  0.00    -0.056 A 
ATOM     96  CE3 TRP d   1      20.688 -16.972  -9.972  0.00  0.00    -0.070 A 
ATOM     97  CZ3 TRP d   1      20.648 -16.145 -11.084  0.00  0.00    -0.082 A 
ATOM     98  H9  TRP d   1      20.806 -16.555  -8.978  0.00  0.00     0.084 H 
ATOM     99  CH2 TRP d   1      20.495 -16.680 -12.378  0.00  0.00    -0.081 A 
ATOM    100  H11 TRP d   1      20.736 -15.072 -10.956  0.00  0.00     0.083 H 
ATOM    101  H12 TRP d   1      20.470 -16.009 -13.229  0.00  0.00     0.083 H 
ATOM    102  H10 TRP d   1      20.257 -18.447 -13.583  0.00  0.00     0.086 H 
ENDBRANCH  85  88
ENDBRANCH  79  85
ENDBRANCH  76  79
ENDBRANCH  73  75
BRANCH  73 103
ATOM    103  CB  GLU d   1      22.854 -16.125  -3.713  0.00  0.00    -0.029 C 
ATOM    104  H15 GLU d   1      22.146 -15.418  -4.169  0.00  0.00     0.037 H 
ATOM    105  H16 GLU d   1      23.843 -16.004  -4.178  0.00  0.00     0.037 H 
BRANCH 103 106
ATOM    106  CG  GLU d   1      22.978 -15.789  -2.243  0.00  0.00     0.018 C 
ATOM    107  H17 GLU d   1      21.972 -15.769  -1.798  0.00  0.00     0.049 H 
ATOM    108  H18 GLU d   1      23.443 -14.797  -2.144  0.00  0.00     0.049 H 
BRANCH 106 109
ATOM    109  CD  GLU d   1      23.821 -16.798  -1.495  0.00  0.00     0.172 C 
ATOM    110  OE1 GLU d   1      24.907 -17.157  -2.005  0.00  0.00    -0.648 OA
ATOM    111  OE2 GLU d   1      23.399 -17.224  -0.398  0.00  0.00    -0.648 OA
ENDBRANCH 106 109
ENDBRANCH 103 106
ENDBRANCH  73 103
ENDBRANCH  70  73
ENDBRANCH  67  69
BRANCH  67 112
ATOM    112  CB  TYR d   1      18.115 -16.363  -3.048  0.00  0.00    -0.014 C 
ATOM    113  H21 TYR d   1      18.533 -15.479  -3.552  0.00  0.00     0.043 H 
ATOM    114  H22 TYR d   1      18.496 -16.411  -2.017  0.00  0.00     0.043 H 
BRANCH 112 115
ATOM    115  CG  TYR d   1      16.619 -16.225  -3.000  0.00  0.00    -0.056 A 
ATOM    116  CD1 TYR d   1      15.827 -17.188  -2.374  0.00  0.00    -0.074 A 
ATOM    117  CE1 TYR d   1      14.440 -17.109  -2.423  0.00  0.00    -0.051 A 
ATOM    118  H23 TYR d   1      16.299 -18.007  -1.843  0.00  0.00     0.084 H 
ATOM    119  CZ  TYR d   1      13.847 -16.054  -3.100  0.00  0.00     0.065 A 
ATOM    120  H25 TYR d   1      13.830 -17.862  -1.938  0.00  0.00     0.087 H 
ATOM    121  CE2 TYR d   1      14.613 -15.084  -3.711  0.00  0.00    -0.051 A 
ATOM    122  CD2 TYR d   1      15.988 -15.175  -3.658  0.00  0.00    -0.074 A 
ATOM    123  H26 TYR d   1      14.139 -14.258  -4.228  0.00  0.00     0.087 H 
ATOM    124  H24 TYR d   1      16.589 -14.412  -4.139  0.00  0.00     0.084 H 
BRANCH 119 125
ATOM    125  OH  TYR d   1      12.484 -15.985  -3.227  0.00  0.00    -0.361 OA
ATOM    126  H27 TYR d   1      12.174 -15.164  -2.862  0.00  0.00     0.217 HD
ENDBRANCH 119 125
ENDBRANCH 112 115
ENDBRANCH  67 112
ENDBRANCH   1  67
TORSDOF 30
