REMARK  3 active torsions:
REMARK  status: ('A' for Active; 'I' for Inactive)
REMARK    1  A    between atoms: C09_9  and  N10_10 
REMARK    2  A    between atoms: N10_10  and  C11_11 
REMARK    3  A    between atoms: N17_17  and  C18_18 
ROOT
ATOM      1  N01 P19 d   1      19.613  10.424  19.149  0.00  0.00    -0.163 NA
ATOM      2  C02 P19 d   1      19.753  10.789  17.855  0.00  0.00     0.026 A 
ATOM      3  C03 P19 d   1      20.741   9.976  17.287  0.00  0.00    -0.017 A 
ATOM      4  C04 P19 d   1      21.184   9.093  18.346  0.00  0.00     0.189 A 
ATOM      5  N05 P19 d   1      20.467   9.404  19.466  0.00  0.00    -0.042 N 
ATOM      6  N06 P19 d   1      22.112   8.123  18.391  0.00  0.00    -0.042 NA
ATOM      7  C07 P19 d   1      22.292   7.501  19.551  0.00  0.00     0.744 A 
ATOM      8  N08 P19 d   1      21.602   7.791  20.652  0.00  0.00     0.131 NA
ATOM      9  C09 P19 d   1      20.682   8.752  20.600  0.00  0.00     0.745 A 
ATOM     10  N17 P19 d   1      23.247   6.533  19.593  0.00  0.00    -0.188 N 
ATOM     11  H1  P19 d   1      19.197  11.575  17.346  0.00  0.00     0.117 H 
ATOM     12  H2  P19 d   1      21.102  10.002  16.260  0.00  0.00     0.091 H 
ATOM     13  H9  P19 d   1      24.098   6.691  19.034  0.00  0.00     0.184 HD
ENDROOT
BRANCH  10  14
ATOM     14  C18 P19 d   1      23.183   5.376  20.304  0.00  0.00     0.049 A 
ATOM     15  C19 P19 d   1      22.507   5.257  21.520  0.00  0.00    -0.057 A 
ATOM     16  C20 P19 d   1      22.458   4.056  22.226  0.00  0.00    -0.081 A 
ATOM     17  H10 P19 d   1      22.004   6.126  21.928  0.00  0.00     0.086 H 
ATOM     18  C21 P19 d   1      23.104   2.941  21.699  0.00  0.00    -0.083 A 
ATOM     19  H11 P19 d   1      21.926   3.991  23.169  0.00  0.00     0.083 H 
ATOM     20  C22 P19 d   1      23.795   3.046  20.492  0.00  0.00    -0.081 A 
ATOM     21  H12 P19 d   1      23.070   1.994  22.225  0.00  0.00     0.083 H 
ATOM     22  C23 P19 d   1      23.835   4.254  19.796  0.00  0.00    -0.057 A 
ATOM     23  H13 P19 d   1      24.307   2.179  20.090  0.00  0.00     0.083 H 
ATOM     24  H14 P19 d   1      24.374   4.320  18.858  0.00  0.00     0.086 H 
ENDBRANCH  10  14
BRANCH   9  25
ATOM     25  N10 P19 d   1      19.968   9.061  21.714  0.00  0.00    -0.188 N 
ATOM     26  H3  P19 d   1      19.273   9.817  21.633  0.00  0.00     0.184 HD
BRANCH  25  27
ATOM     27  C11 P19 d   1      20.091   8.459  22.927  0.00  0.00     0.049 A 
ATOM     28  C12 P19 d   1      20.264   7.081  23.073  0.00  0.00    -0.057 A 
ATOM     29  C13 P19 d   1      20.334   6.479  24.329  0.00  0.00    -0.081 A 
ATOM     30  H4  P19 d   1      20.346   6.463  22.186  0.00  0.00     0.086 H 
ATOM     31  C14 P19 d   1      20.225   7.275  25.467  0.00  0.00    -0.083 A 
ATOM     32  H5  P19 d   1      20.471   5.407  24.418  0.00  0.00     0.083 H 
ATOM     33  C15 P19 d   1      20.071   8.655  25.334  0.00  0.00    -0.081 A 
ATOM     34  H6  P19 d   1      20.260   6.824  26.452  0.00  0.00     0.083 H 
ATOM     35  C16 P19 d   1      20.007   9.248  24.073  0.00  0.00    -0.057 A 
ATOM     36  H7  P19 d   1      20.000   9.274  26.221  0.00  0.00     0.083 H 
ATOM     37  H8  P19 d   1      19.892  10.322  23.984  0.00  0.00     0.086 H 
ENDBRANCH  25  27
ENDBRANCH   9  25
TORSDOF 3
