REMARK  4 active torsions:
REMARK  status: ('A' for Active; 'I' for Inactive)
REMARK    1  A    between atoms: C09_9  and  N10_10 
REMARK    2  A    between atoms: N10_10  and  C11_11 
REMARK    3  A    between atoms: N17_17  and  C18_18 
REMARK    4  A    between atoms: C18_18  and  C19_19 
ROOT
ATOM      1  N01 P44 d   1      20.115   9.589  19.749  0.00  0.00    -0.162 NA
ATOM      2  C02 P44 d   1      20.357   9.850  18.437  0.00  0.00     0.047 A 
ATOM      3  C03 P44 d   1      21.333   8.937  17.992  0.00  0.00     0.112 A 
ATOM      4  C04 P44 d   1      21.648   8.107  19.131  0.00  0.00     0.210 A 
ATOM      5  N05 P44 d   1      20.889   8.549  20.176  0.00  0.00    -0.041 N 
ATOM      6  N06 P44 d   1      22.496   7.079  19.296  0.00  0.00    -0.040 NA
ATOM      7  C07 P44 d   1      22.551   6.542  20.511  0.00  0.00     0.740 A 
ATOM      8  N08 P44 d   1      21.833   6.962  21.546  0.00  0.00     0.130 NA
ATOM      9  C09 P44 d   1      20.995   7.977  21.362  0.00  0.00     0.745 A 
ATOM     10  N17 P44 d   1      23.380   5.486  20.696  0.00  0.00    -0.222 N 
ATOM     11  C25 P44 d   1      21.959   8.859  16.705  0.00  0.00     0.105 C 
ATOM     12  N26 P44 d   1      22.540   8.859  15.702  0.00  0.00    -0.191 NA
ATOM     13  H1  P44 d   1      19.882  10.625  17.838  0.00  0.00     0.120 H 
ATOM     14  H8  P44 d   1      23.905   5.112  19.893  0.00  0.00     0.177 HD
ENDROOT
BRANCH   9  15
ATOM     15  N10 P44 d   1      20.238   8.454  22.383  0.00  0.00    -0.188 N 
ATOM     16  H2  P44 d   1      19.522   9.150  22.132  0.00  0.00     0.184 HD
BRANCH  15  17
ATOM     17  C11 P44 d   1      20.315   8.119  23.700  0.00  0.00     0.049 A 
ATOM     18  C12 P44 d   1      20.654   6.851  24.170  0.00  0.00    -0.057 A 
ATOM     19  C13 P44 d   1      20.644   6.559  25.533  0.00  0.00    -0.081 A 
ATOM     20  H3  P44 d   1      20.930   6.078  23.462  0.00  0.00     0.086 H 
ATOM     21  C14 P44 d   1      20.293   7.546  26.450  0.00  0.00    -0.083 A 
ATOM     22  H4  P44 d   1      20.909   5.566  25.878  0.00  0.00     0.083 H 
ATOM     23  C15 P44 d   1      19.987   8.825  25.991  0.00  0.00    -0.081 A 
ATOM     24  H5  P44 d   1      20.258   7.322  27.510  0.00  0.00     0.083 H 
ATOM     25  C16 P44 d   1      19.999   9.113  24.627  0.00  0.00    -0.057 A 
ATOM     26  H6  P44 d   1      19.737   9.604  26.702  0.00  0.00     0.083 H 
ATOM     27  H7  P44 d   1      19.762  10.114  24.285  0.00  0.00     0.086 H 
ENDBRANCH  15  17
ENDBRANCH   9  15
BRANCH  10  28
ATOM     28  C18 P44 d   1      23.545   4.867  22.008  0.00  0.00     0.013 C 
ATOM     29  H9  P44 d   1      23.417   5.636  22.784  0.00  0.00     0.065 H 
ATOM     30  H10 P44 d   1      24.557   4.442  22.077  0.00  0.00     0.065 H 
BRANCH  28  31
ATOM     31  C19 P44 d   1      22.524   3.754  22.242  0.00  0.00    -0.038 C 
ATOM     32  C20 P44 d   1      22.673   2.610  21.233  0.00  0.00    -0.060 C 
ATOM     33  C21 P44 d   1      21.568   1.572  21.464  0.00  0.00    -0.065 C 
ATOM     34  H12 P44 d   1      23.656   2.133  21.363  0.00  0.00     0.033 H 
ATOM     35  H13 P44 d   1      22.591   3.010  20.212  0.00  0.00     0.033 H 
ATOM     36  C22 P44 d   1      21.617   1.008  22.887  0.00  0.00    -0.065 C 
ATOM     37  H14 P44 d   1      21.697   0.747  20.748  0.00  0.00     0.033 H 
ATOM     38  H15 P44 d   1      20.590   2.049  21.302  0.00  0.00     0.033 H 
ATOM     39  C23 P44 d   1      21.498   2.143  23.913  0.00  0.00    -0.065 C 
ATOM     40  H16 P44 d   1      22.572   0.482  23.037  0.00  0.00     0.033 H 
ATOM     41  H17 P44 d   1      20.784   0.303  23.027  0.00  0.00     0.033 H 
ATOM     42  C24 P44 d   1      22.554   3.228  23.682  0.00  0.00    -0.060 C 
ATOM     43  H18 P44 d   1      21.630   1.726  24.922  0.00  0.00     0.033 H 
ATOM     44  H19 P44 d   1      20.498   2.595  23.830  0.00  0.00     0.033 H 
ATOM     45  H20 P44 d   1      22.362   4.064  24.371  0.00  0.00     0.033 H 
ATOM     46  H21 P44 d   1      23.549   2.806  23.886  0.00  0.00     0.033 H 
ATOM     47  H11 P44 d   1      21.530   4.197  22.082  0.00  0.00     0.042 H 
ENDBRANCH  28  31
ENDBRANCH  10  28
TORSDOF 4
