REMARK  4 active torsions:
REMARK  status: ('A' for Active; 'I' for Inactive)
REMARK    1  A    between atoms: C09_9  and  N10_10 
REMARK    2  A    between atoms: N10_10  and  C11_11 
REMARK    3  A    between atoms: N17_17  and  C18_18 
REMARK    4  A    between atoms: C18_18  and  C19_19 
ROOT
ATOM      1  N01 P45 d   1      20.120   9.496  19.763  0.00  0.00    -0.162 NA
ATOM      2  C02 P45 d   1      20.389   9.772  18.463  0.00  0.00     0.047 A 
ATOM      3  C03 P45 d   1      21.394   8.892  18.026  0.00  0.00     0.112 A 
ATOM      4  C04 P45 d   1      21.697   8.064  19.172  0.00  0.00     0.210 A 
ATOM      5  N05 P45 d   1      20.903   8.473  20.207  0.00  0.00    -0.041 N 
ATOM      6  N06 P45 d   1      22.553   7.051  19.374  0.00  0.00    -0.040 NA
ATOM      7  C07 P45 d   1      22.582   6.502  20.583  0.00  0.00     0.740 A 
ATOM      8  N08 P45 d   1      21.825   6.886  21.607  0.00  0.00     0.130 NA
ATOM      9  C09 P45 d   1      20.980   7.891  21.394  0.00  0.00     0.745 A 
ATOM     10  N17 P45 d   1      23.451   5.482  20.778  0.00  0.00    -0.218 N 
ATOM     11  C25 P45 d   1      21.988   8.867  16.723  0.00  0.00     0.105 C 
ATOM     12  N26 P45 d   1      22.492   8.946  15.682  0.00  0.00    -0.191 NA
ATOM     13  H1  P45 d   1      19.909  10.543  17.861  0.00  0.00     0.120 H 
ATOM     14  H8  P45 d   1      24.017   5.156  19.982  0.00  0.00     0.178 HD
ENDROOT
BRANCH   9  15
ATOM     15  N10 P45 d   1      20.211   8.343  22.417  0.00  0.00    -0.188 N 
ATOM     16  H2  P45 d   1      19.492   9.042  22.183  0.00  0.00     0.184 HD
BRANCH  15  17
ATOM     17  C11 P45 d   1      20.297   7.963  23.722  0.00  0.00     0.049 A 
ATOM     18  C12 P45 d   1      20.634   6.669  24.119  0.00  0.00    -0.057 A 
ATOM     19  C13 P45 d   1      20.612   6.293  25.462  0.00  0.00    -0.081 A 
ATOM     20  H3  P45 d   1      20.919   5.941  23.368  0.00  0.00     0.086 H 
ATOM     21  C14 P45 d   1      20.248   7.220  26.439  0.00  0.00    -0.083 A 
ATOM     22  H4  P45 d   1      20.878   5.281  25.746  0.00  0.00     0.083 H 
ATOM     23  C15 P45 d   1      19.958   8.530  26.055  0.00  0.00    -0.081 A 
ATOM     24  H5  P45 d   1      20.191   6.927  27.481  0.00  0.00     0.083 H 
ATOM     25  C16 P45 d   1      19.989   8.902  24.712  0.00  0.00    -0.057 A 
ATOM     26  H6  P45 d   1      19.706   9.266  26.809  0.00  0.00     0.083 H 
ATOM     27  H7  P45 d   1      19.773   9.927  24.433  0.00  0.00     0.086 H 
ENDBRANCH  15  17
ENDBRANCH   9  15
BRANCH  10  28
ATOM     28  C18 P45 d   1      23.617   4.826  22.071  0.00  0.00     0.033 C 
ATOM     29  H9  P45 d   1      23.558   5.596  22.854  0.00  0.00     0.072 H 
ATOM     30  H10 P45 d   1      24.613   4.359  22.091  0.00  0.00     0.072 H 
BRANCH  28  31
ATOM     31  C19 P45 d   1      22.594   3.760  22.385  0.00  0.00    -0.040 A 
ATOM     32  C20 P45 d   1      22.359   3.421  23.716  0.00  0.00    -0.074 A 
ATOM     33  C21 P45 d   1      21.436   2.426  24.033  0.00  0.00    -0.061 A 
ATOM     34  H11 P45 d   1      22.895   3.933  24.507  0.00  0.00     0.084 H 
ATOM     35  C22 P45 d   1      20.740   1.750  23.031  0.00  0.00     0.034 A 
ATOM     36  H12 P45 d   1      21.257   2.174  25.072  0.00  0.00     0.086 H 
ATOM     37  C23 P45 d   1      20.953   2.122  21.706  0.00  0.00    -0.061 A 
ATOM     38 CL27 P45 d   1      19.654   0.456  23.437  0.00  0.00    -0.084 Cl
ATOM     39  C24 P45 d   1      21.879   3.113  21.377  0.00  0.00    -0.074 A 
ATOM     40  H13 P45 d   1      20.391   1.634  20.918  0.00  0.00     0.086 H 
ATOM     41  H14 P45 d   1      22.043   3.380  20.339  0.00  0.00     0.084 H 
ENDBRANCH  28  31
ENDBRANCH  10  28
TORSDOF 4
