REMARK  5 active torsions:
REMARK  status: ('A' for Active; 'I' for Inactive)
REMARK    1  A    between atoms: C07_7  and  N17_17 
REMARK    2  A    between atoms: C09_9  and  N10_10 
REMARK    3  A    between atoms: N10_10  and  C11_11 
REMARK    4  A    between atoms: N20_20  and  C23_23 
REMARK    5  A    between atoms: C23_23  and  C24_24 
ROOT
ATOM      1  N01 P55 d   1      19.904   9.495  19.746  0.00  0.00    -0.162 NA
ATOM      2  C02 P55 d   1      20.196   9.728  18.444  0.00  0.00     0.047 A 
ATOM      3  C03 P55 d   1      21.195   8.824  18.037  0.00  0.00     0.112 A 
ATOM      4  C04 P55 d   1      21.478   8.019  19.208  0.00  0.00     0.210 A 
ATOM      5  N05 P55 d   1      20.674   8.474  20.214  0.00  0.00    -0.041 N 
ATOM      6  N06 P55 d   1      22.318   7.001  19.452  0.00  0.00    -0.040 NA
ATOM      7  C07 P55 d   1      22.310   6.497  20.684  0.00  0.00     0.742 A 
ATOM      8  N08 P55 d   1      21.542   6.932  21.678  0.00  0.00     0.130 NA
ATOM      9  C09 P55 d   1      20.716   7.939  21.422  0.00  0.00     0.745 A 
ATOM     10  C25 P55 d   1      21.811   8.764  16.744  0.00  0.00     0.105 C 
ATOM     11  N26 P55 d   1      22.310   8.809  15.698  0.00  0.00    -0.191 NA
ATOM     12  H1  P55 d   1      19.734  10.489  17.816  0.00  0.00     0.120 H 
ENDROOT
BRANCH   9  13
ATOM     13  N10 P55 d   1      19.917   8.461  22.386  0.00  0.00    -0.188 N 
ATOM     14  H2  P55 d   1      19.201   9.144  22.101  0.00  0.00     0.184 HD
BRANCH  13  15
ATOM     15  C11 P55 d   1      20.002   8.139  23.705  0.00  0.00     0.049 A 
ATOM     16  C12 P55 d   1      20.159   6.817  24.128  0.00  0.00    -0.057 A 
ATOM     17  C13 P55 d   1      20.127   6.485  25.480  0.00  0.00    -0.081 A 
ATOM     18  H3  P55 d   1      20.308   6.036  23.391  0.00  0.00     0.086 H 
ATOM     19  C14 P55 d   1      19.942   7.489  26.432  0.00  0.00    -0.083 A 
ATOM     20  H4  P55 d   1      20.245   5.453  25.791  0.00  0.00     0.083 H 
ATOM     21  C15 P55 d   1      19.849   8.818  26.020  0.00  0.00    -0.081 A 
ATOM     22  H5  P55 d   1      19.871   7.237  27.484  0.00  0.00     0.083 H 
ATOM     23  C16 P55 d   1      19.885   9.146  24.664  0.00  0.00    -0.057 A 
ATOM     24  H6  P55 d   1      19.748   9.604  26.760  0.00  0.00     0.083 H 
ATOM     25  H7  P55 d   1      19.822  10.183  24.356  0.00  0.00     0.086 H 
ENDBRANCH  13  15
ENDBRANCH   9  13
BRANCH   7  26
ATOM     26  N17 P55 d   1      23.166   5.402  20.961  0.00  0.00    -0.210 N 
ATOM     27  C18 P55 d   1      23.255   4.837  22.319  0.00  0.00     0.034 C 
ATOM     28  C19 P55 d   1      22.545   3.481  22.411  0.00  0.00     0.099 C 
ATOM     29  H8  P55 d   1      22.786   5.535  23.028  0.00  0.00     0.067 H 
ATOM     30  H9  P55 d   1      24.315   4.704  22.582  0.00  0.00     0.067 H 
ATOM     31  N20 P55 d   1      22.997   2.621  21.300  0.00  0.00    -0.068 N 
ATOM     32  H10 P55 d   1      21.457   3.630  22.342  0.00  0.00     0.078 H 
ATOM     33  H11 P55 d   1      22.790   3.002  23.370  0.00  0.00     0.078 H 
ATOM     34  C21 P55 d   1      22.832   3.184  19.950  0.00  0.00     0.099 C 
ATOM     35  H12 P55 d   1      23.992   2.537  21.434  0.00  0.00     0.280 HD
ATOM     36  C22 P55 d   1      23.520   4.542  19.817  0.00  0.00     0.034 C 
ATOM     37  H13 P55 d   1      21.759   3.306  19.743  0.00  0.00     0.078 H 
ATOM     38  H14 P55 d   1      23.270   2.489  19.218  0.00  0.00     0.078 H 
ATOM     39  H15 P55 d   1      24.610   4.397  19.794  0.00  0.00     0.067 H 
ATOM     40  H16 P55 d   1      23.195   5.025  18.884  0.00  0.00     0.067 H 
BRANCH  31  41
ATOM     41  C23 P55 d   1      22.474   1.245  21.343  0.00  0.00     0.080 C 
ATOM     42  H17 P55 d   1      22.785   0.776  22.288  0.00  0.00     0.075 H 
ATOM     43  H18 P55 d   1      22.894   0.679  20.498  0.00  0.00     0.075 H 
BRANCH  41  44
ATOM     44  C24 P55 d   1      20.945   1.208  21.252  0.00  0.00    -0.053 C 
ATOM     45  H19 P55 d   1      20.601   0.164  21.288  0.00  0.00     0.029 H 
ATOM     46  H20 P55 d   1      20.623   1.668  20.306  0.00  0.00     0.029 H 
ATOM     47  H21 P55 d   1      20.514   1.765  22.097  0.00  0.00     0.029 H 
ENDBRANCH  41  44
ENDBRANCH  31  41
ENDBRANCH   7  26
TORSDOF 5
