REMARK  5 active torsions:
REMARK  status: ('A' for Active; 'I' for Inactive)
REMARK    1  A    between atoms: C09_9  and  N10_10 
REMARK    2  A    between atoms: N10_10  and  C11_11 
REMARK    3  A    between atoms: C11_11  and  C12_12 
REMARK    4  A    between atoms: C12_12  and  C13_13 
REMARK    5  A    between atoms: N18_18  and  C19_19 
ROOT
ATOM      1  N01 P29 d   1      20.134   9.939  19.707  0.00  0.00    -0.162 NA
ATOM      2  C02 P29 d   1      20.439  10.035  18.386  0.00  0.00     0.047 A 
ATOM      3  C03 P29 d   1      21.407   9.065  18.066  0.00  0.00     0.112 A 
ATOM      4  C04 P29 d   1      21.665   8.355  19.300  0.00  0.00     0.210 A 
ATOM      5  N05 P29 d   1      20.876   8.932  20.252  0.00  0.00    -0.041 N 
ATOM      6  N06 P29 d   1      22.474   7.333  19.632  0.00  0.00    -0.040 NA
ATOM      7  C07 P29 d   1      22.466   6.929  20.901  0.00  0.00     0.744 A 
ATOM      8  N08 P29 d   1      21.711   7.483  21.843  0.00  0.00     0.130 NA
ATOM      9  C09 P29 d   1      20.919   8.491  21.495  0.00  0.00     0.741 A 
ATOM     10  N18 P29 d   1      23.221   5.892  21.351  0.00  0.00    -0.188 N 
ATOM     11  C25 P29 d   1      22.069   8.893  16.809  0.00  0.00     0.105 C 
ATOM     12  N26 P29 d   1      22.661   8.854  15.813  0.00  0.00    -0.191 NA
ATOM     13  H1  P29 d   1      20.004  10.748  17.687  0.00  0.00     0.120 H 
ATOM     14  H10 P29 d   1      23.207   5.742  22.370  0.00  0.00     0.184 HD
ENDROOT
BRANCH   9  15
ATOM     15  N10 P29 d   1      20.155   9.104  22.429  0.00  0.00    -0.222 N 
ATOM     16  H2  P29 d   1      19.565   9.901  22.150  0.00  0.00     0.177 HD
BRANCH  15  17
ATOM     17  C11 P29 d   1      20.144   8.666  23.823  0.00  0.00     0.014 C 
ATOM     18  H3  P29 d   1      20.214   7.569  23.853  0.00  0.00     0.065 H 
ATOM     19  H4  P29 d   1      19.201   8.986  24.291  0.00  0.00     0.065 H 
BRANCH  17  20
ATOM     20  C12 P29 d   1      21.314   9.260  24.607  0.00  0.00    -0.010 C 
ATOM     21  H5  P29 d   1      21.231  10.357  24.627  0.00  0.00     0.044 H 
ATOM     22  H6  P29 d   1      22.265   8.973  24.134  0.00  0.00     0.044 H 
BRANCH  20  23
ATOM     23  C13 P29 d   1      21.257   8.715  26.016  0.00  0.00     0.029 A 
ATOM     24  N14 P29 d   1      21.290   7.395  26.301  0.00  0.00    -0.353 N 
ATOM     25  C15 P29 d   1      21.222   7.288  27.657  0.00  0.00     0.063 A 
ATOM     26  H7  P29 d   1      21.354   6.621  25.625  0.00  0.00     0.166 HD
ATOM     27  N16 P29 d   1      21.146   8.532  28.212  0.00  0.00    -0.254 NA
ATOM     28  H8  P29 d   1      21.227   6.352  28.213  0.00  0.00     0.143 H 
ATOM     29  C17 P29 d   1      21.166   9.454  27.212  0.00  0.00     0.025 A 
ATOM     30  H9  P29 d   1      21.121  10.537  27.314  0.00  0.00     0.117 H 
ENDBRANCH  20  23
ENDBRANCH  17  20
ENDBRANCH  15  17
ENDBRANCH   9  15
BRANCH  10  31
ATOM     31  C19 P29 d   1      23.991   5.026  20.643  0.00  0.00     0.049 A 
ATOM     32  C20 P29 d   1      23.997   4.927  19.249  0.00  0.00    -0.057 A 
ATOM     33  C21 P29 d   1      24.819   4.016  18.589  0.00  0.00    -0.081 A 
ATOM     34  H11 P29 d   1      23.348   5.573  18.669  0.00  0.00     0.086 H 
ATOM     35  C22 P29 d   1      25.653   3.185  19.332  0.00  0.00    -0.083 A 
ATOM     36  H12 P29 d   1      24.809   3.955  17.507  0.00  0.00     0.083 H 
ATOM     37  C23 P29 d   1      25.650   3.267  20.723  0.00  0.00    -0.081 A 
ATOM     38  H13 P29 d   1      26.302   2.477  18.830  0.00  0.00     0.083 H 
ATOM     39  C24 P29 d   1      24.823   4.181  21.375  0.00  0.00    -0.057 A 
ATOM     40  H14 P29 d   1      26.295   2.616  21.302  0.00  0.00     0.083 H 
ATOM     41  H15 P29 d   1      24.827   4.235  22.458  0.00  0.00     0.086 H 
ENDBRANCH  10  31
TORSDOF 5
