REMARK  7 active torsions:
REMARK  status: ('A' for Active; 'I' for Inactive)
REMARK    1  A    between atoms: N_1  and  CA_2 
REMARK    2  A    between atoms: CA_2  and  C_3 
REMARK    3  A    between atoms: CA_2  and  CB_5 
REMARK    4  A    between atoms: CB_5  and  CG_6 
REMARK    5  A    between atoms: CG_6  and  CD_7 
REMARK    6  A    between atoms: CD_7  and  CE_8 
REMARK    7  A    between atoms: CE_8  and  NZ_9 
ROOT
ATOM      1  CG  LYS d   1     -11.142  22.235  13.420  0.00  0.00    -0.061 C 
ATOM      2  H7  LYS d   1     -10.941  22.786  12.489  0.00  0.00     0.033 H 
ATOM      3  H8  LYS d   1     -11.687  21.308  13.187  0.00  0.00     0.033 H 
ENDROOT
BRANCH   1   4
ATOM      4  CB  LYS d   1     -12.017  23.114  14.347  0.00  0.00    -0.029 C 
ATOM      5  H5  LYS d   1     -12.511  22.468  15.088  0.00  0.00     0.036 H 
ATOM      6  H6  LYS d   1     -11.370  23.837  14.865  0.00  0.00     0.036 H 
BRANCH   4   7
ATOM      7  CA  LYS d   1     -13.084  23.876  13.569  0.00  0.00     0.182 C 
ATOM      8  H4  LYS d   1     -13.691  24.468  14.270  0.00  0.00     0.101 H 
BRANCH   7   9
ATOM      9  N   LYS d   1     -13.973  22.919  12.830  0.00  0.00    -0.065 N 
ATOM     10  H1  LYS d   1     -14.422  22.301  13.488  0.00  0.00     0.275 HD
ATOM     11  H2  LYS d   1     -13.420  22.378  12.184  0.00  0.00     0.275 HD
ATOM     12  H3  LYS d   1     -14.674  23.435  12.322  0.00  0.00     0.275 HD
ENDBRANCH   7   9
BRANCH   7  13
ATOM     13  C   LYS d   1     -12.403  24.815  12.564  0.00  0.00     0.204 C 
ATOM     14  O   LYS d   1     -11.737  25.762  12.956  0.00  0.00    -0.646 OA
ATOM     15  OXT LYS d   1     -12.497  24.621  11.332  0.00  0.00    -0.646 OA
ENDBRANCH   7  13
ENDBRANCH   4   7
ENDBRANCH   1   4
BRANCH   1  16
ATOM     16  CD  LYS d   1      -9.799  21.873  14.089  0.00  0.00    -0.043 C 
ATOM     17  H9  LYS d   1      -9.964  21.672  15.158  0.00  0.00     0.035 H 
ATOM     18  H10 LYS d   1      -9.096  22.712  13.978  0.00  0.00     0.035 H 
BRANCH  16  19
ATOM     19  CE  LYS d   1      -9.218  20.634  13.424  0.00  0.00     0.080 C 
ATOM     20  H11 LYS d   1      -9.192  20.789  12.335  0.00  0.00     0.075 H 
ATOM     21  H12 LYS d   1      -9.856  19.768  13.656  0.00  0.00     0.075 H 
BRANCH  19  22
ATOM     22  NZ  LYS d   1      -7.771  20.352  13.933  0.00  0.00    -0.079 N 
ATOM     23  H13 LYS d   1      -7.410  19.528  13.478  0.00  0.00     0.274 HD
ATOM     24  H14 LYS d   1      -7.788  20.205  14.930  0.00  0.00     0.274 HD
ATOM     25  H15 LYS d   1      -7.180  21.140  13.719  0.00  0.00     0.274 HD
ENDBRANCH  19  22
ENDBRANCH  16  19
ENDBRANCH   1  16
TORSDOF 7
