REMARK  12 active torsions:
REMARK  status: ('A' for Active; 'I' for Inactive)
REMARK    1  A    between atoms: C6_2  and  N43_41 
REMARK    2  A    between atoms: C27_5  and  S9_7 
REMARK    3  A    between atoms: S9_7  and  N32_10 
REMARK    4  A    between atoms: N32_10  and  C33_11 
REMARK    5  A    between atoms: N32_10  and  C24_18 
REMARK    6  A    between atoms: C33_11  and  C34_12 
REMARK    7  A    between atoms: C23_22  and  N28_23 
REMARK    8  A    between atoms: N28_23  and  C7_24 
REMARK    9  A    between atoms: N28_23  and  S8_31 
REMARK   10  A    between atoms: C7_24  and  C12_25 
REMARK   11  A    between atoms: S8_31  and  C26_32 
REMARK   12  A    between atoms: C4_35  and  N42_40 
ROOT
ATOM      1  C24 G3G d   1     -16.031  20.248  -5.253  0.00  0.00     0.068 C 
ATOM      2  C25 G3G d   1     -14.639  19.794  -4.732  0.00  0.00     0.103 C 
ATOM      3  N22 G3G d   1     -14.603  18.310  -4.683  0.00  0.00    -0.071 N 
ATOM      4  C21 G3G d   1     -15.933  17.775  -5.067  0.00  0.00     0.103 C 
ATOM      5  C23 G3G d   1     -16.706  18.912  -5.775  0.00  0.00     0.068 C 
ATOM      6  H12 G3G d   1     -15.886  20.934  -6.100  0.00  0.00     0.079 H 
ATOM      7  H13 G3G d   1     -14.472  20.201  -3.724  0.00  0.00     0.079 H 
ATOM      8  H14 G3G d   1     -13.854  20.160  -5.410  0.00  0.00     0.079 H 
ATOM      9  H15 G3G d   1     -14.376  18.009  -3.748  0.00  0.00     0.277 HD
ATOM     10  H16 G3G d   1     -13.905  17.969  -5.325  0.00  0.00     0.277 HD
ATOM     11  H17 G3G d   1     -16.481  17.451  -4.170  0.00  0.00     0.079 H 
ATOM     12  H18 G3G d   1     -15.811  16.922  -5.750  0.00  0.00     0.079 H 
ATOM     13  H19 G3G d   1     -17.776  18.877  -5.522  0.00  0.00     0.079 H 
ENDROOT
BRANCH   1  14
ATOM     14  N32 G3G d   1     -16.873  20.970  -4.235  0.00  0.00    -0.294 N 
BRANCH  14  15
ATOM     15  S9  G3G d   1     -17.177  22.656  -4.533  0.00  0.00     0.261 S 
ATOM     16  O40 G3G d   1     -18.260  23.064  -3.658  0.00  0.00    -0.200 OA
ATOM     17  O11 G3G d   1     -17.031  22.969  -5.939  0.00  0.00    -0.200 OA
BRANCH  15  18
ATOM     18  C27 G3G d   1     -15.708  23.260  -3.717  0.00  0.00     0.079 A 
ATOM     19  C20 G3G d   1     -14.597  23.637  -4.515  0.00  0.00    -0.058 A 
ATOM     20  C5  G3G d   1     -13.420  24.161  -3.924  0.00  0.00    -0.056 A 
ATOM     21  H3  G3G d   1     -14.649  23.523  -5.592  0.00  0.00     0.086 H 
ATOM     22  C6  G3G d   1     -13.294  24.211  -2.518  0.00  0.00     0.025 A 
ATOM     23  H2  G3G d   1     -12.615  24.524  -4.552  0.00  0.00     0.086 H 
ATOM     24  C2  G3G d   1     -14.393  23.841  -1.717  0.00  0.00    -0.056 A 
ATOM     25  C18 G3G d   1     -15.598  23.379  -2.312  0.00  0.00    -0.058 A 
ATOM     26  H1  G3G d   1     -14.319  23.909  -0.638  0.00  0.00     0.086 H 
ATOM     27  H4  G3G d   1     -16.441  23.115  -1.683  0.00  0.00     0.086 H 
BRANCH  22  28
ATOM     28  N43 G3G d   1     -12.165  24.690  -1.954  0.00  0.00    -0.399 N 
ATOM     29  H33 G3G d   1     -12.076  24.725  -0.928  0.00  0.00     0.156 HD
ATOM     30  H34 G3G d   1     -11.392  25.020  -2.549  0.00  0.00     0.156 HD
ENDBRANCH  22  28
ENDBRANCH  15  18
ENDBRANCH  14  15
BRANCH  14  31
ATOM     31  C33 G3G d   1     -17.425  20.389  -2.979  0.00  0.00     0.029 C 
ATOM     32  H5  G3G d   1     -17.625  21.225  -2.293  0.00  0.00     0.072 H 
ATOM     33  H6  G3G d   1     -16.647  19.740  -2.550  0.00  0.00     0.072 H 
BRANCH  31  34
ATOM     34  C34 G3G d   1     -18.702  19.564  -3.072  0.00  0.00    -0.040 A 
ATOM     35  C38 G3G d   1     -18.841  18.407  -2.246  0.00  0.00    -0.075 A 
ATOM     36  C39 G3G d   1     -20.029  17.633  -2.251  0.00  0.00    -0.082 A 
ATOM     37  H7  G3G d   1     -18.020  18.114  -1.601  0.00  0.00     0.084 H 
ATOM     38  C37 G3G d   1     -21.055  17.989  -3.170  0.00  0.00    -0.083 A 
ATOM     39  H8  G3G d   1     -20.152  16.795  -1.575  0.00  0.00     0.083 H 
ATOM     40  C36 G3G d   1     -20.884  19.103  -4.045  0.00  0.00    -0.082 A 
ATOM     41  H9  G3G d   1     -21.971  17.411  -3.206  0.00  0.00     0.083 H 
ATOM     42  C35 G3G d   1     -19.721  19.918  -3.985  0.00  0.00    -0.075 A 
ATOM     43  H10 G3G d   1     -21.657  19.332  -4.770  0.00  0.00     0.083 H 
ATOM     44  H11 G3G d   1     -19.618  20.788  -4.623  0.00  0.00     0.084 H 
ENDBRANCH  31  34
ENDBRANCH  14  31
ENDBRANCH   1  14
BRANCH   5  45
ATOM     45  N28 G3G d   1     -16.522  18.833  -7.262  0.00  0.00    -0.294 N 
BRANCH  45  46
ATOM     46  C7  G3G d   1     -15.242  18.546  -7.959  0.00  0.00     0.029 C 
ATOM     47  H20 G3G d   1     -15.459  18.129  -8.954  0.00  0.00     0.072 H 
ATOM     48  H21 G3G d   1     -14.669  17.813  -7.372  0.00  0.00     0.072 H 
BRANCH  46  49
ATOM     49  C12 G3G d   1     -14.404  19.827  -8.122  0.00  0.00    -0.040 A 
ATOM     50  C14 G3G d   1     -13.004  19.808  -7.824  0.00  0.00    -0.075 A 
ATOM     51  C30 G3G d   1     -12.197  20.963  -7.981  0.00  0.00    -0.082 A 
ATOM     52  H22 G3G d   1     -12.550  18.889  -7.470  0.00  0.00     0.084 H 
ATOM     53  C31 G3G d   1     -12.818  22.181  -8.399  0.00  0.00    -0.083 A 
ATOM     54  H23 G3G d   1     -11.131  20.923  -7.788  0.00  0.00     0.083 H 
ATOM     55  C29 G3G d   1     -14.209  22.210  -8.704  0.00  0.00    -0.082 A 
ATOM     56  H24 G3G d   1     -12.228  23.086  -8.484  0.00  0.00     0.083 H 
ATOM     57  C13 G3G d   1     -15.011  21.038  -8.566  0.00  0.00    -0.075 A 
ATOM     58  H25 G3G d   1     -14.664  23.133  -9.045  0.00  0.00     0.083 H 
ATOM     59  H26 G3G d   1     -16.070  21.068  -8.796  0.00  0.00     0.084 H 
ENDBRANCH  46  49
ENDBRANCH  45  46
BRANCH  45  60
ATOM     60  S8  G3G d   1     -17.869  19.134  -8.235  0.00  0.00     0.261 S 
ATOM     61  O41 G3G d   1     -17.341  19.272  -9.613  0.00  0.00    -0.200 OA
ATOM     62  O10 G3G d   1     -18.568  20.314  -7.686  0.00  0.00    -0.200 OA
BRANCH  60  63
ATOM     63  C26 G3G d   1     -18.988  17.782  -8.217  0.00  0.00     0.079 A 
ATOM     64  C17 G3G d   1     -18.772  16.526  -8.850  0.00  0.00    -0.058 A 
ATOM     65  C1  G3G d   1     -19.744  15.485  -8.790  0.00  0.00    -0.056 A 
ATOM     66  H27 G3G d   1     -17.847  16.357  -9.390  0.00  0.00     0.086 H 
ATOM     67  C4  G3G d   1     -20.971  15.684  -8.065  0.00  0.00     0.025 A 
ATOM     68  H28 G3G d   1     -19.558  14.542  -9.291  0.00  0.00     0.086 H 
ATOM     69  C3  G3G d   1     -21.211  16.946  -7.433  0.00  0.00    -0.056 A 
ATOM     70  C19 G3G d   1     -20.213  17.961  -7.491  0.00  0.00    -0.058 A 
ATOM     71  H29 G3G d   1     -22.145  17.128  -6.914  0.00  0.00     0.086 H 
ATOM     72  H30 G3G d   1     -20.384  18.897  -6.971  0.00  0.00     0.086 H 
BRANCH  67  73
ATOM     73  N42 G3G d   1     -21.924  14.729  -7.983  0.00  0.00    -0.399 N 
ATOM     74  H31 G3G d   1     -21.775  13.813  -8.430  0.00  0.00     0.156 HD
ATOM     75  H32 G3G d   1     -22.799  14.917  -7.474  0.00  0.00     0.156 HD
ENDBRANCH  67  73
ENDBRANCH  60  63
ENDBRANCH  45  60
ENDBRANCH   5  45
TORSDOF 12
