REMARK  4 active torsions:
REMARK  status: ('A' for Active; 'I' for Inactive)
REMARK    1  A    between atoms: C2_2  and  O2_7 
REMARK    2  A    between atoms: C3_3  and  O3_8 
REMARK    3  A    between atoms: C4_4  and  O4_9 
REMARK    4  A    between atoms: C6_6  and  O6_10 
ROOT
ATOM      1  C1  CTS d   1      20.083  34.293 112.220  0.00  0.00     0.110 C 
ATOM      2  C2  CTS d   1      20.707  34.589 110.897  0.00  0.00     0.086 C 
ATOM      3  C3  CTS d   1      21.978  35.544 111.029  0.00  0.00     0.088 C 
ATOM      4  C4  CTS d   1      22.349  35.991 112.464  0.00  0.00     0.092 C 
ATOM      5  C5  CTS d   1      22.174  34.888 113.538  0.00  0.00     0.155 C 
ATOM      6  C6  CTS d   1      21.975  35.356 115.011  0.00  0.00     0.067 C 
ATOM      7  N   CTS d   1      21.037  33.992 113.287  0.00  0.00    -0.059 N 
ATOM      8  C7  CTS d   1      20.442  35.289 115.152  0.00  0.00    -0.016 C 
ATOM      9  C8  CTS d   1      20.273  33.886 114.533  0.00  0.00     0.086 C 
ATOM     10  H1  CTS d   1      19.417  33.425 112.100  0.00  0.00     0.080 H 
ATOM     11  H2  CTS d   1      19.492  35.169 112.525  0.00  0.00     0.080 H 
ATOM     12  H3  CTS d   1      19.967  35.114 110.275  0.00  0.00     0.089 H 
ATOM     13  H4  CTS d   1      22.842  35.024 110.589  0.00  0.00     0.091 H 
ATOM     14  H5  CTS d   1      21.688  36.830 112.728  0.00  0.00     0.090 H 
ATOM     15  H6  CTS d   1      23.096  34.290 113.503  0.00  0.00     0.092 H 
ATOM     16  H7  CTS d   1      22.451  34.640 115.698  0.00  0.00     0.086 H 
ATOM     17  H12 CTS d   1      21.431  33.090 113.068  0.00  0.00     0.280 HD
ATOM     18  H13 CTS d   1      19.929  36.071 114.573  0.00  0.00     0.039 H 
ATOM     19  H14 CTS d   1      20.111  35.332 116.200  0.00  0.00     0.039 H 
ATOM     20  H15 CTS d   1      20.691  33.109 115.190  0.00  0.00     0.076 H 
ATOM     21  H16 CTS d   1      19.214  33.666 114.332  0.00  0.00     0.076 H 
ENDROOT
BRANCH   2  22
ATOM     22  O2  CTS d   1      21.012  33.327 110.266  0.00  0.00    -0.391 OA
ATOM     23  H8  CTS d   1      21.666  32.868 110.779  0.00  0.00     0.210 HD
ENDBRANCH   2  22
BRANCH   3  24
ATOM     24  O3  CTS d   1      21.708  36.766 110.303  0.00  0.00    -0.390 OA
ATOM     25  H9  CTS d   1      21.473  36.555 109.407  0.00  0.00     0.210 HD
ENDBRANCH   3  24
BRANCH   4  26
ATOM     26  O4  CTS d   1      23.712  36.443 112.522  0.00  0.00    -0.391 OA
ATOM     27  H10 CTS d   1      23.892  36.791 113.387  0.00  0.00     0.210 HD
ENDBRANCH   4  26
BRANCH   6  28
ATOM     28  O6  CTS d   1      22.508  36.662 115.303  0.00  0.00    -0.393 OA
ATOM     29  H11 CTS d   1      23.443  36.666 115.136  0.00  0.00     0.210 HD
ENDBRANCH   6  28
TORSDOF 4
