REMARK  12 active torsions:
REMARK  status: ('A' for Active; 'I' for Inactive)
REMARK       I    between atoms: C9_14  and  N2_3 
REMARK       I    between atoms: C8_12  and  N1_6 
REMARK    1  A    between atoms: C4_8  and  C9_14 
REMARK    2  A    between atoms: C6_10  and  C8_12 
REMARK    3  A    between atoms: C7_11  and  C12_18 
REMARK    4  A    between atoms: N28_32  and  C7_11 
REMARK    5  A    between atoms: S8_13  and  C26_30 
REMARK    6  A    between atoms: N28_32  and  S8_13 
REMARK    7  A    between atoms: S9_15  and  C27_31 
REMARK    8  A    between atoms: N32_36  and  S9_15 
REMARK    9  A    between atoms: C23_27  and  N28_32 
REMARK   10  A    between atoms: C24_28  and  N32_36 
REMARK   11  A    between atoms: N32_36  and  C33_37 
REMARK   12  A    between atoms: C33_37  and  C34_38 
ROOT
ATOM      1  C21 G4G d   1      12.541 -17.491 -17.880  0.00  0.00     0.103 C 
ATOM      2  N22 G4G d   1      13.847 -18.076 -18.315  0.00  0.00    -0.071 N 
ATOM      3  C23 G4G d   1      11.781 -18.608 -17.153  0.00  0.00     0.068 C 
ATOM      4  C24 G4G d   1      12.475 -19.966 -17.601  0.00  0.00     0.068 C 
ATOM      5  C25 G4G d   1      13.807 -19.531 -18.305  0.00  0.00     0.103 C 
ATOM      6  H17 G4G d   1      11.968 -17.149 -18.755  0.00  0.00     0.079 H 
ATOM      7  H18 G4G d   1      12.712 -16.644 -17.200  0.00  0.00     0.079 H 
ATOM      8  H19 G4G d   1      14.572 -17.764 -17.688  0.00  0.00     0.277 HD
ATOM      9  H20 G4G d   1      14.053 -17.760 -19.250  0.00  0.00     0.277 HD
ATOM     10  H21 G4G d   1      10.710 -18.578 -17.400  0.00  0.00     0.079 H 
ATOM     11  H22 G4G d   1      12.665 -20.617 -16.735  0.00  0.00     0.079 H 
ATOM     12  H23 G4G d   1      14.671 -19.926 -17.750  0.00  0.00     0.079 H 
ATOM     13  H24 G4G d   1      13.828 -19.914 -19.336  0.00  0.00     0.079 H 
ENDROOT
BRANCH   3  14
ATOM     14  N28 G4G d   1      11.998 -18.570 -15.676  0.00  0.00    -0.294 N 
BRANCH  14  15
ATOM     15  C7  G4G d   1      13.242 -18.319 -14.884  0.00  0.00     0.029 C 
ATOM     16  H9  G4G d   1      13.833 -17.534 -15.377  0.00  0.00     0.072 H 
ATOM     17  H10 G4G d   1      12.966 -17.989 -13.871  0.00  0.00     0.072 H 
BRANCH  15  18
ATOM     18  C12 G4G d   1      14.082 -19.597 -14.787  0.00  0.00    -0.040 A 
ATOM     19  C13 G4G d   1      13.453 -20.773 -14.241  0.00  0.00    -0.075 A 
ATOM     20  C29 G4G d   1      14.310 -21.918 -14.228  0.00  0.00    -0.082 A 
ATOM     21  H11 G4G d   1      12.432 -20.788 -13.877  0.00  0.00     0.084 H 
ATOM     22  C31 G4G d   1      15.675 -21.954 -14.610  0.00  0.00    -0.083 A 
ATOM     23  H25 G4G d   1      13.872 -22.851 -13.893  0.00  0.00     0.083 H 
ATOM     24  C30 G4G d   1      16.295 -20.776 -15.176  0.00  0.00    -0.082 A 
ATOM     25  H27 G4G d   1      16.252 -22.862 -14.478  0.00  0.00     0.083 H 
ATOM     26  C14 G4G d   1      15.418 -19.638 -15.259  0.00  0.00    -0.075 A 
ATOM     27  H26 G4G d   1      17.327 -20.753 -15.508  0.00  0.00     0.083 H 
ATOM     28  H12 G4G d   1      15.811 -18.739 -15.720  0.00  0.00     0.084 H 
ENDBRANCH  15  18
ENDBRANCH  14  15
BRANCH  14  29
ATOM     29  S8  G4G d   1      10.633 -18.933 -14.748  0.00  0.00     0.261 S 
ATOM     30  O10 G4G d   1      10.043 -20.146 -15.353  0.00  0.00    -0.200 OA
ATOM     31  O41 G4G d   1      11.167 -19.058 -13.373  0.00  0.00    -0.200 OA
BRANCH  29  32
ATOM     32  C26 G4G d   1       9.537 -17.591 -14.804  0.00  0.00     0.079 A 
ATOM     33  C17 G4G d   1       9.849 -16.295 -14.312  0.00  0.00    -0.059 A 
ATOM     34  C1  G4G d   1       8.874 -15.267 -14.357  0.00  0.00    -0.066 A 
ATOM     35  H13 G4G d   1      10.832 -16.093 -13.902  0.00  0.00     0.085 H 
ATOM     36  C4  G4G d   1       7.596 -15.510 -14.976  0.00  0.00     0.031 A 
ATOM     37  H1  G4G d   1       9.090 -14.297 -13.925  0.00  0.00     0.085 H 
ATOM     38  C3  G4G d   1       7.273 -16.800 -15.475  0.00  0.00    -0.066 A 
ATOM     39  C19 G4G d   1       8.270 -17.801 -15.440  0.00  0.00    -0.059 A 
ATOM     40  H7  G4G d   1       6.287 -17.011 -15.873  0.00  0.00     0.085 H 
ATOM     41  H15 G4G d   1       8.070 -18.758 -15.909  0.00  0.00     0.085 H 
BRANCH  36  42
ATOM     42  C9  G4G d   1       6.618 -14.416 -15.012  0.00  0.00     0.249 C 
ATOM     43  N2  G4G d   1       5.367 -14.659 -15.452  0.00  0.00    -0.366 N 
ATOM     44  H2  G4G d   1       5.114 -15.577 -15.758  0.00  0.00     0.159 HD
ATOM     45  H3  G4G d   1       4.692 -13.921 -15.472  0.00  0.00     0.159 HD
ATOM     46  O1  G4G d   1       6.917 -13.287 -14.639  0.00  0.00    -0.268 OA
ENDBRANCH  36  42
ENDBRANCH  29  32
ENDBRANCH  14  29
ENDBRANCH   3  14
BRANCH   4  47
ATOM     47  N32 G4G d   1      11.647 -20.672 -18.613  0.00  0.00    -0.294 N 
BRANCH  47  48
ATOM     48  S9  G4G d   1      11.354 -22.318 -18.309  0.00  0.00     0.261 S 
ATOM     49  O11 G4G d   1      11.424 -22.611 -16.883  0.00  0.00    -0.200 OA
ATOM     50  O40 G4G d   1      10.281 -22.711 -19.180  0.00  0.00    -0.200 OA
BRANCH  48  51
ATOM     51  C27 G4G d   1      12.845 -22.961 -19.032  0.00  0.00     0.079 A 
ATOM     52  C18 G4G d   1      12.993 -23.135 -20.417  0.00  0.00    -0.059 A 
ATOM     53  C2  G4G d   1      14.227 -23.598 -20.940  0.00  0.00    -0.066 A 
ATOM     54  H14 G4G d   1      12.167 -22.916 -21.084  0.00  0.00     0.085 H 
ATOM     55  C6  G4G d   1      15.228 -23.979 -20.031  0.00  0.00     0.031 A 
ATOM     56  H4  G4G d   1      14.393 -23.656 -22.010  0.00  0.00     0.085 H 
ATOM     57  C5  G4G d   1      15.094 -23.833 -18.632  0.00  0.00    -0.066 A 
ATOM     58  C20 G4G d   1      13.867 -23.332 -18.125  0.00  0.00    -0.059 A 
ATOM     59  H8  G4G d   1      15.906 -24.096 -17.964  0.00  0.00     0.085 H 
ATOM     60  H16 G4G d   1      13.714 -23.235 -17.056  0.00  0.00     0.085 H 
BRANCH  55  61
ATOM     61  C8  G4G d   1      16.539 -24.470 -20.608  0.00  0.00     0.249 C 
ATOM     62  O2  G4G d   1      16.853 -24.005 -21.694  0.00  0.00    -0.268 OA
ATOM     63  N1  G4G d   1      17.288 -25.334 -19.934  0.00  0.00    -0.366 N 
ATOM     64  H5  G4G d   1      16.978 -25.680 -19.049  0.00  0.00     0.159 HD
ATOM     65  H6  G4G d   1      18.162 -25.639 -20.312  0.00  0.00     0.159 HD
ENDBRANCH  55  61
ENDBRANCH  48  51
ENDBRANCH  47  48
BRANCH  47  66
ATOM     66  C33 G4G d   1      11.155 -20.127 -19.895  0.00  0.00     0.029 C 
ATOM     67  H28 G4G d   1      10.985 -20.974 -20.575  0.00  0.00     0.072 H 
ATOM     68  H29 G4G d   1      11.942 -19.478 -20.307  0.00  0.00     0.072 H 
BRANCH  66  69
ATOM     69  C34 G4G d   1       9.886 -19.325 -19.837  0.00  0.00    -0.040 A 
ATOM     70  C35 G4G d   1       8.895 -19.616 -18.878  0.00  0.00    -0.075 A 
ATOM     71  C36 G4G d   1       7.754 -18.809 -18.905  0.00  0.00    -0.082 A 
ATOM     72  H30 G4G d   1       9.011 -20.420 -18.160  0.00  0.00     0.084 H 
ATOM     73  C37 G4G d   1       7.582 -17.795 -19.872  0.00  0.00    -0.083 A 
ATOM     74  H31 G4G d   1       6.980 -18.966 -18.163  0.00  0.00     0.083 H 
ATOM     75  C39 G4G d   1       8.584 -17.507 -20.832  0.00  0.00    -0.082 A 
ATOM     76  H32 G4G d   1       6.661 -17.223 -19.881  0.00  0.00     0.083 H 
ATOM     77  C38 G4G d   1       9.770 -18.263 -20.757  0.00  0.00    -0.075 A 
ATOM     78  H34 G4G d   1       8.444 -16.742 -21.587  0.00  0.00     0.083 H 
ATOM     79  H33 G4G d   1      10.601 -18.026 -21.412  0.00  0.00     0.084 H 
ENDBRANCH  66  69
ENDBRANCH  47  66
ENDBRANCH   4  47
TORSDOF 12
