REMARK  9 active torsions:
REMARK  status: ('A' for Active; 'I' for Inactive)
REMARK    1  A    between atoms: N1_8  and  C1'_9 
REMARK    2  A    between atoms: C3'_11  and  O3'_12 
REMARK    3  A    between atoms: C4'_14  and  C5'_15 
REMARK    4  A    between atoms: C5'_15  and  O5'_16 
REMARK    5  A    between atoms: O5'_16  and  PA_17 
REMARK    6  A    between atoms: PA_17  and  N3A_20 
REMARK    7  A    between atoms: N3A_20  and  PB_21 
REMARK    8  A    between atoms: PB_21  and  O3B_24 
REMARK    9  A    between atoms: O3B_24  and  PG_25 
ROOT
ATOM      1  C1' DUP d   1      12.933  11.594  39.402  0.00  0.00     0.116 C 
ATOM      2  C2' DUP d   1      13.072  11.692  37.880  0.00  0.00     0.002 C 
ATOM      3  C3' DUP d   1      13.907  10.442  37.554  0.00  0.00     0.066 C 
ATOM      4  O4' DUP d   1      13.212  10.244  39.764  0.00  0.00    -0.356 OA
ATOM      5  C4' DUP d   1      13.425   9.479  38.575  0.00  0.00     0.087 C 
ATOM      6  H4  DUP d   1      11.922  11.882  39.726  0.00  0.00     0.118 H 
ATOM      7  H5  DUP d   1      13.598  12.612  37.585  0.00  0.00     0.043 H 
ATOM      8  H6  DUP d   1      12.090  11.657  37.386  0.00  0.00     0.043 H 
ATOM      9  H7  DUP d   1      14.982  10.644  37.673  0.00  0.00     0.087 H 
ATOM     10  H9  DUP d   1      12.472   9.056  38.225  0.00  0.00     0.090 H 
ENDROOT
BRANCH   5  11
ATOM     11  C5' DUP d   1      14.351   8.317  38.913  0.00  0.00     0.057 C 
ATOM     12  H10 DUP d   1      14.483   7.667  38.035  0.00  0.00     0.079 H 
ATOM     13  H11 DUP d   1      13.937   7.729  39.745  0.00  0.00     0.079 H 
BRANCH  11  14
ATOM     14  O5' DUP d   1      15.604   8.900  39.292  0.00  0.00    -0.293 OA
BRANCH  14  15
ATOM     15  PA  DUP d   1      16.819   7.922  39.751  0.00  0.00     0.368 P 
ATOM     16  O1A DUP d   1      16.874   6.781  38.737  0.00  0.00    -0.629 OA
ATOM     17  O2A DUP d   1      18.037   8.832  39.778  0.00  0.00    -0.629 OA
BRANCH  15  18
ATOM     18  N3A DUP d   1      16.426   7.408  41.230  0.00  0.00    -0.225 N 
ATOM     19  H12 DUP d   1      16.454   8.061  41.987  0.00  0.00     0.178 HD
BRANCH  18  20
ATOM     20  PB  DUP d   1      15.974   5.830  41.550  0.00  0.00     0.379 P 
ATOM     21  O1B DUP d   1      16.737   4.817  40.753  0.00  0.00    -0.629 OA
ATOM     22  O2B DUP d   1      15.991   5.675  43.069  0.00  0.00    -0.629 OA
BRANCH  20  23
ATOM     23  O3B DUP d   1      14.463   5.677  41.079  0.00  0.00    -0.178 OA
BRANCH  23  24
ATOM     24  PG  DUP d   1      13.860   4.655  40.019  0.00  0.00     0.431 P 
ATOM     25  O2G DUP d   1      14.718   4.695  38.788  0.00  0.00    -0.616 OA
ATOM     26  O1G DUP d   1      13.908   3.361  40.764  0.00  0.00    -0.616 OA
ATOM     27  O3G DUP d   1      12.453   5.155  39.732  0.00  0.00    -0.616 OA
ENDBRANCH  23  24
ENDBRANCH  20  23
ENDBRANCH  18  20
ENDBRANCH  15  18
ENDBRANCH  14  15
ENDBRANCH  11  14
ENDBRANCH   5  11
BRANCH   3  28
ATOM     28  O3' DUP d   1      13.660   9.949  36.211  0.00  0.00    -0.393 OA
ATOM     29  H8  DUP d   1      14.195   9.180  36.054  0.00  0.00     0.210 HD
ENDBRANCH   3  28
BRANCH   1  30
ATOM     30  N1  DUP d   1      13.945  12.485  40.003  0.00  0.00    -0.282 N 
ATOM     31  C6  DUP d   1      15.253  12.043  40.028  0.00  0.00    -0.008 A 
ATOM     32  C5  DUP d   1      16.274  12.899  40.501  0.00  0.00    -0.002 A 
ATOM     33  H2  DUP d   1      15.497  11.039  39.685  0.00  0.00     0.112 H 
ATOM     34  C4  DUP d   1      15.905  14.145  41.008  0.00  0.00     0.250 A 
ATOM     35  H1  DUP d   1      17.319  12.594  40.470  0.00  0.00     0.094 H 
ATOM     36  O4  DUP d   1      16.709  14.967  41.477  0.00  0.00    -0.268 OA
ATOM     37  N3  DUP d   1      14.580  14.538  40.984  0.00  0.00    -0.275 N 
ATOM     38  C2  DUP d   1      13.587  13.723  40.454  0.00  0.00     0.331 A 
ATOM     39  H3  DUP d   1      14.330  15.431  41.357  0.00  0.00     0.173 HD
ATOM     40  O2  DUP d   1      12.408  14.130  40.451  0.00  0.00    -0.246 OA
ENDBRANCH   1  30
TORSDOF 9
