REMARK  16 active torsions:
REMARK  status: ('A' for Active; 'I' for Inactive)
REMARK    1  A    between atoms: N7_7  and  C18_18 
REMARK    2  A    between atoms: C8_8  and  C11_11 
REMARK       I    between atoms: C11_11  and  N12_12 
REMARK    3  A    between atoms: N12_12  and  C13_13 
REMARK    4  A    between atoms: C13_13  and  C14_14 
REMARK    5  A    between atoms: C13_13  and  C15_15 
REMARK    6  A    between atoms: C13_13  and  C16_16 
REMARK    7  A    between atoms: C18_18  and  C19_19 
REMARK    8  A    between atoms: C19_19  and  C20_20 
REMARK    9  A    between atoms: C19_19  and  O21_21 
REMARK   10  A    between atoms: C20_20  and  N22_22 
REMARK   11  A    between atoms: C20_20  and  C23_23 
REMARK       I    between atoms: N22_22  and  C24_24 
REMARK   12  A    between atoms: C23_23  and  S74_34 
REMARK   13  A    between atoms: C24_24  and  C29_26 
REMARK   14  A    between atoms: C33_30  and  O38_32 
REMARK   15  A    between atoms: C34_31  and  C39_33 
REMARK   16  A    between atoms: S74_34  and  C77_35 
ROOT
ATOM      1  C1  1UN d   1     -12.540  13.338  27.240  0.00  0.00    -0.027 C 
ATOM      2  C2  1UN d   1     -12.448  12.613  28.590  0.00  0.00    -0.047 C 
ATOM      3  C3  1UN d   1     -12.770  11.117  28.487  0.00  0.00    -0.061 C 
ATOM      4  C4  1UN d   1     -11.982  10.427  27.372  0.00  0.00    -0.065 C 
ATOM      5  C5  1UN d   1     -12.216  11.138  26.040  0.00  0.00    -0.065 C 
ATOM      6  C6  1UN d   1     -11.794  12.605  26.116  0.00  0.00    -0.060 C 
ATOM      7  N7  1UN d   1     -10.709  14.884  27.950  0.00  0.00    -0.055 N 
ATOM      8  C8  1UN d   1     -10.667  14.268  29.294  0.00  0.00     0.180 C 
ATOM      9  C9  1UN d   1     -11.081  12.796  29.249  0.00  0.00    -0.026 C 
ATOM     10  C10 1UN d   1     -12.063  14.793  27.353  0.00  0.00     0.088 C 
ATOM     11  H1  1UN d   1     -13.604  13.362  26.960  0.00  0.00     0.043 H 
ATOM     12  H2  1UN d   1     -13.200  13.068  29.251  0.00  0.00     0.040 H 
ATOM     13  H3  1UN d   1     -13.845  11.000  28.285  0.00  0.00     0.033 H 
ATOM     14  H4  1UN d   1     -12.523  10.636  29.445  0.00  0.00     0.033 H 
ATOM     15  H5  1UN d   1     -12.312   9.381  27.288  0.00  0.00     0.033 H 
ATOM     16  H6  1UN d   1     -10.909  10.455  27.615  0.00  0.00     0.033 H 
ATOM     17  H7  1UN d   1     -13.285  11.085  25.788  0.00  0.00     0.033 H 
ATOM     18  H8  1UN d   1     -11.629  10.636  25.257  0.00  0.00     0.033 H 
ATOM     19  H9  1UN d   1     -10.712  12.658  26.309  0.00  0.00     0.033 H 
ATOM     20  H10 1UN d   1     -12.020  13.094  25.157  0.00  0.00     0.033 H 
ATOM     21  H11 1UN d   1     -10.066  14.387  27.354  0.00  0.00     0.281 HD
ATOM     22  H12 1UN d   1     -11.346  14.823  29.958  0.00  0.00     0.100 H 
ATOM     23  H13 1UN d   1     -10.331  12.232  28.676  0.00  0.00     0.037 H 
ATOM     24  H14 1UN d   1     -11.126  12.407  30.277  0.00  0.00     0.037 H 
ATOM     25  H15 1UN d   1     -12.769  15.351  27.985  0.00  0.00     0.076 H 
ATOM     26  H16 1UN d   1     -12.040  15.239  26.348  0.00  0.00     0.076 H 
ENDROOT
BRANCH   7  27
ATOM     27  C18 1UN d   1     -10.287  16.297  28.025  0.00  0.00     0.110 C 
ATOM     28  H27 1UN d   1      -9.494  16.399  28.781  0.00  0.00     0.080 H 
ATOM     29  H28 1UN d   1     -11.149  16.918  28.311  0.00  0.00     0.080 H 
BRANCH  27  30
ATOM     30  C19 1UN d   1      -9.756  16.765  26.671  0.00  0.00     0.079 C 
ATOM     31  H29 1UN d   1     -10.315  16.218  25.897  0.00  0.00     0.088 H 
BRANCH  30  32
ATOM     32  C20 1UN d   1      -8.280  16.427  26.476  0.00  0.00     0.047 C 
ATOM     33  H30 1UN d   1      -8.130  15.368  26.732  0.00  0.00     0.077 H 
BRANCH  32  34
ATOM     34  N22 1UN d   1      -7.976  16.625  25.075  0.00  0.00    -0.349 N 
ATOM     35  C24 1UN d   1      -7.875  15.640  24.182  0.00  0.00     0.252 C 
ATOM     36  O25 1UN d   1      -8.071  14.460  24.429  0.00  0.00    -0.268 OA
ATOM     37  H32 1UN d   1      -7.832  17.562  24.756  0.00  0.00     0.163 HD
BRANCH  35  38
ATOM     38  C29 1UN d   1      -7.477  16.043  22.802  0.00  0.00     0.040 A 
ATOM     39  C30 1UN d   1      -6.273  16.728  22.616  0.00  0.00    -0.067 A 
ATOM     40  C31 1UN d   1      -5.860  17.128  21.348  0.00  0.00    -0.079 A 
ATOM     41  H35 1UN d   1      -5.650  16.952  23.474  0.00  0.00     0.085 H 
ATOM     42  C32 1UN d   1      -6.635  16.863  20.218  0.00  0.00    -0.050 A 
ATOM     43  H36 1UN d   1      -4.919  17.655  21.236  0.00  0.00     0.083 H 
ATOM     44  C33 1UN d   1      -7.848  16.188  20.309  0.00  0.00     0.072 A 
ATOM     45  H37 1UN d   1      -6.284  17.191  19.246  0.00  0.00     0.087 H 
ATOM     46  C34 1UN d   1      -8.342  15.745  21.633  0.00  0.00    -0.013 A 
BRANCH  44  47
ATOM     47  O38 1UN d   1      -8.576  15.954  19.189  0.00  0.00    -0.360 OA
ATOM     48  H38 1UN d   1      -8.115  16.302  18.435  0.00  0.00     0.217 HD
ENDBRANCH  44  47
BRANCH  46  49
ATOM     49  C39 1UN d   1      -9.655  15.001  21.772  0.00  0.00    -0.048 C 
ATOM     50  H39 1UN d   1      -9.833  14.767  22.832  0.00  0.00     0.033 H 
ATOM     51  H40 1UN d   1      -9.611  14.067  21.192  0.00  0.00     0.033 H 
ATOM     52  H41 1UN d   1     -10.474  15.629  21.393  0.00  0.00     0.033 H 
ENDBRANCH  46  49
ENDBRANCH  35  38
ENDBRANCH  32  34
BRANCH  32  53
ATOM     53  C23 1UN d   1      -7.332  17.257  27.341  0.00  0.00     0.003 C 
ATOM     54  H33 1UN d   1      -7.758  17.363  28.350  0.00  0.00     0.052 H 
ATOM     55  H34 1UN d   1      -7.204  18.252  26.890  0.00  0.00     0.052 H 
BRANCH  53  56
ATOM     56  S74 1UN d   1      -5.761  16.459  27.451  0.00  0.00    -0.128 SA
BRANCH  56  57
ATOM     57  C77 1UN d   1      -4.791  17.102  26.205  0.00  0.00     0.000 A 
ATOM     58  C78 1UN d   1      -3.720  16.367  25.693  0.00  0.00    -0.067 A 
ATOM     59  C79 1UN d   1      -2.928  16.895  24.670  0.00  0.00    -0.082 A 
ATOM     60  H42 1UN d   1      -3.502  15.383  26.091  0.00  0.00     0.085 H 
ATOM     61  C80 1UN d   1      -3.199  18.161  24.151  0.00  0.00    -0.083 A 
ATOM     62  H43 1UN d   1      -2.099  16.318  24.278  0.00  0.00     0.083 H 
ATOM     63  C81 1UN d   1      -4.271  18.900  24.653  0.00  0.00    -0.082 A 
ATOM     64  H44 1UN d   1      -2.579  18.569  23.361  0.00  0.00     0.083 H 
ATOM     65  C82 1UN d   1      -5.057  18.373  25.680  0.00  0.00    -0.067 A 
ATOM     66  H45 1UN d   1      -4.493  19.880  24.247  0.00  0.00     0.083 H 
ATOM     67  H46 1UN d   1      -5.882  18.954  26.075  0.00  0.00     0.085 H 
ENDBRANCH  56  57
ENDBRANCH  53  56
ENDBRANCH  32  53
ENDBRANCH  30  32
BRANCH  30  68
ATOM     68  O21 1UN d   1     -10.018  18.169  26.475  0.00  0.00    -0.392 OA
ATOM     69  H31 1UN d   1     -10.944  18.338  26.605  0.00  0.00     0.210 HD
ENDBRANCH  30  68
ENDBRANCH  27  30
ENDBRANCH   7  27
BRANCH   8  70
ATOM     70  C11 1UN d   1      -9.277  14.295  29.853  0.00  0.00     0.249 C 
ATOM     71  N12 1UN d   1      -9.213  14.775  31.090  0.00  0.00    -0.351 N 
ATOM     72  H17 1UN d   1     -10.062  15.156  31.456  0.00  0.00     0.163 HD
ATOM     73  O17 1UN d   1      -8.333  13.884  29.188  0.00  0.00    -0.271 OA
BRANCH  71  74
ATOM     74  C13 1UN d   1      -8.061  14.816  31.980  0.00  0.00     0.022 C 
BRANCH  74  75
ATOM     75  C14 1UN d   1      -7.070  15.835  31.445  0.00  0.00    -0.054 C 
ATOM     76  H18 1UN d   1      -6.193  15.877  32.108  0.00  0.00     0.030 H 
ATOM     77  H19 1UN d   1      -7.548  16.825  31.405  0.00  0.00     0.030 H 
ATOM     78  H20 1UN d   1      -6.751  15.541  30.434  0.00  0.00     0.030 H 
ENDBRANCH  74  75
BRANCH  74  79
ATOM     79  C15 1UN d   1      -7.429  13.439  32.120  0.00  0.00    -0.054 C 
ATOM     80  H21 1UN d   1      -6.564  13.500  32.796  0.00  0.00     0.030 H 
ATOM     81  H22 1UN d   1      -7.098  13.085  31.132  0.00  0.00     0.030 H 
ATOM     82  H23 1UN d   1      -8.168  12.737  32.533  0.00  0.00     0.030 H 
ENDBRANCH  74  79
BRANCH  74  83
ATOM     83  C16 1UN d   1      -8.549  15.246  33.360  0.00  0.00    -0.054 C 
ATOM     84  H24 1UN d   1      -7.697  15.286  34.054  0.00  0.00     0.030 H 
ATOM     85  H25 1UN d   1      -9.290  14.521  33.729  0.00  0.00     0.030 H 
ATOM     86  H26 1UN d   1      -9.012  16.241  33.291  0.00  0.00     0.030 H 
ENDBRANCH  74  83
ENDBRANCH  71  74
ENDBRANCH   8  70
TORSDOF 16
