REMARK  16 active torsions:
REMARK  status: ('A' for Active; 'I' for Inactive)
REMARK    1  A    between atoms: N7_7  and  C18_18 
REMARK    2  A    between atoms: C8_8  and  C11_11 
REMARK       I    between atoms: C11_11  and  N12_12 
REMARK    3  A    between atoms: N12_12  and  C13_13 
REMARK    4  A    between atoms: C13_13  and  C14_14 
REMARK    5  A    between atoms: C13_13  and  C15_15 
REMARK    6  A    between atoms: C13_13  and  C16_16 
REMARK    7  A    between atoms: C18_18  and  C19_19 
REMARK    8  A    between atoms: C19_19  and  C20_20 
REMARK    9  A    between atoms: C19_19  and  O21_21 
REMARK   10  A    between atoms: C20_20  and  N22_22 
REMARK   11  A    between atoms: C20_20  and  C23_23 
REMARK       I    between atoms: N22_22  and  C24_24 
REMARK   12  A    between atoms: C23_23  and  S74_34 
REMARK   13  A    between atoms: C24_24  and  C29_26 
REMARK   14  A    between atoms: C33_30  and  O38_32 
REMARK   15  A    between atoms: C34_31  and  C39_33 
REMARK   16  A    between atoms: S74_34  and  C77_35 
ROOT
ATOM      1  C1  1UN d   1     -12.847  13.784  27.623  0.00  0.00    -0.027 C 
ATOM      2  C2  1UN d   1     -12.675  12.975  28.923  0.00  0.00    -0.047 C 
ATOM      3  C3  1UN d   1     -12.884  11.466  28.745  0.00  0.00    -0.061 C 
ATOM      4  C4  1UN d   1     -12.181  10.928  27.496  0.00  0.00    -0.065 C 
ATOM      5  C5  1UN d   1     -12.623  11.710  26.268  0.00  0.00    -0.065 C 
ATOM      6  C6  1UN d   1     -12.169  13.160  26.402  0.00  0.00    -0.060 C 
ATOM      7  N7  1UN d   1     -11.039  15.341  28.364  0.00  0.00    -0.055 N 
ATOM      8  C8  1UN d   1     -11.036  14.706  29.695  0.00  0.00     0.180 C 
ATOM      9  C9  1UN d   1     -11.308  13.210  29.569  0.00  0.00    -0.026 C 
ATOM     10  C10 1UN d   1     -12.376  15.234  27.748  0.00  0.00     0.088 C 
ATOM     11  H1  1UN d   1     -13.927  13.807  27.417  0.00  0.00     0.043 H 
ATOM     12  H2  1UN d   1     -13.443  13.333  29.624  0.00  0.00     0.040 H 
ATOM     13  H3  1UN d   1     -13.962  11.265  28.659  0.00  0.00     0.033 H 
ATOM     14  H4  1UN d   1     -12.484  10.946  29.628  0.00  0.00     0.033 H 
ATOM     15  H5  1UN d   1     -12.438   9.867  27.363  0.00  0.00     0.033 H 
ATOM     16  H6  1UN d   1     -11.093  11.029  27.619  0.00  0.00     0.033 H 
ATOM     17  H7  1UN d   1     -13.719  11.675  26.185  0.00  0.00     0.033 H 
ATOM     18  H8  1UN d   1     -12.173  11.266  25.368  0.00  0.00     0.033 H 
ATOM     19  H9  1UN d   1     -11.077  13.194  26.529  0.00  0.00     0.033 H 
ATOM     20  H10 1UN d   1     -12.451  13.720  25.498  0.00  0.00     0.033 H 
ATOM     21  H11 1UN d   1     -10.370  14.863  27.782  0.00  0.00     0.281 HD
ATOM     22  H12 1UN d   1     -11.809  15.178  30.320  0.00  0.00     0.100 H 
ATOM     23  H13 1UN d   1     -10.527  12.750  28.945  0.00  0.00     0.037 H 
ATOM     24  H14 1UN d   1     -11.295  12.753  30.569  0.00  0.00     0.037 H 
ATOM     25  H15 1UN d   1     -13.096  15.787  28.369  0.00  0.00     0.076 H 
ATOM     26  H16 1UN d   1     -12.339  15.681  26.744  0.00  0.00     0.076 H 
ENDROOT
BRANCH   7  27
ATOM     27  C18 1UN d   1     -10.670  16.763  28.440  0.00  0.00     0.110 C 
ATOM     28  H27 1UN d   1      -9.914  16.907  29.226  0.00  0.00     0.080 H 
ATOM     29  H28 1UN d   1     -11.561  17.364  28.674  0.00  0.00     0.080 H 
BRANCH  27  30
ATOM     30  C19 1UN d   1     -10.098  17.196  27.093  0.00  0.00     0.079 C 
ATOM     31  H29 1UN d   1     -10.659  16.667  26.308  0.00  0.00     0.088 H 
BRANCH  30  32
ATOM     32  C20 1UN d   1      -8.625  16.829  26.933  0.00  0.00     0.047 C 
ATOM     33  H30 1UN d   1      -8.495  15.766  27.184  0.00  0.00     0.077 H 
BRANCH  32  34
ATOM     34  N22 1UN d   1      -8.283  17.044  25.549  0.00  0.00    -0.349 N 
ATOM     35  C24 1UN d   1      -8.014  16.064  24.689  0.00  0.00     0.252 C 
ATOM     36  O25 1UN d   1      -8.065  14.874  24.972  0.00  0.00    -0.268 OA
ATOM     37  H32 1UN d   1      -8.246  17.986  25.215  0.00  0.00     0.163 HD
BRANCH  35  38
ATOM     38  C29 1UN d   1      -7.603  16.485  23.312  0.00  0.00     0.040 A 
ATOM     39  C30 1UN d   1      -6.411  17.200  23.128  0.00  0.00    -0.067 A 
ATOM     40  C31 1UN d   1      -6.009  17.610  21.854  0.00  0.00    -0.079 A 
ATOM     41  H35 1UN d   1      -5.793  17.438  23.986  0.00  0.00     0.085 H 
ATOM     42  C32 1UN d   1      -6.776  17.330  20.719  0.00  0.00    -0.050 A 
ATOM     43  H36 1UN d   1      -5.080  18.158  21.743  0.00  0.00     0.083 H 
ATOM     44  C33 1UN d   1      -7.976  16.624  20.814  0.00  0.00     0.072 A 
ATOM     45  H37 1UN d   1      -6.432  17.667  19.748  0.00  0.00     0.087 H 
ATOM     46  C34 1UN d   1      -8.453  16.168  22.138  0.00  0.00    -0.013 A 
BRANCH  44  47
ATOM     47  O38 1UN d   1      -8.713  16.355  19.704  0.00  0.00    -0.360 OA
ATOM     48  H38 1UN d   1      -8.275  16.712  18.940  0.00  0.00     0.217 HD
ENDBRANCH  44  47
BRANCH  46  49
ATOM     49  C39 1UN d   1      -9.745  15.398  22.276  0.00  0.00    -0.048 C 
ATOM     50  H39 1UN d   1      -9.916  15.156  23.335  0.00  0.00     0.033 H 
ATOM     51  H40 1UN d   1      -9.681  14.468  21.693  0.00  0.00     0.033 H 
ATOM     52  H41 1UN d   1     -10.579  16.010  21.901  0.00  0.00     0.033 H 
ENDBRANCH  46  49
ENDBRANCH  35  38
ENDBRANCH  32  34
BRANCH  32  53
ATOM     53  C23 1UN d   1      -7.696  17.651  27.827  0.00  0.00     0.003 C 
ATOM     54  H33 1UN d   1      -8.132  17.732  28.834  0.00  0.00     0.052 H 
ATOM     55  H34 1UN d   1      -7.571  18.657  27.400  0.00  0.00     0.052 H 
BRANCH  53  56
ATOM     56  S74 1UN d   1      -6.125  16.855  27.928  0.00  0.00    -0.128 SA
BRANCH  56  57
ATOM     57  C77 1UN d   1      -5.128  17.538  26.732  0.00  0.00     0.000 A 
ATOM     58  C78 1UN d   1      -4.017  16.829  26.271  0.00  0.00    -0.067 A 
ATOM     59  C79 1UN d   1      -3.185  17.376  25.295  0.00  0.00    -0.082 A 
ATOM     60  H42 1UN d   1      -3.800  15.847  26.675  0.00  0.00     0.085 H 
ATOM     61  C80 1UN d   1      -3.460  18.637  24.774  0.00  0.00    -0.083 A 
ATOM     62  H43 1UN d   1      -2.324  16.819  24.942  0.00  0.00     0.083 H 
ATOM     63  C81 1UN d   1      -4.569  19.348  25.226  0.00  0.00    -0.082 A 
ATOM     64  H44 1UN d   1      -2.812  19.065  24.018  0.00  0.00     0.083 H 
ATOM     65  C82 1UN d   1      -5.398  18.800  26.205  0.00  0.00    -0.067 A 
ATOM     66  H45 1UN d   1      -4.788  20.328  24.817  0.00  0.00     0.083 H 
ATOM     67  H46 1UN d   1      -6.257  19.359  26.558  0.00  0.00     0.085 H 
ENDBRANCH  56  57
ENDBRANCH  53  56
ENDBRANCH  32  53
ENDBRANCH  30  32
BRANCH  30  68
ATOM     68  O21 1UN d   1     -10.286  18.598  26.902  0.00  0.00    -0.392 OA
ATOM     69  H31 1UN d   1     -11.206  18.810  27.005  0.00  0.00     0.210 HD
ENDBRANCH  30  68
ENDBRANCH  27  30
ENDBRANCH   7  27
BRANCH   8  70
ATOM     70  C11 1UN d   1      -9.698  14.839  30.356  0.00  0.00     0.249 C 
ATOM     71  N12 1UN d   1      -9.725  15.152  31.650  0.00  0.00    -0.351 N 
ATOM     72  H17 1UN d   1     -10.619  15.260  32.084  0.00  0.00     0.163 HD
ATOM     73  O17 1UN d   1      -8.692  14.631  29.701  0.00  0.00    -0.271 OA
BRANCH  71  74
ATOM     74  C13 1UN d   1      -8.537  15.349  32.479  0.00  0.00     0.022 C 
BRANCH  74  75
ATOM     75  C14 1UN d   1      -7.666  16.433  31.856  0.00  0.00    -0.054 C 
ATOM     76  H18 1UN d   1      -6.770  16.585  32.476  0.00  0.00     0.030 H 
ATOM     77  H19 1UN d   1      -8.235  17.372  31.797  0.00  0.00     0.030 H 
ATOM     78  H20 1UN d   1      -7.363  16.124  30.845  0.00  0.00     0.030 H 
ENDBRANCH  74  75
BRANCH  74  79
ATOM     79  C15 1UN d   1      -7.775  14.041  32.622  0.00  0.00    -0.054 C 
ATOM     80  H21 1UN d   1      -6.884  14.202  33.247  0.00  0.00     0.030 H 
ATOM     81  H22 1UN d   1      -7.466  13.686  31.628  0.00  0.00     0.030 H 
ATOM     82  H23 1UN d   1      -8.424  13.289  33.095  0.00  0.00     0.030 H 
ENDBRANCH  74  79
BRANCH  74  83
ATOM     83  C16 1UN d   1      -8.968  15.766  33.877  0.00  0.00    -0.054 C 
ATOM     84  H24 1UN d   1      -8.078  15.916  34.506  0.00  0.00     0.030 H 
ATOM     85  H25 1UN d   1      -9.599  14.979  34.316  0.00  0.00     0.030 H 
ATOM     86  H26 1UN d   1      -9.539  16.705  33.820  0.00  0.00     0.030 H 
ENDBRANCH  74  83
ENDBRANCH  71  74
ENDBRANCH   8  70
TORSDOF 16
