REMARK  5 active torsions:
REMARK  status: ('A' for Active; 'I' for Inactive)
REMARK    1  A    between atoms: N_1  and  CA_2 
REMARK    2  A    between atoms: CA_2  and  C_3 
REMARK    3  A    between atoms: CA_2  and  CB_5 
REMARK    4  A    between atoms: CB_5  and  CG_6 
REMARK    5  A    between atoms: CG_6  and  CD_7 
ROOT
ATOM      1  CA  GLU d   1      54.611  21.418  34.800  0.00  0.00     0.183 C 
ATOM      2  H4  GLU d   1      54.878  20.696  35.586  0.00  0.00     0.101 H 
ENDROOT
BRANCH   1   3
ATOM      3  N   GLU d   1      53.282  21.047  34.230  0.00  0.00    -0.065 N 
ATOM      4  H1  GLU d   1      53.334  20.123  33.831  0.00  0.00     0.275 HD
ATOM      5  H2  GLU d   1      53.027  21.709  33.514  0.00  0.00     0.275 HD
ATOM      6  H3  GLU d   1      52.588  21.059  34.961  0.00  0.00     0.275 HD
ENDBRANCH   1   3
BRANCH   1   7
ATOM      7  C   GLU d   1      54.540  22.822  35.409  0.00  0.00     0.204 C 
ATOM      8  O   GLU d   1      53.740  23.643  34.914  0.00  0.00    -0.646 OA
ATOM      9  OXT GLU d   1      55.287  23.094  36.370  0.00  0.00    -0.646 OA
ENDBRANCH   1   7
BRANCH   1  10
ATOM     10  CB  GLU d   1      55.693  21.390  33.701  0.00  0.00    -0.020 C 
ATOM     11  H5  GLU d   1      55.466  22.176  32.966  0.00  0.00     0.037 H 
ATOM     12  H6  GLU d   1      55.665  20.407  33.207  0.00  0.00     0.037 H 
BRANCH  10  13
ATOM     13  CG  GLU d   1      57.095  21.621  34.237  0.00  0.00     0.018 C 
ATOM     14  H7  GLU d   1      57.353  20.788  34.907  0.00  0.00     0.049 H 
ATOM     15  H8  GLU d   1      57.100  22.563  34.805  0.00  0.00     0.049 H 
BRANCH  13  16
ATOM     16  CD  GLU d   1      58.151  21.709  33.153  0.00  0.00     0.172 C 
ATOM     17  OE1 GLU d   1      59.351  21.790  33.501  0.00  0.00    -0.648 OA
ATOM     18  OE2 GLU d   1      57.787  21.706  31.961  0.00  0.00    -0.648 OA
ENDBRANCH  13  16
ENDBRANCH  10  13
ENDBRANCH   1  10
TORSDOF 5
