REMARK  3 active torsions:
REMARK  status: ('A' for Active; 'I' for Inactive)
REMARK    1  A    between atoms: N2_8  and  C4_9 
REMARK    2  A    between atoms: C1_14  and  S1_15 
REMARK    3  A    between atoms: S1_15  and  N1_18 
ROOT
ATOM      1  O3  OSP d   1      -5.252   4.509  11.213  0.00  0.00    -0.205 OA
ATOM      2  S2  OSP d   1      -4.007   5.127  11.608  0.00  0.00     0.233 S 
ATOM      3  O4  OSP d   1      -2.971   4.246  11.122  0.00  0.00    -0.205 OA
ATOM      4  C7  OSP d   1      -3.785   6.621  10.911  0.00  0.00     0.047 C 
ATOM      5  C8  OSP d   1      -2.526   7.302  11.460  0.00  0.00    -0.050 C 
ATOM      6  C9  OSP d   1      -1.985   6.655  12.735  0.00  0.00    -0.048 C 
ATOM      7  C10 OSP d   1      -3.083   6.319  13.737  0.00  0.00     0.010 C 
ATOM      8  N2  OSP d   1      -3.853   5.232  13.142  0.00  0.00    -0.276 N 
ATOM      9  H1  OSP d   1      -4.659   7.253  11.128  0.00  0.00     0.058 H 
ATOM     10  H2  OSP d   1      -3.682   6.498   9.823  0.00  0.00     0.058 H 
ATOM     11  H3  OSP d   1      -2.767   8.353  11.679  0.00  0.00     0.034 H 
ATOM     12  H4  OSP d   1      -1.743   7.258  10.689  0.00  0.00     0.034 H 
ATOM     13  H5  OSP d   1      -1.277   7.351  13.209  0.00  0.00     0.035 H 
ATOM     14  H6  OSP d   1      -1.461   5.727  12.463  0.00  0.00     0.035 H 
ATOM     15  H7  OSP d   1      -3.727   7.195  13.906  0.00  0.00     0.066 H 
ATOM     16  H8  OSP d   1      -2.643   5.997  14.692  0.00  0.00     0.066 H 
ENDROOT
BRANCH   8  17
ATOM     17  C4  OSP d   1      -4.378   4.246  14.010  0.00  0.00     0.044 A 
ATOM     18  C3  OSP d   1      -3.585   3.136  14.300  0.00  0.00    -0.055 A 
ATOM     19  C2  OSP d   1      -4.058   2.142  15.165  0.00  0.00    -0.058 A 
ATOM     20  H9  OSP d   1      -2.601   3.043  13.855  0.00  0.00     0.087 H 
ATOM     21  C1  OSP d   1      -5.337   2.230  15.739  0.00  0.00     0.079 A 
ATOM     22  H10 OSP d   1      -3.427   1.291  15.395  0.00  0.00     0.086 H 
ATOM     23  C6  OSP d   1      -6.128   3.349  15.434  0.00  0.00    -0.058 A 
ATOM     24  C5  OSP d   1      -5.654   4.345  14.573  0.00  0.00    -0.055 A 
ATOM     25  H12 OSP d   1      -7.116   3.442  15.870  0.00  0.00     0.086 H 
ATOM     26  H11 OSP d   1      -6.280   5.199  14.341  0.00  0.00     0.087 H 
BRANCH  21  27
ATOM     27  S1  OSP d   1      -5.865   1.047  16.721  0.00  0.00     0.256 S 
ATOM     28  O1  OSP d   1      -7.300   1.052  16.765  0.00  0.00    -0.201 OA
ATOM     29  O2  OSP d   1      -5.313   1.248  18.032  0.00  0.00    -0.201 OA
BRANCH  27  30
ATOM     30  N1  OSP d   1      -5.358  -0.342  16.127  0.00  0.00    -0.324 N 
ATOM     31  H13 OSP d   1      -5.583  -1.197  16.594  0.00  0.00     0.169 HD
ATOM     32  H14 OSP d   1      -4.815  -0.358  15.287  0.00  0.00     0.169 HD
ENDBRANCH  27  30
ENDBRANCH  21  27
ENDBRANCH   8  17
TORSDOF 3
