REMARK  20 active torsions:
REMARK  status: ('A' for Active; 'I' for Inactive)
REMARK    1  A    between atoms: C3_2  and  C2_3 
REMARK       I    between atoms: C3_2  and  N1_4 
REMARK    2  A    between atoms: N1_4  and  C10_5 
REMARK    3  A    between atoms: C10_5  and  C13_6 
REMARK    4  A    between atoms: C10_5  and  C11_9 
REMARK    5  A    between atoms: C13_6  and  C14_7 
REMARK    6  A    between atoms: C13_6  and  C15_8 
REMARK       I    between atoms: C11_9  and  N3_11 
REMARK    7  A    between atoms: N3_11  and  C12_12 
REMARK    8  A    between atoms: C12_12  and  C22_13 
REMARK    9  A    between atoms: C12_12  and  C23_20 
REMARK   10  A    between atoms: C22_13  and  C20_14 
REMARK   11  A    between atoms: C23_20  and  C24_21 
REMARK   12  A    between atoms: C24_21  and  O4_22 
REMARK   13  A    between atoms: C24_21  and  C25_23 
REMARK   14  A    between atoms: C25_23  and  C29_24 
REMARK   15  A    between atoms: C25_23  and  N4_31 
REMARK   16  A    between atoms: C29_24  and  C4_25 
REMARK       I    between atoms: N4_31  and  C26_32 
REMARK   17  A    between atoms: C26_32  and  C27_34 
REMARK   18  A    between atoms: N31_39  and  C33_40 
REMARK   19  A    between atoms: C35_45  and  C39_46 
REMARK   20  A    between atoms: C39_46  and  C40_48 
ROOT
ATOM      1  C24 MU1 d   1      20.324  -0.471  14.769  0.00  0.00     0.057 C 
ATOM      2  H24 MU1 d   1      21.201   0.064  15.163  0.00  0.00     0.086 H 
ENDROOT
BRANCH   1   3
ATOM      3  C23 MU1 d   1      19.084   0.023  15.480  0.00  0.00    -0.020 C 
ATOM      4  H22 MU1 d   1      18.848   1.026  15.095  0.00  0.00     0.040 H 
ATOM      5  H23 MU1 d   1      18.259  -0.665  15.242  0.00  0.00     0.040 H 
BRANCH   3   6
ATOM      6  C12 MU1 d   1      19.195   0.115  16.983  0.00  0.00     0.018 C 
ATOM      7  H14 MU1 d   1      19.214  -0.892  17.425  0.00  0.00     0.073 H 
BRANCH   6   8
ATOM      8  N3  MU1 d   1      20.419   0.813  17.367  0.00  0.00    -0.354 N 
ATOM      9  C11 MU1 d   1      21.289   0.383  18.276  0.00  0.00     0.241 C 
ATOM     10  O2  MU1 d   1      21.246  -0.700  18.838  0.00  0.00    -0.271 OA
ATOM     11  H13 MU1 d   1      20.618   1.681  16.912  0.00  0.00     0.162 HD
BRANCH   9  12
ATOM     12  C10 MU1 d   1      22.364   1.379  18.627  0.00  0.00     0.092 C 
ATOM     13  H5  MU1 d   1      22.392   2.143  17.836  0.00  0.00     0.088 H 
BRANCH  12  14
ATOM     14  N1  MU1 d   1      22.046   2.039  19.883  0.00  0.00    -0.348 N 
ATOM     15  C3  MU1 d   1      21.914   3.364  19.999  0.00  0.00     0.214 C 
ATOM     16  O1  MU1 d   1      21.995   4.103  19.034  0.00  0.00    -0.274 OA
ATOM     17  H4  MU1 d   1      21.920   1.475  20.699  0.00  0.00     0.163 HD
BRANCH  15  18
ATOM     18  C2  MU1 d   1      21.680   3.892  21.388  0.00  0.00    -0.003 C 
ATOM     19  H1  MU1 d   1      21.642   3.053  22.098  0.00  0.00     0.040 H 
ATOM     20  H2  MU1 d   1      20.726   4.439  21.416  0.00  0.00     0.040 H 
ATOM     21  H3  MU1 d   1      22.500   4.570  21.666  0.00  0.00     0.040 H 
ENDBRANCH  15  18
ENDBRANCH  12  14
BRANCH  12  22
ATOM     22  C13 MU1 d   1      23.741   0.717  18.688  0.00  0.00    -0.033 C 
ATOM     23  H6  MU1 d   1      23.741   0.017  19.537  0.00  0.00     0.042 H 
BRANCH  22  24
ATOM     24  C14 MU1 d   1      24.006  -0.089  17.418  0.00  0.00    -0.071 C 
ATOM     25  H7  MU1 d   1      25.000  -0.557  17.481  0.00  0.00     0.028 H 
ATOM     26  H8  MU1 d   1      23.970   0.580  16.545  0.00  0.00     0.028 H 
ATOM     27  H9  MU1 d   1      23.239  -0.871  17.313  0.00  0.00     0.028 H 
ENDBRANCH  22  24
BRANCH  22  28
ATOM     28  C15 MU1 d   1      24.844   1.751  18.938  0.00  0.00    -0.071 C 
ATOM     29  H10 MU1 d   1      24.620   2.311  19.858  0.00  0.00     0.028 H 
ATOM     30  H11 MU1 d   1      24.893   2.447  18.088  0.00  0.00     0.028 H 
ATOM     31  H12 MU1 d   1      25.810   1.237  19.047  0.00  0.00     0.028 H 
ENDBRANCH  22  28
ENDBRANCH  12  22
ENDBRANCH   9  12
ENDBRANCH   6   8
BRANCH   6  32
ATOM     32  C22 MU1 d   1      17.918   0.849  17.421  0.00  0.00    -0.022 C 
ATOM     33  H15 MU1 d   1      17.070   0.151  17.355  0.00  0.00     0.043 H 
ATOM     34  H16 MU1 d   1      17.748   1.697  16.741  0.00  0.00     0.043 H 
BRANCH  32  35
ATOM     35  C20 MU1 d   1      18.005   1.372  18.835  0.00  0.00    -0.056 A 
ATOM     36  C21 MU1 d   1      17.793   0.527  19.912  0.00  0.00    -0.077 A 
ATOM     37  C16 MU1 d   1      17.882   1.022  21.213  0.00  0.00    -0.082 A 
ATOM     38  H17 MU1 d   1      17.558  -0.518  19.744  0.00  0.00     0.084 H 
ATOM     39  C17 MU1 d   1      18.176   2.366  21.432  0.00  0.00    -0.083 A 
ATOM     40  H18 MU1 d   1      17.722   0.359  22.056  0.00  0.00     0.083 H 
ATOM     41  C18 MU1 d   1      18.376   3.210  20.351  0.00  0.00    -0.082 A 
ATOM     42  H19 MU1 d   1      18.248   2.750  22.443  0.00  0.00     0.083 H 
ATOM     43  C19 MU1 d   1      18.288   2.712  19.056  0.00  0.00    -0.077 A 
ATOM     44  H20 MU1 d   1      18.601   4.258  20.515  0.00  0.00     0.083 H 
ATOM     45  H21 MU1 d   1      18.442   3.376  18.213  0.00  0.00     0.084 H 
ENDBRANCH  32  35
ENDBRANCH   6  32
ENDBRANCH   3   6
ENDBRANCH   1   3
BRANCH   1  46
ATOM     46  O4  MU1 d   1      20.156  -0.143  13.374  0.00  0.00    -0.393 OA
ATOM     47  H25 MU1 d   1      20.063   0.798  13.280  0.00  0.00     0.210 HD
ENDBRANCH   1  46
BRANCH   1  48
ATOM     48  C25 MU1 d   1      20.553  -1.974  14.972  0.00  0.00     0.041 C 
ATOM     49  H26 MU1 d   1      20.601  -2.162  16.055  0.00  0.00     0.076 H 
BRANCH  48  50
ATOM     50  C29 MU1 d   1      21.894  -2.361  14.346  0.00  0.00    -0.020 C 
ATOM     51  H27 MU1 d   1      22.705  -1.833  14.869  0.00  0.00     0.043 H 
ATOM     52  H28 MU1 d   1      21.895  -2.075  13.284  0.00  0.00     0.043 H 
BRANCH  50  53
ATOM     53  C4  MU1 d   1      22.114  -3.854  14.461  0.00  0.00    -0.056 A 
ATOM     54  C5  MU1 d   1      21.994  -4.677  13.335  0.00  0.00    -0.077 A 
ATOM     55  C6  MU1 d   1      22.185  -6.053  13.449  0.00  0.00    -0.082 A 
ATOM     56  H29 MU1 d   1      21.752  -4.243  12.372  0.00  0.00     0.084 H 
ATOM     57  C7  MU1 d   1      22.497  -6.608  14.688  0.00  0.00    -0.083 A 
ATOM     58  H30 MU1 d   1      22.091  -6.689  12.576  0.00  0.00     0.083 H 
ATOM     59  C8  MU1 d   1      22.610  -5.784  15.806  0.00  0.00    -0.082 A 
ATOM     60  H31 MU1 d   1      22.651  -7.677  14.782  0.00  0.00     0.083 H 
ATOM     61  C9  MU1 d   1      22.418  -4.410  15.699  0.00  0.00    -0.077 A 
ATOM     62  H32 MU1 d   1      22.850  -6.218  16.770  0.00  0.00     0.083 H 
ATOM     63  H33 MU1 d   1      22.505  -3.777  16.575  0.00  0.00     0.084 H 
ENDBRANCH  50  53
ENDBRANCH  48  50
BRANCH  48  64
ATOM     64  N4  MU1 d   1      19.497  -2.828  14.418  0.00  0.00    -0.351 N 
ATOM     65  C26 MU1 d   1      18.802  -3.736  15.124  0.00  0.00     0.249 C 
ATOM     66  O5  MU1 d   1      18.842  -3.851  16.345  0.00  0.00    -0.271 OA
ATOM     67  H34 MU1 d   1      19.279  -2.728  13.447  0.00  0.00     0.163 HD
BRANCH  65  68
ATOM     68  C27 MU1 d   1      17.948  -4.722  14.354  0.00  0.00     0.142 C 
ATOM     69  C32 MU1 d   1      18.422  -6.151  14.611  0.00  0.00     0.038 C 
ATOM     70  N31 MU1 d   1      18.566  -6.703  13.279  0.00  0.00    -0.291 N 
ATOM     71  H36 MU1 d   1      17.677  -6.714  15.192  0.00  0.00     0.069 H 
ATOM     72  H37 MU1 d   1      19.384  -6.157  15.145  0.00  0.00     0.069 H 
ATOM     73  C30 MU1 d   1      18.338  -5.811  12.345  0.00  0.00     0.368 C 
ATOM     74  O28 MU1 d   1      18.025  -4.534  12.935  0.00  0.00    -0.287 OA
ATOM     75  O30 MU1 d   1      18.349  -5.964  11.158  0.00  0.00    -0.238 OA
ATOM     76  H35 MU1 d   1      16.904  -4.609  14.681  0.00  0.00     0.102 H 
BRANCH  70  77
ATOM     77  C33 MU1 d   1      18.939  -8.043  13.027  0.00  0.00     0.040 A 
ATOM     78  C38 MU1 d   1      18.425  -8.749  11.942  0.00  0.00    -0.057 A 
ATOM     79  C37 MU1 d   1      18.812 -10.069  11.719  0.00  0.00    -0.080 A 
ATOM     80  H38 MU1 d   1      17.722  -8.271  11.269  0.00  0.00     0.086 H 
ATOM     81  C36 MU1 d   1      19.706 -10.712  12.577  0.00  0.00    -0.069 A 
ATOM     82  H39 MU1 d   1      18.413 -10.605  10.866  0.00  0.00     0.083 H 
ATOM     83  C35 MU1 d   1      20.232 -10.025  13.668  0.00  0.00     0.011 A 
ATOM     84  H40 MU1 d   1      19.990 -11.742  12.395  0.00  0.00     0.085 H 
ATOM     85  C34 MU1 d   1      19.841  -8.696  13.880  0.00  0.00    -0.043 A 
ATOM     86  H41 MU1 d   1      20.247  -8.157  14.728  0.00  0.00     0.088 H 
BRANCH  83  87
ATOM     87  C39 MU1 d   1      21.201 -10.695  14.615  0.00  0.00     0.155 C 
ATOM     88  O39 MU1 d   1      21.519 -10.141  15.663  0.00  0.00    -0.293 OA
BRANCH  87  89
ATOM     89  C40 MU1 d   1      21.770 -12.048  14.284  0.00  0.00    -0.017 C 
ATOM     90  H42 MU1 d   1      22.450 -12.367  15.088  0.00  0.00     0.038 H 
ATOM     91  H43 MU1 d   1      22.325 -11.991  13.336  0.00  0.00     0.038 H 
ATOM     92  H44 MU1 d   1      20.951 -12.776  14.186  0.00  0.00     0.038 H 
ENDBRANCH  87  89
ENDBRANCH  83  87
ENDBRANCH  70  77
ENDBRANCH  65  68
ENDBRANCH  48  64
ENDBRANCH   1  48
TORSDOF 20
