REMARK  17 active torsions:
REMARK  status: ('A' for Active; 'I' for Inactive)
REMARK    1  A    between atoms: C26_2  and  C27_3 
REMARK       I    between atoms: C26_2  and  N4_15 
REMARK    2  A    between atoms: N31_7  and  C33_9 
REMARK    3  A    between atoms: N4_15  and  C25_16 
REMARK    4  A    between atoms: C25_16  and  C29_17 
REMARK    5  A    between atoms: C25_16  and  C24_24 
REMARK    6  A    between atoms: C29_17  and  C4_18 
REMARK    7  A    between atoms: C24_24  and  O4_25 
REMARK    8  A    between atoms: C24_24  and  C23_26 
REMARK    9  A    between atoms: C23_26  and  C12_27 
REMARK   10  A    between atoms: C12_27  and  N3_28 
REMARK   11  A    between atoms: C12_27  and  C22_42 
REMARK       I    between atoms: N3_28  and  C11_29 
REMARK   12  A    between atoms: C11_29  and  C10_31 
REMARK   13  A    between atoms: C10_31  and  C13_32 
REMARK   14  A    between atoms: C10_31  and  N1_35 
REMARK   15  A    between atoms: C13_32  and  C14_33 
REMARK   16  A    between atoms: C13_32  and  C15_34 
REMARK   17  A    between atoms: C22_42  and  C20_43 
ROOT
ATOM      1  C23 MU0 d   1      18.961  28.807  14.848  0.00  0.00    -0.020 C 
ATOM      2  H20 MU0 d   1      18.078  29.445  15.004  0.00  0.00     0.040 H 
ATOM      3  H21 MU0 d   1      18.773  27.810  15.274  0.00  0.00     0.040 H 
ENDROOT
BRANCH   1   4
ATOM      4  C24 MU0 d   1      20.134  29.430  15.603  0.00  0.00     0.057 C 
ATOM      5  H18 MU0 d   1      21.066  28.954  15.265  0.00  0.00     0.086 H 
BRANCH   4   6
ATOM      6  C25 MU0 d   1      20.274  30.942  15.400  0.00  0.00     0.041 C 
ATOM      7  H10 MU0 d   1      20.407  31.137  14.326  0.00  0.00     0.076 H 
BRANCH   6   8
ATOM      8  N4  MU0 d   1      19.072  31.651  15.842  0.00  0.00    -0.351 N 
ATOM      9  C26 MU0 d   1      18.323  32.360  14.986  0.00  0.00     0.249 C 
ATOM     10  O5  MU0 d   1      18.651  32.518  13.804  0.00  0.00    -0.271 OA
ATOM     11  H9  MU0 d   1      18.804  31.605  16.804  0.00  0.00     0.163 HD
BRANCH   9  12
ATOM     12  C27 MU0 d   1      17.002  32.958  15.455  0.00  0.00     0.142 C 
ATOM     13  O28 MU0 d   1      16.583  32.576  16.784  0.00  0.00    -0.287 OA
ATOM     14  C30 MU0 d   1      15.992  33.753  17.375  0.00  0.00     0.368 C 
ATOM     15  O30 MU0 d   1      15.365  33.759  18.422  0.00  0.00    -0.238 OA
ATOM     16  N31 MU0 d   1      16.238  34.804  16.612  0.00  0.00    -0.291 N 
ATOM     17  C32 MU0 d   1      17.021  34.492  15.425  0.00  0.00     0.038 C 
ATOM     18  H2  MU0 d   1      16.546  34.884  14.514  0.00  0.00     0.069 H 
ATOM     19  H3  MU0 d   1      18.046  34.885  15.502  0.00  0.00     0.069 H 
ATOM     20  H1  MU0 d   1      16.233  32.609  14.751  0.00  0.00     0.102 H 
BRANCH  16  21
ATOM     21  C33 MU0 d   1      15.924  36.113  17.029  0.00  0.00     0.039 A 
ATOM     22  C38 MU0 d   1      14.634  36.435  17.436  0.00  0.00    -0.057 A 
ATOM     23  C37 MU0 d   1      14.341  37.728  17.856  0.00  0.00    -0.081 A 
ATOM     24  H4  MU0 d   1      13.857  35.679  17.426  0.00  0.00     0.086 H 
ATOM     25  C36 MU0 d   1      15.331  38.699  17.882  0.00  0.00    -0.083 A 
ATOM     26  H5  MU0 d   1      13.333  37.978  18.165  0.00  0.00     0.083 H 
ATOM     27  C35 MU0 d   1      16.619  38.375  17.485  0.00  0.00    -0.081 A 
ATOM     28  H6  MU0 d   1      15.099  39.706  18.211  0.00  0.00     0.083 H 
ATOM     29  C34 MU0 d   1      16.913  37.086  17.058  0.00  0.00    -0.057 A 
ATOM     30  H7  MU0 d   1      17.398  39.129  17.508  0.00  0.00     0.083 H 
ATOM     31  H8  MU0 d   1      17.921  36.839  16.746  0.00  0.00     0.086 H 
ENDBRANCH  16  21
ENDBRANCH   9  12
ENDBRANCH   6   8
BRANCH   6  32
ATOM     32  C29 MU0 d   1      21.518  31.437  16.138  0.00  0.00    -0.020 C 
ATOM     33  H11 MU0 d   1      22.392  30.865  15.794  0.00  0.00     0.043 H 
ATOM     34  H12 MU0 d   1      21.381  31.282  17.218  0.00  0.00     0.043 H 
BRANCH  32  35
ATOM     35  C4  MU0 d   1      21.752  32.899  15.876  0.00  0.00    -0.056 A 
ATOM     36  C9  MU0 d   1      22.198  33.311  14.626  0.00  0.00    -0.077 A 
ATOM     37  C8  MU0 d   1      22.414  34.655  14.387  0.00  0.00    -0.082 A 
ATOM     38  H13 MU0 d   1      22.375  32.583  13.843  0.00  0.00     0.084 H 
ATOM     39  C7  MU0 d   1      22.183  35.604  15.386  0.00  0.00    -0.083 A 
ATOM     40  H14 MU0 d   1      22.767  34.976  13.414  0.00  0.00     0.083 H 
ATOM     41  C6  MU0 d   1      21.737  35.200  16.638  0.00  0.00    -0.082 A 
ATOM     42  H17 MU0 d   1      22.352  36.656  15.184  0.00  0.00     0.083 H 
ATOM     43  C5  MU0 d   1      21.520  33.844  16.884  0.00  0.00    -0.077 A 
ATOM     44  H16 MU0 d   1      21.559  35.932  17.417  0.00  0.00     0.083 H 
ATOM     45  H15 MU0 d   1      21.171  33.521  17.858  0.00  0.00     0.084 H 
ENDBRANCH  32  35
ENDBRANCH   6  32
ENDBRANCH   4   6
BRANCH   4  46
ATOM     46  O4  MU0 d   1      19.917  29.130  16.989  0.00  0.00    -0.393 OA
ATOM     47  H19 MU0 d   1      19.832  28.190  17.099  0.00  0.00     0.210 HD
ENDBRANCH   4  46
ENDBRANCH   1   4
BRANCH   1  48
ATOM     48  C12 MU0 d   1      19.167  28.647  13.347  0.00  0.00     0.018 C 
ATOM     49  H22 MU0 d   1      19.103  29.626  12.850  0.00  0.00     0.073 H 
BRANCH  48  50
ATOM     50  N3  MU0 d   1      20.456  28.044  13.044  0.00  0.00    -0.354 N 
ATOM     51  C11 MU0 d   1      21.302  28.502  12.114  0.00  0.00     0.241 C 
ATOM     52  O2  MU0 d   1      21.140  29.508  11.436  0.00  0.00    -0.271 OA
ATOM     53  H23 MU0 d   1      20.727  27.235  13.565  0.00  0.00     0.162 HD
BRANCH  51  54
ATOM     54  C10 MU0 d   1      22.504  27.615  11.897  0.00  0.00     0.096 C 
ATOM     55  H24 MU0 d   1      22.549  26.909  12.739  0.00  0.00     0.088 H 
BRANCH  54  56
ATOM     56  C13 MU0 d   1      23.796  28.439  11.920  0.00  0.00    -0.033 C 
ATOM     57  H25 MU0 d   1      23.774  29.151  11.082  0.00  0.00     0.042 H 
BRANCH  56  58
ATOM     58  C14 MU0 d   1      23.864  29.234  13.221  0.00  0.00    -0.071 C 
ATOM     59  H26 MU0 d   1      24.791  29.827  13.241  0.00  0.00     0.028 H 
ATOM     60  H27 MU0 d   1      23.854  28.541  14.075  0.00  0.00     0.028 H 
ATOM     61  H28 MU0 d   1      22.997  29.907  13.285  0.00  0.00     0.028 H 
ENDBRANCH  56  58
BRANCH  56  62
ATOM     62  C15 MU0 d   1      24.999  27.529  11.734  0.00  0.00    -0.071 C 
ATOM     63  H29 MU0 d   1      24.901  26.981  10.785  0.00  0.00     0.028 H 
ATOM     64  H30 MU0 d   1      25.049  26.813  12.567  0.00  0.00     0.028 H 
ATOM     65  H31 MU0 d   1      25.917  28.134  11.715  0.00  0.00     0.028 H 
ENDBRANCH  56  62
ENDBRANCH  54  56
BRANCH  54  66
ATOM     66  N1  MU0 d   1      22.380  26.811  10.658  0.00  0.00    -0.320 N 
ATOM     67  C2  MU0 d   1      22.341  27.559   9.399  0.00  0.00     0.002 C 
ATOM     68  C39 MU0 d   1      23.026  26.663   8.379  0.00  0.00    -0.035 C 
ATOM     69  H32 MU0 d   1      22.882  28.512   9.500  0.00  0.00     0.064 H 
ATOM     70  H33 MU0 d   1      21.301  27.757   9.101  0.00  0.00     0.064 H 
ATOM     71  C1  MU0 d   1      22.263  25.345   8.312  0.00  0.00    -0.002 C 
ATOM     72  H34 MU0 d   1      24.065  26.476   8.687  0.00  0.00     0.037 H 
ATOM     73  H35 MU0 d   1      23.017  27.148   7.392  0.00  0.00     0.037 H 
ATOM     74  N2  MU0 d   1      22.163  24.763   9.638  0.00  0.00    -0.343 N 
ATOM     75  H37 MU0 d   1      22.796  24.649   7.648  0.00  0.00     0.064 H 
ATOM     76  H38 MU0 d   1      21.253  25.528   7.917  0.00  0.00     0.064 H 
ATOM     77  C3  MU0 d   1      22.232  25.482  10.760  0.00  0.00     0.319 C 
ATOM     78  H36 MU0 d   1      22.036  23.774   9.714  0.00  0.00     0.164 HD
ATOM     79  O1  MU0 d   1      22.133  24.937  11.853  0.00  0.00    -0.247 OA
ENDBRANCH  54  66
ENDBRANCH  51  54
ENDBRANCH  48  50
BRANCH  48  80
ATOM     80  C22 MU0 d   1      18.031  27.742  12.882  0.00  0.00    -0.022 C 
ATOM     81  H39 MU0 d   1      17.074  28.214  13.149  0.00  0.00     0.043 H 
ATOM     82  H40 MU0 d   1      18.119  26.774  13.397  0.00  0.00     0.043 H 
BRANCH  80  83
ATOM     83  C20 MU0 d   1      18.050  27.500  11.398  0.00  0.00    -0.056 A 
ATOM     84  C19 MU0 d   1      18.621  26.345  10.876  0.00  0.00    -0.077 A 
ATOM     85  C18 MU0 d   1      18.617  26.136   9.503  0.00  0.00    -0.082 A 
ATOM     86  H41 MU0 d   1      19.067  25.611  11.537  0.00  0.00     0.084 H 
ATOM     87  C17 MU0 d   1      18.034  27.070   8.660  0.00  0.00    -0.083 A 
ATOM     88  H42 MU0 d   1      19.070  25.242   9.090  0.00  0.00     0.083 H 
ATOM     89  C16 MU0 d   1      17.452  28.210   9.192  0.00  0.00    -0.082 A 
ATOM     90  H43 MU0 d   1      18.033  26.909   7.588  0.00  0.00     0.083 H 
ATOM     91  C21 MU0 d   1      17.466  28.427  10.562  0.00  0.00    -0.077 A 
ATOM     92  H44 MU0 d   1      16.984  28.934   8.535  0.00  0.00     0.083 H 
ATOM     93  H45 MU0 d   1      17.018  29.324  10.974  0.00  0.00     0.084 H 
ENDBRANCH  80  83
ENDBRANCH  48  80
ENDBRANCH   1  48
TORSDOF 17
