REMARK  20 active torsions:
REMARK  status: ('A' for Active; 'I' for Inactive)
REMARK    1  A    between atoms: C10_13  and  N1_3 
REMARK    2  A    between atoms: C29_37  and  C4_6 
REMARK    3  A    between atoms: C11_14  and  C10_13 
REMARK    4  A    between atoms: C10_13  and  C13_17 
REMARK       I    between atoms: N3_15  and  C11_14 
REMARK    5  A    between atoms: C12_16  and  N3_15 
REMARK    6  A    between atoms: C12_16  and  C22_27 
REMARK    7  A    between atoms: C23_28  and  C12_16 
REMARK    8  A    between atoms: C13_17  and  C14_18 
REMARK    9  A    between atoms: C13_17  and  C15_19 
REMARK   10  A    between atoms: C22_27  and  C20_25 
REMARK   11  A    between atoms: C24_29  and  C23_28 
REMARK   12  A    between atoms: C25_30  and  C24_29 
REMARK   13  A    between atoms: C24_29  and  O4_36 
REMARK   14  A    between atoms: C25_30  and  N4_31 
REMARK   15  A    between atoms: C25_30  and  C29_37 
REMARK       I    between atoms: N4_31  and  C26_32 
REMARK   16  A    between atoms: C26_32  and  C27_33 
REMARK   17  A    between atoms: C27_33  and  O3_34 
REMARK   18  A    between atoms: O3_34  and  C28_35 
REMARK   19  A    between atoms: C30_39  and  C36_45 
REMARK   20  A    between atoms: C34_43  and  C35_44 
ROOT
ATOM      1  C23 AB1 d   1      19.444  28.437  14.076  0.00  0.00    -0.020 C 
ATOM      2  H28 AB1 d   1      19.269  27.457  14.543  0.00  0.00     0.040 H 
ATOM      3  H29 AB1 d   1      18.555  29.070  14.209  0.00  0.00     0.040 H 
ENDROOT
BRANCH   1   4
ATOM      4  C12 AB1 d   1      19.646  28.215  12.574  0.00  0.00     0.018 C 
ATOM      5  H13 AB1 d   1      19.637  29.188  12.060  0.00  0.00     0.073 H 
BRANCH   4   6
ATOM      6  N3  AB1 d   1      20.899  27.542  12.266  0.00  0.00    -0.354 N 
ATOM      7  C11 AB1 d   1      21.767  27.975  11.349  0.00  0.00     0.241 C 
ATOM      8  O2  AB1 d   1      21.584  28.976  10.668  0.00  0.00    -0.271 OA
ATOM      9  H12 AB1 d   1      21.122  26.708  12.770  0.00  0.00     0.162 HD
BRANCH   7  10
ATOM     10  C10 AB1 d   1      22.990  27.102  11.182  0.00  0.00     0.096 C 
ATOM     11  H11 AB1 d   1      23.018  26.432  12.054  0.00  0.00     0.088 H 
BRANCH  10  12
ATOM     12  N1  AB1 d   1      22.843  26.247   9.980  0.00  0.00    -0.320 N 
ATOM     13  C2  AB1 d   1      22.872  26.960   8.695  0.00  0.00     0.002 C 
ATOM     14  C37 AB1 d   1      23.540  26.014   7.709  0.00  0.00    -0.035 C 
ATOM     15  H3  AB1 d   1      23.452  27.890   8.786  0.00  0.00     0.064 H 
ATOM     16  H4  AB1 d   1      21.850  27.197   8.366  0.00  0.00     0.064 H 
ATOM     17  C1  AB1 d   1      22.785  24.692   7.674  0.00  0.00    -0.002 C 
ATOM     18  H47 AB1 d   1      23.532  26.466   6.706  0.00  0.00     0.037 H 
ATOM     19  H48 AB1 d   1      24.579  25.834   8.022  0.00  0.00     0.037 H 
ATOM     20  N2  AB1 d   1      22.575  24.170   9.012  0.00  0.00    -0.343 N 
ATOM     21  H1  AB1 d   1      21.808  24.850   7.193  0.00  0.00     0.064 H 
ATOM     22  H2  AB1 d   1      23.367  23.962   7.092  0.00  0.00     0.064 H 
ATOM     23  C3  AB1 d   1      22.646  24.922  10.112  0.00  0.00     0.319 C 
ATOM     24  H5  AB1 d   1      22.366  23.197   9.115  0.00  0.00     0.164 HD
ATOM     25  O1  AB1 d   1      22.547  24.390  11.214  0.00  0.00    -0.247 OA
ENDBRANCH  10  12
BRANCH  10  26
ATOM     26  C13 AB1 d   1      24.325  27.864  11.185  0.00  0.00    -0.033 C 
ATOM     27  H14 AB1 d   1      24.341  28.533  10.312  0.00  0.00     0.042 H 
BRANCH  26  28
ATOM     28  C14 AB1 d   1      24.461  28.719  12.449  0.00  0.00    -0.071 C 
ATOM     29  H15 AB1 d   1      25.422  29.254  12.428  0.00  0.00     0.028 H 
ATOM     30  H16 AB1 d   1      24.421  28.070  13.336  0.00  0.00     0.028 H 
ATOM     31  H17 AB1 d   1      23.637  29.447  12.490  0.00  0.00     0.028 H 
ENDBRANCH  26  28
BRANCH  26  32
ATOM     32  C15 AB1 d   1      25.505  26.894  11.071  0.00  0.00    -0.071 C 
ATOM     33  H18 AB1 d   1      25.394  26.287  10.160  0.00  0.00     0.028 H 
ATOM     34  H19 AB1 d   1      25.524  26.234  11.951  0.00  0.00     0.028 H 
ATOM     35  H20 AB1 d   1      26.445  27.464  11.020  0.00  0.00     0.028 H 
ENDBRANCH  26  32
ENDBRANCH  10  26
ENDBRANCH   7  10
ENDBRANCH   4   6
BRANCH   4  36
ATOM     36  C22 AB1 d   1      18.461  27.366  12.098  0.00  0.00    -0.022 C 
ATOM     37  H26 AB1 d   1      17.534  27.918  12.311  0.00  0.00     0.043 H 
ATOM     38  H27 AB1 d   1      18.464  26.422  12.663  0.00  0.00     0.043 H 
BRANCH  36  39
ATOM     39  C20 AB1 d   1      18.488  27.037  10.627  0.00  0.00    -0.056 A 
ATOM     40  C19 AB1 d   1      19.085  25.860  10.169  0.00  0.00    -0.077 A 
ATOM     41  C18 AB1 d   1      19.092  25.561   8.814  0.00  0.00    -0.082 A 
ATOM     42  H24 AB1 d   1      19.545  25.178  10.875  0.00  0.00     0.084 H 
ATOM     43  C17 AB1 d   1      18.463  26.414   7.915  0.00  0.00    -0.083 A 
ATOM     44  H23 AB1 d   1      19.587  24.665   8.458  0.00  0.00     0.083 H 
ATOM     45  C16 AB1 d   1      17.841  27.571   8.378  0.00  0.00    -0.082 A 
ATOM     46  H22 AB1 d   1      18.456  26.180   6.857  0.00  0.00     0.083 H 
ATOM     47  C21 AB1 d   1      17.854  27.879   9.730  0.00  0.00    -0.077 A 
ATOM     48  H21 AB1 d   1      17.345  28.234   7.678  0.00  0.00     0.083 H 
ATOM     49  H25 AB1 d   1      17.367  28.780  10.085  0.00  0.00     0.084 H 
ENDBRANCH  36  39
ENDBRANCH   4  36
ENDBRANCH   1   4
BRANCH   1  50
ATOM     50  C24 AB1 d   1      20.610  29.104  14.802  0.00  0.00     0.057 C 
ATOM     51  H30 AB1 d   1      21.536  28.593  14.500  0.00  0.00     0.086 H 
BRANCH  50  52
ATOM     52  C25 AB1 d   1      20.792  30.600  14.502  0.00  0.00     0.041 C 
ATOM     53  H31 AB1 d   1      21.007  30.716  13.430  0.00  0.00     0.076 H 
BRANCH  52  54
ATOM     54  N4  AB1 d   1      19.594  31.366  14.806  0.00  0.00    -0.352 N 
ATOM     55  C26 AB1 d   1      18.779  31.883  13.868  0.00  0.00     0.242 C 
ATOM     56  O5  AB1 d   1      18.935  31.770  12.662  0.00  0.00    -0.271 OA
ATOM     57  H32 AB1 d   1      19.362  31.517  15.767  0.00  0.00     0.163 HD
BRANCH  55  58
ATOM     58  C27 AB1 d   1      17.564  32.666  14.313  0.00  0.00     0.099 C 
ATOM     59  H33 AB1 d   1      16.672  32.212  13.857  0.00  0.00     0.089 H 
ATOM     60  H34 AB1 d   1      17.669  33.702  13.959  0.00  0.00     0.089 H 
BRANCH  58  61
ATOM     61  O3  AB1 d   1      17.386  32.689  15.720  0.00  0.00    -0.341 OA
BRANCH  61  62
ATOM     62  C28 AB1 d   1      16.648  33.696  16.290  0.00  0.00     0.081 A 
ATOM     63  C30 AB1 d   1      15.258  33.635  16.276  0.00  0.00    -0.028 A 
ATOM     64  C31 AB1 d   1      14.520  34.665  16.856  0.00  0.00    -0.074 A 
ATOM     65  C32 AB1 d   1      15.156  35.748  17.458  0.00  0.00    -0.082 A 
ATOM     66  H38 AB1 d   1      13.437  34.623  16.838  0.00  0.00     0.084 H 
ATOM     67  C33 AB1 d   1      16.540  35.804  17.471  0.00  0.00    -0.074 A 
ATOM     68  H39 AB1 d   1      14.573  36.541  17.913  0.00  0.00     0.083 H 
ATOM     69  C34 AB1 d   1      17.290  34.773  16.898  0.00  0.00    -0.028 A 
ATOM     70  H40 AB1 d   1      17.043  36.649  17.927  0.00  0.00     0.084 H 
BRANCH  63  71
ATOM     71  C36 AB1 d   1      14.544  32.487  15.610  0.00  0.00    -0.049 C 
ATOM     72  H44 AB1 d   1      15.284  31.776  15.213  0.00  0.00     0.033 H 
ATOM     73  H45 AB1 d   1      13.924  32.869  14.786  0.00  0.00     0.033 H 
ATOM     74  H46 AB1 d   1      13.904  31.977  16.345  0.00  0.00     0.033 H 
ENDBRANCH  63  71
BRANCH  69  75
ATOM     75  C35 AB1 d   1      18.799  34.837  16.937  0.00  0.00    -0.049 C 
ATOM     76  H41 AB1 d   1      19.217  33.948  16.442  0.00  0.00     0.033 H 
ATOM     77  H42 AB1 d   1      19.138  34.868  17.983  0.00  0.00     0.033 H 
ATOM     78  H43 AB1 d   1      19.141  35.742  16.414  0.00  0.00     0.033 H 
ENDBRANCH  69  75
ENDBRANCH  61  62
ENDBRANCH  58  61
ENDBRANCH  55  58
ENDBRANCH  52  54
BRANCH  52  79
ATOM     79  C29 AB1 d   1      21.998  31.123  15.306  0.00  0.00    -0.020 C 
ATOM     80  H36 AB1 d   1      21.824  30.919  16.373  0.00  0.00     0.043 H 
ATOM     81  H37 AB1 d   1      22.900  30.589  14.973  0.00  0.00     0.043 H 
BRANCH  79  82
ATOM     82  C4  AB1 d   1      22.223  32.613  15.128  0.00  0.00    -0.056 A 
ATOM     83  C5  AB1 d   1      22.028  33.487  16.199  0.00  0.00    -0.077 A 
ATOM     84  C6  AB1 d   1      22.216  34.869  16.055  0.00  0.00    -0.082 A 
ATOM     85  H6  AB1 d   1      21.725  33.089  17.161  0.00  0.00     0.084 H 
ATOM     86  C7  AB1 d   1      22.608  35.380  14.831  0.00  0.00    -0.083 A 
ATOM     87  H7  AB1 d   1      22.055  35.532  16.897  0.00  0.00     0.083 H 
ATOM     88  C8  AB1 d   1      22.816  34.502  13.758  0.00  0.00    -0.082 A 
ATOM     89  H8  AB1 d   1      22.753  36.447  14.703  0.00  0.00     0.083 H 
ATOM     90  C9  AB1 d   1      22.624  33.125  13.894  0.00  0.00    -0.077 A 
ATOM     91  H9  AB1 d   1      23.133  34.901  12.801  0.00  0.00     0.083 H 
ATOM     92  H10 AB1 d   1      22.785  32.463  13.051  0.00  0.00     0.084 H 
ENDBRANCH  79  82
ENDBRANCH  52  79
ENDBRANCH  50  52
BRANCH  50  93
ATOM     93  O4  AB1 d   1      20.403  28.902  16.212  0.00  0.00    -0.393 OA
ATOM     94  H35 AB1 d   1      21.156  29.227  16.691  0.00  0.00     0.210 HD
ENDBRANCH  50  93
ENDBRANCH   1  50
TORSDOF 20
