REMARK  16 active torsions:
REMARK  status: ('A' for Active; 'I' for Inactive)
REMARK    1  A    between atoms: N7_7  and  C18_18 
REMARK    2  A    between atoms: C8_8  and  C11_11 
REMARK       I    between atoms: C11_11  and  N12_12 
REMARK    3  A    between atoms: N12_12  and  C13_13 
REMARK    4  A    between atoms: C13_13  and  C14_14 
REMARK    5  A    between atoms: C13_13  and  C15_15 
REMARK    6  A    between atoms: C13_13  and  C16_16 
REMARK    7  A    between atoms: C18_18  and  C19_19 
REMARK    8  A    between atoms: C19_19  and  C20_20 
REMARK    9  A    between atoms: C19_19  and  O21_21 
REMARK   10  A    between atoms: C20_20  and  N22_22 
REMARK   11  A    between atoms: C20_20  and  C23_23 
REMARK       I    between atoms: N22_22  and  C24_24 
REMARK   12  A    between atoms: C23_23  and  S74_34 
REMARK   13  A    between atoms: C24_24  and  C29_26 
REMARK   14  A    between atoms: C33_30  and  O38_32 
REMARK   15  A    between atoms: C34_31  and  C39_33 
REMARK   16  A    between atoms: S74_34  and  C77_35 
ROOT
ATOM      1  C1  1UN d   1     -12.866  58.317   4.206  0.00  0.00    -0.027 C 
ATOM      2  C2  1UN d   1     -13.399  58.688   5.593  0.00  0.00    -0.047 C 
ATOM      3  C3  1UN d   1     -14.481  59.772   5.523  0.00  0.00    -0.061 C 
ATOM      4  C4  1UN d   1     -15.560  59.476   4.480  0.00  0.00    -0.065 C 
ATOM      5  C5  1UN d   1     -14.946  59.140   3.120  0.00  0.00    -0.065 C 
ATOM      6  C6  1UN d   1     -13.989  57.958   3.226  0.00  0.00    -0.060 C 
ATOM      7  N7  1UN d   1     -12.327  56.025   5.042  0.00  0.00    -0.055 N 
ATOM      8  C8  1UN d   1     -12.786  56.398   6.406  0.00  0.00     0.180 C 
ATOM      9  C9  1UN d   1     -13.901  57.447   6.328  0.00  0.00    -0.026 C 
ATOM     10  C10 1UN d   1     -11.830  57.200   4.295  0.00  0.00     0.088 C 
ATOM     11  H1  1UN d   1     -12.357  59.206   3.805  0.00  0.00     0.043 H 
ATOM     12  H2  1UN d   1     -12.559  59.100   6.171  0.00  0.00     0.040 H 
ATOM     13  H3  1UN d   1     -14.002  60.729   5.269  0.00  0.00     0.033 H 
ATOM     14  H4  1UN d   1     -14.960  59.852   6.510  0.00  0.00     0.033 H 
ATOM     15  H5  1UN d   1     -16.206  60.360   4.372  0.00  0.00     0.033 H 
ATOM     16  H6  1UN d   1     -16.163  58.621   4.821  0.00  0.00     0.033 H 
ATOM     17  H7  1UN d   1     -14.395  60.016   2.749  0.00  0.00     0.033 H 
ATOM     18  H8  1UN d   1     -15.752  58.888   2.415  0.00  0.00     0.033 H 
ATOM     19  H9  1UN d   1     -14.532  57.075   3.594  0.00  0.00     0.033 H 
ATOM     20  H10 1UN d   1     -13.560  57.740   2.237  0.00  0.00     0.033 H 
ATOM     21  H11 1UN d   1     -13.112  55.635   4.543  0.00  0.00     0.281 HD
ATOM     22  H12 1UN d   1     -11.932  56.815   6.960  0.00  0.00     0.100 H 
ATOM     23  H13 1UN d   1     -14.761  57.026   5.786  0.00  0.00     0.037 H 
ATOM     24  H14 1UN d   1     -14.210  57.727   7.346  0.00  0.00     0.037 H 
ATOM     25  H15 1UN d   1     -10.935  57.589   4.803  0.00  0.00     0.076 H 
ATOM     26  H16 1UN d   1     -11.564  56.883   3.276  0.00  0.00     0.076 H 
ENDROOT
BRANCH   7  27
ATOM     27  C18 1UN d   1     -11.253  55.015   5.097  0.00  0.00     0.110 C 
ATOM     28  H27 1UN d   1     -11.448  54.322   5.928  0.00  0.00     0.080 H 
ATOM     29  H28 1UN d   1     -10.289  55.519   5.259  0.00  0.00     0.080 H 
BRANCH  27  30
ATOM     30  C19 1UN d   1     -11.199  54.230   3.787  0.00  0.00     0.079 C 
ATOM     31  H29 1UN d   1     -11.338  54.951   2.968  0.00  0.00     0.088 H 
BRANCH  30  32
ATOM     32  C20 1UN d   1     -12.303  53.187   3.665  0.00  0.00     0.047 C 
ATOM     33  H30 1UN d   1     -13.269  53.697   3.795  0.00  0.00     0.077 H 
BRANCH  32  34
ATOM     34  N22 1UN d   1     -12.239  52.653   2.317  0.00  0.00    -0.349 N 
ATOM     35  C24 1UN d   1     -13.235  52.823   1.458  0.00  0.00     0.252 C 
ATOM     36  O25 1UN d   1     -14.283  53.357   1.768  0.00  0.00    -0.268 OA
ATOM     37  H32 1UN d   1     -11.426  52.146   2.030  0.00  0.00     0.163 HD
BRANCH  35  38
ATOM     38  C29 1UN d   1     -13.053  52.344   0.053  0.00  0.00     0.040 A 
ATOM     39  C30 1UN d   1     -12.956  50.985  -0.232  0.00  0.00    -0.067 A 
ATOM     40  C31 1UN d   1     -12.776  50.538  -1.540  0.00  0.00    -0.079 A 
ATOM     41  H35 1UN d   1     -13.021  50.264   0.575  0.00  0.00     0.085 H 
ATOM     42  C32 1UN d   1     -12.694  51.429  -2.612  0.00  0.00    -0.050 A 
ATOM     43  H36 1UN d   1     -12.698  49.474  -1.729  0.00  0.00     0.083 H 
ATOM     44  C33 1UN d   1     -12.778  52.805  -2.410  0.00  0.00     0.072 A 
ATOM     45  H37 1UN d   1     -12.563  51.044  -3.617  0.00  0.00     0.087 H 
ATOM     46  C34 1UN d   1     -12.965  53.331  -1.045  0.00  0.00    -0.013 A 
BRANCH  44  47
ATOM     47  O38 1UN d   1     -12.695  53.665  -3.460  0.00  0.00    -0.360 OA
ATOM     48  H38 1UN d   1     -12.576  53.172  -4.263  0.00  0.00     0.217 HD
ENDBRANCH  44  47
BRANCH  46  49
ATOM     49  C39 1UN d   1     -13.067  54.818  -0.772  0.00  0.00    -0.048 C 
ATOM     50  H39 1UN d   1     -13.203  54.984   0.307  0.00  0.00     0.033 H 
ATOM     51  H40 1UN d   1     -13.927  55.233  -1.318  0.00  0.00     0.033 H 
ATOM     52  H41 1UN d   1     -12.145  55.316  -1.106  0.00  0.00     0.033 H 
ENDBRANCH  46  49
ENDBRANCH  35  38
ENDBRANCH  32  34
BRANCH  32  53
ATOM     53  C23 1UN d   1     -12.234  52.074   4.711  0.00  0.00     0.003 C 
ATOM     54  H33 1UN d   1     -12.246  52.528   5.713  0.00  0.00     0.052 H 
ATOM     55  H34 1UN d   1     -11.296  51.516   4.573  0.00  0.00     0.052 H 
BRANCH  53  56
ATOM     56  S74 1UN d   1     -13.589  50.951   4.579  0.00  0.00    -0.128 SA
BRANCH  56  57
ATOM     57  C77 1UN d   1     -13.524  49.751   3.379  0.00  0.00     0.000 A 
ATOM     58  C78 1UN d   1     -14.703  49.302   2.778  0.00  0.00    -0.067 A 
ATOM     59  C79 1UN d   1     -14.667  48.317   1.788  0.00  0.00    -0.082 A 
ATOM     60  H42 1UN d   1     -15.655  49.722   3.083  0.00  0.00     0.085 H 
ATOM     61  C80 1UN d   1     -13.441  47.775   1.398  0.00  0.00    -0.083 A 
ATOM     62  H43 1UN d   1     -15.586  47.975   1.325  0.00  0.00     0.083 H 
ATOM     63  C81 1UN d   1     -12.264  48.226   1.994  0.00  0.00    -0.082 A 
ATOM     64  H44 1UN d   1     -13.404  47.006   0.635  0.00  0.00     0.083 H 
ATOM     65  C82 1UN d   1     -12.301  49.211   2.985  0.00  0.00    -0.067 A 
ATOM     66  H45 1UN d   1     -11.312  47.809   1.686  0.00  0.00     0.083 H 
ATOM     67  H46 1UN d   1     -11.382  49.554   3.446  0.00  0.00     0.085 H 
ENDBRANCH  56  57
ENDBRANCH  53  56
ENDBRANCH  32  53
ENDBRANCH  30  32
BRANCH  30  68
ATOM     68  O21 1UN d   1      -9.909  53.616   3.619  0.00  0.00    -0.392 OA
ATOM     69  H31 1UN d   1      -9.232  54.278   3.698  0.00  0.00     0.210 HD
ENDBRANCH  30  68
ENDBRANCH  27  30
ENDBRANCH   7  27
BRANCH   8  70
ATOM     70  C11 1UN d   1     -13.323  55.215   7.153  0.00  0.00     0.249 C 
ATOM     71  N12 1UN d   1     -13.044  55.177   8.467  0.00  0.00    -0.351 N 
ATOM     72  H17 1UN d   1     -12.502  55.930   8.840  0.00  0.00     0.163 HD
ATOM     73  O17 1UN d   1     -13.977  54.380   6.553  0.00  0.00    -0.271 OA
BRANCH  71  74
ATOM     74  C13 1UN d   1     -13.463  54.134   9.396  0.00  0.00     0.022 C 
BRANCH  74  75
ATOM     75  C14 1UN d   1     -13.026  52.746   8.914  0.00  0.00    -0.054 C 
ATOM     76  H18 1UN d   1     -13.358  51.986   9.636  0.00  0.00     0.030 H 
ATOM     77  H19 1UN d   1     -11.930  52.716   8.828  0.00  0.00     0.030 H 
ATOM     78  H20 1UN d   1     -13.477  52.540   7.932  0.00  0.00     0.030 H 
ENDBRANCH  74  75
BRANCH  74  79
ATOM     79  C15 1UN d   1     -14.979  54.165   9.573  0.00  0.00    -0.054 C 
ATOM     80  H21 1UN d   1     -15.282  53.374  10.275  0.00  0.00     0.030 H 
ATOM     81  H22 1UN d   1     -15.465  53.998   8.601  0.00  0.00     0.030 H 
ATOM     82  H23 1UN d   1     -15.282  55.145   9.971  0.00  0.00     0.030 H 
ENDBRANCH  74  79
BRANCH  74  83
ATOM     83  C16 1UN d   1     -12.788  54.430  10.726  0.00  0.00    -0.054 C 
ATOM     84  H24 1UN d   1     -13.076  53.665  11.462  0.00  0.00     0.030 H 
ATOM     85  H25 1UN d   1     -13.103  55.421  11.085  0.00  0.00     0.030 H 
ATOM     86  H26 1UN d   1     -11.696  54.418  10.594  0.00  0.00     0.030 H 
ENDBRANCH  74  83
ENDBRANCH  71  74
ENDBRANCH   8  70
TORSDOF 16
