REMARK  16 active torsions:
REMARK  status: ('A' for Active; 'I' for Inactive)
REMARK    1  A    between atoms: N7_7  and  C18_18 
REMARK    2  A    between atoms: C8_8  and  C11_11 
REMARK       I    between atoms: C11_11  and  N12_12 
REMARK    3  A    between atoms: N12_12  and  C13_13 
REMARK    4  A    between atoms: C13_13  and  C14_14 
REMARK    5  A    between atoms: C13_13  and  C15_15 
REMARK    6  A    between atoms: C13_13  and  C16_16 
REMARK    7  A    between atoms: C18_18  and  C19_19 
REMARK    8  A    between atoms: C19_19  and  C20_20 
REMARK    9  A    between atoms: C19_19  and  O21_21 
REMARK   10  A    between atoms: C20_20  and  N22_22 
REMARK   11  A    between atoms: C20_20  and  C23_23 
REMARK       I    between atoms: N22_22  and  C24_24 
REMARK   12  A    between atoms: C23_23  and  S74_34 
REMARK   13  A    between atoms: C24_24  and  C29_26 
REMARK   14  A    between atoms: C33_30  and  O38_32 
REMARK   15  A    between atoms: C34_31  and  C39_33 
REMARK   16  A    between atoms: S74_34  and  C77_35 
ROOT
ATOM      1  C1  1UN d   1     -12.712  13.414  27.527  0.00  0.00    -0.027 C 
ATOM      2  C2  1UN d   1     -12.740  12.818  28.943  0.00  0.00    -0.047 C 
ATOM      3  C3  1UN d   1     -13.009  11.307  28.918  0.00  0.00    -0.061 C 
ATOM      4  C4  1UN d   1     -12.040  10.567  27.987  0.00  0.00    -0.065 C 
ATOM      5  C5  1UN d   1     -12.055  11.150  26.574  0.00  0.00    -0.065 C 
ATOM      6  C6  1UN d   1     -11.776  12.650  26.579  0.00  0.00    -0.060 C 
ATOM      7  N7  1UN d   1     -11.004  15.071  28.251  0.00  0.00    -0.055 N 
ATOM      8  C8  1UN d   1     -10.976  14.552  29.647  0.00  0.00     0.180 C 
ATOM      9  C9  1UN d   1     -11.455  13.099  29.734  0.00  0.00    -0.026 C 
ATOM     10  C10 1UN d   1     -12.317  14.888  27.584  0.00  0.00     0.088 C 
ATOM     11  H1  1UN d   1     -13.730  13.347  27.116  0.00  0.00     0.043 H 
ATOM     12  H2  1UN d   1     -13.571  13.298  29.480  0.00  0.00     0.040 H 
ATOM     13  H3  1UN d   1     -14.038  11.135  28.569  0.00  0.00     0.033 H 
ATOM     14  H4  1UN d   1     -12.896  10.909  29.937  0.00  0.00     0.033 H 
ATOM     15  H5  1UN d   1     -12.332   9.508  27.938  0.00  0.00     0.033 H 
ATOM     16  H6  1UN d   1     -11.022  10.648  28.395  0.00  0.00     0.033 H 
ATOM     17  H7  1UN d   1     -13.044  10.973  26.126  0.00  0.00     0.033 H 
ATOM     18  H8  1UN d   1     -11.284  10.646  25.972  0.00  0.00     0.033 H 
ATOM     19  H9  1UN d   1     -10.737  12.815  26.899  0.00  0.00     0.033 H 
ATOM     20  H10 1UN d   1     -11.912  13.038  25.559  0.00  0.00     0.033 H 
ATOM     21  H11 1UN d   1     -10.311  14.567  27.720  0.00  0.00     0.281 HD
ATOM     22  H12 1UN d   1     -11.645  15.181  30.252  0.00  0.00     0.100 H 
ATOM     23  H13 1UN d   1     -10.659  12.448  29.343  0.00  0.00     0.037 H 
ATOM     24  H14 1UN d   1     -11.640  12.858  30.791  0.00  0.00     0.037 H 
ATOM     25  H15 1UN d   1     -13.084  15.443  28.145  0.00  0.00     0.076 H 
ATOM     26  H16 1UN d   1     -12.256  15.282  26.559  0.00  0.00     0.076 H 
ENDROOT
BRANCH   7  27
ATOM     27  C18 1UN d   1     -10.660  16.499  28.241  0.00  0.00     0.110 C 
ATOM     28  H27 1UN d   1      -9.944  16.707  29.049  0.00  0.00     0.080 H 
ATOM     29  H28 1UN d   1     -11.572  17.095  28.396  0.00  0.00     0.080 H 
BRANCH  27  30
ATOM     30  C19 1UN d   1     -10.034  16.872  26.902  0.00  0.00     0.079 C 
ATOM     31  H29 1UN d   1     -10.592  16.345  26.114  0.00  0.00     0.088 H 
BRANCH  30  32
ATOM     32  C20 1UN d   1      -8.571  16.460  26.781  0.00  0.00     0.047 C 
ATOM     33  H30 1UN d   1      -8.488  15.391  27.025  0.00  0.00     0.077 H 
BRANCH  32  34
ATOM     34  N22 1UN d   1      -8.167  16.661  25.400  0.00  0.00    -0.349 N 
ATOM     35  C24 1UN d   1      -7.775  15.687  24.570  0.00  0.00     0.252 C 
ATOM     36  O25 1UN d   1      -7.699  14.508  24.893  0.00  0.00    -0.268 OA
ATOM     37  H32 1UN d   1      -8.183  17.595  25.044  0.00  0.00     0.163 HD
BRANCH  35  38
ATOM     38  C29 1UN d   1      -7.434  16.092  23.161  0.00  0.00     0.040 A 
ATOM     39  C30 1UN d   1      -6.378  16.978  22.905  0.00  0.00    -0.067 A 
ATOM     40  C31 1UN d   1      -6.057  17.378  21.607  0.00  0.00    -0.079 A 
ATOM     41  H35 1UN d   1      -5.797  17.362  23.735  0.00  0.00     0.085 H 
ATOM     42  C32 1UN d   1      -6.777  16.913  20.505  0.00  0.00    -0.050 A 
ATOM     43  H36 1UN d   1      -5.232  18.064  21.451  0.00  0.00     0.083 H 
ATOM     44  C33 1UN d   1      -7.851  16.031  20.658  0.00  0.00     0.072 A 
ATOM     45  H37 1UN d   1      -6.498  17.242  19.511  0.00  0.00     0.087 H 
ATOM     46  C34 1UN d   1      -8.234  15.574  22.015  0.00  0.00    -0.013 A 
BRANCH  44  47
ATOM     47  O38 1UN d   1      -8.552  15.574  19.586  0.00  0.00    -0.360 OA
ATOM     48  H38 1UN d   1      -8.194  15.951  18.791  0.00  0.00     0.217 HD
ENDBRANCH  44  47
BRANCH  46  49
ATOM     49  C39 1UN d   1      -9.397  14.623  22.202  0.00  0.00    -0.048 C 
ATOM     50  H39 1UN d   1      -9.523  14.404  23.273  0.00  0.00     0.033 H 
ATOM     51  H40 1UN d   1      -9.198  13.688  21.657  0.00  0.00     0.033 H 
ATOM     52  H41 1UN d   1     -10.316  15.086  21.812  0.00  0.00     0.033 H 
ENDBRANCH  46  49
ENDBRANCH  35  38
ENDBRANCH  32  34
BRANCH  32  53
ATOM     53  C23 1UN d   1      -7.656  17.232  27.732  0.00  0.00     0.003 C 
ATOM     54  H33 1UN d   1      -8.128  17.284  28.724  0.00  0.00     0.052 H 
ATOM     55  H34 1UN d   1      -7.508  18.250  27.343  0.00  0.00     0.052 H 
BRANCH  53  56
ATOM     56  S74 1UN d   1      -6.089  16.437  27.879  0.00  0.00    -0.128 SA
BRANCH  56  57
ATOM     57  C77 1UN d   1      -5.062  17.158  26.725  0.00  0.00     0.000 A 
ATOM     58  C78 1UN d   1      -3.885  16.506  26.340  0.00  0.00    -0.067 A 
ATOM     59  C79 1UN d   1      -3.040  17.092  25.393  0.00  0.00    -0.082 A 
ATOM     60  H42 1UN d   1      -3.629  15.547  26.776  0.00  0.00     0.085 H 
ATOM     61  C80 1UN d   1      -3.363  18.326  24.829  0.00  0.00    -0.083 A 
ATOM     62  H43 1UN d   1      -2.129  16.585  25.096  0.00  0.00     0.083 H 
ATOM     63  C81 1UN d   1      -4.534  18.983  25.209  0.00  0.00    -0.082 A 
ATOM     64  H44 1UN d   1      -2.704  18.775  24.095  0.00  0.00     0.083 H 
ATOM     65  C82 1UN d   1      -5.380  18.400  26.154  0.00  0.00    -0.067 A 
ATOM     66  H45 1UN d   1      -4.786  19.942  24.772  0.00  0.00     0.083 H 
ATOM     67  H46 1UN d   1      -6.290  18.910  26.449  0.00  0.00     0.085 H 
ENDBRANCH  56  57
ENDBRANCH  53  56
ENDBRANCH  32  53
ENDBRANCH  30  32
BRANCH  30  68
ATOM     68  O21 1UN d   1     -10.175  18.281  26.686  0.00  0.00    -0.392 OA
ATOM     69  H31 1UN d   1     -11.091  18.522  26.765  0.00  0.00     0.210 HD
ENDBRANCH  30  68
ENDBRANCH  27  30
ENDBRANCH   7  27
BRANCH   8  70
ATOM     70  C11 1UN d   1      -9.590  14.600  30.248  0.00  0.00     0.249 C 
ATOM     71  N12 1UN d   1      -9.567  14.817  31.570  0.00  0.00    -0.351 N 
ATOM     72  H17 1UN d   1     -10.450  14.823  32.038  0.00  0.00     0.163 HD
ATOM     73  O17 1UN d   1      -8.591  14.438  29.553  0.00  0.00    -0.271 OA
BRANCH  71  74
ATOM     74  C13 1UN d   1      -8.391  15.044  32.394  0.00  0.00     0.022 C 
BRANCH  74  75
ATOM     75  C14 1UN d   1      -7.557  16.210  31.869  0.00  0.00    -0.054 C 
ATOM     76  H18 1UN d   1      -6.678  16.352  32.515  0.00  0.00     0.030 H 
ATOM     77  H19 1UN d   1      -8.166  17.126  31.871  0.00  0.00     0.030 H 
ATOM     78  H20 1UN d   1      -7.226  15.992  30.843  0.00  0.00     0.030 H 
ENDBRANCH  74  75
BRANCH  74  79
ATOM     79  C15 1UN d   1      -7.578  13.757  32.442  0.00  0.00    -0.054 C 
ATOM     80  H21 1UN d   1      -6.683  13.912  33.063  0.00  0.00     0.030 H 
ATOM     81  H22 1UN d   1      -7.274  13.477  31.423  0.00  0.00     0.030 H 
ATOM     82  H23 1UN d   1      -8.190  12.953  32.876  0.00  0.00     0.030 H 
ENDBRANCH  74  79
BRANCH  74  83
ATOM     83  C16 1UN d   1      -8.865  15.386  33.801  0.00  0.00    -0.054 C 
ATOM     84  H24 1UN d   1      -7.994  15.563  34.449  0.00  0.00     0.030 H 
ATOM     85  H25 1UN d   1      -9.456  14.549  34.202  0.00  0.00     0.030 H 
ATOM     86  H26 1UN d   1      -9.488  16.292  33.768  0.00  0.00     0.030 H 
ENDBRANCH  74  83
ENDBRANCH  71  74
ENDBRANCH   8  70
TORSDOF 16
