REMARK  25 active torsions:
REMARK  status: ('A' for Active; 'I' for Inactive)
REMARK    1  A    between atoms: C4_6  and  C1_2 
REMARK    2  A    between atoms: C3_4  and  C35_46 
REMARK       I    between atoms: N2_8  and  C4_6 
REMARK    3  A    between atoms: C5_9  and  N2_8 
REMARK    4  A    between atoms: C5_9  and  C6_10 
REMARK    5  A    between atoms: C7_11  and  C5_9 
REMARK       I    between atoms: N3_13  and  C7_11 
REMARK    6  A    between atoms: C8_14  and  N3_13 
REMARK    7  A    between atoms: C8_14  and  C9_15 
REMARK    8  A    between atoms: C12_18  and  C8_14 
REMARK    9  A    between atoms: C9_15  and  C10_16 
REMARK   10  A    between atoms: C9_15  and  C11_17 
REMARK       I    between atoms: N4_20  and  C12_18 
REMARK   11  A    between atoms: C13_21  and  N4_20 
REMARK   12  A    between atoms: C13_21  and  C14_22 
REMARK   13  A    between atoms: C18_47  and  C13_21 
REMARK   14  A    between atoms: C14_22  and  C15_23 
REMARK   15  A    between atoms: C15_23  and  C16_24 
REMARK   16  A    between atoms: C15_23  and  C17_25 
REMARK   17  A    between atoms: C19_26  and  C20_27 
REMARK   18  A    between atoms: C19_26  and  C25_34 
REMARK   19  A    between atoms: N5_49  and  C19_26 
REMARK   20  A    between atoms: C20_27  and  C21_28 
REMARK   21  A    between atoms: C21_28  and  C22_29 
REMARK   22  A    between atoms: C22_29  and  O7_31 
REMARK   23  A    between atoms: O7_31  and  C23_32 
REMARK   24  A    between atoms: C23_32  and  C24_33 
REMARK   25  A    between atoms: C25_34  and  C26_35 
REMARK       I    between atoms: C18_47  and  N5_49 
ROOT
ATOM      1  C13 LEU d   1      25.451 -66.921   8.957  0.00  0.00     0.089 C 
ATOM      2  H17 LEU d   1      24.501 -67.224   8.492  0.00  0.00     0.087 H 
ENDROOT
BRANCH   1   3
ATOM      3  N4  LEU d   1      26.547 -66.818   8.023  0.00  0.00    -0.346 N 
ATOM      4  C12 VAL d   1      26.409 -66.298   6.813  0.00  0.00     0.241 C 
ATOM      5  O4  VAL d   1      25.330 -65.855   6.442  0.00  0.00    -0.271 OA
ATOM      6  H16 LEU d   1      27.447 -67.153   8.301  0.00  0.00     0.163 HD
BRANCH   4   7
ATOM      7  C8  VAL d   1      27.637 -66.234   5.928  0.00  0.00     0.092 C 
ATOM      8  H8  VAL d   1      28.436 -66.862   6.348  0.00  0.00     0.088 H 
BRANCH   7   9
ATOM      9  N3  VAL d   1      27.300 -66.679   4.566  0.00  0.00    -0.346 N 
ATOM     10  C7  ALA d   1      27.963 -67.581   3.807  0.00  0.00     0.240 C 
ATOM     11  O3  ALA d   1      28.980 -68.139   4.174  0.00  0.00    -0.271 OA
ATOM     12  H7  VAL d   1      26.487 -66.267   4.154  0.00  0.00     0.163 HD
BRANCH  10  13
ATOM     13  C5  ALA d   1      27.440 -67.882   2.422  0.00  0.00     0.086 C 
ATOM     14  H3  ALA d   1      27.033 -66.956   1.990  0.00  0.00     0.086 H 
BRANCH  13  15
ATOM     15  N2  ALA d   1      28.501 -68.380   1.536  0.00  0.00    -0.343 N 
ATOM     16  C4  02J d   1      29.549 -67.628   1.186  0.00  0.00     0.273 C 
ATOM     17  O2  02J d   1      29.676 -66.470   1.574  0.00  0.00    -0.266 OA
ATOM     18  H2  ALA d   1      28.437 -69.313   1.183  0.00  0.00     0.163 HD
BRANCH  16  19
ATOM     19  C1  02J d   1      30.640 -68.165   0.319  0.00  0.00     0.154 A 
ATOM     20  N1  02J d   1      31.662 -68.970   0.775  0.00  0.00    -0.123 NA
ATOM     21  O1  02J d   1      32.507 -69.240  -0.357  0.00  0.00    -0.218 OA
ATOM     22  C3  02J d   1      31.966 -68.570  -1.412  0.00  0.00     0.077 A 
ATOM     23  C2  02J d   1      30.811 -67.890  -1.053  0.00  0.00    -0.017 A 
ATOM     24  H1  02J d   1      30.176 -67.278  -1.691  0.00  0.00     0.091 H 
BRANCH  22  25
ATOM     25  C35 02J d   1      32.538 -68.572  -2.809  0.00  0.00    -0.029 C 
ATOM     26  H47 02J d   1      33.453 -69.183  -2.830  0.00  0.00     0.036 H 
ATOM     27  H48 02J d   1      32.779 -67.541  -3.108  0.00  0.00     0.036 H 
ATOM     28  H49 02J d   1      31.800 -68.993  -3.507  0.00  0.00     0.036 H 
ENDBRANCH  22  25
ENDBRANCH  16  19
ENDBRANCH  13  15
BRANCH  13  29
ATOM     29  C6  ALA d   1      26.324 -68.906   2.537  0.00  0.00    -0.049 C 
ATOM     30  H4  ALA d   1      25.538 -68.519   3.203  0.00  0.00     0.030 H 
ATOM     31  H5  ALA d   1      26.727 -69.842   2.951  0.00  0.00     0.030 H 
ATOM     32  H6  ALA d   1      25.899 -69.098   1.541  0.00  0.00     0.030 H 
ENDBRANCH  13  29
ENDBRANCH  10  13
ENDBRANCH   7   9
BRANCH   7  33
ATOM     33  C9  VAL d   1      28.101 -64.757   5.827  0.00  0.00    -0.033 C 
ATOM     34  H9  VAL d   1      27.209 -64.175   5.552  0.00  0.00     0.042 H 
BRANCH  33  35
ATOM     35  C10 VAL d   1      28.614 -64.185   7.140  0.00  0.00    -0.071 C 
ATOM     36  H10 VAL d   1      28.923 -63.140   6.989  0.00  0.00     0.028 H 
ATOM     37  H11 VAL d   1      29.475 -64.775   7.486  0.00  0.00     0.028 H 
ATOM     38  H12 VAL d   1      27.815 -64.226   7.895  0.00  0.00     0.028 H 
ENDBRANCH  33  35
BRANCH  33  39
ATOM     39  C11 VAL d   1      29.139 -64.523   4.735  0.00  0.00    -0.071 C 
ATOM     40  H13 VAL d   1      28.770 -64.936   3.784  0.00  0.00     0.028 H 
ATOM     41  H14 VAL d   1      30.080 -65.021   5.011  0.00  0.00     0.028 H 
ATOM     42  H15 VAL d   1      29.315 -63.443   4.622  0.00  0.00     0.028 H 
ENDBRANCH  33  39
ENDBRANCH   7  33
ENDBRANCH   4   7
ENDBRANCH   1   3
BRANCH   1  43
ATOM     43  C14 LEU d   1      26.005 -67.963   9.897  0.00  0.00    -0.035 C 
ATOM     44  H18 LEU d   1      26.026 -67.498  10.893  0.00  0.00     0.037 H 
ATOM     45  H19 LEU d   1      27.034 -68.162   9.563  0.00  0.00     0.037 H 
BRANCH  43  46
ATOM     46  C15 LEU d   1      25.346 -69.326  10.078  0.00  0.00    -0.059 C 
ATOM     47  H20 LEU d   1      24.650 -69.245  10.926  0.00  0.00     0.038 H 
BRANCH  46  48
ATOM     48  C16 LEU d   1      24.544 -69.908   8.914  0.00  0.00    -0.073 C 
ATOM     49  H21 LEU d   1      24.137 -70.888   9.203  0.00  0.00     0.028 H 
ATOM     50  H22 LEU d   1      25.201 -70.027   8.040  0.00  0.00     0.028 H 
ATOM     51  H23 LEU d   1      23.717 -69.228   8.662  0.00  0.00     0.028 H 
ENDBRANCH  46  48
BRANCH  46  52
ATOM     52  C17 LEU d   1      26.478 -70.262  10.454  0.00  0.00    -0.073 C 
ATOM     53  H24 LEU d   1      27.047 -69.832  11.292  0.00  0.00     0.028 H 
ATOM     54  H25 LEU d   1      27.145 -70.397   9.589  0.00  0.00     0.028 H 
ATOM     55  H26 LEU d   1      26.064 -71.236  10.754  0.00  0.00     0.028 H 
ENDBRANCH  46  52
ENDBRANCH  43  46
ENDBRANCH   1  43
BRANCH   1  56
ATOM     56  C18 LEU d   1      25.326 -65.582   9.657  0.00  0.00     0.240 C 
ATOM     57  O5  LEU d   1      26.321 -64.985  10.076  0.00  0.00    -0.271 OA
ATOM     58  N5  PJE d   1      24.107 -65.061   9.790  0.00  0.00    -0.355 N 
ATOM     59  H50 PJE d   1      23.294 -65.532   9.447  0.00  0.00     0.162 HD
BRANCH  58  60
ATOM     60  C19 PJE d   1      24.017 -63.765  10.463  0.00  0.00     0.013 C 
ATOM     61  H27 PJE d   1      25.015 -63.342  10.648  0.00  0.00     0.072 H 
BRANCH  60  62
ATOM     62  C20 PJE d   1      23.277 -63.988  11.766  0.00  0.00    -0.038 C 
ATOM     63  H28 PJE d   1      22.352 -64.539  11.542  0.00  0.00     0.036 H 
ATOM     64  H29 PJE d   1      23.025 -63.004  12.187  0.00  0.00     0.036 H 
BRANCH  62  65
ATOM     65  C21 PJE d   1      24.052 -64.774  12.828  0.00  0.00     0.018 C 
ATOM     66  H30 PJE d   1      25.131 -64.589  12.725  0.00  0.00     0.048 H 
ATOM     67  H31 PJE d   1      23.853 -65.851  12.725  0.00  0.00     0.048 H 
BRANCH  65  68
ATOM     68  C22 PJE d   1      23.563 -64.279  14.168  0.00  0.00     0.259 C 
ATOM     69  O6  PJE d   1      22.659 -63.451  14.211  0.00  0.00    -0.265 OA
BRANCH  68  70
ATOM     70  O7  010 d   1      24.191 -64.740  15.418  0.00  0.00    -0.317 OA
BRANCH  70  71
ATOM     71  C23 010 d   1      24.215 -66.101  15.825  0.00  0.00     0.052 C 
ATOM     72  H32 010 d   1      24.006 -66.738  14.953  0.00  0.00     0.082 H 
ATOM     73  H33 010 d   1      23.439 -66.259  16.588  0.00  0.00     0.082 H 
BRANCH  71  74
ATOM     74  C24 010 d   1      25.559 -66.486  16.404  0.00  0.00    -0.034 A 
ATOM     75  C30 010 d   1      26.569 -65.527  16.598  0.00  0.00    -0.075 A 
ATOM     76  C31 010 d   1      27.804 -65.891  17.131  0.00  0.00    -0.082 A 
ATOM     77  H42 010 d   1      26.385 -64.493  16.330  0.00  0.00     0.084 H 
ATOM     78  C32 010 d   1      28.029 -67.229  17.460  0.00  0.00    -0.083 A 
ATOM     79  H43 010 d   1      28.577 -65.148  17.288  0.00  0.00     0.083 H 
ATOM     80  C33 010 d   1      27.031 -68.195  17.253  0.00  0.00    -0.082 A 
ATOM     81  H44 010 d   1      28.984 -67.525  17.880  0.00  0.00     0.083 H 
ATOM     82  C34 010 d   1      25.788 -67.825  16.724  0.00  0.00    -0.075 A 
ATOM     83  H45 010 d   1      27.224 -69.232  17.504  0.00  0.00     0.083 H 
ATOM     84  H46 010 d   1      25.015 -68.568  16.565  0.00  0.00     0.084 H 
ENDBRANCH  71  74
ENDBRANCH  70  71
ENDBRANCH  68  70
ENDBRANCH  65  68
ENDBRANCH  62  65
ENDBRANCH  60  62
BRANCH  60  85
ATOM     85  C25 PJE d   1      23.196 -62.843   9.568  0.00  0.00    -0.035 C 
ATOM     86  H34 PJE d   1      22.834 -61.988  10.158  0.00  0.00     0.037 H 
ATOM     87  H35 PJE d   1      22.337 -63.398   9.162  0.00  0.00     0.037 H 
BRANCH  85  88
ATOM     88  C26 PJE d   1      24.054 -62.340   8.428  0.00  0.00     0.027 C 
ATOM     89  C27 PJE d   1      25.103 -61.298   8.855  0.00  0.00    -0.039 C 
ATOM     90  C28 PJE d   1      25.391 -60.497   7.578  0.00  0.00    -0.004 C 
ATOM     91  H37 PJE d   1      26.016 -61.792   9.218  0.00  0.00     0.036 H 
ATOM     92  H38 PJE d   1      24.702 -60.643   9.643  0.00  0.00     0.036 H 
ATOM     93  N6  PJE d   1      24.111 -60.668   6.881  0.00  0.00    -0.361 N 
ATOM     94  H39 PJE d   1      26.228 -60.925   7.007  0.00  0.00     0.064 H 
ATOM     95  H40 PJE d   1      25.599 -59.439   7.797  0.00  0.00     0.064 H 
ATOM     96  C29 PJE d   1      23.294 -61.592   7.380  0.00  0.00     0.221 C 
ATOM     97  H41 PJE d   1      23.867 -60.123   6.079  0.00  0.00     0.162 HD
ATOM     98  O8  PJE d   1      22.141 -61.808   7.065  0.00  0.00    -0.273 OA
ATOM     99  H36 PJE d   1      24.552 -63.211   7.978  0.00  0.00     0.054 H 
ENDBRANCH  85  88
ENDBRANCH  60  85
ENDBRANCH  58  60
ENDBRANCH   1  56
TORSDOF 25
