REMARK  2 active torsions:
REMARK  status: ('A' for Active; 'I' for Inactive)
REMARK    1  A    between atoms: C_2  and  CA_4 
REMARK    2  A    between atoms: CAI_8  and  CAA_9 
ROOT
ATOM      1  CA  4CS d   1      22.227  40.168  73.019  0.00  0.00     0.096 C 
ATOM      2  CB  4CS d   1      22.201  39.748  74.476  0.00  0.00    -0.020 C 
ATOM      3  CAD 4CS d   1      20.843  39.121  74.807  0.00  0.00     0.019 C 
ATOM      4  NAG 4CS d   1      20.578  37.994  73.875  0.00  0.00    -0.277 NA
ATOM      5  CAI 4CS d   1      21.128  37.971  72.584  0.00  0.00     0.091 C 
ATOM      6  N   4CS d   1      21.962  39.009  72.147  0.00  0.00    -0.364 N 
ATOM      7  H1  4CS d   1      21.416  40.897  72.872  0.00  0.00     0.089 H 
ATOM      8  H2  4CS d   1      22.362  40.630  75.114  0.00  0.00     0.039 H 
ATOM      9  H3  4CS d   1      22.998  39.012  74.659  0.00  0.00     0.039 H 
ATOM     10  H4  4CS d   1      20.053  39.879  74.700  0.00  0.00     0.067 H 
ATOM     11  H5  4CS d   1      20.854  38.747  75.841  0.00  0.00     0.067 H 
ATOM     12  H9  4CS d   1      22.392  38.962  71.212  0.00  0.00     0.161 HD
ENDROOT
BRANCH   1  13
ATOM     13  C   4CS d   1      23.529  40.846  72.613  0.00  0.00     0.196 C 
ATOM     14  O   4CS d   1      24.078  41.635  73.382  0.00  0.00    -0.646 OA
ATOM     15  OXT 4CS d   1      24.022  40.622  71.501  0.00  0.00    -0.646 OA
ENDBRANCH   1  13
BRANCH   5  16
ATOM     16  CAA 4CS d   1      20.853  36.787  71.641  0.00  0.00    -0.022 C 
ATOM     17  H6  4CS d   1      20.184  36.069  72.139  0.00  0.00     0.037 H 
ATOM     18  H7  4CS d   1      21.802  36.291  71.389  0.00  0.00     0.037 H 
ATOM     19  H8  4CS d   1      20.376  37.154  70.720  0.00  0.00     0.037 H 
ENDBRANCH   5  16
TORSDOF 2
