REMARK  3 active torsions:
REMARK  status: ('A' for Active; 'I' for Inactive)
REMARK    1  A    between atoms: C_2  and  CA_4 
REMARK    2  A    between atoms: CAI_6  and  CAA_7 
REMARK    3  A    between atoms: CB_10  and  OG1_11 
ROOT
ATOM      1  CA  6CS d   1      17.045  22.311  32.350  0.00  0.00     0.144 C 
ATOM      2  N   6CS d   1      18.196  22.015  31.468  0.00  0.00    -0.259 NA
ATOM      3  CAI 6CS d   1      19.285  21.247  31.920  0.00  0.00     0.091 C 
ATOM      4  NAG 6CS d   1      19.338  20.747  33.229  0.00  0.00    -0.376 N 
ATOM      5  CG2 6CS d   1      18.235  20.994  34.175  0.00  0.00     0.020 C 
ATOM      6  CB  6CS d   1      17.471  22.280  33.838  0.00  0.00     0.082 C 
ATOM      7  H1  6CS d   1      16.299  21.515  32.207  0.00  0.00     0.097 H 
ATOM      8  H5  6CS d   1      20.157  20.201  33.533  0.00  0.00     0.160 HD
ATOM      9  H6  6CS d   1      18.650  21.082  35.190  0.00  0.00     0.068 H 
ATOM     10  H7  6CS d   1      17.537  20.145  34.137  0.00  0.00     0.068 H 
ATOM     11  H8  6CS d   1      18.095  23.159  34.056  0.00  0.00     0.089 H 
ENDROOT
BRANCH   1  12
ATOM     12  C   6CS d   1      16.376  23.653  31.940  0.00  0.00     0.201 C 
ATOM     13  O   6CS d   1      15.655  24.220  32.783  0.00  0.00    -0.646 OA
ATOM     14  OXT 6CS d   1      16.588  24.077  30.781  0.00  0.00    -0.646 OA
ENDBRANCH   1  12
BRANCH   6  15
ATOM     15  OG1 6CS d   1      16.318  22.272  34.669  0.00  0.00    -0.391 OA
ATOM     16  H9  6CS d   1      15.797  21.501  34.479  0.00  0.00     0.210 HD
ENDBRANCH   6  15
BRANCH   3  17
ATOM     17  CAA 6CS d   1      20.445  20.961  30.983  0.00  0.00    -0.022 C 
ATOM     18  H2  6CS d   1      20.247  21.420  30.003  0.00  0.00     0.037 H 
ATOM     19  H3  6CS d   1      20.559  19.874  30.862  0.00  0.00     0.037 H 
ATOM     20  H4  6CS d   1      21.370  21.382  31.405  0.00  0.00     0.037 H 
ENDBRANCH   3  17
TORSDOF 3
