REMARK  1 active torsions:
REMARK  status: ('A' for Active; 'I' for Inactive)
REMARK    1  A    between atoms: C1_1  and  C_2 
ROOT
ATOM      1  C1  TF4 d   1       0.564  38.787  -9.689  0.00  0.00     0.172 C 
ATOM      2 CL1  TF4 d   1       0.051  37.506 -10.871  0.00  0.00    -0.097 Cl
ATOM      3 CL2  TF4 d   1       0.483  40.539 -10.165  0.00  0.00    -0.097 Cl
ATOM      4  H1  TF4 d   1      -0.084  38.676  -8.807  0.00  0.00     0.106 H 
ENDROOT
BRANCH   1   5
ATOM      5  C   TF4 d   1       1.986  38.480  -9.293  0.00  0.00     0.207 C 
ATOM      6  O   TF4 d   1       2.826  39.389  -9.266  0.00  0.00    -0.646 OA
ATOM      7  O2  TF4 d   1       2.295  37.319  -8.994  0.00  0.00    -0.646 OA
ENDBRANCH   1   5
TORSDOF 1
