REMARK  7 active torsions:
REMARK  status: ('A' for Active; 'I' for Inactive)
REMARK    1  A    between atoms: P_1  and  O5'_5 
REMARK    2  A    between atoms: O5'_5  and  C5'_6 
REMARK    3  A    between atoms: C5'_6  and  C4'_7 
REMARK    4  A    between atoms: C3'_9  and  O3'_10 
REMARK    5  A    between atoms: C2'_11  and  O2'_12 
REMARK    6  A    between atoms: C1'_13  and  N9_14 
REMARK    7  A    between atoms: C6_18  and  N6_19 
ROOT
ATOM      1  C4' AMP d   1     117.315  58.132  19.142  0.00  0.00     0.089 C 
ATOM      2  O4' AMP d   1     117.904  56.867  19.558  0.00  0.00    -0.353 OA
ATOM      3  C3' AMP d   1     116.368  57.745  18.018  0.00  0.00     0.091 C 
ATOM      4  C2' AMP d   1     117.157  56.639  17.334  0.00  0.00     0.105 C 
ATOM      5  C1' AMP d   1     117.700  55.888  18.549  0.00  0.00     0.139 C 
ATOM      6  H3  AMP d   1     118.093  58.799  18.742  0.00  0.00     0.090 H 
ATOM      7  H4  AMP d   1     115.409  57.374  18.408  0.00  0.00     0.091 H 
ATOM      8  H6  AMP d   1     116.519  56.007  16.699  0.00  0.00     0.093 H 
ATOM      9  H8  AMP d   1     118.641  55.378  18.296  0.00  0.00     0.122 H 
ENDROOT
BRANCH   5  10
ATOM     10  N9  AMP d   1     116.724  54.920  19.051  0.00  0.00    -0.294 N 
ATOM     11  C8  AMP d   1     115.921  55.040  20.159  0.00  0.00     0.071 A 
ATOM     12  N7  AMP d   1     115.117  54.019  20.343  0.00  0.00    -0.236 NA
ATOM     13  H9  AMP d   1     115.949  55.903  20.823  0.00  0.00     0.144 H 
ATOM     14  C5  AMP d   1     115.415  53.166  19.291  0.00  0.00     0.149 A 
ATOM     15  C6  AMP d   1     114.905  51.913  18.919  0.00  0.00     0.155 A 
ATOM     16  C4  AMP d   1     116.408  53.704  18.491  0.00  0.00     0.167 A 
ATOM     17  N1  AMP d   1     115.423  51.329  17.817  0.00  0.00    -0.222 NA
ATOM     18  C2  AMP d   1     116.382  51.970  17.142  0.00  0.00     0.091 A 
ATOM     19  N3  AMP d   1     116.941  53.150  17.390  0.00  0.00    -0.222 NA
ATOM     20  H12 AMP d   1     116.758  51.453  16.266  0.00  0.00     0.146 H 
BRANCH  15  21
ATOM     21  N6  AMP d   1     113.938  51.276  19.589  0.00  0.00    -0.382 N 
ATOM     22  H10 AMP d   1     113.606  50.356  19.264  0.00  0.00     0.157 HD
ATOM     23  H11 AMP d   1     113.525  51.705  20.430  0.00  0.00     0.157 HD
ENDBRANCH  15  21
ENDBRANCH   5  10
BRANCH   4  24
ATOM     24  O2' AMP d   1     118.233  57.165  16.582  0.00  0.00    -0.388 OA
ATOM     25  H7  AMP d   1     117.895  57.752  15.916  0.00  0.00     0.210 HD
ENDBRANCH   4  24
BRANCH   1  26
ATOM     26  C5' AMP d   1     116.674  58.823  20.328  0.00  0.00     0.059 C 
ATOM     27  H1  AMP d   1     117.412  58.909  21.139  0.00  0.00     0.079 H 
ATOM     28  H2  AMP d   1     116.342  59.827  20.026  0.00  0.00     0.079 H 
BRANCH  26  29
ATOM     29  O5' AMP d   1     115.537  58.068  20.798  0.00  0.00    -0.280 OA
BRANCH  29  30
ATOM     30  P   AMP d   1     114.275  58.812  21.519  0.00  0.00     0.422 P 
ATOM     31  O1P AMP d   1     113.742  59.808  20.509  0.00  0.00    -0.617 OA
ATOM     32  O2P AMP d   1     113.274  57.719  21.845  0.00  0.00    -0.617 OA
ATOM     33  O3P AMP d   1     114.828  59.490  22.763  0.00  0.00    -0.617 OA
ENDBRANCH  29  30
ENDBRANCH  26  29
ENDBRANCH   1  26
BRANCH   3  34
ATOM     34  O3' AMP d   1     116.133  58.834  17.137  0.00  0.00    -0.390 OA
ATOM     35  H5  AMP d   1     115.747  59.554  17.622  0.00  0.00     0.210 HD
ENDBRANCH   3  34
TORSDOF 7
