REMARK  11 active torsions:
REMARK  status: ('A' for Active; 'I' for Inactive)
REMARK    1  A    between atoms: C2_2  and  C6_6 
REMARK    2  A    between atoms: C3_3  and  O20_16 
REMARK    3  A    between atoms: C5_5  and  C9_9 
REMARK    4  A    between atoms: C11_11  and  N27_21 
REMARK    5  A    between atoms: O20_16  and  C21_17 
REMARK    6  A    between atoms: C21_17  and  C22_18 
REMARK    7  A    between atoms: N27_21  and  C28_22 
REMARK    8  A    between atoms: C31_24  and  C42_28 
REMARK    9  A    between atoms: C31_24  and  C46_29 
REMARK   10  A    between atoms: C33_26  and  C50_30 
REMARK   11  A    between atoms: C33_26  and  C54_31 
ROOT
ATOM      1  C28 4B3 d   1      49.292   7.943   1.334  0.00  0.00     0.011 C 
ATOM      2  C30 4B3 d   1      50.811   7.752   1.264  0.00  0.00    -0.040 C 
ATOM      3  C31 4B3 d   1      51.202   6.309   1.655  0.00  0.00    -0.045 C 
ATOM      4  C32 4B3 d   1      50.516   5.848   2.961  0.00  0.00    -0.052 C 
ATOM      5  C33 4B3 d   1      49.010   6.159   3.088  0.00  0.00    -0.045 C 
ATOM      6  C34 4B3 d   1      48.728   7.626   2.722  0.00  0.00    -0.040 C 
ATOM      7  H8  4B3 d   1      48.832   7.252   0.612  0.00  0.00     0.072 H 
ATOM      8  H9  4B3 d   1      51.295   8.457   1.956  0.00  0.00     0.037 H 
ATOM      9  H10 4B3 d   1      51.153   7.952   0.238  0.00  0.00     0.037 H 
ATOM     10  H11 4B3 d   1      51.031   6.337   3.801  0.00  0.00     0.035 H 
ATOM     11  H12 4B3 d   1      50.641   4.758   3.039  0.00  0.00     0.035 H 
ATOM     12  H13 4B3 d   1      47.642   7.798   2.720  0.00  0.00     0.037 H 
ATOM     13  H14 4B3 d   1      49.202   8.284   3.466  0.00  0.00     0.037 H 
ENDROOT
BRANCH   1  14
ATOM     14  N27 4B3 d   1      48.925   9.314   0.962  0.00  0.00    -0.385 N 
ATOM     15  H7  4B3 d   1      49.690   9.986   0.809  0.00  0.00     0.160 HD
BRANCH  14  16
ATOM     16  C11 4B3 d   1      47.634   9.772   0.802  0.00  0.00     0.029 A 
ATOM     17  C10 4B3 d   1      47.394  11.122   1.218  0.00  0.00    -0.046 A 
ATOM     18  C9  4B3 d   1      46.043  11.652   1.153  0.00  0.00    -0.015 A 
ATOM     19  H1  4B3 d   1      48.210  11.739   1.576  0.00  0.00     0.088 H 
ATOM     20  C14 4B3 d   1      44.977  10.800   0.654  0.00  0.00    -0.072 A 
ATOM     21  C13 4B3 d   1      45.189   9.448   0.203  0.00  0.00    -0.080 A 
ATOM     22  H4  4B3 d   1      43.971  11.202   0.619  0.00  0.00     0.084 H 
ATOM     23  C12 4B3 d   1      46.541   8.963   0.280  0.00  0.00    -0.058 A 
ATOM     24  H3  4B3 d   1      44.379   8.833  -0.172  0.00  0.00     0.083 H 
ATOM     25  H2  4B3 d   1      46.755   7.957  -0.064  0.00  0.00     0.086 H 
BRANCH  18  26
ATOM     26  C5  4B3 d   1      45.732  13.086   1.488  0.00  0.00     0.036 A 
ATOM     27  S1  4B3 d   1      44.611  14.046   0.506  0.00  0.00    -0.078 SA
ATOM     28  C2  4B3 d   1      44.766  15.439   1.557  0.00  0.00     0.117 A 
ATOM     29  C3  4B3 d   1      45.623  15.180   2.563  0.00  0.00     0.112 A 
ATOM     30  C4  4B3 d   1      46.188  13.814   2.526  0.00  0.00     0.064 A 
ATOM     31 BR1  4B3 d   1      47.415  13.271   3.878  0.00  0.00    -0.047 Br
BRANCH  28  32
ATOM     32  C6  4B3 d   1      44.030  16.679   1.225  0.00  0.00     0.219 C 
ATOM     33  O7  4B3 d   1      43.577  16.722   0.062  0.00  0.00    -0.643 OA
ATOM     34  O8  4B3 d   1      43.861  17.602   2.048  0.00  0.00    -0.643 OA
ENDBRANCH  28  32
BRANCH  29  35
ATOM     35  O20 4B3 d   1      45.915  16.016   3.551  0.00  0.00    -0.338 OA
BRANCH  35  36
ATOM     36  C21 4B3 d   1      47.057  16.832   3.368  0.00  0.00     0.106 C 
ATOM     37  H5  4B3 d   1      46.830  17.630   2.646  0.00  0.00     0.091 H 
ATOM     38  H6  4B3 d   1      47.891  16.222   2.990  0.00  0.00     0.091 H 
BRANCH  36  39
ATOM     39  C22 4B3 d   1      47.438  17.445   4.704  0.00  0.00     0.198 C 
ATOM     40  O25 4B3 d   1      46.649  17.400   5.675  0.00  0.00    -0.646 OA
ATOM     41  O26 4B3 d   1      48.559  17.981   4.767  0.00  0.00    -0.646 OA
ENDBRANCH  36  39
ENDBRANCH  35  36
ENDBRANCH  29  35
ENDBRANCH  18  26
ENDBRANCH  14  16
ENDBRANCH   1  14
BRANCH   3  42
ATOM     42  C42 4B3 d   1      52.728   6.200   1.871  0.00  0.00    -0.069 C 
ATOM     43  H15 4B3 d   1      53.251   6.521   0.958  0.00  0.00     0.028 H 
ATOM     44  H16 4B3 d   1      52.993   5.157   2.097  0.00  0.00     0.028 H 
ATOM     45  H17 4B3 d   1      53.026   6.845   2.711  0.00  0.00     0.028 H 
ENDBRANCH   3  42
BRANCH   3  46
ATOM     46  C46 4B3 d   1      50.826   5.322   0.510  0.00  0.00    -0.069 C 
ATOM     47  H18 4B3 d   1      49.743   5.370   0.325  0.00  0.00     0.028 H 
ATOM     48  H19 4B3 d   1      51.103   4.298   0.803  0.00  0.00     0.028 H 
ATOM     49  H20 4B3 d   1      51.367   5.600  -0.406  0.00  0.00     0.028 H 
ENDBRANCH   3  46
BRANCH   5  50
ATOM     50  C50 4B3 d   1      48.700   5.958   4.579  0.00  0.00    -0.069 C 
ATOM     51  H21 4B3 d   1      48.897   4.912   4.857  0.00  0.00     0.028 H 
ATOM     52  H22 4B3 d   1      47.643   6.195   4.769  0.00  0.00     0.028 H 
ATOM     53  H23 4B3 d   1      49.338   6.623   5.179  0.00  0.00     0.028 H 
ENDBRANCH   5  50
BRANCH   5  54
ATOM     54  C54 4B3 d   1      48.095   5.209   2.245  0.00  0.00    -0.069 C 
ATOM     55  H24 4B3 d   1      48.311   5.347   1.175  0.00  0.00     0.028 H 
ATOM     56  H25 4B3 d   1      47.039   5.449   2.440  0.00  0.00     0.028 H 
ATOM     57  H26 4B3 d   1      48.292   4.164   2.527  0.00  0.00     0.028 H 
ENDBRANCH   5  54
TORSDOF 11
