REMARK  7 active torsions:
REMARK  status: ('A' for Active; 'I' for Inactive)
REMARK    1  A    between atoms: C2_2  and  C6_6 
REMARK    2  A    between atoms: C3_3  and  O20_16 
REMARK    3  A    between atoms: C5_5  and  C9_9 
REMARK    4  A    between atoms: C11_11  and  N27_21 
REMARK    5  A    between atoms: O20_16  and  C21_17 
REMARK    6  A    between atoms: C21_17  and  C22_18 
REMARK    7  A    between atoms: N27_21  and  C28_22 
ROOT
ATOM      1  C9  024 d   1      46.016  11.711   1.183  0.00  0.00    -0.015 A 
ATOM      2  C10 024 d   1      47.261  11.037   1.445  0.00  0.00    -0.046 A 
ATOM      3  C11 024 d   1      47.405   9.664   1.072  0.00  0.00     0.029 A 
ATOM      4  C12 024 d   1      46.329   8.956   0.440  0.00  0.00    -0.058 A 
ATOM      5  C13 024 d   1      45.095   9.613   0.173  0.00  0.00    -0.080 A 
ATOM      6  C14 024 d   1      44.949  10.980   0.549  0.00  0.00    -0.072 A 
ATOM      7  H1  024 d   1      48.080  11.565   1.920  0.00  0.00     0.088 H 
ATOM      8  H2  024 d   1      46.456   7.915   0.164  0.00  0.00     0.086 H 
ATOM      9  H3  024 d   1      44.281   9.083  -0.308  0.00  0.00     0.083 H 
ATOM     10  H4  024 d   1      44.009  11.483   0.352  0.00  0.00     0.084 H 
ENDROOT
BRANCH   3  11
ATOM     11  N27 024 d   1      48.621   8.965   1.342  0.00  0.00    -0.385 N 
ATOM     12  H7  024 d   1      49.406   9.565   1.050  0.00  0.00     0.160 HD
BRANCH  11  13
ATOM     13  C28 024 d   1      49.155   7.765   1.857  0.00  0.00     0.009 C 
ATOM     14  C30 024 d   1      50.680   7.822   2.038  0.00  0.00    -0.046 C 
ATOM     15  C31 024 d   1      51.158   6.452   2.580  0.00  0.00    -0.063 C 
ATOM     16  H9  024 d   1      50.940   8.616   2.753  0.00  0.00     0.035 H 
ATOM     17  H10 024 d   1      51.162   8.028   1.071  0.00  0.00     0.035 H 
ATOM     18  C32 024 d   1      50.428   6.046   3.893  0.00  0.00    -0.065 C 
ATOM     19  H11 024 d   1      52.238   6.508   2.779  0.00  0.00     0.033 H 
ATOM     20  H12 024 d   1      50.966   5.684   1.817  0.00  0.00     0.033 H 
ATOM     21  C33 024 d   1      48.879   6.119   3.778  0.00  0.00    -0.063 C 
ATOM     22  H13 024 d   1      50.752   6.723   4.697  0.00  0.00     0.033 H 
ATOM     23  H14 024 d   1      50.712   5.014   4.146  0.00  0.00     0.033 H 
ATOM     24  C34 024 d   1      48.424   7.470   3.193  0.00  0.00    -0.046 C 
ATOM     25  H15 024 d   1      48.439   5.995   4.779  0.00  0.00     0.033 H 
ATOM     26  H16 024 d   1      48.530   5.309   3.121  0.00  0.00     0.033 H 
ATOM     27  H17 024 d   1      47.340   7.438   3.011  0.00  0.00     0.035 H 
ATOM     28  H18 024 d   1      48.651   8.270   3.913  0.00  0.00     0.035 H 
ATOM     29  H8  024 d   1      48.934   6.953   1.149  0.00  0.00     0.072 H 
ENDBRANCH  11  13
ENDBRANCH   3  11
BRANCH   1  30
ATOM     30  C5  024 d   1      45.734  13.135   1.547  0.00  0.00     0.036 A 
ATOM     31  S1  024 d   1      44.651  14.074   0.621  0.00  0.00    -0.078 SA
ATOM     32  C2  024 d   1      44.790  15.482   1.571  0.00  0.00     0.117 A 
ATOM     33  C3  024 d   1      45.694  15.246   2.640  0.00  0.00     0.112 A 
ATOM     34  C4  024 d   1      46.229  13.927   2.620  0.00  0.00     0.064 A 
ATOM     35 BR19 024 d   1      47.477  13.332   3.945  0.00  0.00    -0.047 Br
BRANCH  32  36
ATOM     36  C6  024 d   1      44.057  16.643   1.248  0.00  0.00     0.219 C 
ATOM     37  O7  024 d   1      43.498  16.680   0.150  0.00  0.00    -0.643 OA
ATOM     38  O8  024 d   1      43.981  17.581   2.036  0.00  0.00    -0.643 OA
ENDBRANCH  32  36
BRANCH  33  39
ATOM     39  O20 024 d   1      46.063  16.174   3.649  0.00  0.00    -0.338 OA
BRANCH  39  40
ATOM     40  C21 024 d   1      47.249  16.932   3.412  0.00  0.00     0.106 C 
ATOM     41  H5  024 d   1      47.055  17.702   2.651  0.00  0.00     0.091 H 
ATOM     42  H6  024 d   1      48.054  16.268   3.065  0.00  0.00     0.091 H 
BRANCH  40  43
ATOM     43  C22 024 d   1      47.651  17.592   4.727  0.00  0.00     0.198 C 
ATOM     44  O25 024 d   1      46.877  17.525   5.697  0.00  0.00    -0.646 OA
ATOM     45  O26 024 d   1      48.732  18.166   4.783  0.00  0.00    -0.646 OA
ENDBRANCH  40  43
ENDBRANCH  39  40
ENDBRANCH  33  39
ENDBRANCH   1  30
TORSDOF 7
