REMARK  11 active torsions:
REMARK  status: ('A' for Active; 'I' for Inactive)
REMARK    1  A    between atoms: N_1  and  CA_2 
REMARK    2  A    between atoms: CA_2  and  CB_3 
REMARK    3  A    between atoms: CA_2  and  C_6 
REMARK    4  A    between atoms: CB_3  and  CG_4 
REMARK    5  A    between atoms: CG_4  and  SD_5 
REMARK    6  A    between atoms: SD_5  and  C5'_9 
REMARK    7  A    between atoms: C5'_9  and  C4'_10 
REMARK    8  A    between atoms: C3'_12  and  O3'_13 
REMARK    9  A    between atoms: C2'_14  and  O2'_15 
REMARK   10  A    between atoms: C1'_16  and  N9_17 
REMARK   11  A    between atoms: C6_21  and  N6_22 
ROOT
ATOM      1  C4' SAH d   1     -21.549  36.702  -4.610  0.00  0.00     0.076 C 
ATOM      2  O4' SAH d   1     -22.861  37.132  -4.313  0.00  0.00    -0.355 OA
ATOM      3  C3' SAH d   1     -21.163  37.338  -5.939  0.00  0.00     0.090 C 
ATOM      4  C2' SAH d   1     -22.512  37.373  -6.641  0.00  0.00     0.105 C 
ATOM      5  C1' SAH d   1     -23.501  37.579  -5.490  0.00  0.00     0.139 C 
ATOM      6  H11 SAH d   1     -21.537  35.610  -4.744  0.00  0.00     0.088 H 
ATOM      7  H12 SAH d   1     -20.762  38.352  -5.792  0.00  0.00     0.091 H 
ATOM      8  H14 SAH d   1     -22.556  38.207  -7.357  0.00  0.00     0.093 H 
ATOM      9  H16 SAH d   1     -24.403  36.980  -5.682  0.00  0.00     0.122 H 
ENDROOT
BRANCH   1  10
ATOM     10  C5' SAH d   1     -20.682  37.029  -3.410  0.00  0.00     0.003 C 
ATOM     11  H9  SAH d   1     -19.620  36.992  -3.695  0.00  0.00     0.052 H 
ATOM     12  H10 SAH d   1     -20.926  38.034  -3.035  0.00  0.00     0.052 H 
BRANCH  10  13
ATOM     13  SD  SAH d   1     -21.020  35.791  -2.124  0.00  0.00    -0.166 SA
BRANCH  13  14
ATOM     14  CG  SAH d   1     -21.844  36.927  -0.969  0.00  0.00    -0.021 C 
ATOM     15  H7  SAH d   1     -21.357  36.854   0.015  0.00  0.00     0.049 H 
ATOM     16  H8  SAH d   1     -21.751  37.955  -1.349  0.00  0.00     0.049 H 
BRANCH  14  17
ATOM     17  CB  SAH d   1     -23.324  36.583  -0.819  0.00  0.00    -0.021 C 
ATOM     18  H5  SAH d   1     -23.783  36.645  -1.817  0.00  0.00     0.037 H 
ATOM     19  H6  SAH d   1     -23.390  35.549  -0.449  0.00  0.00     0.037 H 
BRANCH  17  20
ATOM     20  CA  SAH d   1     -24.145  37.469   0.127  0.00  0.00     0.183 C 
ATOM     21  H4  SAH d   1     -23.819  38.513   0.007  0.00  0.00     0.101 H 
BRANCH  20  22
ATOM     22  N   SAH d   1     -23.948  37.059   1.544  0.00  0.00    -0.065 N 
ATOM     23  H1  SAH d   1     -22.970  37.124   1.780  0.00  0.00     0.275 HD
ATOM     24  H2  SAH d   1     -24.260  36.108   1.665  0.00  0.00     0.275 HD
ATOM     25  H3  SAH d   1     -24.480  37.667   2.147  0.00  0.00     0.275 HD
ENDBRANCH  20  22
BRANCH  20  26
ATOM     26  C   SAH d   1     -25.632  37.364  -0.213  0.00  0.00     0.204 C 
ATOM     27  O   SAH d   1     -26.435  36.913   0.573  0.00  0.00    -0.646 OA
ATOM     28  OXT SAH d   1     -26.073  37.717  -1.293  0.00  0.00    -0.646 OA
ENDBRANCH  20  26
ENDBRANCH  17  20
ENDBRANCH  14  17
ENDBRANCH  13  14
ENDBRANCH  10  13
ENDBRANCH   1  10
BRANCH   3  29
ATOM     29  O3' SAH d   1     -20.219  36.570  -6.658  0.00  0.00    -0.390 OA
ATOM     30  H13 SAH d   1     -20.584  35.712  -6.841  0.00  0.00     0.210 HD
ENDBRANCH   3  29
BRANCH   5  31
ATOM     31  N9  SAH d   1     -23.904  39.004  -5.288  0.00  0.00    -0.294 N 
ATOM     32  C8  SAH d   1     -23.789  39.748  -4.138  0.00  0.00     0.071 A 
ATOM     33  N7  SAH d   1     -24.298  40.989  -4.349  0.00  0.00    -0.236 NA
ATOM     34  H17 SAH d   1     -23.357  39.397  -3.202  0.00  0.00     0.144 H 
ATOM     35  C5  SAH d   1     -24.704  41.051  -5.624  0.00  0.00     0.149 A 
ATOM     36  C6  SAH d   1     -25.289  42.069  -6.354  0.00  0.00     0.155 A 
ATOM     37  C4  SAH d   1     -24.482  39.815  -6.227  0.00  0.00     0.167 A 
ATOM     38  N1  SAH d   1     -25.627  41.814  -7.660  0.00  0.00    -0.222 NA
ATOM     39  C2  SAH d   1     -25.398  40.597  -8.259  0.00  0.00     0.091 A 
ATOM     40  N3  SAH d   1     -24.818  39.590  -7.531  0.00  0.00    -0.222 NA
ATOM     41  H20 SAH d   1     -25.673  40.436  -9.295  0.00  0.00     0.146 H 
BRANCH  36  42
ATOM     42  N6  SAH d   1     -25.529  43.251  -5.781  0.00  0.00    -0.382 N 
ATOM     43  H18 SAH d   1     -25.965  44.008  -6.326  0.00  0.00     0.157 HD
ATOM     44  H19 SAH d   1     -25.278  43.405  -4.794  0.00  0.00     0.157 HD
ENDBRANCH  36  42
ENDBRANCH   5  31
BRANCH   4  45
ATOM     45  O2' SAH d   1     -22.805  36.149  -7.320  0.00  0.00    -0.388 OA
ATOM     46  H15 SAH d   1     -23.654  36.217  -7.742  0.00  0.00     0.210 HD
ENDBRANCH   4  45
TORSDOF 11
