REMARK  29 active torsions:
REMARK  status: ('A' for Active; 'I' for Inactive)
REMARK    1  A    between atoms: CA_2  and  C_3 
REMARK       I    between atoms: C_3  and  N_8 
REMARK    2  A    between atoms: N_8  and  CA_9 
REMARK    3  A    between atoms: CA_9  and  C_10 
REMARK    4  A    between atoms: CA_9  and  CB_12 
REMARK       I    between atoms: C_10  and  N_17 
REMARK    5  A    between atoms: CB_12  and  CG_13 
REMARK    6  A    between atoms: CG_13  and  CD_14 
REMARK       I    between atoms: CD_14  and  NE2_16 
REMARK    7  A    between atoms: CA_18  and  C_19 
REMARK       I    between atoms: C_19  and  N_24 
REMARK    8  A    between atoms: N_24  and  CA_25 
REMARK    9  A    between atoms: CA_25  and  C_26 
REMARK   10  A    between atoms: CA_25  and  CB_28 
REMARK       I    between atoms: C_26  and  N_31 
REMARK   11  A    between atoms: CB_28  and  CG1_29 
REMARK   12  A    between atoms: CB_28  and  CG2_30 
REMARK   13  A    between atoms: N_31  and  CA_32 
REMARK   14  A    between atoms: CA_32  and  C_33 
REMARK   15  A    between atoms: CA_32  and  CB_35 
REMARK       I    between atoms: C_33  and  N_39 
REMARK   16  A    between atoms: CB_35  and  CG_36 
REMARK   17  A    between atoms: N_39  and  CA_40 
REMARK   18  A    between atoms: CA_40  and  C_41 
REMARK   19  A    between atoms: CA_40  and  CB_43 
REMARK       I    between atoms: C_41  and  N_45 
REMARK   20  A    between atoms: CB_43  and  OG_44 
REMARK   21  A    between atoms: N_45  and  CA_46 
REMARK   22  A    between atoms: CA_46  and  C_47 
REMARK   23  A    between atoms: CA_46  and  CB_49 
REMARK       I    between atoms: C_47  and  N_59 
REMARK   24  A    between atoms: CB_49  and  CG_50 
REMARK   25  A    between atoms: N_59  and  CA_60 
REMARK   26  A    between atoms: CA_60  and  C_61 
REMARK   27  A    between atoms: CA_60  and  CB_63 
REMARK   28  A    between atoms: CB_63  and  CG1_64 
REMARK   29  A    between atoms: CB_63  and  CG2_65 
ROOT
ATOM      1  C   VAL d   1       3.366 -12.698  -9.391  0.00  0.00     0.241 C 
ATOM      2  O   VAL d   1       4.386 -12.785 -10.071  0.00  0.00    -0.271 OA
ATOM      3  N   ASP d   1       2.894 -11.542  -8.918  0.00  0.00    -0.345 N 
ATOM      4  H32 ASP d   1       2.136 -11.562  -8.266  0.00  0.00     0.163 HD
ENDROOT
BRANCH   3   5
ATOM      5  CA  ASP d   1       3.446 -10.245  -9.319  0.00  0.00     0.098 C 
ATOM      6  H33 ASP d   1       4.318 -10.458  -9.954  0.00  0.00     0.088 H 
BRANCH   5   7
ATOM      7  C   ASP d   1       3.942  -9.393  -8.166  0.00  0.00     0.241 C 
ATOM      8  O   ASP d   1       3.532  -9.564  -7.004  0.00  0.00    -0.271 OA
ATOM      9  N   SER d   1       4.829  -8.451  -8.505  0.00  0.00    -0.344 N 
ATOM     10  H36 SER d   1       5.085  -8.362  -9.468  0.00  0.00     0.163 HD
BRANCH   9  11
ATOM     11  CA  SER d   1       5.433  -7.559  -7.551  0.00  0.00     0.109 C 
ATOM     12  H37 SER d   1       4.846  -7.573  -6.621  0.00  0.00     0.090 H 
BRANCH  11  13
ATOM     13  C   SER d   1       5.432  -6.153  -8.136  0.00  0.00     0.243 C 
ATOM     14  O   SER d   1       5.809  -5.990  -9.300  0.00  0.00    -0.271 OA
ATOM     15  N   TRP d   1       5.084  -5.172  -7.317  0.00  0.00    -0.346 N 
ATOM     16  H41 TRP d   1       4.827  -5.397  -6.377  0.00  0.00     0.163 HD
BRANCH  15  17
ATOM     17  CA  TRP d   1       5.062  -3.763  -7.741  0.00  0.00     0.093 C 
ATOM     18  H42 TRP d   1       4.745  -3.732  -8.794  0.00  0.00     0.088 H 
BRANCH  17  19
ATOM     19  C   TRP d   1       6.415  -3.112  -7.662  0.00  0.00     0.241 C 
ATOM     20  O   TRP d   1       7.182  -3.323  -6.701  0.00  0.00    -0.271 OA
ATOM     21  N   VAL d   1       6.678  -2.261  -8.666  0.00  0.00    -0.344 N 
ATOM     22  H51 VAL d   1       5.962  -2.083  -9.341  0.00  0.00     0.163 HD
BRANCH  21  23
ATOM     23  CA  VAL d   1       7.934  -1.599  -8.814  0.00  0.00     0.099 C 
ATOM     24  H52 VAL d   1       8.483  -1.675  -7.864  0.00  0.00     0.090 H 
BRANCH  23  25
ATOM     25  C   VAL d   1       7.629  -0.125  -9.087  0.00  0.00     0.197 C 
ATOM     26  O   VAL d   1       8.567   0.667  -8.994  0.00  0.00    -0.646 OA
ATOM     27  OXT VAL d   1       6.457   0.225  -9.357  0.00  0.00    -0.646 OA
ENDBRANCH  23  25
BRANCH  23  28
ATOM     28  CB  VAL d   1       8.828  -2.235  -9.925  0.00  0.00    -0.032 C 
ATOM     29  H53 VAL d   1       9.741  -1.628 -10.011  0.00  0.00     0.042 H 
BRANCH  28  30
ATOM     30  CG1 VAL d   1       9.228  -3.658  -9.496  0.00  0.00    -0.071 C 
ATOM     31  H54 VAL d   1       9.858  -4.112 -10.275  0.00  0.00     0.028 H 
ATOM     32  H55 VAL d   1       8.323  -4.267  -9.356  0.00  0.00     0.028 H 
ATOM     33  H56 VAL d   1       9.789  -3.612  -8.551  0.00  0.00     0.028 H 
ENDBRANCH  28  30
BRANCH  28  34
ATOM     34  CG2 VAL d   1       8.159  -2.263 -11.306  0.00  0.00    -0.071 C 
ATOM     35  H57 VAL d   1       7.879  -1.240 -11.599  0.00  0.00     0.028 H 
ATOM     36  H58 VAL d   1       7.258  -2.892 -11.264  0.00  0.00     0.028 H 
ATOM     37  H59 VAL d   1       8.861  -2.677 -12.045  0.00  0.00     0.028 H 
ENDBRANCH  28  34
ENDBRANCH  23  28
ENDBRANCH  21  23
ENDBRANCH  17  19
BRANCH  17  38
ATOM     38  CB  TRP d   1       4.004  -3.004  -6.898  0.00  0.00    -0.012 C 
ATOM     39  H43 TRP d   1       4.129  -1.921  -7.046  0.00  0.00     0.044 H 
ATOM     40  H44 TRP d   1       4.144  -3.247  -5.834  0.00  0.00     0.044 H 
BRANCH  38  41
ATOM     41  CG  TRP d   1       2.620  -3.408  -7.323  0.00  0.00    -0.028 A 
ATOM     42  CD1 TRP d   1       1.890  -4.506  -6.914  0.00  0.00    -0.015 A 
ATOM     43  NE1 TRP d   1       0.711  -4.551  -7.560  0.00  0.00    -0.365 N 
ATOM     44  H45 TRP d   1       2.221  -5.232  -6.174  0.00  0.00     0.112 H 
ATOM     45  CE2 TRP d   1       0.624  -3.485  -8.420  0.00  0.00     0.042 A 
ATOM     46  H46 TRP d   1      -0.013  -5.272  -7.430  0.00  0.00     0.165 HD
ATOM     47  CD2 TRP d   1       1.813  -2.750  -8.300  0.00  0.00    -0.002 A 
ATOM     48  CZ2 TRP d   1      -0.385  -3.122  -9.303  0.00  0.00    -0.056 A 
ATOM     49  CE3 TRP d   1       1.975  -1.588  -9.077  0.00  0.00    -0.070 A 
ATOM     50  CZ3 TRP d   1       0.968  -1.228  -9.942  0.00  0.00    -0.082 A 
ATOM     51  H47 TRP d   1       2.875  -0.989  -8.995  0.00  0.00     0.084 H 
ATOM     52  CH2 TRP d   1      -0.193  -1.978 -10.048  0.00  0.00    -0.081 A 
ATOM     53  H49 TRP d   1       1.085  -0.340 -10.553  0.00  0.00     0.083 H 
ATOM     54  H50 TRP d   1      -0.969  -1.657 -10.733  0.00  0.00     0.083 H 
ATOM     55  H48 TRP d   1      -1.287  -3.715  -9.402  0.00  0.00     0.086 H 
ENDBRANCH  38  41
ENDBRANCH  17  38
ENDBRANCH  15  17
ENDBRANCH  11  13
BRANCH  11  56
ATOM     56  CB  SER d   1       6.876  -7.970  -7.239  0.00  0.00     0.044 C 
ATOM     57  H38 SER d   1       7.286  -7.281  -6.486  0.00  0.00     0.077 H 
ATOM     58  H39 SER d   1       7.472  -7.901  -8.161  0.00  0.00     0.077 H 
BRANCH  56  59
ATOM     59  OG  SER d   1       6.958  -9.297  -6.739  0.00  0.00    -0.398 OA
ATOM     60  H40 SER d   1       7.866  -9.511  -6.559  0.00  0.00     0.209 HD
ENDBRANCH  56  59
ENDBRANCH  11  56
ENDBRANCH   9  11
ENDBRANCH   5   7
BRANCH   5  61
ATOM     61  CB  ASP d   1       2.434  -9.446 -10.176  0.00  0.00     0.043 C 
ATOM     62  H34 ASP d   1       2.139 -10.073 -11.030  0.00  0.00     0.052 H 
ATOM     63  H35 ASP d   1       2.937  -8.539 -10.543  0.00  0.00     0.052 H 
BRANCH  61  64
ATOM     64  CG  ASP d   1       1.177  -9.024  -9.447  0.00  0.00     0.175 C 
ATOM     65  OD1 ASP d   1       0.785  -9.680  -8.455  0.00  0.00    -0.648 OA
ATOM     66  OD2 ASP d   1       0.532  -8.010  -9.937  0.00  0.00    -0.648 OA
ENDBRANCH  61  64
ENDBRANCH   5  61
ENDBRANCH   3   5
BRANCH   1  67
ATOM     67  CA  VAL d   1       2.613 -13.961  -8.972  0.00  0.00     0.092 C 
ATOM     68  H24 VAL d   1       3.268 -14.506  -8.276  0.00  0.00     0.088 H 
BRANCH  67  69
ATOM     69  N   VAL d   1       1.375 -13.652  -8.230  0.00  0.00    -0.346 N 
ATOM     70  C   PRO d   1       1.201 -14.075  -6.990  0.00  0.00     0.241 C 
ATOM     71  O   PRO d   1       2.017 -14.789  -6.409  0.00  0.00    -0.271 OA
ATOM     72  H23 VAL d   1       0.657 -13.114  -8.672  0.00  0.00     0.163 HD
BRANCH  70  73
ATOM     73  CA  PRO d   1      -0.063 -13.579  -6.291  0.00  0.00     0.091 C 
ATOM     74  N   PRO d   1      -0.462 -14.454  -5.217  0.00  0.00    -0.337 N 
ATOM     75  C   GLN d   1      -0.966 -15.651  -5.525  0.00  0.00     0.247 C 
ATOM     76  CD  PRO d   1      -0.216 -13.853  -3.892  0.00  0.00    -0.001 C 
ATOM     77  O   GLN d   1      -1.105 -16.044  -6.705  0.00  0.00    -0.271 OA
ATOM     78  CG  PRO d   1       0.600 -12.620  -4.226  0.00  0.00    -0.048 C 
ATOM     79  H21 PRO d   1       0.350 -14.539  -3.245  0.00  0.00     0.064 H 
ATOM     80  H22 PRO d   1      -1.161 -13.581  -3.399  0.00  0.00     0.064 H 
ATOM     81  CB  PRO d   1       0.201 -12.257  -5.572  0.00  0.00    -0.036 C 
ATOM     82  H19 PRO d   1       0.374 -11.805  -3.523  0.00  0.00     0.035 H 
ATOM     83  H20 PRO d   1       1.676 -12.847  -4.190  0.00  0.00     0.035 H 
ATOM     84  H17 PRO d   1      -0.711 -11.643  -5.550  0.00  0.00     0.036 H 
ATOM     85  H18 PRO d   1       1.006 -11.700  -6.074  0.00  0.00     0.036 H 
ATOM     86  H16 PRO d   1      -0.870 -13.473  -7.031  0.00  0.00     0.087 H 
BRANCH  75  87
ATOM     87  CA  GLN d   1      -1.405 -16.499  -4.333  0.00  0.00     0.106 C 
ATOM     88  H11 GLN d   1      -1.742 -15.823  -3.533  0.00  0.00     0.094 H 
BRANCH  87  89
ATOM     89  N   GLN d   1      -2.515 -17.331  -4.714  0.00  0.00    -0.343 N 
ATOM     90  C   PRO d   1      -3.684 -16.824  -5.090  0.00  0.00     0.249 C 
ATOM     91  O   PRO d   1      -3.949 -15.611  -5.042  0.00  0.00    -0.271 OA
ATOM     92  H10 GLN d   1      -2.403 -18.325  -4.695  0.00  0.00     0.163 HD
BRANCH  90  93
ATOM     93  CA  PRO d   1      -4.715 -17.841  -5.579  0.00  0.00     0.178 C 
ATOM     94  N   PRO d   1      -6.085 -17.367  -5.448  0.00  0.00    -0.062 N 
ATOM     95  CD  PRO d   1      -6.801 -17.379  -6.735  0.00  0.00     0.083 C 
ATOM     96  H1  PRO d   1      -6.070 -16.424  -5.093  0.00  0.00     0.278 HD
ATOM     97  H2  PRO d   1      -6.574 -17.962  -4.798  0.00  0.00     0.278 HD
ATOM     98  CG  PRO d   1      -5.711 -17.370  -7.732  0.00  0.00    -0.040 C 
ATOM     99  H8  PRO d   1      -7.438 -16.488  -6.840  0.00  0.00     0.075 H 
ATOM    100  H9  PRO d   1      -7.418 -18.284  -6.834  0.00  0.00     0.075 H 
ATOM    101  CB  PRO d   1      -4.568 -18.085  -7.083  0.00  0.00    -0.028 C 
ATOM    102  H6  PRO d   1      -6.023 -17.895  -8.647  0.00  0.00     0.035 H 
ATOM    103  H7  PRO d   1      -5.426 -16.337  -7.981  0.00  0.00     0.035 H 
ATOM    104  H4  PRO d   1      -4.617 -19.162  -7.302  0.00  0.00     0.036 H 
ATOM    105  H5  PRO d   1      -3.611 -17.681  -7.444  0.00  0.00     0.036 H 
ATOM    106  H3  PRO d   1      -4.581 -18.778  -5.019  0.00  0.00     0.099 H 
ENDBRANCH  90  93
ENDBRANCH  87  89
BRANCH  87 107
ATOM    107  CB  GLN d   1      -0.243 -17.320  -3.792  0.00  0.00    -0.068 C 
ATOM    108  H12 GLN d   1      -0.005 -17.398  -2.732  0.00  0.00     0.081 H 
BRANCH 107 109
ATOM    109  CG  GLN d   1       0.535 -18.005  -4.862  0.00  0.00    -0.019 C 
ATOM    110  H13 GLN d   1       0.297 -17.893  -5.919  0.00  0.00     0.091 H 
BRANCH 109 111
ATOM    111  CD  GLN d   1       1.687 -18.873  -4.371  0.00  0.00     0.238 C 
ATOM    112  OE1 GLN d   1       1.907 -19.075  -3.168  0.00  0.00    -0.269 OA
ATOM    113  NE2 GLN d   1       2.437 -19.377  -5.320  0.00  0.00    -0.367 N 
ATOM    114  H14 GLN d   1       3.216 -19.959  -5.086  0.00  0.00     0.159 HD
ATOM    115  H15 GLN d   1       2.231 -19.180  -6.278  0.00  0.00     0.159 HD
ENDBRANCH 109 111
ENDBRANCH 107 109
ENDBRANCH  87 107
ENDBRANCH  75  87
ENDBRANCH  70  73
ENDBRANCH  67  69
BRANCH  67 116
ATOM    116  CB  VAL d   1       2.367 -14.894 -10.171  0.00  0.00    -0.033 C 
ATOM    117  H25 VAL d   1       3.342 -15.156 -10.607  0.00  0.00     0.042 H 
BRANCH 116 118
ATOM    118  CG1 VAL d   1       1.685 -16.182  -9.692  0.00  0.00    -0.071 C 
ATOM    119  H26 VAL d   1       1.511 -16.846 -10.551  0.00  0.00     0.028 H 
ATOM    120  H27 VAL d   1       0.723 -15.934  -9.220  0.00  0.00     0.028 H 
ATOM    121  H28 VAL d   1       2.332 -16.690  -8.961  0.00  0.00     0.028 H 
ENDBRANCH 116 118
BRANCH 116 122
ATOM    122  CG2 VAL d   1       1.541 -14.236 -11.242  0.00  0.00    -0.071 C 
ATOM    123  H29 VAL d   1       2.041 -13.315 -11.576  0.00  0.00     0.028 H 
ATOM    124  H30 VAL d   1       0.548 -13.989 -10.839  0.00  0.00     0.028 H 
ATOM    125  H31 VAL d   1       1.431 -14.923 -12.094  0.00  0.00     0.028 H 
ENDBRANCH 116 122
ENDBRANCH  67 116
ENDBRANCH   1  67
TORSDOF 29
