REMARK  15 active torsions:
REMARK  status: ('A' for Active; 'I' for Inactive)
REMARK    1  A    between atoms: S8_10  and  C5_7 
REMARK    2  A    between atoms: N11_13  and  S8_10 
REMARK    3  A    between atoms: N11_13  and  C12_14 
REMARK    4  A    between atoms: C16_18  and  N11_13 
REMARK    5  A    between atoms: C12_14  and  C13_15 
REMARK    6  A    between atoms: C13_15  and  C14_16 
REMARK    7  A    between atoms: C13_15  and  C15_17 
REMARK    8  A    between atoms: C17_19  and  C16_18 
REMARK    9  A    between atoms: C17_19  and  O18_20 
REMARK   10  A    between atoms: C19_21  and  C17_19 
REMARK   11  A    between atoms: C19_21  and  N20_22 
REMARK   12  A    between atoms: C32_34  and  C19_21 
REMARK       I    between atoms: N20_22  and  C21_23 
REMARK   13  A    between atoms: C21_23  and  O23_25 
REMARK   14  A    between atoms: O23_25  and  C24_26 
REMARK   15  A    between atoms: C38_40  and  C32_34 
ROOT
ATOM      1  C17 065 d   1      15.543  24.088  18.070  0.00  0.00     0.071 C 
ATOM      2  H17 065 d   1      15.884  23.619  19.005  0.00  0.00     0.088 H 
ENDROOT
BRANCH   1   3
ATOM      3  C16 065 d   1      16.663  24.978  17.522  0.00  0.00     0.031 C 
ATOM      4  H15 065 d   1      16.398  25.295  16.503  0.00  0.00     0.069 H 
ATOM      5  H16 065 d   1      16.761  25.863  18.168  0.00  0.00     0.069 H 
BRANCH   3   6
ATOM      6  N11 065 d   1      17.930  24.288  17.481  0.00  0.00    -0.304 N 
BRANCH   6   7
ATOM      7  S8  065 d   1      18.574  23.982  15.990  0.00  0.00     0.261 S 
ATOM      8  O9  065 d   1      17.461  23.825  15.045  0.00  0.00    -0.200 OA
ATOM      9  O10 065 d   1      19.568  22.874  16.166  0.00  0.00    -0.200 OA
BRANCH   7  10
ATOM     10  C5  065 d   1      19.492  25.410  15.514  0.00  0.00     0.082 A 
ATOM     11  C4  065 d   1      20.831  25.492  15.816  0.00  0.00    -0.025 A 
ATOM     12  C3  065 d   1      21.495  26.674  15.502  0.00  0.00     0.106 A 
ATOM     13  H3  065 d   1      21.352  24.664  16.283  0.00  0.00     0.090 H 
ATOM     14  C2  065 d   1      20.840  27.719  14.859  0.00  0.00     0.105 A 
ATOM     15  O41 065 d   1      22.795  27.016  15.659  0.00  0.00    -0.323 OA
ATOM     16  O39 065 d   1      21.691  28.778  14.714  0.00  0.00    -0.323 OA
ATOM     17  C7  065 d   1      19.491  27.626  14.551  0.00  0.00    -0.046 A 
ATOM     18  C40 065 d   1      22.883  28.338  15.296  0.00  0.00     0.115 C 
ATOM     19  H1  065 d   1      23.092  28.943  16.190  0.00  0.00     0.118 H 
ATOM     20  H2  065 d   1      23.703  28.459  14.572  0.00  0.00     0.118 H 
ATOM     21  C6  065 d   1      18.830  26.464  14.914  0.00  0.00    -0.058 A 
ATOM     22  H5  065 d   1      18.973  28.433  14.045  0.00  0.00     0.087 H 
ATOM     23  H4  065 d   1      17.766  26.380  14.723  0.00  0.00     0.086 H 
ENDBRANCH   7  10
ENDBRANCH   6   7
BRANCH   6  24
ATOM     24  C12 065 d   1      18.876  24.614  18.533  0.00  0.00     0.008 C 
ATOM     25  H6  065 d   1      18.867  25.703  18.685  0.00  0.00     0.066 H 
ATOM     26  H7  065 d   1      19.879  24.297  18.211  0.00  0.00     0.066 H 
BRANCH  24  27
ATOM     27  C13 065 d   1      18.555  23.931  19.874  0.00  0.00    -0.045 C 
ATOM     28  H8  065 d   1      17.548  24.224  20.205  0.00  0.00     0.041 H 
BRANCH  27  29
ATOM     29  C14 065 d   1      18.602  22.409  19.706  0.00  0.00    -0.072 C 
ATOM     30  H9  065 d   1      18.372  21.927  20.668  0.00  0.00     0.028 H 
ATOM     31  H10 065 d   1      19.607  22.107  19.376  0.00  0.00     0.028 H 
ATOM     32  H11 065 d   1      17.861  22.100  18.954  0.00  0.00     0.028 H 
ENDBRANCH  27  29
BRANCH  27  33
ATOM     33  C15 065 d   1      19.581  24.397  20.905  0.00  0.00    -0.072 C 
ATOM     34  H12 065 d   1      19.527  25.491  21.007  0.00  0.00     0.028 H 
ATOM     35  H13 065 d   1      20.590  24.109  20.575  0.00  0.00     0.028 H 
ATOM     36  H14 065 d   1      19.365  23.927  21.876  0.00  0.00     0.028 H 
ENDBRANCH  27  33
ENDBRANCH  24  27
ENDBRANCH   6  24
ENDBRANCH   3   6
ENDBRANCH   1   3
BRANCH   1  37
ATOM     37  O18 065 d   1      14.394  24.924  18.342  0.00  0.00    -0.392 OA
ATOM     38  H18 065 d   1      14.113  25.346  17.538  0.00  0.00     0.210 HD
ENDBRANCH   1  37
BRANCH   1  39
ATOM     39  C19 065 d   1      15.150  22.982  17.080  0.00  0.00     0.044 C 
ATOM     40  H19 065 d   1      16.048  22.435  16.758  0.00  0.00     0.077 H 
BRANCH  39  41
ATOM     41  N20 065 d   1      14.232  22.096  17.823  0.00  0.00    -0.329 N 
ATOM     42  C21 065 d   1      14.529  20.854  18.179  0.00  0.00     0.361 C 
ATOM     43  O22 065 d   1      15.611  20.299  17.927  0.00  0.00    -0.238 OA
ATOM     44  H20 065 d   1      13.332  22.454  18.073  0.00  0.00     0.165 HD
BRANCH  42  45
ATOM     45  O23 065 d   1      13.542  20.239  18.853  0.00  0.00    -0.296 OA
BRANCH  45  46
ATOM     46  C24 065 d   1      13.710  18.843  19.098  0.00  0.00     0.078 C 
ATOM     47  C25 065 d   1      13.049  18.581  20.453  0.00  0.00     0.048 C 
ATOM     48  O26 065 d   1      11.625  18.618  20.223  0.00  0.00    -0.358 OA
ATOM     49  H22 065 d   1      13.338  19.359  21.175  0.00  0.00     0.078 H 
ATOM     50  H23 065 d   1      13.347  17.595  20.838  0.00  0.00     0.078 H 
ATOM     51  C27 065 d   1      11.425  18.019  18.920  0.00  0.00     0.137 C 
ATOM     52  O28 065 d   1      10.499  18.857  18.226  0.00  0.00    -0.361 OA
ATOM     53  C31 065 d   1      12.744  18.047  18.197  0.00  0.00     0.023 C 
ATOM     54  H24 065 d   1      11.044  16.990  19.004  0.00  0.00     0.129 H 
ATOM     55  C29 065 d   1      11.190  19.552  17.194  0.00  0.00     0.023 C 
ATOM     56  C30 065 d   1      12.420  18.700  16.853  0.00  0.00    -0.035 C 
ATOM     57  H25 065 d   1      11.501  20.547  17.546  0.00  0.00     0.074 H 
ATOM     58  H26 065 d   1      10.545  19.661  16.310  0.00  0.00     0.074 H 
ATOM     59  H27 065 d   1      13.254  19.326  16.503  0.00  0.00     0.037 H 
ATOM     60  H28 065 d   1      12.182  17.945  16.090  0.00  0.00     0.037 H 
ATOM     61  H29 065 d   1      13.142  17.035  18.035  0.00  0.00     0.051 H 
ATOM     62  H21 065 d   1      14.759  18.521  19.025  0.00  0.00     0.088 H 
ENDBRANCH  45  46
ENDBRANCH  42  45
ENDBRANCH  39  41
BRANCH  39  63
ATOM     63  C32 065 d   1      14.409  23.500  15.853  0.00  0.00    -0.020 C 
ATOM     64  H30 065 d   1      15.063  24.187  15.296  0.00  0.00     0.043 H 
ATOM     65  H31 065 d   1      13.503  24.035  16.174  0.00  0.00     0.043 H 
BRANCH  63  66
ATOM     66  C38 065 d   1      14.014  22.340  14.951  0.00  0.00    -0.056 A 
ATOM     67  C33 065 d   1      12.677  21.944  14.786  0.00  0.00    -0.077 A 
ATOM     68  C34 065 d   1      12.310  20.888  13.976  0.00  0.00    -0.082 A 
ATOM     69  H32 065 d   1      11.903  22.488  15.315  0.00  0.00     0.084 H 
ATOM     70  C35 065 d   1      13.288  20.154  13.322  0.00  0.00    -0.083 A 
ATOM     71  H33 065 d   1      11.264  20.634  13.852  0.00  0.00     0.083 H 
ATOM     72  C36 065 d   1      14.607  20.554  13.463  0.00  0.00    -0.082 A 
ATOM     73  H34 065 d   1      13.028  19.292  12.718  0.00  0.00     0.083 H 
ATOM     74  C37 065 d   1      14.984  21.627  14.271  0.00  0.00    -0.077 A 
ATOM     75  H35 065 d   1      15.376  20.012  12.925  0.00  0.00     0.083 H 
ATOM     76  H36 065 d   1      16.029  21.899  14.365  0.00  0.00     0.084 H 
ENDBRANCH  63  66
ENDBRANCH  39  63
ENDBRANCH   1  39
TORSDOF 15
