REMARK  15 active torsions:
REMARK  status: ('A' for Active; 'I' for Inactive)
REMARK    1  A    between atoms: S8_10  and  C5_7 
REMARK    2  A    between atoms: N11_13  and  S8_10 
REMARK    3  A    between atoms: N11_13  and  C12_14 
REMARK    4  A    between atoms: C16_18  and  N11_13 
REMARK    5  A    between atoms: C12_14  and  C13_15 
REMARK    6  A    between atoms: C13_15  and  C14_16 
REMARK    7  A    between atoms: C13_15  and  C15_17 
REMARK    8  A    between atoms: C17_19  and  C16_18 
REMARK    9  A    between atoms: C17_19  and  O18_20 
REMARK   10  A    between atoms: C19_21  and  C17_19 
REMARK   11  A    between atoms: C19_21  and  N20_22 
REMARK   12  A    between atoms: C32_34  and  C19_21 
REMARK       I    between atoms: N20_22  and  C21_23 
REMARK   13  A    between atoms: C21_23  and  O23_25 
REMARK   14  A    between atoms: O23_25  and  C24_26 
REMARK   15  A    between atoms: C38_40  and  C32_34 
ROOT
ATOM      1  C17 065 d   1      15.358  24.198  17.977  0.00  0.00     0.071 C 
ATOM      2  H17 065 d   1      15.741  23.742  18.902  0.00  0.00     0.088 H 
ENDROOT
BRANCH   1   3
ATOM      3  C16 065 d   1      16.479  25.053  17.394  0.00  0.00     0.031 C 
ATOM      4  H15 065 d   1      16.193  25.369  16.380  0.00  0.00     0.069 H 
ATOM      5  H16 065 d   1      16.615  25.940  18.030  0.00  0.00     0.069 H 
BRANCH   3   6
ATOM      6  N11 065 d   1      17.737  24.331  17.322  0.00  0.00    -0.304 N 
BRANCH   6   7
ATOM      7  S8  065 d   1      18.343  24.120  15.812  0.00  0.00     0.261 S 
ATOM      8  O9  065 d   1      17.229  23.941  14.876  0.00  0.00    -0.200 OA
ATOM      9  O10 065 d   1      19.285  22.947  15.884  0.00  0.00    -0.200 OA
BRANCH   7  10
ATOM     10  C5  065 d   1      19.291  25.510  15.350  0.00  0.00     0.082 A 
ATOM     11  C4  065 d   1      20.647  25.558  15.651  0.00  0.00    -0.025 A 
ATOM     12  C3  065 d   1      21.341  26.717  15.379  0.00  0.00     0.106 A 
ATOM     13  H3  065 d   1      21.148  24.703  16.090  0.00  0.00     0.090 H 
ATOM     14  C2  065 d   1      20.704  27.815  14.819  0.00  0.00     0.105 A 
ATOM     15  O41 065 d   1      22.647  27.041  15.602  0.00  0.00    -0.323 OA
ATOM     16  O39 065 d   1      21.571  28.884  14.805  0.00  0.00    -0.323 OA
ATOM     17  C7  065 d   1      19.364  27.748  14.468  0.00  0.00    -0.046 A 
ATOM     18  C40 065 d   1      22.763  28.360  15.225  0.00  0.00     0.115 A 
ATOM     19  H1  065 d   1      23.123  28.944  16.085  0.00  0.00     0.118 H 
ATOM     20  H2  065 d   1      23.490  28.431  14.403  0.00  0.00     0.118 H 
ATOM     21  C6  065 d   1      18.664  26.580  14.741  0.00  0.00    -0.058 A 
ATOM     22  H5  065 d   1      18.874  28.589  13.991  0.00  0.00     0.087 H 
ATOM     23  H4  065 d   1      17.616  26.507  14.474  0.00  0.00     0.086 H 
ENDBRANCH   7  10
ENDBRANCH   6   7
BRANCH   6  24
ATOM     24  C12 065 d   1      18.672  24.669  18.386  0.00  0.00     0.008 C 
ATOM     25  H6  065 d   1      18.659  25.761  18.522  0.00  0.00     0.066 H 
ATOM     26  H7  065 d   1      19.678  24.351  18.074  0.00  0.00     0.066 H 
BRANCH  24  27
ATOM     27  C13 065 d   1      18.359  24.014  19.737  0.00  0.00    -0.045 C 
ATOM     28  H8  065 d   1      17.364  24.347  20.067  0.00  0.00     0.041 H 
BRANCH  27  29
ATOM     29  C14 065 d   1      18.361  22.487  19.652  0.00  0.00    -0.072 C 
ATOM     30  H9  065 d   1      18.132  22.064  20.642  0.00  0.00     0.028 H 
ATOM     31  H10 065 d   1      19.352  22.139  19.325  0.00  0.00     0.028 H 
ATOM     32  H11 065 d   1      17.600  22.159  18.929  0.00  0.00     0.028 H 
ENDBRANCH  27  29
BRANCH  27  33
ATOM     33  C15 065 d   1      19.411  24.458  20.768  0.00  0.00    -0.072 C 
ATOM     34  H12 065 d   1      19.417  25.556  20.836  0.00  0.00     0.028 H 
ATOM     35  H13 065 d   1      20.404  24.105  20.454  0.00  0.00     0.028 H 
ATOM     36  H14 065 d   1      19.164  24.031  21.751  0.00  0.00     0.028 H 
ENDBRANCH  27  33
ENDBRANCH  24  27
ENDBRANCH   6  24
ENDBRANCH   3   6
ENDBRANCH   1   3
BRANCH   1  37
ATOM     37  O18 065 d   1      14.193  24.963  18.296  0.00  0.00    -0.392 OA
ATOM     38  H18 065 d   1      13.864  25.380  17.508  0.00  0.00     0.210 HD
ENDBRANCH   1  37
BRANCH   1  39
ATOM     39  C19 065 d   1      14.906  23.075  17.033  0.00  0.00     0.044 C 
ATOM     40  H19 065 d   1      15.802  22.534  16.695  0.00  0.00     0.077 H 
BRANCH  39  41
ATOM     41  N20 065 d   1      14.035  22.156  17.760  0.00  0.00    -0.329 N 
ATOM     42  C21 065 d   1      14.347  20.906  18.110  0.00  0.00     0.361 C 
ATOM     43  O22 065 d   1      15.385  20.330  17.766  0.00  0.00    -0.238 OA
ATOM     44  H20 065 d   1      13.129  22.491  18.017  0.00  0.00     0.165 HD
BRANCH  42  45
ATOM     45  O23 065 d   1      13.365  20.348  18.865  0.00  0.00    -0.296 OA
BRANCH  45  46
ATOM     46  C24 065 d   1      13.494  18.940  19.100  0.00  0.00     0.078 C 
ATOM     47  C25 065 d   1      12.865  18.697  20.476  0.00  0.00     0.048 C 
ATOM     48  O26 065 d   1      11.457  18.683  20.247  0.00  0.00    -0.358 OA
ATOM     49  H22 065 d   1      13.134  19.506  21.172  0.00  0.00     0.078 H 
ATOM     50  H23 065 d   1      13.198  17.733  20.888  0.00  0.00     0.078 H 
ATOM     51  C27 065 d   1      11.213  18.178  18.950  0.00  0.00     0.137 C 
ATOM     52  O28 065 d   1      10.305  19.036  18.246  0.00  0.00    -0.361 OA
ATOM     53  C31 065 d   1      12.537  18.160  18.202  0.00  0.00     0.023 C 
ATOM     54  H24 065 d   1      10.795  17.163  19.014  0.00  0.00     0.129 H 
ATOM     55  C29 065 d   1      11.006  19.683  17.185  0.00  0.00     0.023 C 
ATOM     56  C30 065 d   1      12.180  18.766  16.849  0.00  0.00    -0.035 C 
ATOM     57  H25 065 d   1      11.370  20.669  17.510  0.00  0.00     0.074 H 
ATOM     58  H26 065 d   1      10.351  19.804  16.310  0.00  0.00     0.074 H 
ATOM     59  H27 065 d   1      13.024  19.338  16.437  0.00  0.00     0.037 H 
ATOM     60  H28 065 d   1      11.881  17.986  16.133  0.00  0.00     0.037 H 
ATOM     61  H29 065 d   1      12.922  17.140  18.058  0.00  0.00     0.051 H 
ATOM     62  H21 065 d   1      14.537  18.599  19.016  0.00  0.00     0.088 H 
ENDBRANCH  45  46
ENDBRANCH  42  45
ENDBRANCH  39  41
BRANCH  39  63
ATOM     63  C32 065 d   1      14.145  23.566  15.796  0.00  0.00    -0.020 C 
ATOM     64  H30 065 d   1      14.789  24.255  15.230  0.00  0.00     0.043 H 
ATOM     65  H31 065 d   1      13.237  24.096  16.121  0.00  0.00     0.043 H 
BRANCH  63  66
ATOM     66  C38 065 d   1      13.742  22.396  14.885  0.00  0.00    -0.056 A 
ATOM     67  C33 065 d   1      12.421  21.960  14.735  0.00  0.00    -0.077 A 
ATOM     68  C34 065 d   1      12.088  20.869  13.924  0.00  0.00    -0.082 A 
ATOM     69  H32 065 d   1      11.632  22.483  15.263  0.00  0.00     0.084 H 
ATOM     70  C35 065 d   1      13.088  20.166  13.260  0.00  0.00    -0.083 A 
ATOM     71  H33 065 d   1      11.051  20.572  13.813  0.00  0.00     0.083 H 
ATOM     72  C36 065 d   1      14.397  20.596  13.414  0.00  0.00    -0.082 A 
ATOM     73  H34 065 d   1      12.851  19.308  12.641  0.00  0.00     0.083 H 
ATOM     74  C37 065 d   1      14.719  21.707  14.188  0.00  0.00    -0.077 A 
ATOM     75  H35 065 d   1      15.192  20.052  12.918  0.00  0.00     0.083 H 
ATOM     76  H36 065 d   1      15.750  22.037  14.246  0.00  0.00     0.084 H 
ENDBRANCH  63  66
ENDBRANCH  39  63
ENDBRANCH   1  39
TORSDOF 15
