REMARK  15 active torsions:
REMARK  status: ('A' for Active; 'I' for Inactive)
REMARK    1  A    between atoms: S8_10  and  C5_7 
REMARK    2  A    between atoms: N11_13  and  S8_10 
REMARK    3  A    between atoms: N11_13  and  C12_14 
REMARK    4  A    between atoms: C16_18  and  N11_13 
REMARK    5  A    between atoms: C12_14  and  C13_15 
REMARK    6  A    between atoms: C13_15  and  C14_16 
REMARK    7  A    between atoms: C13_15  and  C15_17 
REMARK    8  A    between atoms: C17_19  and  C16_18 
REMARK    9  A    between atoms: C17_19  and  O18_20 
REMARK   10  A    between atoms: C19_21  and  C17_19 
REMARK   11  A    between atoms: C19_21  and  N20_22 
REMARK   12  A    between atoms: C32_34  and  C19_21 
REMARK       I    between atoms: N20_22  and  C21_23 
REMARK   13  A    between atoms: C21_23  and  O23_25 
REMARK   14  A    between atoms: O23_25  and  C24_26 
REMARK   15  A    between atoms: C38_40  and  C32_34 
ROOT
ATOM      1  C17 065 d   1      20.113  29.517  15.990  0.00  0.00     0.071 C 
ATOM      2  H17 065 d   1      21.162  29.845  15.940  0.00  0.00     0.088 H 
ENDROOT
BRANCH   1   3
ATOM      3  C16 065 d   1      19.278  30.678  16.548  0.00  0.00     0.031 C 
ATOM      4  H15 065 d   1      18.211  30.433  16.438  0.00  0.00     0.069 H 
ATOM      5  H16 065 d   1      19.516  30.806  17.614  0.00  0.00     0.069 H 
BRANCH   3   6
ATOM      6  N11 065 d   1      19.545  31.921  15.858  0.00  0.00    -0.304 N 
BRANCH   6   7
ATOM      7  S8  065 d   1      18.331  32.553  14.941  0.00  0.00     0.261 S 
ATOM      8  O9  065 d   1      17.545  31.452  14.434  0.00  0.00    -0.200 OA
ATOM      9  O10 065 d   1      18.980  33.460  14.014  0.00  0.00    -0.200 OA
BRANCH   7  10
ATOM     10  C5  065 d   1      17.282  33.530  15.964  0.00  0.00     0.082 A 
ATOM     11  C4  065 d   1      17.559  34.870  16.109  0.00  0.00    -0.025 A 
ATOM     12  C3  065 d   1      16.781  35.543  17.040  0.00  0.00     0.106 A 
ATOM     13  H3  065 d   1      18.333  35.366  15.535  0.00  0.00     0.090 H 
ATOM     14  C2  065 d   1      15.799  34.901  17.793  0.00  0.00     0.105 A 
ATOM     15  O41 065 d   1      16.799  36.868  17.367  0.00  0.00    -0.323 OA
ATOM     16  O39 065 d   1      15.265  35.815  18.645  0.00  0.00    -0.323 OA
ATOM     17  C7  065 d   1      15.496  33.580  17.609  0.00  0.00    -0.046 A 
ATOM     18  C40 065 d   1      15.894  37.015  18.389  0.00  0.00     0.115 A 
ATOM     19  H1  065 d   1      16.421  37.350  19.295  0.00  0.00     0.118 H 
ATOM     20  H2  065 d   1      15.142  37.766  18.103  0.00  0.00     0.118 H 
ATOM     21  C6  065 d   1      16.326  32.906  16.724  0.00  0.00    -0.058 A 
ATOM     22  H5  065 d   1      14.669  33.096  18.116  0.00  0.00     0.087 H 
ATOM     23  H4  065 d   1      16.213  31.832  16.629  0.00  0.00     0.086 H 
ENDBRANCH   7  10
ENDBRANCH   6   7
BRANCH   6  24
ATOM     24  C12 065 d   1      20.405  32.877  16.537  0.00  0.00     0.008 C 
ATOM     25  H6  065 d   1      20.052  32.972  17.575  0.00  0.00     0.066 H 
ATOM     26  H7  065 d   1      20.304  33.846  16.025  0.00  0.00     0.066 H 
BRANCH  24  27
ATOM     27  C13 065 d   1      21.888  32.520  16.577  0.00  0.00    -0.045 C 
ATOM     28  H8  065 d   1      22.002  31.528  17.039  0.00  0.00     0.041 H 
BRANCH  27  29
ATOM     29  C14 065 d   1      22.458  32.466  15.151  0.00  0.00    -0.072 C 
ATOM     30  H9  065 d   1      23.526  32.208  15.193  0.00  0.00     0.028 H 
ATOM     31  H10 065 d   1      22.336  33.448  14.670  0.00  0.00     0.028 H 
ATOM     32  H11 065 d   1      21.919  31.703  14.569  0.00  0.00     0.028 H 
ENDBRANCH  27  29
BRANCH  27  33
ATOM     33  C15 065 d   1      22.643  33.545  17.422  0.00  0.00    -0.072 C 
ATOM     34  H12 065 d   1      22.219  33.567  18.437  0.00  0.00     0.028 H 
ATOM     35  H13 065 d   1      22.548  34.540  16.963  0.00  0.00     0.028 H 
ATOM     36  H14 065 d   1      23.706  33.266  17.474  0.00  0.00     0.028 H 
ENDBRANCH  27  33
ENDBRANCH  24  27
ENDBRANCH   6  24
ENDBRANCH   3   6
ENDBRANCH   1   3
BRANCH   1  37
ATOM     37  O18 065 d   1      20.008  28.405  16.907  0.00  0.00    -0.392 OA
ATOM     38  H18 065 d   1      19.098  28.145  16.985  0.00  0.00     0.210 HD
ENDBRANCH   1  37
BRANCH   1  39
ATOM     39  C19 065 d   1      19.705  29.058  14.609  0.00  0.00     0.044 C 
ATOM     40  H19 065 d   1      19.669  29.953  13.970  0.00  0.00     0.077 H 
BRANCH  39  41
ATOM     41  N20 065 d   1      20.695  28.164  14.084  0.00  0.00    -0.329 N 
ATOM     42  C21 065 d   1      21.568  28.480  13.108  0.00  0.00     0.361 C 
ATOM     43  O22 065 d   1      21.649  29.553  12.521  0.00  0.00    -0.238 OA
ATOM     44  H20 065 d   1      20.741  27.242  14.469  0.00  0.00     0.165 HD
BRANCH  42  45
ATOM     45  O23 065 d   1      22.393  27.438  12.872  0.00  0.00    -0.296 OA
BRANCH  45  46
ATOM     46  C24 065 d   1      23.215  27.513  11.686  0.00  0.00     0.078 C 
ATOM     47  C25 065 d   1      24.542  26.868  12.023  0.00  0.00     0.048 C 
ATOM     48  O26 065 d   1      24.274  25.460  11.968  0.00  0.00    -0.358 OA
ATOM     49  H22 065 d   1      24.874  27.163  13.029  0.00  0.00     0.078 H 
ATOM     50  H23 065 d   1      25.310  27.148  11.287  0.00  0.00     0.078 H 
ATOM     51  C27 065 d   1      23.307  25.235  10.957  0.00  0.00     0.137 C 
ATOM     52  O28 065 d   1      22.257  24.447  11.503  0.00  0.00    -0.361 OA
ATOM     53  C31 065 d   1      22.695  26.577  10.586  0.00  0.00     0.023 C 
ATOM     54  H24 065 d   1      23.759  24.745  10.082  0.00  0.00     0.129 H 
ATOM     55  C29 065 d   1      21.031  25.144  11.549  0.00  0.00     0.023 C 
ATOM     56  C30 065 d   1      21.200  26.374  10.624  0.00  0.00    -0.035 C 
ATOM     57  H25 065 d   1      20.814  25.467  12.578  0.00  0.00     0.074 H 
ATOM     58  H26 065 d   1      20.214  24.503  11.186  0.00  0.00     0.074 H 
ATOM     59  H27 065 d   1      20.693  27.255  11.044  0.00  0.00     0.037 H 
ATOM     60  H28 065 d   1      20.805  26.168   9.618  0.00  0.00     0.037 H 
ATOM     61  H29 065 d   1      23.010  26.925   9.591  0.00  0.00     0.051 H 
ATOM     62  H21 065 d   1      23.314  28.551  11.337  0.00  0.00     0.088 H 
ENDBRANCH  45  46
ENDBRANCH  42  45
ENDBRANCH  39  41
BRANCH  39  63
ATOM     63  C32 065 d   1      18.350  28.380  14.514  0.00  0.00    -0.020 C 
ATOM     64  H30 065 d   1      17.579  29.086  14.855  0.00  0.00     0.043 H 
ATOM     65  H31 065 d   1      18.353  27.496  15.168  0.00  0.00     0.043 H 
BRANCH  63  66
ATOM     66  C38 065 d   1      18.013  27.939  13.106  0.00  0.00    -0.056 A 
ATOM     67  C33 065 d   1      17.893  26.589  12.795  0.00  0.00    -0.077 A 
ATOM     68  C34 065 d   1      17.651  26.222  11.479  0.00  0.00    -0.082 A 
ATOM     69  H32 065 d   1      17.987  25.835  13.568  0.00  0.00     0.084 H 
ATOM     70  C35 065 d   1      17.462  27.150  10.495  0.00  0.00    -0.083 A 
ATOM     71  H33 065 d   1      17.611  25.169  11.225  0.00  0.00     0.083 H 
ATOM     72  C36 065 d   1      17.606  28.509  10.786  0.00  0.00    -0.082 A 
ATOM     73  H34 065 d   1      17.201  26.833   9.492  0.00  0.00     0.083 H 
ATOM     74  C37 065 d   1      17.872  28.893  12.112  0.00  0.00    -0.077 A 
ATOM     75  H35 065 d   1      17.514  29.254  10.004  0.00  0.00     0.083 H 
ATOM     76  H36 065 d   1      17.968  29.944  12.358  0.00  0.00     0.084 H 
ENDBRANCH  63  66
ENDBRANCH  39  63
ENDBRANCH   1  39
TORSDOF 15
