REMARK  15 active torsions:
REMARK  status: ('A' for Active; 'I' for Inactive)
REMARK    1  A    between atoms: S8_10  and  C5_7 
REMARK    2  A    between atoms: N11_13  and  S8_10 
REMARK    3  A    between atoms: N11_13  and  C12_14 
REMARK    4  A    between atoms: C16_18  and  N11_13 
REMARK    5  A    between atoms: C12_14  and  C13_15 
REMARK    6  A    between atoms: C13_15  and  C14_16 
REMARK    7  A    between atoms: C13_15  and  C15_17 
REMARK    8  A    between atoms: C17_19  and  C16_18 
REMARK    9  A    between atoms: C17_19  and  O18_20 
REMARK   10  A    between atoms: C19_21  and  C17_19 
REMARK   11  A    between atoms: C19_21  and  N20_22 
REMARK   12  A    between atoms: C32_34  and  C19_21 
REMARK       I    between atoms: N20_22  and  C21_23 
REMARK   13  A    between atoms: C21_23  and  O23_25 
REMARK   14  A    between atoms: O23_25  and  C24_26 
REMARK   15  A    between atoms: C38_40  and  C32_34 
ROOT
ATOM      1  C17 065 d   1      15.376  24.091  17.956  0.00  0.00     0.071 C 
ATOM      2  H17 065 d   1      15.719  23.633  18.895  0.00  0.00     0.088 H 
ENDROOT
BRANCH   1   3
ATOM      3  C16 065 d   1      16.528  24.964  17.454  0.00  0.00     0.031 C 
ATOM      4  H15 065 d   1      16.283  25.333  16.447  0.00  0.00     0.069 H 
ATOM      5  H16 065 d   1      16.652  25.817  18.137  0.00  0.00     0.069 H 
BRANCH   3   6
ATOM      6  N11 065 d   1      17.778  24.225  17.393  0.00  0.00    -0.304 N 
BRANCH   6   7
ATOM      7  S8  065 d   1      18.410  23.991  15.894  0.00  0.00     0.261 S 
ATOM      8  O9  065 d   1      17.292  23.810  14.969  0.00  0.00    -0.200 OA
ATOM      9  O10 065 d   1      19.353  22.850  16.030  0.00  0.00    -0.200 OA
BRANCH   7  10
ATOM     10  C5  065 d   1      19.335  25.400  15.405  0.00  0.00     0.082 A 
ATOM     11  C4  065 d   1      20.683  25.448  15.698  0.00  0.00    -0.025 A 
ATOM     12  C3  065 d   1      21.365  26.628  15.421  0.00  0.00     0.106 A 
ATOM     13  H3  065 d   1      21.193  24.594  16.130  0.00  0.00     0.090 H 
ATOM     14  C2  065 d   1      20.709  27.716  14.854  0.00  0.00     0.105 A 
ATOM     15  O41 065 d   1      22.687  26.958  15.585  0.00  0.00    -0.323 OA
ATOM     16  O39 065 d   1      21.586  28.749  14.720  0.00  0.00    -0.323 OA
ATOM     17  C7  065 d   1      19.376  27.640  14.518  0.00  0.00    -0.046 A 
ATOM     18  C40 065 d   1      22.819  28.258  15.143  0.00  0.00     0.115 A 
ATOM     19  H1  065 d   1      23.197  28.884  15.964  0.00  0.00     0.118 H 
ATOM     20  H2  065 d   1      23.529  28.286  14.303  0.00  0.00     0.118 H 
ATOM     21  C6  065 d   1      18.695  26.465  14.796  0.00  0.00    -0.058 A 
ATOM     22  H5  065 d   1      18.872  28.477  14.048  0.00  0.00     0.087 H 
ATOM     23  H4  065 d   1      17.647  26.379  14.533  0.00  0.00     0.086 H 
ENDBRANCH   7  10
ENDBRANCH   6   7
BRANCH   6  24
ATOM     24  C12 065 d   1      18.733  24.462  18.453  0.00  0.00     0.008 C 
ATOM     25  H6  065 d   1      18.860  25.549  18.563  0.00  0.00     0.066 H 
ATOM     26  H7  065 d   1      19.691  24.008  18.159  0.00  0.00     0.066 H 
BRANCH  24  27
ATOM     27  C13 065 d   1      18.329  23.885  19.823  0.00  0.00    -0.045 C 
ATOM     28  H8  065 d   1      17.360  24.309  20.124  0.00  0.00     0.041 H 
BRANCH  27  29
ATOM     29  C14 065 d   1      18.206  22.375  19.759  0.00  0.00    -0.072 C 
ATOM     30  H9  065 d   1      17.917  21.988  20.747  0.00  0.00     0.028 H 
ATOM     31  H10 065 d   1      19.172  21.941  19.463  0.00  0.00     0.028 H 
ATOM     32  H11 065 d   1      17.439  22.101  19.020  0.00  0.00     0.028 H 
ENDBRANCH  27  29
BRANCH  27  33
ATOM     33  C15 065 d   1      19.401  24.283  20.846  0.00  0.00    -0.072 C 
ATOM     34  H12 065 d   1      19.482  25.379  20.884  0.00  0.00     0.028 H 
ATOM     35  H13 065 d   1      20.369  23.854  20.548  0.00  0.00     0.028 H 
ATOM     36  H14 065 d   1      19.120  23.901  21.839  0.00  0.00     0.028 H 
ENDBRANCH  27  33
ENDBRANCH  24  27
ENDBRANCH   6  24
ENDBRANCH   3   6
ENDBRANCH   1   3
BRANCH   1  37
ATOM     37  O18 065 d   1      14.220  24.862  18.254  0.00  0.00    -0.392 OA
ATOM     38  H18 065 d   1      13.932  25.315  17.470  0.00  0.00     0.210 HD
ENDBRANCH   1  37
BRANCH   1  39
ATOM     39  C19 065 d   1      14.992  22.951  17.020  0.00  0.00     0.044 C 
ATOM     40  H19 065 d   1      15.906  22.429  16.702  0.00  0.00     0.077 H 
BRANCH  39  41
ATOM     41  N20 065 d   1      14.133  22.047  17.764  0.00  0.00    -0.329 N 
ATOM     42  C21 065 d   1      14.421  20.793  18.096  0.00  0.00     0.361 C 
ATOM     43  O22 065 d   1      15.484  20.219  17.823  0.00  0.00    -0.238 OA
ATOM     44  H20 065 d   1      13.243  22.401  18.053  0.00  0.00     0.165 HD
BRANCH  42  45
ATOM     45  O23 065 d   1      13.416  20.181  18.756  0.00  0.00    -0.296 OA
BRANCH  45  46
ATOM     46  C24 065 d   1      13.608  18.793  19.035  0.00  0.00     0.078 C 
ATOM     47  C25 065 d   1      13.013  18.584  20.433  0.00  0.00     0.048 C 
ATOM     48  O26 065 d   1      11.579  18.583  20.255  0.00  0.00    -0.358 OA
ATOM     49  H22 065 d   1      13.315  19.402  21.104  0.00  0.00     0.078 H 
ATOM     50  H23 065 d   1      13.348  17.623  20.852  0.00  0.00     0.078 H 
ATOM     51  C27 065 d   1      11.323  18.001  18.989  0.00  0.00     0.137 C 
ATOM     52  O28 065 d   1      10.389  18.840  18.299  0.00  0.00    -0.361 OA
ATOM     53  C31 065 d   1      12.622  17.972  18.195  0.00  0.00     0.023 C 
ATOM     54  H24 065 d   1      10.919  16.984  19.105  0.00  0.00     0.129 H 
ATOM     55  C29 065 d   1      11.050  19.449  17.212  0.00  0.00     0.023 C 
ATOM     56  C30 065 d   1      12.228  18.537  16.829  0.00  0.00    -0.035 C 
ATOM     57  H25 065 d   1      11.422  20.442  17.505  0.00  0.00     0.074 H 
ATOM     58  H26 065 d   1      10.361  19.552  16.361  0.00  0.00     0.074 H 
ATOM     59  H27 065 d   1      13.051  19.110  16.377  0.00  0.00     0.037 H 
ATOM     60  H28 065 d   1      11.913  17.740  16.139  0.00  0.00     0.037 H 
ATOM     61  H29 065 d   1      13.010  16.950  18.072  0.00  0.00     0.051 H 
ATOM     62  H21 065 d   1      14.656  18.476  18.928  0.00  0.00     0.088 H 
ENDBRANCH  45  46
ENDBRANCH  42  45
ENDBRANCH  39  41
BRANCH  39  63
ATOM     63  C32 065 d   1      14.223  23.403  15.776  0.00  0.00    -0.020 C 
ATOM     64  H30 065 d   1      14.845  24.108  15.204  0.00  0.00     0.043 H 
ATOM     65  H31 065 d   1      13.294  23.903  16.088  0.00  0.00     0.043 H 
BRANCH  63  66
ATOM     66  C38 065 d   1      13.876  22.215  14.892  0.00  0.00    -0.056 A 
ATOM     67  C33 065 d   1      12.582  21.753  14.741  0.00  0.00    -0.077 A 
ATOM     68  C34 065 d   1      12.264  20.645  13.960  0.00  0.00    -0.082 A 
ATOM     69  H32 065 d   1      11.781  22.275  15.252  0.00  0.00     0.084 H 
ATOM     70  C35 065 d   1      13.256  19.965  13.304  0.00  0.00    -0.083 A 
ATOM     71  H33 065 d   1      11.233  20.321  13.871  0.00  0.00     0.083 H 
ATOM     72  C36 065 d   1      14.552  20.417  13.444  0.00  0.00    -0.082 A 
ATOM     73  H34 065 d   1      13.030  19.098  12.694  0.00  0.00     0.083 H 
ATOM     74  C37 065 d   1      14.877  21.528  14.214  0.00  0.00    -0.077 A 
ATOM     75  H35 065 d   1      15.347  19.886  12.934  0.00  0.00     0.083 H 
ATOM     76  H36 065 d   1      15.907  21.858  14.286  0.00  0.00     0.084 H 
ENDBRANCH  63  66
ENDBRANCH  39  63
ENDBRANCH   1  39
TORSDOF 15
