REMARK  6 active torsions:
REMARK  status: ('A' for Active; 'I' for Inactive)
REMARK    1  A    between atoms: S_1  and  C1_2 
REMARK    2  A    between atoms: C1_2  and  C2_3 
REMARK    3  A    between atoms: C2_3  and  C3_4 
REMARK       I    between atoms: C3_4  and  N4_6 
REMARK    4  A    between atoms: N4_6  and  C5_7 
REMARK    5  A    between atoms: C5_7  and  C51_8 
REMARK    6  A    between atoms: C5_7  and  C6_9 
ROOT
ATOM      1  C3  I38 d   1      12.423  28.464  31.465  0.00  0.00     0.219 C 
ATOM      2  O3  I38 d   1      12.971  27.401  31.411  0.00  0.00    -0.274 OA
ATOM      3  N4  I38 d   1      11.741  28.891  32.540  0.00  0.00    -0.347 N 
ATOM      4  H6  I38 d   1      11.372  29.820  32.499  0.00  0.00     0.163 HD
ENDROOT
BRANCH   3   5
ATOM      5  C5  I38 d   1      11.484  28.132  33.766  0.00  0.00     0.092 C 
ATOM      6  H7  I38 d   1      11.887  27.117  33.634  0.00  0.00     0.089 H 
BRANCH   5   7
ATOM      7  C51 I38 d   1       9.969  28.044  33.945  0.00  0.00    -0.048 C 
ATOM      8  H8  I38 d   1       9.740  27.478  34.860  0.00  0.00     0.030 H 
ATOM      9  H9  I38 d   1       9.526  27.533  33.077  0.00  0.00     0.030 H 
ATOM     10  H10 I38 d   1       9.550  29.058  34.026  0.00  0.00     0.030 H 
ENDBRANCH   5   7
BRANCH   5  11
ATOM     11  C6  I38 d   1      12.134  28.730  35.006  0.00  0.00     0.196 C 
ATOM     12  O62 I38 d   1      12.523  29.938  34.939  0.00  0.00    -0.646 OA
ATOM     13  O61 I38 d   1      12.267  28.022  36.060  0.00  0.00    -0.646 OA
ENDBRANCH   5  11
ENDBRANCH   3   5
BRANCH   1  14
ATOM     14  C2  I38 d   1      12.545  29.345  30.237  0.00  0.00     0.017 C 
ATOM     15  H4  I38 d   1      12.896  28.731  29.394  0.00  0.00     0.048 H 
ATOM     16  H5  I38 d   1      11.555  29.762  30.000  0.00  0.00     0.048 H 
BRANCH  14  17
ATOM     17  C1  I38 d   1      13.523  30.494  30.448  0.00  0.00    -0.018 C 
ATOM     18  H2  I38 d   1      14.506  30.086  30.727  0.00  0.00     0.049 H 
ATOM     19  H3  I38 d   1      13.616  31.067  29.514  0.00  0.00     0.049 H 
BRANCH  17  20
ATOM     20  S   I38 d   1      12.982  31.508  31.664  0.00  0.00    -0.182 SA
ATOM     21  H1  I38 d   1      13.640  32.261  31.790  0.00  0.00     0.101 HD
ENDBRANCH  17  20
ENDBRANCH  14  17
ENDBRANCH   1  14
TORSDOF 6
