REMARK  6 active torsions:
REMARK  status: ('A' for Active; 'I' for Inactive)
REMARK    1  A    between atoms: C1_1  and  O27_24 
REMARK    2  A    between atoms: C3_3  and  C24_21 
REMARK    3  A    between atoms: C6_6  and  C17_14 
REMARK    4  A    between atoms: C20_17  and  O21_18 
REMARK    5  A    between atoms: C24_21  and  O25_22 
REMARK    6  A    between atoms: O25_22  and  C26_23 
ROOT
ATOM      1  C1  JJ3 d   1      -6.462   8.436  26.626  0.00  0.00     0.067 A 
ATOM      2  C2  JJ3 d   1      -5.723   8.309  25.419  0.00  0.00    -0.040 A 
ATOM      3  C3  JJ3 d   1      -5.847   7.160  24.624  0.00  0.00     0.002 A 
ATOM      4  C4  JJ3 d   1      -6.734   6.098  25.024  0.00  0.00     0.085 A 
ATOM      5  O5  JJ3 d   1      -6.822   4.966  24.196  0.00  0.00    -0.340 OA
ATOM      6  C6  JJ3 d   1      -8.064   4.246  24.375  0.00  0.00     0.074 C 
ATOM      7  C8  JJ3 d   1      -8.313   3.866  25.876  0.00  0.00    -0.017 C 
ATOM      8  C10 JJ3 d   1      -7.139   3.030  26.496  0.00  0.00    -0.058 C 
ATOM      9  C11 JJ3 d   1      -7.082   3.456  27.987  0.00  0.00    -0.064 C 
ATOM     10  C12 JJ3 d   1      -8.028   4.652  28.162  0.00  0.00    -0.057 C 
ATOM     11  C13 JJ3 d   1      -8.440   5.143  26.740  0.00  0.00    -0.020 C 
ATOM     12  C15 JJ3 d   1      -7.474   6.235  26.247  0.00  0.00    -0.017 A 
ATOM     13  C16 JJ3 d   1      -7.331   7.407  27.032  0.00  0.00    -0.042 A 
ATOM     14  H1  JJ3 d   1      -5.058   9.107  25.110  0.00  0.00     0.088 H 
ATOM     15  H2  JJ3 d   1      -8.880   4.911  24.054  0.00  0.00     0.092 H 
ATOM     16  H3  JJ3 d   1      -9.244   3.283  25.937  0.00  0.00     0.045 H 
ATOM     17  H4  JJ3 d   1      -6.190   3.264  25.991  0.00  0.00     0.033 H 
ATOM     18  H5  JJ3 d   1      -7.345   1.953  26.410  0.00  0.00     0.033 H 
ATOM     19  H6  JJ3 d   1      -6.056   3.747  28.256  0.00  0.00     0.033 H 
ATOM     20  H7  JJ3 d   1      -7.407   2.623  28.628  0.00  0.00     0.033 H 
ATOM     21  H8  JJ3 d   1      -7.514   5.460  28.703  0.00  0.00     0.034 H 
ATOM     22  H9  JJ3 d   1      -8.921   4.344  28.725  0.00  0.00     0.034 H 
ATOM     23  H10 JJ3 d   1      -9.471   5.527  26.733  0.00  0.00     0.048 H 
ATOM     24  H11 JJ3 d   1      -7.895   7.511  27.952  0.00  0.00     0.088 H 
ENDROOT
BRANCH   6  25
ATOM     25  C17 JJ3 d   1      -8.119   2.981  23.513  0.00  0.00    -0.028 A 
ATOM     26  C18 JJ3 d   1      -7.015   2.560  22.732  0.00  0.00    -0.072 A 
ATOM     27  C19 JJ3 d   1      -7.112   1.384  21.955  0.00  0.00    -0.050 A 
ATOM     28  H12 JJ3 d   1      -6.098   3.138  22.730  0.00  0.00     0.084 H 
ATOM     29  C20 JJ3 d   1      -8.314   0.629  21.965  0.00  0.00     0.065 A 
ATOM     30  H13 JJ3 d   1      -6.271   1.059  21.353  0.00  0.00     0.087 H 
ATOM     31  C22 JJ3 d   1      -9.402   1.051  22.738  0.00  0.00    -0.050 A 
ATOM     32  C23 JJ3 d   1      -9.307   2.215  23.505  0.00  0.00    -0.072 A 
ATOM     33  H15 JJ3 d   1     -10.320   0.474  22.742  0.00  0.00     0.087 H 
ATOM     34  H16 JJ3 d   1     -10.154   2.534  24.101  0.00  0.00     0.084 H 
BRANCH  29  35
ATOM     35  O21 JJ3 d   1      -8.426  -0.505  21.231  0.00  0.00    -0.361 OA
ATOM     36  H14 JJ3 d   1      -9.291  -0.878  21.356  0.00  0.00     0.217 HD
ENDBRANCH  29  35
ENDBRANCH   6  25
BRANCH   3  37
ATOM     37  C24 JJ3 d   1      -5.039   7.070  23.336  0.00  0.00     0.045 C 
ATOM     38  H17 JJ3 d   1      -4.302   6.258  23.425  0.00  0.00     0.081 H 
ATOM     39  H18 JJ3 d   1      -4.517   8.023  23.166  0.00  0.00     0.081 H 
BRANCH  37  40
ATOM     40  O25 JJ3 d   1      -5.912   6.801  22.224  0.00  0.00    -0.391 OA
BRANCH  40  41
ATOM     41  C26 JJ3 d   1      -6.014   8.004  21.460  0.00  0.00     0.004 C 
ATOM     42  H19 JJ3 d   1      -6.676   7.836  20.598  0.00  0.00     0.066 H 
ATOM     43  H20 JJ3 d   1      -5.016   8.298  21.104  0.00  0.00     0.066 H 
ATOM     44  H21 JJ3 d   1      -6.429   8.805  22.090  0.00  0.00     0.066 H 
ENDBRANCH  40  41
ENDBRANCH  37  40
ENDBRANCH   3  37
BRANCH   1  45
ATOM     45  O27 JJ3 d   1      -6.333   9.552  27.389  0.00  0.00    -0.361 OA
ATOM     46  H22 JJ3 d   1      -5.714  10.145  26.979  0.00  0.00     0.217 HD
ENDBRANCH   1  45
TORSDOF 6
