REMARK  8 active torsions:
REMARK  status: ('A' for Active; 'I' for Inactive)
REMARK    1  A    between atoms: C1_1  and  C7_7 
REMARK    2  A    between atoms: C3_3  and  N8_8 
REMARK    3  A    between atoms: C9_9  and  C5_5 
REMARK    4  A    between atoms: N10_10  and  C9_9 
REMARK    5  A    between atoms: S11_11  and  N10_10 
REMARK    6  A    between atoms: C26_26  and  S11_11 
REMARK    7  A    between atoms: N21_21  and  C20_20 
REMARK    8  A    between atoms: C22_22  and  N21_21 
ROOT
ATOM      1  C22 A94 d   1      19.300  22.847  13.822  0.00  0.00     0.033 A 
ATOM      2  C23 A94 d   1      17.893  22.478  13.961  0.00  0.00    -0.057 A 
ATOM      3  C24 A94 d   1      17.374  22.049  15.234  0.00  0.00    -0.079 A 
ATOM      4  C25 A94 d   1      18.255  21.991  16.372  0.00  0.00    -0.060 A 
ATOM      5  C26 A94 d   1      19.639  22.356  16.227  0.00  0.00     0.081 A 
ATOM      6  C27 A94 d   1      20.151  22.778  14.965  0.00  0.00    -0.035 A 
ATOM      7  H16 A94 d   1      17.236  22.527  13.100  0.00  0.00     0.086 H 
ATOM      8  H17 A94 d   1      16.331  21.773  15.335  0.00  0.00     0.083 H 
ATOM      9  H18 A94 d   1      17.876  21.673  17.336  0.00  0.00     0.085 H 
ATOM     10  H19 A94 d   1      21.197  23.049  14.873  0.00  0.00     0.089 H 
ENDROOT
BRANCH   5  11
ATOM     11  S11 A94 d   1      20.688  22.313  17.574  0.00  0.00     0.259 S 
ATOM     12  O12 A94 d   1      19.992  21.874  18.751  0.00  0.00    -0.201 OA
ATOM     13  O13 A94 d   1      21.935  21.702  17.235  0.00  0.00    -0.201 OA
BRANCH  11  14
ATOM     14  N10 A94 d   1      21.156  23.973  17.857  0.00  0.00    -0.310 N 
ATOM     15  H9  A94 d   1      22.064  24.287  17.578  0.00  0.00     0.172 HD
BRANCH  14  16
ATOM     16  C9  A94 d   1      20.221  24.917  18.506  0.00  0.00     0.043 C 
ATOM     17  H7  A94 d   1      19.591  24.352  19.209  0.00  0.00     0.074 H 
ATOM     18  H8  A94 d   1      20.811  25.662  19.060  0.00  0.00     0.074 H 
BRANCH  16  19
ATOM     19  C5  A94 d   1      19.315  25.651  17.538  0.00  0.00     0.073 A 
ATOM     20  N4  A94 d   1      18.064  25.969  17.970  0.00  0.00    -0.066 NA
ATOM     21  C3  A94 d   1      17.252  26.610  17.126  0.00  0.00     0.720 A 
ATOM     22  N2  A94 d   1      17.564  26.974  15.866  0.00  0.00    -0.068 NA
ATOM     23  C1  A94 d   1      18.816  26.652  15.448  0.00  0.00     0.051 A 
ATOM     24  C6  A94 d   1      19.744  25.988  16.241  0.00  0.00    -0.033 A 
ATOM     25  H1  A94 d   1      20.738  25.745  15.882  0.00  0.00     0.089 H 
BRANCH  21  26
ATOM     26  N8  A94 d   1      16.030  26.911  17.577  0.00  0.00    -0.231 N 
ATOM     27  H5  A94 d   1      15.363  27.405  16.967  0.00  0.00     0.174 HD
ATOM     28  H6  A94 d   1      15.755  26.649  18.534  0.00  0.00     0.174 HD
ENDBRANCH  21  26
BRANCH  23  29
ATOM     29  C7  A94 d   1      19.159  27.004  14.183  0.00  0.00    -0.035 C 
ATOM     30  H2  A94 d   1      20.192  26.684  13.981  0.00  0.00     0.035 H 
ATOM     31  H3  A94 d   1      19.085  28.096  14.074  0.00  0.00     0.035 H 
ATOM     32  H4  A94 d   1      18.478  26.517  13.470  0.00  0.00     0.035 H 
ENDBRANCH  23  29
ENDBRANCH  16  19
ENDBRANCH  14  16
ENDBRANCH  11  14
ENDBRANCH   5  11
BRANCH   1  33
ATOM     33  N21 A94 d   1      19.821  23.267  12.619  0.00  0.00    -0.365 N 
ATOM     34  H15 A94 d   1      20.833  23.176  12.451  0.00  0.00     0.165 HD
BRANCH  33  35
ATOM     35  C20 A94 d   1      18.967  23.843  11.566  0.00  0.00    -0.011 C 
ATOM     36  C16 A94 d   1      19.382  24.472  10.476  0.00  0.00     0.034 C 
ATOM     37  C15 A94 d   1      20.705  24.806   9.941  0.00  0.00    -0.013 C 
ATOM     38  C17 A94 d   1      18.428  25.001   9.488  0.00  0.00     0.290 C 
ATOM     39  C14 A94 d   1      20.530  25.733   8.765  0.00  0.00     0.033 C 
ATOM     40  H12 A94 d   1      21.304  25.303  10.718  0.00  0.00     0.043 H 
ATOM     41  H13 A94 d   1      21.215  23.887   9.616  0.00  0.00     0.043 H 
ATOM     42  O18 A94 d   1      19.093  25.705   8.547  0.00  0.00    -0.317 OA
ATOM     43  H10 A94 d   1      21.072  25.361   7.883  0.00  0.00     0.075 H 
ATOM     44  H11 A94 d   1      20.875  26.749   9.006  0.00  0.00     0.075 H 
ATOM     45  O19 A94 d   1      17.244  24.826   9.516  0.00  0.00    -0.260 OA
ATOM     46  H14 A94 d   1      17.890  23.742  11.696  0.00  0.00     0.112 H 
ENDBRANCH  33  35
ENDBRANCH   1  33
TORSDOF 8
