REMARK  6 active torsions:
REMARK  status: ('A' for Active; 'I' for Inactive)
REMARK    1  A    between atoms: N3_3  and  N7_7 
REMARK    2  A    between atoms: C8_8  and  C9_9 
REMARK    3  A    between atoms: C10_10  and  C15_15 
REMARK    4  A    between atoms: C16_16  and  C17_17 
REMARK    5  A    between atoms: C19_19  and  C23_23 
REMARK    6  A    between atoms: C21_21  and  N24_24 
ROOT
ATOM      1  C9  A91 d   1       5.787  34.495  25.713  0.00  0.00     0.002 A 
ATOM      2  C10 A91 d   1       4.814  35.585  25.845  0.00  0.00     0.029 A 
ATOM      3  C11 A91 d   1       5.194  36.843  26.427  0.00  0.00    -0.064 A 
ATOM      4  C12 A91 d   1       6.539  37.031  26.882  0.00  0.00    -0.082 A 
ATOM      5  C13 A91 d   1       7.509  35.969  26.762  0.00  0.00    -0.082 A 
ATOM      6  C14 A91 d   1       7.135  34.708  26.180  0.00  0.00    -0.070 A 
ATOM      7  H6  A91 d   1       4.469  37.643  26.521  0.00  0.00     0.085 H 
ATOM      8  H7  A91 d   1       6.831  37.979  27.320  0.00  0.00     0.083 H 
ATOM      9  H8  A91 d   1       8.523  36.122  27.112  0.00  0.00     0.083 H 
ATOM     10  H9  A91 d   1       7.869  33.915  26.092  0.00  0.00     0.084 H 
ENDROOT
BRANCH   2  11
ATOM     11  C15 A91 d   1       3.450  35.445  25.402  0.00  0.00    -0.059 C 
ATOM     12  C16 A91 d   1       2.350  35.316  25.004  0.00  0.00    -0.041 C 
BRANCH  12  13
ATOM     13  C17 A91 d   1       1.043  35.230  24.477  0.00  0.00     0.131 A 
ATOM     14  C18 A91 d   1       0.877  35.792  23.201  0.00  0.00    -0.022 A 
ATOM     15  C19 A91 d   1      -0.426  35.714  22.676  0.00  0.00     0.052 A 
ATOM     16  H10 A91 d   1       1.695  36.253  22.659  0.00  0.00     0.091 H 
ATOM     17  N20 A91 d   1      -1.484  35.136  23.340  0.00  0.00    -0.068 NA
ATOM     18  C21 A91 d   1      -1.208  34.620  24.579  0.00  0.00     0.721 A 
ATOM     19  N22 A91 d   1       0.012  34.639  25.179  0.00  0.00    -0.054 NA
BRANCH  15  20
ATOM     20  C23 A91 d   1      -0.698  36.287  21.323  0.00  0.00    -0.035 C 
ATOM     21  H11 A91 d   1      -1.758  36.141  21.070  0.00  0.00     0.035 H 
ATOM     22  H12 A91 d   1      -0.069  35.779  20.577  0.00  0.00     0.035 H 
ATOM     23  H13 A91 d   1      -0.467  37.362  21.327  0.00  0.00     0.035 H 
ENDBRANCH  15  20
BRANCH  18  24
ATOM     24  N24 A91 d   1      -2.193  34.064  25.244  0.00  0.00    -0.231 N 
ATOM     25  H14 A91 d   1      -3.136  34.025  24.831  0.00  0.00     0.174 HD
ATOM     26  H15 A91 d   1      -2.023  33.666  26.179  0.00  0.00     0.174 HD
ENDBRANCH  18  24
ENDBRANCH  12  13
ENDBRANCH   2  11
BRANCH   1  27
ATOM     27  C8  A91 d   1       5.430  33.205  25.114  0.00  0.00     0.033 C 
ATOM     28  N7  A91 d   1       6.314  32.378  24.650  0.00  0.00    -0.179 NA
ATOM     29  H5  A91 d   1       4.378  32.930  25.056  0.00  0.00     0.118 H 
BRANCH  28  30
ATOM     30  N3  A91 d   1       5.868  31.216  24.076  0.00  0.00    -0.212 N 
ATOM     31  C2  A91 d   1       4.609  30.513  24.269  0.00  0.00     0.042 C 
ATOM     32  C1  A91 d   1       4.727  29.388  23.238  0.00  0.00     0.047 C 
ATOM     33  H3  A91 d   1       4.524  30.114  25.291  0.00  0.00     0.070 H 
ATOM     34  H4  A91 d   1       3.748  31.164  24.056  0.00  0.00     0.070 H 
ATOM     35  O5  A91 d   1       6.012  29.624  22.566  0.00  0.00    -0.301 OA
ATOM     36  H1  A91 d   1       3.898  29.436  22.516  0.00  0.00     0.077 H 
ATOM     37  H2  A91 d   1       4.724  28.406  23.734  0.00  0.00     0.077 H 
ATOM     38  C4  A91 d   1       6.681  30.615  23.165  0.00  0.00     0.383 C 
ATOM     39  O6  A91 d   1       7.822  30.905  22.903  0.00  0.00    -0.236 OA
ENDBRANCH  28  30
ENDBRANCH   1  27
TORSDOF 6
