REMARK  15 active torsions:
REMARK  status: ('A' for Active; 'I' for Inactive)
REMARK    1  A    between atoms: C25_2  and  C27_3 
REMARK       I    between atoms: C25_2  and  N24_4 
REMARK    2  A    between atoms: N24_4  and  C22_5 
REMARK    3  A    between atoms: C22_5  and  C23_6 
REMARK    4  A    between atoms: C22_5  and  C21_7 
REMARK       I    between atoms: C21_7  and  N20_9 
REMARK    5  A    between atoms: N20_9  and  C19_10 
REMARK    6  A    between atoms: C19_10  and  C32_11 
REMARK    7  A    between atoms: C19_10  and  C17_18 
REMARK    8  A    between atoms: C32_11  and  C38_12 
REMARK    9  A    between atoms: C17_18  and  O18_19 
REMARK   10  A    between atoms: C17_18  and  C16_20 
REMARK   11  A    between atoms: C16_20  and  N11_21 
REMARK   12  A    between atoms: N11_21  and  S8_22 
REMARK   13  A    between atoms: N11_21  and  C12_34 
REMARK   14  A    between atoms: S8_22  and  C5_25 
REMARK   15  A    between atoms: C12_34  and  C15_35 
ROOT
ATOM      1  C19 MZ1 d   1      19.708  29.384  14.403  0.00  0.00     0.042 C 
ATOM      2  H10 MZ1 d   1      19.579  30.302  13.811  0.00  0.00     0.077 H 
ENDROOT
BRANCH   1   3
ATOM      3  N20 MZ1 d   1      20.785  28.560  13.835  0.00  0.00    -0.352 N 
ATOM      4  C21 MZ1 d   1      21.496  28.905  12.754  0.00  0.00     0.240 C 
ATOM      5  O22 MZ1 d   1      21.321  29.968  12.147  0.00  0.00    -0.271 OA
ATOM      6  H9  MZ1 d   1      20.999  27.691  14.282  0.00  0.00     0.163 HD
BRANCH   4   7
ATOM      7  C22 MZ1 d   1      22.558  27.920  12.282  0.00  0.00     0.086 C 
ATOM      8  H5  MZ1 d   1      22.687  27.142  13.049  0.00  0.00     0.086 H 
BRANCH   7   9
ATOM      9  N24 MZ1 d   1      22.082  27.294  11.052  0.00  0.00    -0.348 N 
ATOM     10  C25 MZ1 d   1      21.956  25.970  10.907  0.00  0.00     0.214 C 
ATOM     11  O26 MZ1 d   1      22.254  25.183  11.800  0.00  0.00    -0.274 OA
ATOM     12  H4  MZ1 d   1      21.839  27.883  10.281  0.00  0.00     0.163 HD
BRANCH  10  13
ATOM     13  C27 MZ1 d   1      21.455  25.412   9.586  0.00  0.00    -0.003 C 
ATOM     14  H1  MZ1 d   1      21.233  26.241   8.898  0.00  0.00     0.040 H 
ATOM     15  H2  MZ1 d   1      20.541  24.825   9.759  0.00  0.00     0.040 H 
ATOM     16  H3  MZ1 d   1      22.228  24.766   9.144  0.00  0.00     0.040 H 
ENDBRANCH  10  13
ENDBRANCH   7   9
BRANCH   7  17
ATOM     17  C23 MZ1 d   1      23.906  28.610  12.071  0.00  0.00    -0.049 C 
ATOM     18  H6  MZ1 d   1      24.234  29.070  13.015  0.00  0.00     0.030 H 
ATOM     19  H7  MZ1 d   1      23.803  29.388  11.300  0.00  0.00     0.030 H 
ATOM     20  H8  MZ1 d   1      24.651  27.869  11.746  0.00  0.00     0.030 H 
ENDBRANCH   7  17
ENDBRANCH   4   7
ENDBRANCH   1   3
BRANCH   1  21
ATOM     21  C32 MZ1 d   1      18.432  28.536  14.314  0.00  0.00    -0.020 C 
ATOM     22  H11 MZ1 d   1      17.589  29.103  14.736  0.00  0.00     0.043 H 
ATOM     23  H12 MZ1 d   1      18.572  27.607  14.886  0.00  0.00     0.043 H 
BRANCH  21  24
ATOM     24  C38 MZ1 d   1      18.128  28.189  12.853  0.00  0.00    -0.056 A 
ATOM     25  C37 MZ1 d   1      17.564  29.134  12.000  0.00  0.00    -0.077 A 
ATOM     26  C36 MZ1 d   1      17.296  28.820  10.669  0.00  0.00    -0.082 A 
ATOM     27  H13 MZ1 d   1      17.331  30.124  12.375  0.00  0.00     0.084 H 
ATOM     28  C35 MZ1 d   1      17.601  27.560  10.174  0.00  0.00    -0.083 A 
ATOM     29  H14 MZ1 d   1      16.848  29.562  10.018  0.00  0.00     0.083 H 
ATOM     30  C34 MZ1 d   1      18.172  26.613  11.013  0.00  0.00    -0.082 A 
ATOM     31  H15 MZ1 d   1      17.395  27.317   9.138  0.00  0.00     0.083 H 
ATOM     32  C33 MZ1 d   1      18.434  26.926  12.347  0.00  0.00    -0.077 A 
ATOM     33  H16 MZ1 d   1      18.415  25.628  10.631  0.00  0.00     0.083 H 
ATOM     34  H17 MZ1 d   1      18.879  26.181  12.996  0.00  0.00     0.084 H 
ENDBRANCH  21  24
ENDBRANCH   1  21
BRANCH   1  35
ATOM     35  C17 MZ1 d   1      20.074  29.772  15.845  0.00  0.00     0.067 C 
ATOM     36  H18 MZ1 d   1      21.090  30.193  15.834  0.00  0.00     0.088 H 
BRANCH  35  37
ATOM     37  O18 MZ1 d   1      20.076  28.616  16.692  0.00  0.00    -0.392 OA
ATOM     38  H19 MZ1 d   1      19.212  28.221  16.688  0.00  0.00     0.210 HD
ENDBRANCH  35  37
BRANCH  35  39
ATOM     39  C16 MZ1 d   1      19.117  30.848  16.420  0.00  0.00     0.019 C 
ATOM     40  H20 MZ1 d   1      19.261  30.930  17.507  0.00  0.00     0.061 H 
ATOM     41  H21 MZ1 d   1      18.074  30.569  16.208  0.00  0.00     0.061 H 
BRANCH  39  42
ATOM     42  N11 MZ1 d   1      19.430  32.151  15.772  0.00  0.00    -0.199 NA
BRANCH  42  43
ATOM     43  S8  MZ1 d   1      18.190  32.861  14.987  0.00  0.00     0.247 S 
ATOM     44  O9  MZ1 d   1      18.841  33.698  14.041  0.00  0.00    -0.206 OA
ATOM     45  O10 MZ1 d   1      17.487  31.825  14.300  0.00  0.00    -0.206 OA
BRANCH  43  46
ATOM     46  C5  MZ1 d   1      17.167  33.764  15.893  0.00  0.00     0.116 A 
ATOM     47  C6  MZ1 d   1      17.226  35.163  15.881  0.00  0.00    -0.017 A 
ATOM     48  C7  MZ1 d   1      16.355  35.957  16.651  0.00  0.00     0.156 A 
ATOM     49  H22 MZ1 d   1      17.967  35.651  15.258  0.00  0.00     0.090 H 
ATOM     50  F1  MZ1 d   1      16.426  37.307  16.651  0.00  0.00    -0.203 F 
ATOM     51  C2  MZ1 d   1      15.390  35.359  17.449  0.00  0.00     0.157 A 
ATOM     52  C3  MZ1 d   1      15.302  33.976  17.473  0.00  0.00    -0.004 A 
ATOM     53  F2  MZ1 d   1      14.558  36.131  18.184  0.00  0.00    -0.203 F 
ATOM     54  C4  MZ1 d   1      16.181  33.192  16.706  0.00  0.00     0.142 A 
ATOM     55  H23 MZ1 d   1      14.550  33.495  18.088  0.00  0.00     0.093 H 
ATOM     56  F3  MZ1 d   1      16.037  31.871  16.773  0.00  0.00    -0.204 F 
ENDBRANCH  43  46
ENDBRANCH  42  43
BRANCH  42  57
ATOM     57  C12 MZ1 d   1      20.209  33.108  16.612  0.00  0.00     0.023 C 
ATOM     58  H24 MZ1 d   1      20.192  32.779  17.662  0.00  0.00     0.065 H 
ATOM     59  H25 MZ1 d   1      19.768  34.113  16.535  0.00  0.00     0.065 H 
BRANCH  57  60
ATOM     60  C15 MZ1 d   1      21.648  33.138  16.106  0.00  0.00    -0.004 A 
ATOM     61  C18 MZ1 d   1      22.704  33.260  16.947  0.00  0.00    -0.069 A 
ATOM     62  C14 MZ1 d   1      23.898  33.221  16.176  0.00  0.00    -0.076 A 
ATOM     63  H26 MZ1 d   1      22.648  33.369  18.029  0.00  0.00     0.085 H 
ATOM     64  C13 MZ1 d   1      23.661  33.077  14.864  0.00  0.00    -0.044 A 
ATOM     65  H27 MZ1 d   1      24.896  33.300  16.604  0.00  0.00     0.084 H 
ATOM     66  S1  MZ1 d   1      22.049  32.986  14.480  0.00  0.00    -0.105 SA
ATOM     67  H28 MZ1 d   1      24.453  33.025  14.119  0.00  0.00     0.095 H 
ENDBRANCH  57  60
ENDBRANCH  42  57
ENDBRANCH  39  42
ENDBRANCH  35  39
ENDBRANCH   1  35
TORSDOF 15
