REMARK  14 active torsions:
REMARK  status: ('A' for Active; 'I' for Inactive)
REMARK    1  A    between atoms: C25_2  and  C23_5 
REMARK    2  A    between atoms: C23_5  and  C24_6 
REMARK    3  A    between atoms: C22_7  and  C21_8 
REMARK       I    between atoms: C21_8  and  N20_10 
REMARK    4  A    between atoms: N20_10  and  C19_11 
REMARK    5  A    between atoms: C19_11  and  C32_12 
REMARK    6  A    between atoms: C19_11  and  C17_19 
REMARK    7  A    between atoms: C32_12  and  C38_13 
REMARK    8  A    between atoms: C17_19  and  O18_20 
REMARK    9  A    between atoms: C17_19  and  C16_21 
REMARK   10  A    between atoms: C16_21  and  N11_22 
REMARK   11  A    between atoms: N11_22  and  S8_23 
REMARK   12  A    between atoms: N11_22  and  C12_35 
REMARK   13  A    between atoms: S8_23  and  C5_26 
REMARK   14  A    between atoms: C12_35  and  C15_36 
ROOT
ATOM      1  C17 MZ2 d   1      20.008  29.874  16.029  0.00  0.00     0.071 C 
ATOM      2  H14 MZ2 d   1      20.995  30.346  16.140  0.00  0.00     0.088 H 
ENDROOT
BRANCH   1   3
ATOM      3  C19 MZ2 d   1      19.811  29.540  14.545  0.00  0.00     0.042 C 
ATOM      4  H6  MZ2 d   1      19.663  30.464  13.966  0.00  0.00     0.077 H 
BRANCH   3   5
ATOM      5  N20 MZ2 d   1      21.030  28.844  14.127  0.00  0.00    -0.350 N 
ATOM      6  C21 MZ2 d   1      21.727  29.107  13.006  0.00  0.00     0.242 C 
ATOM      7  O22 MZ2 d   1      21.402  29.961  12.201  0.00  0.00    -0.269 OA
ATOM      8  H5  MZ2 d   1      21.371  28.116  14.721  0.00  0.00     0.163 HD
BRANCH   6   9
ATOM      9  C22 MZ2 d   1      22.911  28.223  12.758  0.00  0.00    -0.007 C 
ATOM     10  C23 MZ2 d   1      23.521  28.008  11.582  0.00  0.00     0.027 C 
ATOM     11  H4  MZ2 d   1      23.319  27.701  13.622  0.00  0.00     0.092 H 
BRANCH  10  12
ATOM     12  C25 MZ2 d   1      24.657  27.011  11.560  0.00  0.00     0.413 C 
ATOM     13  F26 MZ2 d   1      25.262  26.929  12.740  0.00  0.00    -0.166 F 
ATOM     14  F28 MZ2 d   1      25.547  27.436  10.682  0.00  0.00    -0.166 F 
ATOM     15  F27 MZ2 d   1      24.244  25.794  11.219  0.00  0.00    -0.166 F 
ENDBRANCH  10  12
BRANCH  10  16
ATOM     16  C24 MZ2 d   1      23.227  28.749  10.301  0.00  0.00    -0.046 C 
ATOM     17  H1  MZ2 d   1      22.383  29.436  10.460  0.00  0.00     0.033 H 
ATOM     18  H2  MZ2 d   1      22.969  28.028   9.511  0.00  0.00     0.033 H 
ATOM     19  H3  MZ2 d   1      24.115  29.323   9.997  0.00  0.00     0.033 H 
ENDBRANCH  10  16
ENDBRANCH   6   9
ENDBRANCH   3   5
BRANCH   3  20
ATOM     20  C32 MZ2 d   1      18.631  28.581  14.308  0.00  0.00    -0.020 C 
ATOM     21  H7  MZ2 d   1      17.721  29.021  14.742  0.00  0.00     0.043 H 
ATOM     22  H8  MZ2 d   1      18.846  27.622  14.802  0.00  0.00     0.043 H 
BRANCH  20  23
ATOM     23  C38 MZ2 d   1      18.398  28.329  12.815  0.00  0.00    -0.056 A 
ATOM     24  C37 MZ2 d   1      17.695  29.248  12.044  0.00  0.00    -0.077 A 
ATOM     25  C36 MZ2 d   1      17.484  29.018  10.687  0.00  0.00    -0.082 A 
ATOM     26  H9  MZ2 d   1      17.308  30.151  12.503  0.00  0.00     0.084 H 
ATOM     27  C35 MZ2 d   1      17.971  27.864  10.088  0.00  0.00    -0.083 A 
ATOM     28  H10 MZ2 d   1      16.937  29.743  10.095  0.00  0.00     0.083 H 
ATOM     29  C34 MZ2 d   1      18.669  26.940  10.853  0.00  0.00    -0.082 A 
ATOM     30  H11 MZ2 d   1      17.807  27.686   9.031  0.00  0.00     0.083 H 
ATOM     31  C33 MZ2 d   1      18.884  27.173  12.214  0.00  0.00    -0.077 A 
ATOM     32  H12 MZ2 d   1      19.049  26.035  10.393  0.00  0.00     0.083 H 
ATOM     33  H13 MZ2 d   1      19.433  26.448  12.805  0.00  0.00     0.084 H 
ENDBRANCH  20  23
ENDBRANCH   3  20
ENDBRANCH   1   3
BRANCH   1  34
ATOM     34  O18 MZ2 d   1      19.990  28.669  16.820  0.00  0.00    -0.392 OA
ATOM     35  H15 MZ2 d   1      19.154  28.231  16.709  0.00  0.00     0.210 HD
ENDBRANCH   1  34
BRANCH   1  36
ATOM     36  C16 MZ2 d   1      18.948  30.863  16.556  0.00  0.00     0.031 C 
ATOM     37  H16 MZ2 d   1      19.011  30.940  17.651  0.00  0.00     0.069 H 
ATOM     38  H17 MZ2 d   1      17.940  30.529  16.269  0.00  0.00     0.069 H 
BRANCH  36  39
ATOM     39  N11 MZ2 d   1      19.251  32.174  15.931  0.00  0.00    -0.299 N 
BRANCH  39  40
ATOM     40  S8  MZ2 d   1      18.043  32.825  15.054  0.00  0.00     0.264 S 
ATOM     41  O9  MZ2 d   1      18.668  33.615  14.043  0.00  0.00    -0.200 OA
ATOM     42  O10 MZ2 d   1      17.313  31.757  14.425  0.00  0.00    -0.200 OA
BRANCH  40  43
ATOM     43  C5  MZ2 d   1      17.000  33.731  15.927  0.00  0.00     0.121 A 
ATOM     44  C6  MZ2 d   1      17.096  35.123  15.918  0.00  0.00    -0.017 A 
ATOM     45  C7  MZ2 d   1      16.217  35.929  16.652  0.00  0.00     0.156 A 
ATOM     46  H18 MZ2 d   1      17.873  35.594  15.326  0.00  0.00     0.090 H 
ATOM     47  F1  MZ2 d   1      16.327  37.268  16.640  0.00  0.00    -0.203 F 
ATOM     48  C2  MZ2 d   1      15.219  35.362  17.425  0.00  0.00     0.157 A 
ATOM     49  C3  MZ2 d   1      15.103  33.973  17.462  0.00  0.00    -0.004 A 
ATOM     50  F2  MZ2 d   1      14.392  36.172  18.126  0.00  0.00    -0.203 F 
ATOM     51  C4  MZ2 d   1      15.985  33.170  16.719  0.00  0.00     0.142 A 
ATOM     52  H19 MZ2 d   1      14.330  33.511  18.066  0.00  0.00     0.093 H 
ATOM     53  F3  MZ2 d   1      15.833  31.839  16.786  0.00  0.00    -0.204 F 
ENDBRANCH  40  43
ENDBRANCH  39  40
BRANCH  39  54
ATOM     54  C12 MZ2 d   1      20.022  33.122  16.787  0.00  0.00     0.035 C 
ATOM     55  H20 MZ2 d   1      19.977  32.802  17.838  0.00  0.00     0.073 H 
ATOM     56  H21 MZ2 d   1      19.607  34.136  16.694  0.00  0.00     0.073 H 
BRANCH  54  57
ATOM     57  C15 MZ2 d   1      21.475  33.102  16.294  0.00  0.00     0.001 A 
ATOM     58  C18 MZ2 d   1      22.531  33.158  17.140  0.00  0.00    -0.068 A 
ATOM     59  C14 MZ2 d   1      23.733  33.070  16.380  0.00  0.00    -0.076 A 
ATOM     60  H22 MZ2 d   1      22.471  33.254  18.223  0.00  0.00     0.085 H 
ATOM     61  C13 MZ2 d   1      23.501  32.967  15.060  0.00  0.00    -0.044 A 
ATOM     62  H23 MZ2 d   1      24.729  33.085  16.820  0.00  0.00     0.084 H 
ATOM     63  S1  MZ2 d   1      21.883  32.983  14.661  0.00  0.00    -0.105 SA
ATOM     64  H24 MZ2 d   1      24.296  32.881  14.321  0.00  0.00     0.095 H 
ENDBRANCH  54  57
ENDBRANCH  39  54
ENDBRANCH  36  39
ENDBRANCH   1  36
TORSDOF 14
