REMARK  15 active torsions:
REMARK  status: ('A' for Active; 'I' for Inactive)
REMARK    1  A    between atoms: C27_6  and  C28_7 
REMARK    2  A    between atoms: C22_8  and  C21_9 
REMARK       I    between atoms: C21_9  and  N20_11 
REMARK    3  A    between atoms: N20_11  and  C19_12 
REMARK    4  A    between atoms: C19_12  and  C32_13 
REMARK    5  A    between atoms: C19_12  and  C17_20 
REMARK    6  A    between atoms: C32_13  and  C38_14 
REMARK    7  A    between atoms: C17_20  and  O18_21 
REMARK    8  A    between atoms: C17_20  and  C16_22 
REMARK    9  A    between atoms: C16_22  and  N11_23 
REMARK   10  A    between atoms: N11_23  and  C12_24 
REMARK   11  A    between atoms: N11_23  and  S8_30 
REMARK   12  A    between atoms: C12_24  and  C15_25 
REMARK   13  A    between atoms: S8_30  and  C5_33 
REMARK   14  A    between atoms: C7_35  and  O19_36 
REMARK   15  A    between atoms: O19_36  and  C20_37 
ROOT
ATOM      1  C17 MZ3 d   1      20.100  29.863  15.634  0.00  0.00     0.067 C 
ATOM      2  H16 MZ3 d   1      21.125  30.259  15.585  0.00  0.00     0.088 H 
ENDROOT
BRANCH   1   3
ATOM      3  C19 MZ3 d   1      19.679  29.459  14.215  0.00  0.00     0.042 C 
ATOM      4  H8  MZ3 d   1      19.535  30.363  13.604  0.00  0.00     0.077 H 
BRANCH   3   5
ATOM      5  N20 MZ3 d   1      20.672  28.576  13.609  0.00  0.00    -0.349 N 
ATOM      6  C21 MZ3 d   1      21.510  28.936  12.635  0.00  0.00     0.252 C 
ATOM      7  O22 MZ3 d   1      21.528  30.061  12.178  0.00  0.00    -0.268 OA
ATOM      8  H7  MZ3 d   1      20.728  27.637  13.947  0.00  0.00     0.163 HD
BRANCH   6   9
ATOM      9  C22 MZ3 d   1      22.488  27.942  12.029  0.00  0.00     0.041 A 
ATOM     10  C23 MZ3 d   1      22.033  26.912  11.206  0.00  0.00    -0.067 A 
ATOM     11  C24 MZ3 d   1      22.939  26.037  10.616  0.00  0.00    -0.079 A 
ATOM     12  H3  MZ3 d   1      20.971  26.793  11.026  0.00  0.00     0.085 H 
ATOM     13  C25 MZ3 d   1      24.294  26.178  10.868  0.00  0.00    -0.045 A 
ATOM     14  H2  MZ3 d   1      22.586  25.248   9.962  0.00  0.00     0.083 H 
ATOM     15  C26 MZ3 d   1      24.744  27.199  11.695  0.00  0.00     0.123 A 
ATOM     16  H1  MZ3 d   1      25.003  25.491  10.420  0.00  0.00     0.088 H 
ATOM     17  F29 MZ3 d   1      26.059  27.343  11.947  0.00  0.00    -0.206 F 
ATOM     18  C27 MZ3 d   1      23.843  28.079  12.263  0.00  0.00    -0.008 A 
BRANCH  18  19
ATOM     19  C28 MZ3 d   1      24.325  29.182  13.152  0.00  0.00    -0.047 C 
ATOM     20  H4  MZ3 d   1      25.422  29.141  13.225  0.00  0.00     0.033 H 
ATOM     21  H5  MZ3 d   1      23.886  29.064  14.154  0.00  0.00     0.033 H 
ATOM     22  H6  MZ3 d   1      24.022  30.152  12.730  0.00  0.00     0.033 H 
ENDBRANCH  18  19
ENDBRANCH   6   9
ENDBRANCH   3   5
BRANCH   3  23
ATOM     23  C32 MZ3 d   1      18.402  28.612  14.245  0.00  0.00    -0.020 C 
ATOM     24  H9  MZ3 d   1      17.583  29.205  14.678  0.00  0.00     0.043 H 
ATOM     25  H10 MZ3 d   1      18.574  27.718  14.862  0.00  0.00     0.043 H 
BRANCH  23  26
ATOM     26  C38 MZ3 d   1      18.020  28.183  12.835  0.00  0.00    -0.056 A 
ATOM     27  C37 MZ3 d   1      17.538  29.110  11.931  0.00  0.00    -0.077 A 
ATOM     28  C36 MZ3 d   1      17.184  28.702  10.653  0.00  0.00    -0.082 A 
ATOM     29  H11 MZ3 d   1      17.437  30.150  12.219  0.00  0.00     0.084 H 
ATOM     30  C35 MZ3 d   1      17.311  27.376  10.265  0.00  0.00    -0.083 A 
ATOM     31  H12 MZ3 d   1      16.802  29.430   9.947  0.00  0.00     0.083 H 
ATOM     32  C34 MZ3 d   1      17.800  26.443  11.169  0.00  0.00    -0.082 A 
ATOM     33  H13 MZ3 d   1      17.030  27.071   9.263  0.00  0.00     0.083 H 
ATOM     34  C33 MZ3 d   1      18.150  26.852  12.452  0.00  0.00    -0.077 A 
ATOM     35  H14 MZ3 d   1      17.908  25.404  10.878  0.00  0.00     0.083 H 
ATOM     36  H15 MZ3 d   1      18.528  26.125  13.161  0.00  0.00     0.084 H 
ENDBRANCH  23  26
ENDBRANCH   3  23
ENDBRANCH   1   3
BRANCH   1  37
ATOM     37  O18 MZ3 d   1      20.071  28.745  16.536  0.00  0.00    -0.392 OA
ATOM     38  H17 MZ3 d   1      19.189  28.393  16.574  0.00  0.00     0.210 HD
ENDBRANCH   1  37
BRANCH   1  39
ATOM     39  C16 MZ3 d   1      19.176  30.939  16.230  0.00  0.00     0.019 C 
ATOM     40  H18 MZ3 d   1      19.383  31.048  17.305  0.00  0.00     0.061 H 
ATOM     41  H19 MZ3 d   1      18.126  30.643  16.087  0.00  0.00     0.061 H 
BRANCH  39  42
ATOM     42  N11 MZ3 d   1      19.425  32.222  15.546  0.00  0.00    -0.199 NA
BRANCH  42  43
ATOM     43  C12 MZ3 d   1      20.169  33.218  16.354  0.00  0.00     0.023 C 
ATOM     44  H20 MZ3 d   1      20.047  32.983  17.422  0.00  0.00     0.065 H 
ATOM     45  H21 MZ3 d   1      19.769  34.222  16.151  0.00  0.00     0.065 H 
BRANCH  43  46
ATOM     46  C15 MZ3 d   1      21.656  33.185  15.996  0.00  0.00    -0.004 A 
ATOM     47  C18 MZ3 d   1      22.603  33.176  16.961  0.00  0.00    -0.069 A 
ATOM     48  C14 MZ3 d   1      23.899  33.137  16.360  0.00  0.00    -0.076 A 
ATOM     49  H22 MZ3 d   1      22.408  33.196  18.032  0.00  0.00     0.085 H 
ATOM     50  C13 MZ3 d   1      23.805  33.125  15.010  0.00  0.00    -0.044 A 
ATOM     51  H23 MZ3 d   1      24.836  33.119  16.914  0.00  0.00     0.084 H 
ATOM     52  S1  MZ3 d   1      22.244  33.142  14.423  0.00  0.00    -0.105 SA
ATOM     53  H24 MZ3 d   1      24.678  33.106  14.360  0.00  0.00     0.095 H 
ENDBRANCH  43  46
ENDBRANCH  42  43
BRANCH  42  54
ATOM     54  S8  MZ3 d   1      18.101  32.786  14.793  0.00  0.00     0.244 S 
ATOM     55  O9  MZ3 d   1      18.587  33.601  13.710  0.00  0.00    -0.206 OA
ATOM     56  O10 MZ3 d   1      17.369  31.684  14.244  0.00  0.00    -0.206 OA
BRANCH  54  57
ATOM     57  C5  MZ3 d   1      17.129  33.636  15.770  0.00  0.00     0.077 A 
ATOM     58  C6  MZ3 d   1      17.385  34.982  16.000  0.00  0.00    -0.029 A 
ATOM     59  C7  MZ3 d   1      16.579  35.750  16.837  0.00  0.00     0.069 A 
ATOM     60  H25 MZ3 d   1      18.235  35.447  15.515  0.00  0.00     0.090 H 
ATOM     61  C2  MZ3 d   1      15.484  35.148  17.472  0.00  0.00    -0.051 A 
ATOM     62  C3  MZ3 d   1      15.196  33.810  17.235  0.00  0.00    -0.079 A 
ATOM     63  H29 MZ3 d   1      14.863  35.726  18.147  0.00  0.00     0.087 H 
ATOM     64  C4  MZ3 d   1      16.020  33.058  16.392  0.00  0.00    -0.061 A 
ATOM     65  H30 MZ3 d   1      14.334  33.349  17.703  0.00  0.00     0.083 H 
ATOM     66  H31 MZ3 d   1      15.795  32.012  16.219  0.00  0.00     0.085 H 
BRANCH  59  67
ATOM     67  O19 MZ3 d   1      16.920  37.085  16.999  0.00  0.00    -0.356 OA
BRANCH  67  68
ATOM     68  C20 MZ3 d   1      16.130  38.021  17.720  0.00  0.00     0.010 C 
ATOM     69  H26 MZ3 d   1      16.619  39.006  17.700  0.00  0.00     0.066 H 
ATOM     70  H27 MZ3 d   1      16.024  37.686  18.762  0.00  0.00     0.066 H 
ATOM     71  H28 MZ3 d   1      15.135  38.096  17.256  0.00  0.00     0.066 H 
ENDBRANCH  67  68
ENDBRANCH  59  67
ENDBRANCH  54  57
ENDBRANCH  42  54
ENDBRANCH  39  42
ENDBRANCH   1  39
TORSDOF 15
