REMARK  16 active torsions:
REMARK  status: ('A' for Active; 'I' for Inactive)
REMARK    1  A    between atoms: S8_2  and  C5_4 
REMARK    2  A    between atoms: S8_2  and  N11_12 
REMARK    3  A    between atoms: C7_8  and  O19_9 
REMARK    4  A    between atoms: O19_9  and  C20_10 
REMARK    5  A    between atoms: N11_12  and  C12_13 
REMARK    6  A    between atoms: N11_12  and  C16_19 
REMARK    7  A    between atoms: C12_13  and  C15_14 
REMARK    8  A    between atoms: C16_19  and  C17_20 
REMARK    9  A    between atoms: C17_20  and  O18_21 
REMARK   10  A    between atoms: C17_20  and  C19_22 
REMARK   11  A    between atoms: C19_22  and  C32_23 
REMARK   12  A    between atoms: C19_22  and  N20_30 
REMARK   13  A    between atoms: C32_23  and  C38_24 
REMARK       I    between atoms: N20_30  and  C21_31 
REMARK   14  A    between atoms: C21_31  and  C22_33 
REMARK   15  A    between atoms: C26_37  and  O29_38 
REMARK   16  A    between atoms: C25_39  and  O28_40 
ROOT
ATOM      1  C17 MZ4 d   1      20.081  29.919  15.842  0.00  0.00     0.067 C 
ATOM      2  H15 MZ4 d   1      21.079  30.382  15.866  0.00  0.00     0.088 H 
ENDROOT
BRANCH   1   3
ATOM      3  C16 MZ4 d   1      19.049  30.945  16.370  0.00  0.00     0.019 C 
ATOM      4  H13 MZ4 d   1      18.032  30.547  16.238  0.00  0.00     0.061 H 
ATOM      5  H14 MZ4 d   1      19.232  31.137  17.438  0.00  0.00     0.061 H 
BRANCH   3   6
ATOM      6  N11 MZ4 d   1      19.192  32.204  15.608  0.00  0.00    -0.199 NA
BRANCH   6   7
ATOM      7  S8  MZ4 d   1      17.840  32.733  14.873  0.00  0.00     0.244 S 
ATOM      8  O10 MZ4 d   1      17.122  31.602  14.359  0.00  0.00    -0.206 OA
ATOM      9  O9  MZ4 d   1      18.275  33.555  13.778  0.00  0.00    -0.206 OA
BRANCH   7  10
ATOM     10  C5  MZ4 d   1      16.880  33.608  15.855  0.00  0.00     0.077 A 
ATOM     11  C4  MZ4 d   1      15.830  33.016  16.567  0.00  0.00    -0.061 A 
ATOM     12  C3  MZ4 d   1      15.020  33.781  17.411  0.00  0.00    -0.079 A 
ATOM     13  H1  MZ4 d   1      15.643  31.953  16.463  0.00  0.00     0.085 H 
ATOM     14  C2  MZ4 d   1      15.243  35.147  17.569  0.00  0.00    -0.051 A 
ATOM     15  H2  MZ4 d   1      14.208  33.305  17.949  0.00  0.00     0.083 H 
ATOM     16  C7  MZ4 d   1      16.288  35.755  16.870  0.00  0.00     0.069 A 
ATOM     17  H3  MZ4 d   1      14.612  35.732  18.228  0.00  0.00     0.087 H 
ATOM     18  C6  MZ4 d   1      17.091  34.981  16.022  0.00  0.00    -0.029 A 
ATOM     19  H7  MZ4 d   1      17.899  35.459  15.480  0.00  0.00     0.090 H 
BRANCH  16  20
ATOM     20  O19 MZ4 d   1      16.550  37.100  16.991  0.00  0.00    -0.356 OA
BRANCH  20  21
ATOM     21  C20 MZ4 d   1      16.076  37.899  18.072  0.00  0.00     0.010 C 
ATOM     22  H4  MZ4 d   1      16.419  38.936  17.939  0.00  0.00     0.066 H 
ATOM     23  H5  MZ4 d   1      16.467  37.502  19.020  0.00  0.00     0.066 H 
ATOM     24  H6  MZ4 d   1      14.976  37.876  18.090  0.00  0.00     0.066 H 
ENDBRANCH  20  21
ENDBRANCH  16  20
ENDBRANCH   7  10
ENDBRANCH   6   7
BRANCH   6  25
ATOM     25  C12 MZ4 d   1      19.983  33.223  16.350  0.00  0.00     0.023 C 
ATOM     26  H8  MZ4 d   1      19.877  33.067  17.434  0.00  0.00     0.065 H 
ATOM     27  H9  MZ4 d   1      19.636  34.234  16.089  0.00  0.00     0.065 H 
BRANCH  25  28
ATOM     28  C15 MZ4 d   1      21.457  33.046  15.932  0.00  0.00    -0.004 A 
ATOM     29  S1  MZ4 d   1      21.940  32.856  14.326  0.00  0.00    -0.105 SA
ATOM     30  C13 MZ4 d   1      23.523  32.731  14.839  0.00  0.00    -0.044 A 
ATOM     31  C14 MZ4 d   1      23.715  32.856  16.174  0.00  0.00    -0.076 A 
ATOM     32  H10 MZ4 d   1      24.346  32.560  14.147  0.00  0.00     0.095 H 
ATOM     33  C18 MZ4 d   1      22.466  33.019  16.840  0.00  0.00    -0.069 A 
ATOM     34  H11 MZ4 d   1      24.685  32.835  16.668  0.00  0.00     0.084 H 
ATOM     35  H12 MZ4 d   1      22.339  33.109  17.918  0.00  0.00     0.085 H 
ENDBRANCH  25  28
ENDBRANCH   6  25
ENDBRANCH   3   6
ENDBRANCH   1   3
BRANCH   1  36
ATOM     36  O18 MZ4 d   1      20.087  28.783  16.717  0.00  0.00    -0.392 OA
ATOM     37  H16 MZ4 d   1      19.221  28.392  16.733  0.00  0.00     0.210 HD
ENDBRANCH   1  36
BRANCH   1  38
ATOM     38  C19 MZ4 d   1      19.779  29.521  14.386  0.00  0.00     0.042 C 
ATOM     39  H17 MZ4 d   1      19.585  30.437  13.809  0.00  0.00     0.077 H 
BRANCH  38  40
ATOM     40  C32 MZ4 d   1      18.578  28.563  14.232  0.00  0.00    -0.020 C 
ATOM     41  H18 MZ4 d   1      17.684  29.033  14.668  0.00  0.00     0.043 H 
ATOM     42  H19 MZ4 d   1      18.795  27.625  14.763  0.00  0.00     0.043 H 
BRANCH  40  43
ATOM     43  C38 MZ4 d   1      18.310  28.251  12.743  0.00  0.00    -0.056 A 
ATOM     44  C33 MZ4 d   1      18.813  27.088  12.145  0.00  0.00    -0.077 A 
ATOM     45  C34 MZ4 d   1      18.581  26.805  10.797  0.00  0.00    -0.082 A 
ATOM     46  H20 MZ4 d   1      19.394  26.393  12.741  0.00  0.00     0.084 H 
ATOM     47  C35 MZ4 d   1      17.833  27.690  10.027  0.00  0.00    -0.083 A 
ATOM     48  H21 MZ4 d   1      18.982  25.901  10.353  0.00  0.00     0.083 H 
ATOM     49  C36 MZ4 d   1      17.331  28.848  10.614  0.00  0.00    -0.082 A 
ATOM     50  H22 MZ4 d   1      17.643  27.480   8.981  0.00  0.00     0.083 H 
ATOM     51  C37 MZ4 d   1      17.565  29.124  11.958  0.00  0.00    -0.077 A 
ATOM     52  H23 MZ4 d   1      16.751  29.543  10.018  0.00  0.00     0.083 H 
ATOM     53  H24 MZ4 d   1      17.162  30.029  12.398  0.00  0.00     0.084 H 
ENDBRANCH  40  43
ENDBRANCH  38  40
BRANCH  38  54
ATOM     54  N20 MZ4 d   1      20.933  28.807  13.823  0.00  0.00    -0.349 N 
ATOM     55  C21 MZ4 d   1      21.461  29.159  12.624  0.00  0.00     0.252 C 
ATOM     56  O22 MZ4 d   1      21.062  30.078  11.920  0.00  0.00    -0.268 OA
ATOM     57  H25 MZ4 d   1      21.337  28.047  14.333  0.00  0.00     0.163 HD
BRANCH  55  58
ATOM     58  C22 MZ4 d   1      22.615  28.349  12.070  0.00  0.00     0.034 A 
ATOM     59  C23 MZ4 d   1      23.615  27.851  12.898  0.00  0.00    -0.065 A 
ATOM     60  C24 MZ4 d   1      24.633  27.088  12.351  0.00  0.00    -0.047 A 
ATOM     61  H26 MZ4 d   1      23.598  28.058  13.962  0.00  0.00     0.085 H 
ATOM     62  C25 MZ4 d   1      24.646  26.828  10.986  0.00  0.00     0.098 A 
ATOM     63  H27 MZ4 d   1      25.418  26.694  12.986  0.00  0.00     0.087 H 
ATOM     64  C26 MZ4 d   1      23.653  27.333  10.159  0.00  0.00     0.099 A 
ATOM     65  C27 MZ4 d   1      22.633  28.083  10.710  0.00  0.00    -0.033 A 
ATOM     66  H28 MZ4 d   1      21.842  28.466  10.075  0.00  0.00     0.089 H 
BRANCH  62  67
ATOM     67  O28 MZ4 d   1      25.656  26.097  10.432  0.00  0.00    -0.358 OA
ATOM     68  H30 MZ4 d   1      25.292  25.333  10.000  0.00  0.00     0.217 HD
ENDBRANCH  62  67
BRANCH  64  69
ATOM     69  O29 MZ4 d   1      23.687  27.082   8.814  0.00  0.00    -0.358 OA
ATOM     70  H29 MZ4 d   1      24.451  26.556   8.610  0.00  0.00     0.217 HD
ENDBRANCH  64  69
ENDBRANCH  55  58
ENDBRANCH  38  54
ENDBRANCH   1  38
TORSDOF 16
