REMARK  19 active torsions:
REMARK  status: ('A' for Active; 'I' for Inactive)
REMARK    1  A    between atoms: C21_2  and  C22_3 
REMARK       I    between atoms: C21_2  and  N20_8 
REMARK    2  A    between atoms: C22_3  and  C24_4 
REMARK    3  A    between atoms: C22_3  and  O23_7 
REMARK    4  A    between atoms: C24_4  and  C26_5 
REMARK    5  A    between atoms: C24_4  and  C25_6 
REMARK    6  A    between atoms: N20_8  and  C19_9 
REMARK    7  A    between atoms: C19_9  and  C32_10 
REMARK    8  A    between atoms: C19_9  and  C17_17 
REMARK    9  A    between atoms: C32_10  and  C38_11 
REMARK   10  A    between atoms: C17_17  and  O18_18 
REMARK   11  A    between atoms: C17_17  and  C16_19 
REMARK   12  A    between atoms: C16_19  and  N11_20 
REMARK   13  A    between atoms: N11_20  and  C12_21 
REMARK   14  A    between atoms: N11_20  and  S8_26 
REMARK   15  A    between atoms: C12_21  and  C13_22 
REMARK   16  A    between atoms: C13_22  and  C14_23 
REMARK   17  A    between atoms: C13_22  and  C15_24 
REMARK   18  A    between atoms: C15_24  and  C18_25 
REMARK   19  A    between atoms: S8_26  and  C5_29 
ROOT
ATOM      1  C17 MZ5 d   1      20.068  29.447  15.287  0.00  0.00     0.067 C 
ATOM      2  H19 MZ5 d   1      21.111  29.796  15.266  0.00  0.00     0.088 H 
ENDROOT
BRANCH   1   3
ATOM      3  C19 MZ5 d   1      19.660  29.097  13.851  0.00  0.00     0.042 C 
ATOM      4  H11 MZ5 d   1      19.474  30.032  13.302  0.00  0.00     0.077 H 
BRANCH   3   5
ATOM      5  N20 MZ5 d   1      20.745  28.347  13.201  0.00  0.00    -0.351 N 
ATOM      6  C21 MZ5 d   1      21.539  28.918  12.279  0.00  0.00     0.247 C 
ATOM      7  O22 MZ5 d   1      21.433  30.084  11.956  0.00  0.00    -0.271 OA
ATOM      8  H10 MZ5 d   1      20.895  27.390  13.451  0.00  0.00     0.163 HD
BRANCH   6   9
ATOM      9  C22 MZ5 d   1      22.603  28.108  11.580  0.00  0.00     0.115 C 
ATOM     10  H1  MZ5 d   1      23.578  28.594  11.729  0.00  0.00     0.098 H 
BRANCH   9  11
ATOM     11  C24 MZ5 d   1      22.253  28.062  10.082  0.00  0.00    -0.028 C 
ATOM     12  H2  MZ5 d   1      22.236  29.099   9.715  0.00  0.00     0.043 H 
BRANCH  11  13
ATOM     13  C26 MZ5 d   1      20.868  27.465   9.850  0.00  0.00    -0.070 C 
ATOM     14  H3  MZ5 d   1      20.652  27.448   8.771  0.00  0.00     0.028 H 
ATOM     15  H4  MZ5 d   1      20.114  28.078  10.365  0.00  0.00     0.028 H 
ATOM     16  H5  MZ5 d   1      20.840  26.439  10.246  0.00  0.00     0.028 H 
ENDBRANCH  11  13
BRANCH  11  17
ATOM     17  C25 MZ5 d   1      23.309  27.300   9.275  0.00  0.00    -0.070 C 
ATOM     18  H6  MZ5 d   1      24.299  27.744   9.455  0.00  0.00     0.028 H 
ATOM     19  H7  MZ5 d   1      23.068  27.363   8.204  0.00  0.00     0.028 H 
ATOM     20  H8  MZ5 d   1      23.318  26.245   9.587  0.00  0.00     0.028 H 
ENDBRANCH  11  17
ENDBRANCH   9  11
BRANCH   9  21
ATOM     21  O23 MZ5 d   1      22.679  26.754  12.037  0.00  0.00    -0.386 OA
ATOM     22  H9  MZ5 d   1      23.352  26.294  11.550  0.00  0.00     0.210 HD
ENDBRANCH   9  21
ENDBRANCH   6   9
ENDBRANCH   3   5
BRANCH   3  23
ATOM     23  C32 MZ5 d   1      18.403  28.219  13.783  0.00  0.00    -0.020 C 
ATOM     24  H12 MZ5 d   1      17.576  28.743  14.286  0.00  0.00     0.043 H 
ATOM     25  H13 MZ5 d   1      18.605  27.270  14.301  0.00  0.00     0.043 H 
BRANCH  23  26
ATOM     26  C38 MZ5 d   1      17.997  27.921  12.359  0.00  0.00    -0.056 A 
ATOM     27  C37 MZ5 d   1      17.536  28.942  11.534  0.00  0.00    -0.077 A 
ATOM     28  C36 MZ5 d   1      17.165  28.649  10.220  0.00  0.00    -0.082 A 
ATOM     29  H14 MZ5 d   1      17.465  29.957  11.908  0.00  0.00     0.084 H 
ATOM     30  C35 MZ5 d   1      17.231  27.350   9.711  0.00  0.00    -0.083 A 
ATOM     31  H15 MZ5 d   1      16.817  29.450   9.579  0.00  0.00     0.083 H 
ATOM     32  C34 MZ5 d   1      17.700  26.337  10.542  0.00  0.00    -0.082 A 
ATOM     33  H16 MZ5 d   1      16.924  27.136   8.694  0.00  0.00     0.083 H 
ATOM     34  C33 MZ5 d   1      18.076  26.612  11.861  0.00  0.00    -0.077 A 
ATOM     35  H17 MZ5 d   1      17.775  25.324  10.163  0.00  0.00     0.083 H 
ATOM     36  H18 MZ5 d   1      18.430  25.811  12.500  0.00  0.00     0.084 H 
ENDBRANCH  23  26
ENDBRANCH   3  23
ENDBRANCH   1   3
BRANCH   1  37
ATOM     37  O18 MZ5 d   1      19.975  28.322  16.161  0.00  0.00    -0.392 OA
ATOM     38  H20 MZ5 d   1      19.079  28.007  16.176  0.00  0.00     0.210 HD
ENDBRANCH   1  37
BRANCH   1  39
ATOM     39  C16 MZ5 d   1      19.191  30.548  15.879  0.00  0.00     0.019 C 
ATOM     40  H21 MZ5 d   1      19.448  30.694  16.939  0.00  0.00     0.061 H 
ATOM     41  H22 MZ5 d   1      18.132  30.261  15.795  0.00  0.00     0.061 H 
BRANCH  39  42
ATOM     42  N11 MZ5 d   1      19.424  31.801  15.137  0.00  0.00    -0.204 NA
BRANCH  42  43
ATOM     43  C12 MZ5 d   1      20.150  32.795  15.952  0.00  0.00    -0.004 C 
ATOM     44  H23 MZ5 d   1      19.775  32.762  16.985  0.00  0.00     0.058 H 
ATOM     45  H24 MZ5 d   1      19.984  33.799  15.534  0.00  0.00     0.058 H 
BRANCH  43  46
ATOM     46  C13 MZ5 d   1      21.652  32.486  15.948  0.00  0.00    -0.046 C 
ATOM     47  H25 MZ5 d   1      21.773  31.437  16.257  0.00  0.00     0.041 H 
BRANCH  46  48
ATOM     48  C14 MZ5 d   1      22.228  32.612  14.531  0.00  0.00    -0.072 C 
ATOM     49  H26 MZ5 d   1      23.304  32.386  14.551  0.00  0.00     0.028 H 
ATOM     50  H27 MZ5 d   1      22.075  33.637  14.163  0.00  0.00     0.028 H 
ATOM     51  H28 MZ5 d   1      21.717  31.903  13.863  0.00  0.00     0.028 H 
ENDBRANCH  46  48
BRANCH  46  52
ATOM     52  C15 MZ5 d   1      22.408  33.344  16.967  0.00  0.00    -0.064 C 
ATOM     53  H29 MZ5 d   1      23.486  33.251  16.767  0.00  0.00     0.033 H 
ATOM     54  H30 MZ5 d   1      22.188  32.960  17.974  0.00  0.00     0.033 H 
BRANCH  52  55
ATOM     55  C18 MZ5 d   1      22.040  34.811  16.925  0.00  0.00    -0.076 C 
ATOM     56  H31 MZ5 d   1      22.622  35.357  17.682  0.00  0.00     0.027 H 
ATOM     57  H32 MZ5 d   1      20.966  34.926  17.135  0.00  0.00     0.027 H 
ATOM     58  H33 MZ5 d   1      22.264  35.217  15.927  0.00  0.00     0.027 H 
ENDBRANCH  52  55
ENDBRANCH  46  52
ENDBRANCH  43  46
ENDBRANCH  42  43
BRANCH  42  59
ATOM     59  S8  MZ5 d   1      18.079  32.391  14.433  0.00  0.00     0.243 S 
ATOM     60  O10 MZ5 d   1      17.317  31.287  13.940  0.00  0.00    -0.206 OA
ATOM     61  O9  MZ5 d   1      18.548  33.251  13.375  0.00  0.00    -0.206 OA
BRANCH  59  62
ATOM     62  C5  MZ5 d   1      17.176  33.242  15.501  0.00  0.00     0.076 A 
ATOM     63  C4  MZ5 d   1      17.321  34.636  15.750  0.00  0.00    -0.042 A 
ATOM     64  C3  MZ5 d   1      16.511  35.298  16.714  0.00  0.00     0.036 A 
ATOM     65  H34 MZ5 d   1      18.061  35.202  15.196  0.00  0.00     0.088 H 
ATOM     66  S1  MZ5 d   1      16.602  36.969  17.094  0.00  0.00    -0.081 SA
ATOM     67  C2  MZ5 d   1      15.574  34.543  17.432  0.00  0.00     0.074 A 
ATOM     68  C1  MZ5 d   1      15.337  36.619  18.238  0.00  0.00     0.041 A 
ATOM     69  N1  MZ5 d   1      14.923  35.336  18.306  0.00  0.00    -0.253 NA
ATOM     70  H35 MZ5 d   1      14.902  37.395  18.866  0.00  0.00     0.126 H 
ATOM     71  C7  MZ5 d   1      15.439  33.188  17.191  0.00  0.00    -0.052 A 
ATOM     72  C6  MZ5 d   1      16.224  32.543  16.245  0.00  0.00    -0.059 A 
ATOM     73  H36 MZ5 d   1      14.706  32.619  17.751  0.00  0.00     0.087 H 
ATOM     74  H37 MZ5 d   1      16.096  31.479  16.081  0.00  0.00     0.086 H 
ENDBRANCH  59  62
ENDBRANCH  42  59
ENDBRANCH  39  42
ENDBRANCH   1  39
TORSDOF 19
