REMARK  16 active torsions:
REMARK  status: ('A' for Active; 'I' for Inactive)
REMARK    1  A    between atoms: C21_2  and  C22_3 
REMARK       I    between atoms: C21_2  and  N20_10 
REMARK    2  A    between atoms: C26_5  and  O27_6 
REMARK    3  A    between atoms: N20_10  and  C19_11 
REMARK    4  A    between atoms: C19_11  and  C32_12 
REMARK    5  A    between atoms: C19_11  and  C17_19 
REMARK    6  A    between atoms: C32_12  and  C38_13 
REMARK    7  A    between atoms: C17_19  and  O18_20 
REMARK    8  A    between atoms: C17_19  and  C16_21 
REMARK    9  A    between atoms: C16_21  and  N11_22 
REMARK   10  A    between atoms: N11_22  and  C12_23 
REMARK   11  A    between atoms: N11_22  and  S8_28 
REMARK   12  A    between atoms: C12_23  and  C13_24 
REMARK   13  A    between atoms: C13_24  and  C15_25 
REMARK   14  A    between atoms: C13_24  and  C14_27 
REMARK   15  A    between atoms: C15_25  and  C18_26 
REMARK   16  A    between atoms: S8_28  and  C5_31 
ROOT
ATOM      1  C17 MZ6 d   1      20.065  29.598  15.692  0.00  0.00     0.067 C 
ATOM      2  H15 MZ6 d   1      21.106  29.951  15.649  0.00  0.00     0.088 H 
ENDROOT
BRANCH   1   3
ATOM      3  C19 MZ6 d   1      19.617  29.245  14.286  0.00  0.00     0.042 C 
ATOM      4  H7  MZ6 d   1      19.509  30.184  13.724  0.00  0.00     0.077 H 
BRANCH   3   5
ATOM      5  N20 MZ6 d   1      20.558  28.366  13.615  0.00  0.00    -0.349 N 
ATOM      6  C21 MZ6 d   1      21.367  28.758  12.641  0.00  0.00     0.252 C 
ATOM      7  O22 MZ6 d   1      21.476  29.905  12.231  0.00  0.00    -0.268 OA
ATOM      8  H6  MZ6 d   1      20.598  27.410  13.905  0.00  0.00     0.163 HD
BRANCH   6   9
ATOM      9  C22 MZ6 d   1      22.151  27.683  11.974  0.00  0.00     0.034 A 
ATOM     10  C27 MZ6 d   1      23.494  27.799  11.683  0.00  0.00    -0.036 A 
ATOM     11  C26 MZ6 d   1      24.131  26.755  11.019  0.00  0.00     0.066 A 
ATOM     12  H1  MZ6 d   1      24.044  28.689  11.967  0.00  0.00     0.089 H 
ATOM     13  C25 MZ6 d   1      23.442  25.603  10.647  0.00  0.00    -0.051 A 
ATOM     14  C24 MZ6 d   1      22.089  25.483  10.939  0.00  0.00    -0.079 A 
ATOM     15  H3  MZ6 d   1      23.960  24.802  10.131  0.00  0.00     0.087 H 
ATOM     16  C23 MZ6 d   1      21.448  26.532  11.588  0.00  0.00    -0.068 A 
ATOM     17  H4  MZ6 d   1      21.543  24.587  10.666  0.00  0.00     0.083 H 
ATOM     18  H5  MZ6 d   1      20.387  26.459  11.799  0.00  0.00     0.085 H 
BRANCH  11  19
ATOM     19  O27 MZ6 d   1      25.446  26.858  10.741  0.00  0.00    -0.361 OA
ATOM     20  H2  MZ6 d   1      25.735  26.074  10.289  0.00  0.00     0.217 HD
ENDBRANCH  11  19
ENDBRANCH   6   9
ENDBRANCH   3   5
BRANCH   3  21
ATOM     21  C32 MZ6 d   1      18.308  28.445  14.207  0.00  0.00    -0.020 C 
ATOM     22  H8  MZ6 d   1      17.489  29.046  14.630  0.00  0.00     0.043 H 
ATOM     23  H9  MZ6 d   1      18.416  27.514  14.784  0.00  0.00     0.043 H 
BRANCH  21  24
ATOM     24  C38 MZ6 d   1      17.984  28.102  12.747  0.00  0.00    -0.056 A 
ATOM     25  C37 MZ6 d   1      17.573  29.086  11.852  0.00  0.00    -0.077 A 
ATOM     26  C36 MZ6 d   1      17.289  28.764  10.524  0.00  0.00    -0.082 A 
ATOM     27  H10 MZ6 d   1      17.473  30.111  12.190  0.00  0.00     0.084 H 
ATOM     28  C35 MZ6 d   1      17.408  27.451  10.083  0.00  0.00    -0.083 A 
ATOM     29  H11 MZ6 d   1      16.975  29.540   9.835  0.00  0.00     0.083 H 
ATOM     30  C34 MZ6 d   1      17.812  26.467  10.973  0.00  0.00    -0.082 A 
ATOM     31  H12 MZ6 d   1      17.187  27.198   9.052  0.00  0.00     0.083 H 
ATOM     32  C33 MZ6 d   1      18.090  26.789  12.296  0.00  0.00    -0.077 A 
ATOM     33  H13 MZ6 d   1      17.911  25.442  10.635  0.00  0.00     0.083 H 
ATOM     34  H14 MZ6 d   1      18.393  26.009  12.985  0.00  0.00     0.084 H 
ENDBRANCH  21  24
ENDBRANCH   3  21
ENDBRANCH   1   3
BRANCH   1  35
ATOM     35  O18 MZ6 d   1      20.015  28.425  16.518  0.00  0.00    -0.392 OA
ATOM     36  H16 MZ6 d   1      20.296  28.647  17.398  0.00  0.00     0.210 HD
ENDBRANCH   1  35
BRANCH   1  37
ATOM     37  C16 MZ6 d   1      19.198  30.725  16.284  0.00  0.00     0.019 C 
ATOM     38  H17 MZ6 d   1      19.474  30.893  17.335  0.00  0.00     0.061 H 
ATOM     39  H18 MZ6 d   1      18.135  30.447  16.224  0.00  0.00     0.061 H 
BRANCH  37  40
ATOM     40  N11 MZ6 d   1      19.438  31.963  15.497  0.00  0.00    -0.204 NA
BRANCH  40  41
ATOM     41  C12 MZ6 d   1      20.153  33.000  16.281  0.00  0.00    -0.004 C 
ATOM     42  H19 MZ6 d   1      19.757  33.025  17.307  0.00  0.00     0.058 H 
ATOM     43  H20 MZ6 d   1      20.010  33.983  15.809  0.00  0.00     0.058 H 
BRANCH  41  44
ATOM     44  C13 MZ6 d   1      21.652  32.658  16.316  0.00  0.00    -0.046 C 
ATOM     45  H21 MZ6 d   1      21.744  31.634  16.707  0.00  0.00     0.041 H 
BRANCH  44  46
ATOM     46  C15 MZ6 d   1      22.390  33.592  17.286  0.00  0.00    -0.064 C 
ATOM     47  H22 MZ6 d   1      23.466  33.370  17.226  0.00  0.00     0.033 H 
ATOM     48  H23 MZ6 d   1      22.029  33.385  18.304  0.00  0.00     0.033 H 
BRANCH  46  49
ATOM     49  C18 MZ6 d   1      22.195  35.070  17.006  0.00  0.00    -0.076 C 
ATOM     50  H24 MZ6 d   1      22.756  35.660  17.745  0.00  0.00     0.027 H 
ATOM     51  H25 MZ6 d   1      21.125  35.318  17.074  0.00  0.00     0.027 H 
ATOM     52  H26 MZ6 d   1      22.562  35.303  15.996  0.00  0.00     0.027 H 
ENDBRANCH  46  49
ENDBRANCH  44  46
BRANCH  44  53
ATOM     53  C14 MZ6 d   1      22.300  32.668  14.929  0.00  0.00    -0.072 C 
ATOM     54  H27 MZ6 d   1      21.748  31.990  14.261  0.00  0.00     0.028 H 
ATOM     55  H28 MZ6 d   1      23.345  32.333  15.010  0.00  0.00     0.028 H 
ATOM     56  H29 MZ6 d   1      22.273  33.688  14.519  0.00  0.00     0.028 H 
ENDBRANCH  44  53
ENDBRANCH  41  44
ENDBRANCH  40  41
BRANCH  40  57
ATOM     57  S8  MZ6 d   1      18.090  32.575  14.795  0.00  0.00     0.243 S 
ATOM     58  O10 MZ6 d   1      17.335  31.491  14.259  0.00  0.00    -0.206 OA
ATOM     59  O9  MZ6 d   1      18.562  33.433  13.741  0.00  0.00    -0.206 OA
BRANCH  57  60
ATOM     60  C5  MZ6 d   1      17.202  33.444  15.872  0.00  0.00     0.076 A 
ATOM     61  C6  MZ6 d   1      16.248  32.763  16.630  0.00  0.00    -0.059 A 
ATOM     62  C7  MZ6 d   1      15.479  33.418  17.592  0.00  0.00    -0.052 A 
ATOM     63  H30 MZ6 d   1      16.101  31.701  16.467  0.00  0.00     0.086 H 
ATOM     64  C2  MZ6 d   1      15.620  34.777  17.824  0.00  0.00     0.074 A 
ATOM     65  H31 MZ6 d   1      14.757  32.853  18.170  0.00  0.00     0.087 H 
ATOM     66  C3  MZ6 d   1      16.556  35.513  17.086  0.00  0.00     0.036 A 
ATOM     67  N1  MZ6 d   1      14.968  35.577  18.700  0.00  0.00    -0.253 NA
ATOM     68  C4  MZ6 d   1      17.348  34.840  16.114  0.00  0.00    -0.042 A 
ATOM     69  S1  MZ6 d   1      16.623  37.179  17.473  0.00  0.00    -0.081 SA
ATOM     70  H32 MZ6 d   1      18.079  35.403  15.545  0.00  0.00     0.088 H 
ATOM     71  C1  MZ6 d   1      15.377  36.860  18.645  0.00  0.00     0.041 A 
ATOM     72  H33 MZ6 d   1      14.960  37.637  19.284  0.00  0.00     0.126 H 
ENDBRANCH  57  60
ENDBRANCH  40  57
ENDBRANCH  37  40
ENDBRANCH   1  37
TORSDOF 16
