REMARK  20 active torsions:
REMARK  status: ('A' for Active; 'I' for Inactive)
REMARK    1  A    between atoms: S8_2  and  C5_4 
REMARK    2  A    between atoms: S8_2  and  N11_13 
REMARK    3  A    between atoms: N11_13  and  C12_14 
REMARK    4  A    between atoms: N11_13  and  C16_19 
REMARK    5  A    between atoms: C12_14  and  C13_15 
REMARK    6  A    between atoms: C13_15  and  C14_16 
REMARK    7  A    between atoms: C14_16  and  C15_17 
REMARK    8  A    between atoms: C15_17  and  C18_18 
REMARK    9  A    between atoms: C16_19  and  C17_20 
REMARK   10  A    between atoms: C17_20  and  O18_21 
REMARK   11  A    between atoms: C17_20  and  C19_22 
REMARK   12  A    between atoms: C19_22  and  N20_23 
REMARK   13  A    between atoms: C19_22  and  C32_34 
REMARK       I    between atoms: N20_23  and  C21_24 
REMARK   14  A    between atoms: C21_24  and  C22_26 
REMARK   15  A    between atoms: C22_26  and  C23_27 
REMARK   16  A    between atoms: C22_26  and  N26_30 
REMARK   17  A    between atoms: C23_27  and  C25_28 
REMARK   18  A    between atoms: C23_27  and  C24_29 
REMARK       I    between atoms: N26_30  and  C27_31 
REMARK   19  A    between atoms: C27_31  and  C29_33 
REMARK   20  A    between atoms: C32_34  and  C38_35 
ROOT
ATOM      1  C17 MZ7 d   1      20.051  29.454  15.508  0.00  0.00     0.067 C 
ATOM      2  H18 MZ7 d   1      21.071  29.861  15.448  0.00  0.00     0.088 H 
ENDROOT
BRANCH   1   3
ATOM      3  C16 MZ7 d   1      19.140  30.537  16.096  0.00  0.00     0.019 C 
ATOM      4  H16 MZ7 d   1      18.088  30.264  15.926  0.00  0.00     0.061 H 
ATOM      5  H17 MZ7 d   1      19.326  30.627  17.177  0.00  0.00     0.061 H 
BRANCH   3   6
ATOM      6  N11 MZ7 d   1      19.428  31.830  15.436  0.00  0.00    -0.204 NA
BRANCH   6   7
ATOM      7  S8  MZ7 d   1      18.146  32.448  14.671  0.00  0.00     0.243 S 
ATOM      8  O9  MZ7 d   1      18.624  33.256  13.597  0.00  0.00    -0.206 OA
ATOM      9  O10 MZ7 d   1      17.400  31.325  14.164  0.00  0.00    -0.206 OA
BRANCH   7  10
ATOM     10  C5  MZ7 d   1      17.208  33.297  15.680  0.00  0.00     0.076 A 
ATOM     11  C6  MZ7 d   1      16.222  32.610  16.383  0.00  0.00    -0.059 A 
ATOM     12  C7  MZ7 d   1      15.393  33.271  17.286  0.00  0.00    -0.052 A 
ATOM     13  H1  MZ7 d   1      16.098  31.545  16.225  0.00  0.00     0.086 H 
ATOM     14  C2  MZ7 d   1      15.520  34.635  17.503  0.00  0.00     0.074 A 
ATOM     15  H2  MZ7 d   1      14.638  32.712  17.827  0.00  0.00     0.087 H 
ATOM     16  C3  MZ7 d   1      16.490  35.351  16.807  0.00  0.00     0.036 A 
ATOM     17  N1  MZ7 d   1      14.843  35.460  18.342  0.00  0.00    -0.253 NA
ATOM     18  C4  MZ7 d   1      17.337  34.676  15.910  0.00  0.00    -0.042 A 
ATOM     19  S1  MZ7 d   1      16.566  37.022  17.135  0.00  0.00    -0.081 SA
ATOM     20  H3  MZ7 d   1      18.105  35.232  15.385  0.00  0.00     0.088 H 
ATOM     21  C1  MZ7 d   1      15.263  36.747  18.253  0.00  0.00     0.041 A 
ATOM     22  H4  MZ7 d   1      14.817  37.549  18.839  0.00  0.00     0.126 H 
ENDBRANCH   7  10
ENDBRANCH   6   7
BRANCH   6  23
ATOM     23  C12 MZ7 d   1      20.093  32.804  16.314  0.00  0.00    -0.006 C 
ATOM     24  H5  MZ7 d   1      19.670  32.732  17.327  0.00  0.00     0.057 H 
ATOM     25  H6  MZ7 d   1      19.933  33.819  15.921  0.00  0.00     0.057 H 
BRANCH  23  26
ATOM     26  C13 MZ7 d   1      21.597  32.509  16.367  0.00  0.00    -0.053 C 
ATOM     27  H7  MZ7 d   1      21.981  32.401  15.342  0.00  0.00     0.034 H 
ATOM     28  H8  MZ7 d   1      21.763  31.574  16.921  0.00  0.00     0.034 H 
BRANCH  26  29
ATOM     29  C14 MZ7 d   1      22.343  33.649  17.067  0.00  0.00    -0.064 C 
ATOM     30  H9  MZ7 d   1      23.401  33.357  17.141  0.00  0.00     0.033 H 
ATOM     31  H10 MZ7 d   1      21.919  33.752  18.077  0.00  0.00     0.033 H 
BRANCH  29  32
ATOM     32  C15 MZ7 d   1      22.290  35.028  16.401  0.00  0.00    -0.069 C 
ATOM     33  H11 MZ7 d   1      22.962  35.707  16.946  0.00  0.00     0.032 H 
ATOM     34  H12 MZ7 d   1      21.259  35.407  16.460  0.00  0.00     0.032 H 
BRANCH  32  35
ATOM     35  C18 MZ7 d   1      22.711  34.997  14.946  0.00  0.00    -0.077 C 
ATOM     36  H13 MZ7 d   1      22.652  36.012  14.526  0.00  0.00     0.027 H 
ATOM     37  H14 MZ7 d   1      22.042  34.328  14.385  0.00  0.00     0.027 H 
ATOM     38  H15 MZ7 d   1      23.745  34.629  14.871  0.00  0.00     0.027 H 
ENDBRANCH  32  35
ENDBRANCH  29  32
ENDBRANCH  26  29
ENDBRANCH  23  26
ENDBRANCH   6  23
ENDBRANCH   3   6
ENDBRANCH   1   3
BRANCH   1  39
ATOM     39  O18 MZ7 d   1      20.053  28.348  16.418  0.00  0.00    -0.392 OA
ATOM     40  H19 MZ7 d   1      19.167  28.019  16.516  0.00  0.00     0.210 HD
ENDBRANCH   1  39
BRANCH   1  41
ATOM     41  C19 MZ7 d   1      19.650  29.006  14.092  0.00  0.00     0.042 C 
ATOM     42  H20 MZ7 d   1      19.482  29.915  13.497  0.00  0.00     0.077 H 
BRANCH  41  43
ATOM     43  N20 MZ7 d   1      20.712  28.239  13.459  0.00  0.00    -0.352 N 
ATOM     44  C21 MZ7 d   1      21.493  28.633  12.447  0.00  0.00     0.241 C 
ATOM     45  O22 MZ7 d   1      21.483  29.726  11.915  0.00  0.00    -0.271 OA
ATOM     46  H21 MZ7 d   1      20.875  27.320  13.818  0.00  0.00     0.163 HD
BRANCH  44  47
ATOM     47  C22 MZ7 d   1      22.438  27.566  11.958  0.00  0.00     0.092 C 
ATOM     48  H22 MZ7 d   1      22.512  26.823  12.766  0.00  0.00     0.088 H 
BRANCH  47  49
ATOM     49  C23 MZ7 d   1      23.842  28.073  11.699  0.00  0.00    -0.033 C 
ATOM     50  H23 MZ7 d   1      23.801  28.810  10.883  0.00  0.00     0.042 H 
BRANCH  49  51
ATOM     51  C25 MZ7 d   1      24.772  26.932  11.263  0.00  0.00    -0.071 C 
ATOM     52  H24 MZ7 d   1      25.781  27.330  11.083  0.00  0.00     0.028 H 
ATOM     53  H25 MZ7 d   1      24.387  26.478  10.338  0.00  0.00     0.028 H 
ATOM     54  H26 MZ7 d   1      24.814  26.170  12.056  0.00  0.00     0.028 H 
ENDBRANCH  49  51
BRANCH  49  55
ATOM     55  C24 MZ7 d   1      24.363  28.767  12.948  0.00  0.00    -0.071 C 
ATOM     56  H27 MZ7 d   1      23.675  29.577  13.232  0.00  0.00     0.028 H 
ATOM     57  H28 MZ7 d   1      25.359  29.187  12.746  0.00  0.00     0.028 H 
ATOM     58  H29 MZ7 d   1      24.432  28.039  13.770  0.00  0.00     0.028 H 
ENDBRANCH  49  55
ENDBRANCH  47  49
BRANCH  47  59
ATOM     59  N26 MZ7 d   1      21.930  26.871  10.787  0.00  0.00    -0.348 N 
ATOM     60  C27 MZ7 d   1      21.685  25.563  10.805  0.00  0.00     0.214 C 
ATOM     61  O28 MZ7 d   1      21.835  24.859  11.805  0.00  0.00    -0.274 OA
ATOM     62  H30 MZ7 d   1      21.761  27.388   9.948  0.00  0.00     0.163 HD
BRANCH  60  63
ATOM     63  C29 MZ7 d   1      21.218  25.019   9.488  0.00  0.00    -0.003 C 
ATOM     64  H31 MZ7 d   1      21.037  23.938   9.581  0.00  0.00     0.040 H 
ATOM     65  H32 MZ7 d   1      21.989  25.197   8.724  0.00  0.00     0.040 H 
ATOM     66  H33 MZ7 d   1      20.286  25.523   9.193  0.00  0.00     0.040 H 
ENDBRANCH  60  63
ENDBRANCH  47  59
ENDBRANCH  44  47
ENDBRANCH  41  43
BRANCH  41  67
ATOM     67  C32 MZ7 d   1      18.361  28.181  14.061  0.00  0.00    -0.020 C 
ATOM     68  H34 MZ7 d   1      17.543  28.773  14.499  0.00  0.00     0.043 H 
ATOM     69  H35 MZ7 d   1      18.506  27.263  14.650  0.00  0.00     0.043 H 
BRANCH  67  70
ATOM     70  C38 MZ7 d   1      17.999  27.808  12.643  0.00  0.00    -0.056 A 
ATOM     71  C33 MZ7 d   1      18.231  26.515  12.185  0.00  0.00    -0.077 A 
ATOM     72  C34 MZ7 d   1      17.923  26.167  10.873  0.00  0.00    -0.082 A 
ATOM     73  H36 MZ7 d   1      18.654  25.774  12.854  0.00  0.00     0.084 H 
ATOM     74  C35 MZ7 d   1      17.364  27.107  10.022  0.00  0.00    -0.083 A 
ATOM     75  H37 MZ7 d   1      18.120  25.162  10.517  0.00  0.00     0.083 H 
ATOM     76  C36 MZ7 d   1      17.122  28.399  10.472  0.00  0.00    -0.082 A 
ATOM     77  H38 MZ7 d   1      17.115  26.834   9.003  0.00  0.00     0.083 H 
ATOM     78  C37 MZ7 d   1      17.439  28.745  11.783  0.00  0.00    -0.077 A 
ATOM     79  H39 MZ7 d   1      16.688  29.135   9.805  0.00  0.00     0.083 H 
ATOM     80  H40 MZ7 d   1      17.248  29.752  12.135  0.00  0.00     0.084 H 
ENDBRANCH  67  70
ENDBRANCH  41  67
ENDBRANCH   1  41
TORSDOF 20
