REMARK  21 active torsions:
REMARK  status: ('A' for Active; 'I' for Inactive)
REMARK    1  A    between atoms: C21_2  and  C22_3 
REMARK       I    between atoms: C21_2  and  N20_9 
REMARK    2  A    between atoms: C22_3  and  C23_4 
REMARK    3  A    between atoms: C23_4  and  C24_5 
REMARK    4  A    between atoms: C24_5  and  C26_7 
REMARK    5  A    between atoms: C26_7  and  C27_8 
REMARK    6  A    between atoms: N20_9  and  C19_10 
REMARK    7  A    between atoms: C19_10  and  C32_11 
REMARK    8  A    between atoms: C19_10  and  C17_18 
REMARK    9  A    between atoms: C32_11  and  C38_12 
REMARK   10  A    between atoms: C17_18  and  O18_19 
REMARK   11  A    between atoms: C17_18  and  C16_20 
REMARK   12  A    between atoms: C16_20  and  N11_21 
REMARK   13  A    between atoms: N11_21  and  C12_22 
REMARK   14  A    between atoms: N11_21  and  S8_27 
REMARK   15  A    between atoms: C12_22  and  C13_23 
REMARK   16  A    between atoms: C13_23  and  C14_24 
REMARK   17  A    between atoms: C13_23  and  C15_25 
REMARK   18  A    between atoms: C15_25  and  C18_26 
REMARK   19  A    between atoms: S8_27  and  C5_30 
REMARK   20  A    between atoms: C2_35  and  O19_36 
REMARK   21  A    between atoms: O19_36  and  C20_37 
ROOT
ATOM      1  C17 MZ9 d   1      19.899  29.595  15.732  0.00  0.00     0.067 C 
ATOM      2  H19 MZ9 d   1      20.938  29.946  15.651  0.00  0.00     0.088 H 
ENDROOT
BRANCH   1   3
ATOM      3  C19 MZ9 d   1      19.448  29.181  14.333  0.00  0.00     0.042 C 
ATOM      4  H11 MZ9 d   1      19.320  30.096  13.736  0.00  0.00     0.077 H 
BRANCH   3   5
ATOM      5  N20 MZ9 d   1      20.465  28.349  13.716  0.00  0.00    -0.354 N 
ATOM      6  C21 MZ9 d   1      21.251  28.728  12.706  0.00  0.00     0.218 C 
ATOM      7  O22 MZ9 d   1      21.256  29.826  12.174  0.00  0.00    -0.274 OA
ATOM      8  H10 MZ9 d   1      20.586  27.423  14.074  0.00  0.00     0.163 HD
BRANCH   6   9
ATOM      9  C22 MZ9 d   1      22.200  27.675  12.193  0.00  0.00     0.015 C 
ATOM     10  H1  MZ9 d   1      22.179  26.807  12.868  0.00  0.00     0.047 H 
ATOM     11  H2  MZ9 d   1      23.219  28.089  12.159  0.00  0.00     0.047 H 
BRANCH   9  12
ATOM     12  C23 MZ9 d   1      21.789  27.234  10.792  0.00  0.00    -0.002 C 
ATOM     13  H3  MZ9 d   1      22.601  27.498  10.098  0.00  0.00     0.045 H 
ATOM     14  H4  MZ9 d   1      20.877  27.782  10.514  0.00  0.00     0.045 H 
BRANCH  12  15
ATOM     15  C24 MZ9 d   1      21.510  25.750  10.649  0.00  0.00     0.127 C 
ATOM     16  O25 MZ9 d   1      21.801  24.934  11.524  0.00  0.00    -0.298 OA
BRANCH  15  17
ATOM     17  C26 MZ9 d   1      20.856  25.341   9.346  0.00  0.00    -0.013 C 
ATOM     18  H5  MZ9 d   1      21.475  25.709   8.514  0.00  0.00     0.043 H 
ATOM     19  H6  MZ9 d   1      19.860  25.805   9.295  0.00  0.00     0.043 H 
BRANCH  17  20
ATOM     20  C27 MZ9 d   1      20.696  23.848   9.200  0.00  0.00    -0.070 C 
ATOM     21  H7  MZ9 d   1      20.217  23.623   8.236  0.00  0.00     0.028 H 
ATOM     22  H8  MZ9 d   1      20.070  23.465  10.019  0.00  0.00     0.028 H 
ATOM     23  H9  MZ9 d   1      21.685  23.368   9.239  0.00  0.00     0.028 H 
ENDBRANCH  17  20
ENDBRANCH  15  17
ENDBRANCH  12  15
ENDBRANCH   9  12
ENDBRANCH   6   9
ENDBRANCH   3   5
BRANCH   3  24
ATOM     24  C32 MZ9 d   1      18.133  28.402  14.304  0.00  0.00    -0.020 C 
ATOM     25  H12 MZ9 d   1      17.322  29.029  14.704  0.00  0.00     0.043 H 
ATOM     26  H13 MZ9 d   1      18.228  27.492  14.915  0.00  0.00     0.043 H 
BRANCH  24  27
ATOM     27  C38 MZ9 d   1      17.824  28.023  12.868  0.00  0.00    -0.056 A 
ATOM     28  C37 MZ9 d   1      17.476  29.001  11.940  0.00  0.00    -0.077 A 
ATOM     29  C36 MZ9 d   1      17.202  28.650  10.618  0.00  0.00    -0.082 A 
ATOM     30  H14 MZ9 d   1      17.418  30.039  12.246  0.00  0.00     0.084 H 
ATOM     31  C35 MZ9 d   1      17.277  27.317  10.221  0.00  0.00    -0.083 A 
ATOM     32  H15 MZ9 d   1      16.931  29.415   9.899  0.00  0.00     0.083 H 
ATOM     33  C34 MZ9 d   1      17.628  26.343  11.141  0.00  0.00    -0.082 A 
ATOM     34  H16 MZ9 d   1      17.061  27.043   9.195  0.00  0.00     0.083 H 
ATOM     35  C33 MZ9 d   1      17.903  26.688  12.464  0.00  0.00    -0.077 A 
ATOM     36  H17 MZ9 d   1      17.689  25.306  10.831  0.00  0.00     0.083 H 
ATOM     37  H18 MZ9 d   1      18.178  25.921  13.179  0.00  0.00     0.084 H 
ENDBRANCH  24  27
ENDBRANCH   3  24
ENDBRANCH   1   3
BRANCH   1  38
ATOM     38  O18 MZ9 d   1      19.875  28.478  16.637  0.00  0.00    -0.392 OA
ATOM     39  H20 MZ9 d   1      18.991  28.135  16.692  0.00  0.00     0.210 HD
ENDBRANCH   1  38
BRANCH   1  40
ATOM     40  C16 MZ9 d   1      19.066  30.740  16.315  0.00  0.00     0.019 C 
ATOM     41  H21 MZ9 d   1      19.337  30.894  17.370  0.00  0.00     0.061 H 
ATOM     42  H22 MZ9 d   1      17.997  30.492  16.244  0.00  0.00     0.061 H 
BRANCH  40  43
ATOM     43  N11 MZ9 d   1      19.342  31.975  15.546  0.00  0.00    -0.204 NA
BRANCH  43  44
ATOM     44  C12 MZ9 d   1      20.058  32.999  16.345  0.00  0.00    -0.004 C 
ATOM     45  H23 MZ9 d   1      19.639  33.022  17.362  0.00  0.00     0.058 H 
ATOM     46  H24 MZ9 d   1      19.927  33.983  15.872  0.00  0.00     0.058 H 
BRANCH  44  47
ATOM     47  C13 MZ9 d   1      21.548  32.674  16.423  0.00  0.00    -0.046 C 
ATOM     48  H25 MZ9 d   1      21.641  31.675  16.873  0.00  0.00     0.041 H 
BRANCH  47  49
ATOM     49  C14 MZ9 d   1      22.214  32.604  15.045  0.00  0.00    -0.072 C 
ATOM     50  H26 MZ9 d   1      23.282  32.368  15.165  0.00  0.00     0.028 H 
ATOM     51  H27 MZ9 d   1      22.108  33.574  14.537  0.00  0.00     0.028 H 
ATOM     52  H28 MZ9 d   1      21.730  31.820  14.444  0.00  0.00     0.028 H 
ENDBRANCH  47  49
BRANCH  47  53
ATOM     53  C15 MZ9 d   1      22.252  33.664  17.355  0.00  0.00    -0.064 C 
ATOM     54  H29 MZ9 d   1      23.312  33.378  17.426  0.00  0.00     0.033 H 
ATOM     55  H30 MZ9 d   1      21.786  33.594  18.349  0.00  0.00     0.033 H 
BRANCH  53  56
ATOM     56  C18 MZ9 d   1      22.178  35.102  16.896  0.00  0.00    -0.076 C 
ATOM     57  H31 MZ9 d   1      22.705  35.745  17.617  0.00  0.00     0.027 H 
ATOM     58  H32 MZ9 d   1      21.125  35.412  16.830  0.00  0.00     0.027 H 
ATOM     59  H33 MZ9 d   1      22.651  35.196  15.907  0.00  0.00     0.027 H 
ENDBRANCH  53  56
ENDBRANCH  47  53
ENDBRANCH  44  47
ENDBRANCH  43  44
BRANCH  43  60
ATOM     60  S8  MZ9 d   1      18.008  32.587  14.849  0.00  0.00     0.243 S 
ATOM     61  O10 MZ9 d   1      17.218  31.527  14.291  0.00  0.00    -0.206 OA
ATOM     62  O9  MZ9 d   1      18.476  33.434  13.786  0.00  0.00    -0.206 OA
BRANCH  60  63
ATOM     63  C5  MZ9 d   1      17.137  33.442  15.906  0.00  0.00     0.074 A 
ATOM     64  C6  MZ9 d   1      17.375  34.805  16.079  0.00  0.00    -0.058 A 
ATOM     65  C7  MZ9 d   1      16.649  35.559  16.996  0.00  0.00    -0.049 A 
ATOM     66  H34 MZ9 d   1      18.143  35.288  15.486  0.00  0.00     0.086 H 
ATOM     67  C2  MZ9 d   1      15.653  34.950  17.771  0.00  0.00     0.068 A 
ATOM     68  H35 MZ9 d   1      16.854  36.617  17.111  0.00  0.00     0.087 H 
ATOM     69  C3  MZ9 d   1      15.414  33.590  17.604  0.00  0.00    -0.049 A 
ATOM     70  C4  MZ9 d   1      16.149  32.839  16.679  0.00  0.00    -0.058 A 
ATOM     71  H37 MZ9 d   1      14.648  33.105  18.198  0.00  0.00     0.087 H 
ATOM     72  H36 MZ9 d   1      15.947  31.780  16.564  0.00  0.00     0.086 H 
BRANCH  67  73
ATOM     73  O19 MZ9 d   1      14.906  35.631  18.706  0.00  0.00    -0.356 OA
BRANCH  73  74
ATOM     74  C20 MZ9 d   1      14.948  37.051  18.905  0.00  0.00     0.010 C 
ATOM     75  H38 MZ9 d   1      14.254  37.329  19.712  0.00  0.00     0.066 H 
ATOM     76  H39 MZ9 d   1      14.652  37.560  17.976  0.00  0.00     0.066 H 
ATOM     77  H40 MZ9 d   1      15.970  37.353  19.180  0.00  0.00     0.066 H 
ENDBRANCH  73  74
ENDBRANCH  67  73
ENDBRANCH  60  63
ENDBRANCH  43  60
ENDBRANCH  40  43
ENDBRANCH   1  40
TORSDOF 21
