REMARK  10 active torsions:
REMARK  status: ('A' for Active; 'I' for Inactive)
REMARK    1  A    between atoms: CAZ_4  and  CAC_5 
REMARK    2  A    between atoms: CBA_6  and  OAG_7 
REMARK    3  A    between atoms: CAX_8  and  CAA_9 
REMARK    4  A    between atoms: CAY_10  and  CAB_11 
REMARK    5  A    between atoms: CBE_14  and  CAD_15 
REMARK    6  A    between atoms: CBE_14  and  CAN_16 
REMARK    7  A    between atoms: CAN_16  and  OAQ_17 
REMARK    8  A    between atoms: OAQ_17  and  CAW_18 
REMARK    9  A    between atoms: CAV_23  and  CAO_24 
REMARK   10  A    between atoms: CAO_24  and  CBD_25 
ROOT
ATOM      1  CAM TDZ d   1      -5.480  -9.611  17.161  0.00  0.00    -0.030 C 
ATOM      2  CAL TDZ d   1      -6.537  -8.508  17.008  0.00  0.00    -0.035 C 
ATOM      3  CBB TDZ d   1      -7.573  -8.467  18.146  0.00  0.00    -0.015 A 
ATOM      4  CAZ TDZ d   1      -8.592  -7.515  18.164  0.00  0.00    -0.019 A 
ATOM      5  CBA TDZ d   1      -9.540  -7.461  19.183  0.00  0.00     0.078 A 
ATOM      6  CAX TDZ d   1      -9.495  -8.364  20.223  0.00  0.00    -0.020 A 
ATOM      7  CAY TDZ d   1      -8.490  -9.317  20.227  0.00  0.00    -0.019 A 
ATOM      8  CBC TDZ d   1      -7.530  -9.375  19.203  0.00  0.00     0.083 A 
ATOM      9  OAR TDZ d   1      -6.531 -10.319  19.227  0.00  0.00    -0.337 OA
ATOM     10  CBE TDZ d   1      -5.225  -9.929  18.633  0.00  0.00     0.086 C 
ATOM     11  H1  TDZ d   1      -4.540  -9.275  16.698  0.00  0.00     0.038 H 
ATOM     12  H2  TDZ d   1      -5.834 -10.520  16.653  0.00  0.00     0.038 H 
ATOM     13  H3  TDZ d   1      -7.071  -8.671  16.060  0.00  0.00     0.040 H 
ATOM     14  H4  TDZ d   1      -6.021  -7.537  16.976  0.00  0.00     0.040 H 
ENDROOT
BRANCH  10  15
ATOM     15  CAD TDZ d   1      -4.554  -8.716  19.290  0.00  0.00    -0.045 C 
ATOM     16  H15 TDZ d   1      -4.365  -8.932  20.352  0.00  0.00     0.031 H 
ATOM     17  H16 TDZ d   1      -5.215  -7.841  19.206  0.00  0.00     0.031 H 
ATOM     18  H17 TDZ d   1      -3.601  -8.505  18.783  0.00  0.00     0.031 H 
ENDBRANCH  10  15
BRANCH  10  19
ATOM     19  CAN TDZ d   1      -4.233 -11.125  18.742  0.00  0.00     0.055 C 
ATOM     20  H18 TDZ d   1      -3.371 -10.891  18.101  0.00  0.00     0.079 H 
ATOM     21  H19 TDZ d   1      -4.751 -12.013  18.350  0.00  0.00     0.079 H 
BRANCH  19  22
ATOM     22  OAQ TDZ d   1      -3.703 -11.482  20.069  0.00  0.00    -0.348 OA
BRANCH  22  23
ATOM     23  CAW TDZ d   1      -4.713 -11.798  20.939  0.00  0.00     0.068 A 
ATOM     24  CAK TDZ d   1      -5.563 -12.888  20.726  0.00  0.00    -0.050 A 
ATOM     25  CAI TDZ d   1      -6.585 -13.165  21.636  0.00  0.00    -0.074 A 
ATOM     26  H20 TDZ d   1      -5.428 -13.518  19.854  0.00  0.00     0.087 H 
ATOM     27  CAV TDZ d   1      -6.793 -12.351  22.758  0.00  0.00    -0.056 A 
ATOM     28  H21 TDZ d   1      -7.227 -14.023  21.472  0.00  0.00     0.084 H 
ATOM     29  CAH TDZ d   1      -5.943 -11.265  22.954  0.00  0.00    -0.074 A 
ATOM     30  CAJ TDZ d   1      -4.918 -10.999  22.053  0.00  0.00    -0.050 A 
ATOM     31  H23 TDZ d   1      -6.082 -10.622  23.816  0.00  0.00     0.084 H 
ATOM     32  H22 TDZ d   1      -4.266 -10.150  22.225  0.00  0.00     0.087 H 
BRANCH  27  33
ATOM     33  CAO TDZ d   1      -7.899 -12.599  23.824  0.00  0.00    -0.021 C 
ATOM     34  H24 TDZ d   1      -8.170 -11.620  24.247  0.00  0.00     0.042 H 
ATOM     35  H25 TDZ d   1      -7.458 -13.229  24.611  0.00  0.00     0.042 H 
BRANCH  33  36
ATOM     36  CBD TDZ d   1      -9.212 -13.282  23.372  0.00  0.00     0.081 A 
ATOM     37  SAS TDZ d   1      -9.658 -12.876  21.669  0.00  0.00    -0.054 SA
ATOM     38  CAT TDZ d   1      -9.597 -14.493  21.098  0.00  0.00     0.287 A 
ATOM     39  OAE TDZ d   1      -9.818 -14.801  19.928  0.00  0.00    -0.260 OA
ATOM     40  NAP TDZ d   1      -9.274 -15.366  22.066  0.00  0.00    -0.287 N 
ATOM     41  CAU TDZ d   1      -9.058 -14.817  23.276  0.00  0.00     0.239 A 
ATOM     42  H27 TDZ d   1      -9.200 -16.349  21.901  0.00  0.00     0.172 HD
ATOM     43  OAF TDZ d   1      -8.761 -15.522  24.237  0.00  0.00    -0.272 OA
ATOM     44  H26 TDZ d   1     -10.017 -13.005  24.069  0.00  0.00     0.072 H 
ENDBRANCH  33  36
ENDBRANCH  27  33
ENDBRANCH  22  23
ENDBRANCH  19  22
ENDBRANCH  10  19
BRANCH   7  45
ATOM     45  CAB TDZ d   1      -8.456 -10.283  21.381  0.00  0.00    -0.048 C 
ATOM     46  H12 TDZ d   1      -9.290 -10.066  22.065  0.00  0.00     0.033 H 
ATOM     47  H13 TDZ d   1      -7.503 -10.177  21.920  0.00  0.00     0.033 H 
ATOM     48  H14 TDZ d   1      -8.551 -11.311  21.002  0.00  0.00     0.033 H 
ENDBRANCH   7  45
BRANCH   4  49
ATOM     49  CAC TDZ d   1      -8.666  -6.502  17.034  0.00  0.00    -0.048 C 
ATOM     50  H5  TDZ d   1      -7.849  -6.687  16.322  0.00  0.00     0.033 H 
ATOM     51  H6  TDZ d   1      -8.571  -5.486  17.445  0.00  0.00     0.033 H 
ATOM     52  H7  TDZ d   1      -9.632  -6.599  16.517  0.00  0.00     0.033 H 
ENDBRANCH   4  49
BRANCH   6  53
ATOM     53  CAA TDZ d   1     -10.539  -8.287  21.346  0.00  0.00    -0.048 C 
ATOM     54  H9  TDZ d   1     -11.237  -7.462  21.142  0.00  0.00     0.033 H 
ATOM     55  H10 TDZ d   1     -10.032  -8.109  22.306  0.00  0.00     0.033 H 
ATOM     56  H11 TDZ d   1     -11.096  -9.235  21.395  0.00  0.00     0.033 H 
ENDBRANCH   6  53
BRANCH   5  57
ATOM     57  OAG TDZ d   1     -10.519  -6.525  19.176  0.00  0.00    -0.360 OA
ATOM     58  H8  TDZ d   1     -11.044  -6.623  18.390  0.00  0.00     0.217 HD
ENDBRANCH   5  57
TORSDOF 10
