REMARK  14 active torsions:
REMARK  status: ('A' for Active; 'I' for Inactive)
REMARK    1  A    between atoms: C2_2  and  C30_15 
REMARK    2  A    between atoms: C14_16  and  C4_4 
REMARK    3  A    between atoms: C6_6  and  C7_7 
REMARK       I    between atoms: C7_7  and  N1_8 
REMARK    4  A    between atoms: C11_13  and  C12_14 
REMARK    5  A    between atoms: C12_14  and  O5_44 
REMARK       I    between atoms: N2_17  and  C14_16 
REMARK    6  A    between atoms: C15_19  and  N2_17 
REMARK    7  A    between atoms: C16_20  and  C15_19 
REMARK    8  A    between atoms: C15_19  and  C17_21 
REMARK    9  A    between atoms: C16_20  and  O3_22 
REMARK   10  A    between atoms: C27_35  and  C16_20 
REMARK   11  A    between atoms: C17_21  and  C19_23 
REMARK   12  A    between atoms: C26_31  and  O4_36 
REMARK   13  A    between atoms: O4_36  and  C31_37 
REMARK   14  A    between atoms: O5_44  and  C37_43 
ROOT
ATOM      1  C15 SC6 d   1      22.556  10.751  23.127  0.00  0.00     0.043 C 
ATOM      2  H17 SC6 d   1      21.687  11.312  22.753  0.00  0.00     0.077 H 
ENDROOT
BRANCH   1   3
ATOM      3  N2  SC6 d   1      23.628  11.717  23.474  0.00  0.00    -0.349 N 
ATOM      4  C14 SC6 d   1      23.414  13.073  23.604  0.00  0.00     0.252 C 
ATOM      5  O2  SC6 d   1      22.300  13.575  23.440  0.00  0.00    -0.268 OA
ATOM      6  H16 SC6 d   1      24.553  11.367  23.621  0.00  0.00     0.163 HD
BRANCH   4   7
ATOM      7  C4  SC6 d   1      24.602  13.873  23.946  0.00  0.00     0.033 A 
ATOM      8  C3  SC6 d   1      24.468  15.065  24.721  0.00  0.00    -0.062 A 
ATOM      9  C2  SC6 d   1      25.614  15.848  25.053  0.00  0.00    -0.060 A 
ATOM     10  H2  SC6 d   1      23.487  15.378  25.060  0.00  0.00     0.085 H 
ATOM     11  C1  SC6 d   1      26.895  15.430  24.606  0.00  0.00    -0.062 A 
ATOM     12  C6  SC6 d   1      27.034  14.244  23.833  0.00  0.00     0.033 A 
ATOM     13  H1  SC6 d   1      27.771  16.017  24.855  0.00  0.00     0.085 H 
ATOM     14  C5  SC6 d   1      25.878  13.480  23.520  0.00  0.00    -0.052 A 
ATOM     15  H3  SC6 d   1      25.985  12.572  22.938  0.00  0.00     0.086 H 
BRANCH   9  16
ATOM     16  C30 SC6 d   1      25.477  17.108  25.868  0.00  0.00    -0.051 C 
ATOM     17  H13 SC6 d   1      26.469  17.561  26.013  0.00  0.00     0.033 H 
ATOM     18  H14 SC6 d   1      25.038  16.866  26.847  0.00  0.00     0.033 H 
ATOM     19  H15 SC6 d   1      24.824  17.818  25.339  0.00  0.00     0.033 H 
ENDBRANCH   9  16
BRANCH  12  20
ATOM     20  C7  SC6 d   1      28.363  13.781  23.364  0.00  0.00     0.254 C 
ATOM     21  N1  SC6 d   1      28.585  13.524  21.994  0.00  0.00    -0.341 N 
ATOM     22  C8  SC6 d   1      27.648  13.669  20.864  0.00  0.00    -0.002 C 
ATOM     23  C11 SC6 d   1      29.879  13.051  21.489  0.00  0.00     0.035 C 
ATOM     24  C9  SC6 d   1      28.573  14.260  19.795  0.00  0.00    -0.048 C 
ATOM     25  H4  SC6 d   1      26.823  14.354  21.108  0.00  0.00     0.064 H 
ATOM     26  H5  SC6 d   1      27.238  12.697  20.552  0.00  0.00     0.064 H 
ATOM     27  C10 SC6 d   1      29.938  13.595  20.048  0.00  0.00    -0.043 C 
ATOM     28  H6  SC6 d   1      28.647  15.352  19.907  0.00  0.00     0.035 H 
ATOM     29  H7  SC6 d   1      28.205  14.018  18.787  0.00  0.00     0.035 H 
ATOM     30  H8  SC6 d   1      30.748  14.333  19.950  0.00  0.00     0.036 H 
ATOM     31  H9  SC6 d   1      30.102  12.774  19.335  0.00  0.00     0.036 H 
ATOM     32  H10 SC6 d   1      30.709  13.444  22.095  0.00  0.00     0.076 H 
ATOM     33  O1  SC6 d   1      29.274  13.604  24.170  0.00  0.00    -0.267 OA
BRANCH  23  34
ATOM     34  C12 SC6 d   1      29.918  11.499  21.484  0.00  0.00     0.038 C 
ATOM     35  H11 SC6 d   1      30.921  11.164  21.179  0.00  0.00     0.077 H 
ATOM     36  H12 SC6 d   1      29.172  11.122  20.769  0.00  0.00     0.077 H 
BRANCH  34  37
ATOM     37  O5  SC6 d   1      29.627  10.982  22.778  0.00  0.00    -0.394 OA
BRANCH  37  38
ATOM     38  C37 SC6 d   1      29.457   9.581  22.847  0.00  0.00     0.004 C 
ATOM     39  H38 SC6 d   1      29.238   9.289  23.885  0.00  0.00     0.066 H 
ATOM     40  H39 SC6 d   1      30.379   9.083  22.513  0.00  0.00     0.066 H 
ATOM     41  H40 SC6 d   1      28.622   9.280  22.197  0.00  0.00     0.066 H 
ENDBRANCH  37  38
ENDBRANCH  34  37
ENDBRANCH  23  34
ENDBRANCH  12  20
ENDBRANCH   4   7
ENDBRANCH   1   3
BRANCH   1  42
ATOM     42  C16 SC6 d   1      22.105   9.920  24.351  0.00  0.00     0.083 C 
ATOM     43  H18 SC6 d   1      22.953   9.300  24.678  0.00  0.00     0.089 H 
BRANCH  42  44
ATOM     44  O3  SC6 d   1      21.038   9.095  23.946  0.00  0.00    -0.391 OA
ATOM     45  H21 SC6 d   1      21.331   8.521  23.248  0.00  0.00     0.210 HD
ENDBRANCH  42  44
BRANCH  42  46
ATOM     46  C27 SC6 d   1      21.609  10.752  25.566  0.00  0.00     0.131 C 
ATOM     47  N3  SC6 d   1      21.172   9.898  26.680  0.00  0.00    -0.066 N 
ATOM     48  C18 SC6 d   1      20.357  10.793  27.505  0.00  0.00     0.106 C 
ATOM     49  H28 SC6 d   1      20.625   9.121  26.344  0.00  0.00     0.277 HD
ATOM     50  H29 SC6 d   1      21.963   9.552  27.199  0.00  0.00     0.277 HD
ATOM     51  C26 SC6 d   1      19.460  11.482  26.488  0.00  0.00     0.070 C 
ATOM     52  H26 SC6 d   1      19.762  10.224  28.235  0.00  0.00     0.079 H 
ATOM     53  H27 SC6 d   1      20.986  11.523  28.035  0.00  0.00     0.079 H 
ATOM     54  C20 SC6 d   1      20.396  11.666  25.281  0.00  0.00    -0.010 C 
ATOM     55  H25 SC6 d   1      19.070  12.447  26.843  0.00  0.00     0.086 H 
ATOM     56  H30 SC6 d   1      20.715  12.715  25.197  0.00  0.00     0.040 H 
ATOM     57  H31 SC6 d   1      19.892  11.360  24.352  0.00  0.00     0.040 H 
ATOM     58  H32 SC6 d   1      22.451  11.378  25.897  0.00  0.00     0.088 H 
BRANCH  51  59
ATOM     59  O4  SC6 d   1      18.394  10.566  26.238  0.00  0.00    -0.344 OA
BRANCH  59  60
ATOM     60  C31 SC6 d   1      17.416  10.875  25.276  0.00  0.00     0.069 A 
ATOM     61  C32 SC6 d   1      16.948  12.189  24.923  0.00  0.00    -0.051 A 
ATOM     62  C33 SC6 d   1      15.954  12.344  23.929  0.00  0.00    -0.080 A 
ATOM     63  H33 SC6 d   1      17.358  13.061  25.419  0.00  0.00     0.087 H 
ATOM     64  C34 SC6 d   1      15.420  11.204  23.278  0.00  0.00    -0.083 A 
ATOM     65  H34 SC6 d   1      15.601  13.334  23.665  0.00  0.00     0.083 H 
ATOM     66  C35 SC6 d   1      15.881   9.912  23.625  0.00  0.00    -0.080 A 
ATOM     67  H35 SC6 d   1      14.659  11.322  22.515  0.00  0.00     0.083 H 
ATOM     68  C36 SC6 d   1      16.873   9.754  24.617  0.00  0.00    -0.051 A 
ATOM     69  H36 SC6 d   1      15.471   9.040  23.127  0.00  0.00     0.083 H 
ATOM     70  H37 SC6 d   1      17.221   8.760  24.874  0.00  0.00     0.087 H 
ENDBRANCH  59  60
ENDBRANCH  51  59
ENDBRANCH  42  46
ENDBRANCH   1  42
BRANCH   1  71
ATOM     71  C17 SC6 d   1      23.070   9.821  22.006  0.00  0.00    -0.020 C 
ATOM     72  H19 SC6 d   1      22.214   9.252  21.616  0.00  0.00     0.043 H 
ATOM     73  H20 SC6 d   1      23.801   9.127  22.447  0.00  0.00     0.043 H 
BRANCH  71  74
ATOM     74  C19 SC6 d   1      23.732  10.524  20.846  0.00  0.00    -0.050 A 
ATOM     75  C21 SC6 d   1      25.080  10.220  20.516  0.00  0.00    -0.039 A 
ATOM     76  C22 SC6 d   1      25.697  10.875  19.430  0.00  0.00     0.119 A 
ATOM     77  H22 SC6 d   1      25.631   9.489  21.096  0.00  0.00     0.089 H 
ATOM     78  C23 SC6 d   1      25.026  11.835  18.646  0.00  0.00    -0.009 A 
ATOM     79  F2  SC6 d   1      26.960  10.572  19.139  0.00  0.00    -0.206 F 
ATOM     80  C24 SC6 d   1      23.686  12.128  18.988  0.00  0.00     0.119 A 
ATOM     81  H23 SC6 d   1      25.517  12.328  17.815  0.00  0.00     0.092 H 
ATOM     82  C25 SC6 d   1      23.028  11.495  20.068  0.00  0.00    -0.039 A 
ATOM     83  F1  SC6 d   1      23.027  13.029  18.267  0.00  0.00    -0.206 F 
ATOM     84  H24 SC6 d   1      22.000  11.744  20.304  0.00  0.00     0.089 H 
ENDBRANCH  71  74
ENDBRANCH   1  71
TORSDOF 14
