REMARK  14 active torsions:
REMARK  status: ('A' for Active; 'I' for Inactive)
REMARK       I    between atoms: N1_1  and  C8_2 
REMARK    1  A    between atoms: C8_2  and  C6_3 
REMARK    2  A    between atoms: C27_6  and  S9_9 
REMARK    3  A    between atoms: S9_9  and  N32_12 
REMARK    4  A    between atoms: N32_12  and  C33_13 
REMARK    5  A    between atoms: N32_12  and  C24_24 
REMARK    6  A    between atoms: C33_13  and  C34_14 
REMARK    7  A    between atoms: C37_17  and  C10_18 
REMARK    8  A    between atoms: C23_28  and  N28_29 
REMARK    9  A    between atoms: N28_29  and  C7_30 
REMARK   10  A    between atoms: N28_29  and  S8_41 
REMARK   11  A    between atoms: C7_30  and  C12_31 
REMARK   12  A    between atoms: C31_34  and  C11_35 
REMARK   13  A    between atoms: S8_41  and  C26_42 
REMARK   14  A    between atoms: C4_45  and  C9_46 
REMARK       I    between atoms: C9_46  and  N2_48 
ROOT
ATOM      1  C24 QN1 d   1      12.020 -18.695 -17.122  0.00  0.00     0.068 C 
ATOM      2  C25 QN1 d   1      12.782 -17.602 -17.896  0.00  0.00     0.103 C 
ATOM      3  N22 QN1 d   1      14.130 -18.167 -18.200  0.00  0.00    -0.071 N 
ATOM      4  C21 QN1 d   1      14.050 -19.620 -18.223  0.00  0.00     0.103 C 
ATOM      5  C23 QN1 d   1      12.726 -20.029 -17.539  0.00  0.00     0.068 C 
ATOM      6  H13 QN1 d   1      10.957 -18.698 -17.405  0.00  0.00     0.079 H 
ATOM      7  H14 QN1 d   1      12.879 -16.696 -17.280  0.00  0.00     0.079 H 
ATOM      8  H15 QN1 d   1      12.253 -17.356 -18.828  0.00  0.00     0.079 H 
ATOM      9  H16 QN1 d   1      14.784 -17.877 -17.490  0.00  0.00     0.277 HD
ATOM     10  H17 QN1 d   1      14.440 -17.833 -19.099  0.00  0.00     0.277 HD
ATOM     11  H18 QN1 d   1      14.902 -20.051 -17.677  0.00  0.00     0.079 H 
ATOM     12  H19 QN1 d   1      14.061 -19.979 -19.263  0.00  0.00     0.079 H 
ATOM     13  H20 QN1 d   1      12.939 -20.619 -16.636  0.00  0.00     0.079 H 
ENDROOT
BRANCH   1  14
ATOM     14  N32 QN1 d   1      12.146 -18.545 -15.662  0.00  0.00    -0.294 N 
BRANCH  14  15
ATOM     15  S9  QN1 d   1      10.712 -18.905 -14.796  0.00  0.00     0.261 S 
ATOM     16  O40 QN1 d   1      11.078 -18.959 -13.384  0.00  0.00    -0.200 OA
ATOM     17  O11 QN1 d   1      10.095 -20.077 -15.422  0.00  0.00    -0.200 OA
BRANCH  15  18
ATOM     18  C27 QN1 d   1       9.559 -17.618 -14.924  0.00  0.00     0.079 A 
ATOM     19  C18 QN1 d   1       9.870 -16.358 -14.434  0.00  0.00    -0.059 A 
ATOM     20  C2  QN1 d   1       8.919 -15.336 -14.512  0.00  0.00    -0.066 A 
ATOM     21  H4  QN1 d   1      10.842 -16.167 -13.994  0.00  0.00     0.085 H 
ATOM     22  C6  QN1 d   1       7.703 -15.587 -15.166  0.00  0.00     0.031 A 
ATOM     23  H3  QN1 d   1       9.118 -14.365 -14.074  0.00  0.00     0.085 H 
ATOM     24  C5  QN1 d   1       7.434 -16.852 -15.702  0.00  0.00    -0.066 A 
ATOM     25  C20 QN1 d   1       8.365 -17.891 -15.618  0.00  0.00    -0.059 A 
ATOM     26  H6  QN1 d   1       6.484 -17.029 -16.192  0.00  0.00     0.085 H 
ATOM     27  H5  QN1 d   1       8.177 -18.860 -16.066  0.00  0.00     0.085 H 
BRANCH  22  28
ATOM     28  C8  QN1 d   1       6.687 -14.480 -15.226  0.00  0.00     0.249 C 
ATOM     29  N1  QN1 d   1       5.465 -14.795 -15.711  0.00  0.00    -0.366 N 
ATOM     30  H1  QN1 d   1       4.755 -14.094 -15.771  0.00  0.00     0.159 HD
ATOM     31  H2  QN1 d   1       5.271 -15.729 -16.010  0.00  0.00     0.159 HD
ATOM     32  O2  QN1 d   1       6.975 -13.356 -14.840  0.00  0.00    -0.268 OA
ENDBRANCH  22  28
ENDBRANCH  15  18
ENDBRANCH  14  15
BRANCH  14  33
ATOM     33  C33 QN1 d   1      13.374 -18.247 -14.917  0.00  0.00     0.029 C 
ATOM     34  H7  QN1 d   1      13.112 -17.784 -13.954  0.00  0.00     0.072 H 
ATOM     35  H8  QN1 d   1      13.994 -17.551 -15.501  0.00  0.00     0.072 H 
BRANCH  33  36
ATOM     36  C34 QN1 d   1      14.173 -19.553 -14.658  0.00  0.00    -0.040 A 
ATOM     37  C38 QN1 d   1      15.520 -19.624 -15.074  0.00  0.00    -0.074 A 
ATOM     38  C39 QN1 d   1      16.297 -20.769 -14.845  0.00  0.00    -0.068 A 
ATOM     39  H9  QN1 d   1      15.964 -18.775 -15.582  0.00  0.00     0.084 H 
ATOM     40  C37 QN1 d   1      15.706 -21.897 -14.237  0.00  0.00     0.047 A 
ATOM     41  H10 QN1 d   1      17.342 -20.787 -15.133  0.00  0.00     0.084 H 
ATOM     42  C36 QN1 d   1      14.373 -21.836 -13.825  0.00  0.00    -0.068 A 
ATOM     43  C35 QN1 d   1      13.604 -20.682 -14.063  0.00  0.00    -0.074 A 
ATOM     44  H11 QN1 d   1      13.927 -22.684 -13.318  0.00  0.00     0.084 H 
ATOM     45  H12 QN1 d   1      12.557 -20.669 -13.781  0.00  0.00     0.084 H 
BRANCH  40  46
ATOM     46  C10 QN1 d   1      16.562 -23.142 -13.974  0.00  0.00     0.417 C 
ATOM     47  F6  QN1 d   1      16.065 -24.271 -14.529  0.00  0.00    -0.166 F 
ATOM     48  F5  QN1 d   1      17.831 -22.920 -14.437  0.00  0.00    -0.166 F 
ATOM     49  F4  QN1 d   1      16.689 -23.294 -12.631  0.00  0.00    -0.166 F 
ENDBRANCH  40  46
ENDBRANCH  33  36
ENDBRANCH  14  33
ENDBRANCH   1  14
BRANCH   5  50
ATOM     50  N28 QN1 d   1      11.944 -20.845 -18.443  0.00  0.00    -0.294 N 
BRANCH  50  51
ATOM     51  C7  QN1 d   1      11.465 -20.415 -19.745  0.00  0.00     0.029 C 
ATOM     52  H21 QN1 d   1      11.336 -21.322 -20.354  0.00  0.00     0.072 H 
ATOM     53  H22 QN1 d   1      12.254 -19.787 -20.185  0.00  0.00     0.072 H 
BRANCH  51  54
ATOM     54  C12 QN1 d   1      10.187 -19.640 -19.840  0.00  0.00    -0.040 A 
ATOM     55  C14 QN1 d   1      10.135 -18.643 -20.818  0.00  0.00    -0.074 A 
ATOM     56  C30 QN1 d   1       8.973 -17.915 -21.001  0.00  0.00    -0.068 A 
ATOM     57  H23 QN1 d   1      11.005 -18.440 -21.433  0.00  0.00     0.084 H 
ATOM     58  C31 QN1 d   1       7.879 -18.121 -20.180  0.00  0.00     0.047 A 
ATOM     59  H24 QN1 d   1       8.919 -17.178 -21.794  0.00  0.00     0.084 H 
ATOM     60  C29 QN1 d   1       7.946 -19.088 -19.175  0.00  0.00    -0.068 A 
ATOM     61  C13 QN1 d   1       9.103 -19.828 -18.986  0.00  0.00    -0.074 A 
ATOM     62  H25 QN1 d   1       7.087 -19.262 -18.538  0.00  0.00     0.084 H 
ATOM     63  H26 QN1 d   1       9.164 -20.549 -18.178  0.00  0.00     0.084 H 
BRANCH  58  64
ATOM     64  C11 QN1 d   1       6.621 -17.257 -20.429  0.00  0.00     0.417 C 
ATOM     65  F3  QN1 d   1       7.057 -16.021 -20.873  0.00  0.00    -0.166 F 
ATOM     66  F2  QN1 d   1       5.984 -17.830 -21.472  0.00  0.00    -0.166 F 
ATOM     67  F1  QN1 d   1       5.909 -17.062 -19.322  0.00  0.00    -0.166 F 
ENDBRANCH  58  64
ENDBRANCH  51  54
ENDBRANCH  50  51
BRANCH  50  68
ATOM     68  S8  QN1 d   1      11.753 -22.455 -18.080  0.00  0.00     0.261 S 
ATOM     69  O41 QN1 d   1      10.658 -22.963 -18.891  0.00  0.00    -0.200 OA
ATOM     70  O10 QN1 d   1      11.731 -22.669 -16.641  0.00  0.00    -0.200 OA
BRANCH  68  71
ATOM     71  C26 QN1 d   1      13.254 -23.146 -18.723  0.00  0.00     0.079 A 
ATOM     72  C17 QN1 d   1      13.333 -23.413 -20.092  0.00  0.00    -0.059 A 
ATOM     73  C1  QN1 d   1      14.512 -23.952 -20.635  0.00  0.00    -0.066 A 
ATOM     74  H27 QN1 d   1      12.486 -23.205 -20.735  0.00  0.00     0.085 H 
ATOM     75  C4  QN1 d   1      15.561 -24.239 -19.768  0.00  0.00     0.031 A 
ATOM     76  H28 QN1 d   1      14.601 -24.139 -21.699  0.00  0.00     0.085 H 
ATOM     77  C3  QN1 d   1      15.481 -23.947 -18.413  0.00  0.00    -0.066 A 
ATOM     78  C19 QN1 d   1      14.305 -23.412 -17.835  0.00  0.00    -0.059 A 
ATOM     79  H31 QN1 d   1      16.342 -24.134 -17.781  0.00  0.00     0.085 H 
ATOM     80  H32 QN1 d   1      14.222 -23.220 -16.771  0.00  0.00     0.085 H 
BRANCH  75  81
ATOM     81  C9  QN1 d   1      16.853 -24.789 -20.368  0.00  0.00     0.249 C 
ATOM     82  O1  QN1 d   1      17.147 -24.469 -21.511  0.00  0.00    -0.268 OA
ATOM     83  N2  QN1 d   1      17.664 -25.597 -19.698  0.00  0.00    -0.366 N 
ATOM     84  H29 QN1 d   1      18.501 -25.935 -20.129  0.00  0.00     0.159 HD
ATOM     85  H30 QN1 d   1      17.438 -25.868 -18.762  0.00  0.00     0.159 HD
ENDBRANCH  75  81
ENDBRANCH  68  71
ENDBRANCH  50  68
ENDBRANCH   5  50
TORSDOF 14
