REMARK  10 active torsions:
REMARK  status: ('A' for Active; 'I' for Inactive)
REMARK    1  A    between atoms: C26_3  and  S8_7 
REMARK    2  A    between atoms: S8_7  and  N28_8 
REMARK    3  A    between atoms: N28_8  and  C7_9 
REMARK    4  A    between atoms: N28_8  and  C23_17 
REMARK    5  A    between atoms: C7_9  and  C12_10 
REMARK    6  A    between atoms: C24_18  and  N32_19 
REMARK    7  A    between atoms: N32_19  and  S9_20 
REMARK    8  A    between atoms: N32_19  and  C33_29 
REMARK    9  A    between atoms: S9_20  and  C27_22 
REMARK   10  A    between atoms: C33_29  and  C34_30 
ROOT
ATOM      1  C23 QN2 d   1      16.402  23.088  -5.455  0.00  0.00     0.068 C 
ATOM      2  C24 QN2 d   1      16.987  24.473  -5.865  0.00  0.00     0.068 C 
ATOM      3  C25 QN2 d   1      16.187  25.437  -4.977  0.00  0.00     0.103 C 
ATOM      4  N22 QN2 d   1      14.840  24.835  -4.827  0.00  0.00    -0.071 N 
ATOM      5  C21 QN2 d   1      15.020  23.386  -4.783  0.00  0.00     0.103 C 
ATOM      6  H12 QN2 d   1      16.258  22.489  -6.366  0.00  0.00     0.079 H 
ATOM      7  H13 QN2 d   1      18.044  24.540  -5.569  0.00  0.00     0.079 H 
ATOM      8  H25 QN2 d   1      16.113  26.425  -5.456  0.00  0.00     0.079 H 
ATOM      9  H26 QN2 d   1      16.670  25.541  -3.994  0.00  0.00     0.079 H 
ATOM     10  H27 QN2 d   1      14.259  25.088  -5.611  0.00  0.00     0.277 HD
ATOM     11  H28 QN2 d   1      14.411  25.156  -3.973  0.00  0.00     0.277 HD
ATOM     12  H29 QN2 d   1      15.021  23.035  -3.740  0.00  0.00     0.079 H 
ATOM     13  H30 QN2 d   1      14.212  22.886  -5.338  0.00  0.00     0.079 H 
ENDROOT
BRANCH   1  14
ATOM     14  N28 QN2 d   1      17.195  22.303  -4.520  0.00  0.00    -0.294 N 
BRANCH  14  15
ATOM     15  S8  QN2 d   1      17.469  20.626  -4.843  0.00  0.00     0.261 S 
ATOM     16  O41 QN2 d   1      18.669  20.208  -4.158  0.00  0.00    -0.200 OA
ATOM     17  O10 QN2 d   1      17.230  20.350  -6.227  0.00  0.00    -0.200 OA
BRANCH  15  18
ATOM     18  C26 QN2 d   1      16.121  19.956  -3.886  0.00  0.00     0.079 A 
ATOM     19  C17 QN2 d   1      16.338  19.668  -2.547  0.00  0.00    -0.060 A 
ATOM     20  C1  QN2 d   1      15.298  19.199  -1.739  0.00  0.00    -0.082 A 
ATOM     21  H2  QN2 d   1      17.325  19.808  -2.122  0.00  0.00     0.085 H 
ATOM     22  C4  QN2 d   1      14.073  18.959  -2.369  0.00  0.00    -0.083 A 
ATOM     23  H1  QN2 d   1      15.434  19.030  -0.677  0.00  0.00     0.083 H 
ATOM     24  C3  QN2 d   1      13.870  19.212  -3.714  0.00  0.00    -0.082 A 
ATOM     25  H5  QN2 d   1      13.253  18.560  -1.783  0.00  0.00     0.083 H 
ATOM     26  C19 QN2 d   1      14.898  19.740  -4.527  0.00  0.00    -0.060 A 
ATOM     27  H4  QN2 d   1      12.902  19.001  -4.153  0.00  0.00     0.083 H 
ATOM     28  H3  QN2 d   1      14.748  19.963  -5.577  0.00  0.00     0.085 H 
ENDBRANCH  15  18
ENDBRANCH  14  15
BRANCH  14  29
ATOM     29  C7  QN2 d   1      17.652  22.906  -3.290  0.00  0.00     0.029 C 
ATOM     30  H6  QN2 d   1      17.588  22.129  -2.514  0.00  0.00     0.072 H 
ATOM     31  H7  QN2 d   1      16.947  23.717  -3.055  0.00  0.00     0.072 H 
BRANCH  29  32
ATOM     32  C12 QN2 d   1      19.042  23.498  -3.197  0.00  0.00    -0.040 A 
ATOM     33  C14 QN2 d   1      19.243  24.430  -2.167  0.00  0.00    -0.074 A 
ATOM     34  C30 QN2 d   1      20.479  25.027  -1.959  0.00  0.00    -0.066 A 
ATOM     35  H8  QN2 d   1      18.414  24.690  -1.519  0.00  0.00     0.084 H 
ATOM     36  C31 QN2 d   1      21.503  24.717  -2.843  0.00  0.00     0.006 A 
ATOM     37  H9  QN2 d   1      20.639  25.712  -1.134  0.00  0.00     0.085 H 
ATOM     38  I2  QN2 d   1      23.348  25.554  -2.542  0.00  0.00    -0.045 I 
ATOM     39  C29 QN2 d   1      21.325  23.827  -3.888  0.00  0.00    -0.066 A 
ATOM     40  C13 QN2 d   1      20.087  23.201  -4.060  0.00  0.00    -0.074 A 
ATOM     41  H10 QN2 d   1      22.141  23.616  -4.569  0.00  0.00     0.085 H 
ATOM     42  H11 QN2 d   1      19.944  22.487  -4.863  0.00  0.00     0.084 H 
ENDBRANCH  29  32
ENDBRANCH  14  29
ENDBRANCH   1  14
BRANCH   2  43
ATOM     43  N32 QN2 d   1      16.953  24.610  -7.324  0.00  0.00    -0.294 N 
BRANCH  43  44
ATOM     44  S9  QN2 d   1      18.399  24.421  -8.176  0.00  0.00     0.261 S 
ATOM     45  O11 QN2 d   1      19.139  23.367  -7.475  0.00  0.00    -0.200 OA
ATOM     46  O40 QN2 d   1      18.087  24.131  -9.587  0.00  0.00    -0.200 OA
BRANCH  44  47
ATOM     47  C27 QN2 d   1      19.405  25.851  -8.243  0.00  0.00     0.079 A 
ATOM     48  C18 QN2 d   1      20.736  25.718  -7.790  0.00  0.00    -0.060 A 
ATOM     49  C2  QN2 d   1      21.591  26.825  -7.829  0.00  0.00    -0.082 A 
ATOM     50  H14 QN2 d   1      21.093  24.765  -7.415  0.00  0.00     0.085 H 
ATOM     51  C6  QN2 d   1      21.131  28.064  -8.298  0.00  0.00    -0.083 A 
ATOM     52  H15 QN2 d   1      22.617  26.724  -7.494  0.00  0.00     0.083 H 
ATOM     53  C5  QN2 d   1      19.813  28.203  -8.758  0.00  0.00    -0.082 A 
ATOM     54  H16 QN2 d   1      21.797  28.919  -8.305  0.00  0.00     0.083 H 
ATOM     55  C20 QN2 d   1      18.983  27.075  -8.748  0.00  0.00    -0.060 A 
ATOM     56  H17 QN2 d   1      19.446  29.160  -9.112  0.00  0.00     0.083 H 
ATOM     57  H18 QN2 d   1      17.979  27.159  -9.147  0.00  0.00     0.085 H 
ENDBRANCH  44  47
ENDBRANCH  43  44
BRANCH  43  58
ATOM     58  C33 QN2 d   1      15.697  24.817  -8.070  0.00  0.00     0.029 C 
ATOM     59  H19 QN2 d   1      15.939  25.290  -9.033  0.00  0.00     0.072 H 
ATOM     60  H20 QN2 d   1      15.052  25.488  -7.484  0.00  0.00     0.072 H 
BRANCH  58  61
ATOM     61  C34 QN2 d   1      14.915  23.505  -8.350  0.00  0.00    -0.040 A 
ATOM     62  C38 QN2 d   1      13.587  23.382  -7.911  0.00  0.00    -0.074 A 
ATOM     63  C39 QN2 d   1      12.827  22.226  -8.139  0.00  0.00    -0.066 A 
ATOM     64  H21 QN2 d   1      13.134  24.209  -7.377  0.00  0.00     0.084 H 
ATOM     65  C37 QN2 d   1      13.423  21.166  -8.827  0.00  0.00     0.006 A 
ATOM     66  H22 QN2 d   1      11.803  22.156  -7.790  0.00  0.00     0.085 H 
ATOM     67  I1  QN2 d   1      12.406  19.404  -9.205  0.00  0.00    -0.045 I 
ATOM     68  C36 QN2 d   1      14.751  21.265  -9.247  0.00  0.00    -0.066 A 
ATOM     69  C35 QN2 d   1      15.493  22.419  -9.030  0.00  0.00    -0.074 A 
ATOM     70  H23 QN2 d   1      15.212  20.424  -9.753  0.00  0.00     0.085 H 
ATOM     71  H24 QN2 d   1      16.515  22.482  -9.384  0.00  0.00     0.084 H 
ENDBRANCH  58  61
ENDBRANCH  43  58
ENDBRANCH   2  43
TORSDOF 10
