REMARK  10 active torsions:
REMARK  status: ('A' for Active; 'I' for Inactive)
REMARK    1  A    between atoms: C27_5  and  S9_6 
REMARK    2  A    between atoms: S9_6  and  N32_7 
REMARK    3  A    between atoms: N32_7  and  C24_8 
REMARK    4  A    between atoms: N32_7  and  C33_31 
REMARK    5  A    between atoms: C23_9  and  N28_10 
REMARK    6  A    between atoms: N28_10  and  S8_11 
REMARK    7  A    between atoms: N28_10  and  C7_21 
REMARK    8  A    between atoms: S8_11  and  C26_14 
REMARK    9  A    between atoms: C7_21  and  C12_22 
REMARK   10  A    between atoms: C33_31  and  C34_32 
ROOT
ATOM      1  C24 QN3 d   1     -16.499  19.696  -5.068  0.00  0.00     0.068 C 
ATOM      2  C23 QN3 d   1     -17.120  18.386  -5.696  0.00  0.00     0.068 C 
ATOM      3  C21 QN3 d   1     -16.331  17.260  -4.976  0.00  0.00     0.103 C 
ATOM      4  N22 QN3 d   1     -14.982  17.816  -4.706  0.00  0.00    -0.071 N 
ATOM      5  C25 QN3 d   1     -15.136  19.267  -4.452  0.00  0.00     0.103 C 
ATOM      6  H4  QN3 d   1     -16.295  20.395  -5.893  0.00  0.00     0.079 H 
ATOM      7  H5  QN3 d   1     -18.180  18.310  -5.412  0.00  0.00     0.079 H 
ATOM      8  H17 QN3 d   1     -16.257  16.372  -5.621  0.00  0.00     0.079 H 
ATOM      9  H18 QN3 d   1     -16.828  16.987  -4.033  0.00  0.00     0.079 H 
ATOM     10  H19 QN3 d   1     -14.384  17.669  -5.504  0.00  0.00     0.277 HD
ATOM     11  H20 QN3 d   1     -14.581  17.367  -3.898  0.00  0.00     0.277 HD
ATOM     12  H21 QN3 d   1     -15.132  19.463  -3.370  0.00  0.00     0.079 H 
ATOM     13  H22 QN3 d   1     -14.315  19.823  -4.928  0.00  0.00     0.079 H 
ENDROOT
BRANCH   1  14
ATOM     14  N32 QN3 d   1     -17.377  20.435  -4.104  0.00  0.00    -0.294 N 
BRANCH  14  15
ATOM     15  S9  QN3 d   1     -17.644  22.156  -4.474  0.00  0.00     0.263 S 
ATOM     16  O11 QN3 d   1     -17.733  22.225  -5.926  0.00  0.00    -0.200 OA
ATOM     17  O40 QN3 d   1     -18.582  22.787  -3.554  0.00  0.00    -0.200 OA
BRANCH  15  18
ATOM     18  C27 QN3 d   1     -16.049  22.761  -3.834  0.00  0.00     0.101 A 
ATOM     19  C20 QN3 d   1     -14.934  23.233  -4.606  0.00  0.00     0.057 A 
ATOM     20  C5  QN3 d   1     -13.749  23.688  -3.956  0.00  0.00    -0.060 A 
ATOM     21 CL3  QN3 d   1     -14.955  23.272  -6.327  0.00  0.00    -0.083 Cl
ATOM     22  C6  QN3 d   1     -13.649  23.687  -2.543  0.00  0.00    -0.081 A 
ATOM     23  H3  QN3 d   1     -12.914  24.039  -4.551  0.00  0.00     0.086 H 
ATOM     24  C2  QN3 d   1     -14.737  23.224  -1.764  0.00  0.00    -0.081 A 
ATOM     25  H2  QN3 d   1     -12.744  24.039  -2.061  0.00  0.00     0.083 H 
ATOM     26  C18 QN3 d   1     -15.921  22.767  -2.405  0.00  0.00    -0.059 A 
ATOM     27  H1  QN3 d   1     -14.668  23.218  -0.682  0.00  0.00     0.083 H 
ATOM     28  H30 QN3 d   1     -16.748  22.414  -1.799  0.00  0.00     0.086 H 
ENDBRANCH  15  18
ENDBRANCH  14  15
BRANCH  14  29
ATOM     29  C33 QN3 d   1     -18.009  19.816  -2.912  0.00  0.00     0.029 C 
ATOM     30  H23 QN3 d   1     -18.080  20.600  -2.144  0.00  0.00     0.072 H 
ATOM     31  H24 QN3 d   1     -17.330  19.023  -2.565  0.00  0.00     0.072 H 
BRANCH  29  32
ATOM     32  C34 QN3 d   1     -19.398  19.189  -3.037  0.00  0.00    -0.040 A 
ATOM     33  C35 QN3 d   1     -20.368  19.700  -3.938  0.00  0.00    -0.075 A 
ATOM     34  C36 QN3 d   1     -21.656  19.094  -4.018  0.00  0.00    -0.082 A 
ATOM     35  H25 QN3 d   1     -20.130  20.551  -4.566  0.00  0.00     0.084 H 
ATOM     36  C37 QN3 d   1     -21.981  17.972  -3.197  0.00  0.00    -0.083 A 
ATOM     37  H26 QN3 d   1     -22.394  19.488  -4.707  0.00  0.00     0.083 H 
ATOM     38  C39 QN3 d   1     -21.011  17.458  -2.294  0.00  0.00    -0.082 A 
ATOM     39  H27 QN3 d   1     -22.962  17.515  -3.262  0.00  0.00     0.083 H 
ATOM     40  C38 QN3 d   1     -19.727  18.066  -2.216  0.00  0.00    -0.075 A 
ATOM     41  H28 QN3 d   1     -21.249  16.606  -1.667  0.00  0.00     0.083 H 
ATOM     42  H29 QN3 d   1     -18.989  17.673  -1.526  0.00  0.00     0.084 H 
ENDBRANCH  29  32
ENDBRANCH  14  29
ENDBRANCH   1  14
BRANCH   2  43
ATOM     43  N28 QN3 d   1     -17.073  18.383  -7.191  0.00  0.00    -0.294 N 
BRANCH  43  44
ATOM     44  S8  QN3 d   1     -18.545  18.702  -8.064  0.00  0.00     0.263 S 
ATOM     45  O10 QN3 d   1     -19.097  19.932  -7.532  0.00  0.00    -0.200 OA
ATOM     46  O41 QN3 d   1     -18.224  18.693  -9.490  0.00  0.00    -0.200 OA
BRANCH  44  47
ATOM     47  C26 QN3 d   1     -19.746  17.373  -7.862  0.00  0.00     0.101 A 
ATOM     48  C19 QN3 d   1     -20.968  17.669  -7.192  0.00  0.00    -0.059 A 
ATOM     49  C3  QN3 d   1     -21.969  16.672  -7.009  0.00  0.00    -0.081 A 
ATOM     50  H6  QN3 d   1     -21.139  18.671  -6.815  0.00  0.00     0.086 H 
ATOM     51  C4  QN3 d   1     -21.756  15.352  -7.502  0.00  0.00    -0.081 A 
ATOM     52  H7  QN3 d   1     -22.892  16.917  -6.495  0.00  0.00     0.083 H 
ATOM     53  C1  QN3 d   1     -20.542  15.036  -8.176  0.00  0.00    -0.060 A 
ATOM     54  H8  QN3 d   1     -22.516  14.591  -7.364  0.00  0.00     0.083 H 
ATOM     55  C17 QN3 d   1     -19.536  16.035  -8.360  0.00  0.00     0.057 A 
ATOM     56  H9  QN3 d   1     -20.380  14.032  -8.552  0.00  0.00     0.086 H 
ATOM     57 CL1  QN3 d   1     -18.079  15.579  -9.203  0.00  0.00    -0.083 Cl
ENDBRANCH  44  47
ENDBRANCH  43  44
BRANCH  43  58
ATOM     58  C7  QN3 d   1     -15.845  18.091  -7.974  0.00  0.00     0.029 C 
ATOM     59  H10 QN3 d   1     -16.149  17.640  -8.930  0.00  0.00     0.072 H 
ATOM     60  H11 QN3 d   1     -15.240  17.370  -7.404  0.00  0.00     0.072 H 
BRANCH  58  61
ATOM     61  C12 QN3 d   1     -14.958  19.325  -8.284  0.00  0.00    -0.040 A 
ATOM     62  C13 QN3 d   1     -15.498  20.447  -8.985  0.00  0.00    -0.075 A 
ATOM     63  C29 QN3 d   1     -14.686  21.577  -9.282  0.00  0.00    -0.082 A 
ATOM     64  H12 QN3 d   1     -16.537  20.437  -9.294  0.00  0.00     0.084 H 
ATOM     65  C31 QN3 d   1     -13.320  21.600  -8.878  0.00  0.00    -0.083 A 
ATOM     66  H13 QN3 d   1     -15.107  22.421  -9.816  0.00  0.00     0.083 H 
ATOM     67  C30 QN3 d   1     -12.771  20.489  -8.177  0.00  0.00    -0.082 A 
ATOM     68  H14 QN3 d   1     -12.701  22.461  -9.104  0.00  0.00     0.083 H 
ATOM     69  C14 QN3 d   1     -13.586  19.362  -7.884  0.00  0.00    -0.075 A 
ATOM     70  H15 QN3 d   1     -11.732  20.503  -7.867  0.00  0.00     0.083 H 
ATOM     71  H16 QN3 d   1     -13.162  18.519  -7.350  0.00  0.00     0.084 H 
ENDBRANCH  58  61
ENDBRANCH  43  58
ENDBRANCH   2  43
TORSDOF 10
