REMARK  6 active torsions:
REMARK  status: ('A' for Active; 'I' for Inactive)
REMARK    1  A    between atoms: C1_1  and  C2_4 
REMARK    2  A    between atoms: C2_4  and  C3_5 
REMARK    3  A    between atoms: C3_5  and  O7_6 
REMARK    4  A    between atoms: C3_5  and  C4_7 
REMARK    5  A    between atoms: C3_5  and  C6_11 
REMARK    6  A    between atoms: C4_7  and  C5_8 
ROOT
ATOM      1  C3  CIT d   1      16.437  -1.789  61.653  0.00  0.00     0.164 C 
ENDROOT
BRANCH   1   2
ATOM      2  C2  CIT d   1      17.003  -1.052  62.860  0.00  0.00     0.054 C 
ATOM      3  H1  CIT d   1      17.682  -0.251  62.532  0.00  0.00     0.054 H 
ATOM      4  H2  CIT d   1      16.187  -0.619  63.458  0.00  0.00     0.054 H 
BRANCH   2   5
ATOM      5  C1  CIT d   1      17.760  -2.079  63.675  0.00  0.00     0.176 C 
ATOM      6  O1  CIT d   1      17.136  -2.791  64.477  0.00  0.00    -0.648 OA
ATOM      7  O2  CIT d   1      19.003  -2.236  63.523  0.00  0.00    -0.648 OA
ENDBRANCH   2   5
ENDBRANCH   1   2
BRANCH   1   8
ATOM      8  O7  CIT d   1      15.585  -2.839  62.185  0.00  0.00    -0.378 OA
ATOM      9  H3  CIT d   1      15.205  -3.331  61.467  0.00  0.00     0.211 HD
ENDBRANCH   1   8
BRANCH   1  10
ATOM     10  C4  CIT d   1      17.514  -2.493  60.793  0.00  0.00     0.054 C 
ATOM     11  H4  CIT d   1      17.924  -3.341  61.361  0.00  0.00     0.054 H 
ATOM     12  H5  CIT d   1      18.318  -1.776  60.573  0.00  0.00     0.054 H 
BRANCH  10  13
ATOM     13  C5  CIT d   1      16.945  -3.010  59.481  0.00  0.00     0.176 C 
ATOM     14  O3  CIT d   1      17.708  -3.424  58.575  0.00  0.00    -0.648 OA
ATOM     15  O4  CIT d   1      15.703  -3.045  59.273  0.00  0.00    -0.648 OA
ENDBRANCH  10  13
ENDBRANCH   1  10
BRANCH   1  16
ATOM     16  C6  CIT d   1      15.600  -0.773  60.861  0.00  0.00     0.210 C 
ATOM     17  O5  CIT d   1      16.090   0.105  60.121  0.00  0.00    -0.646 OA
ATOM     18  O6  CIT d   1      14.376  -0.831  60.951  0.00  0.00    -0.646 OA
ENDBRANCH   1  16
TORSDOF 6
