REMARK  16 active torsions:
REMARK  status: ('A' for Active; 'I' for Inactive)
REMARK    1  A    between atoms: N4B_18  and  C1A_1 
REMARK    2  A    between atoms: C2A_2  and  O2A_8 
REMARK    3  A    between atoms: C3A_3  and  O3A_9 
REMARK    4  A    between atoms: C4A_4  and  O4A_10 
REMARK    5  A    between atoms: C5A_5  and  C6A_6 
REMARK    6  A    between atoms: C7A_7  and  O6A_11 
REMARK    7  A    between atoms: O4C_30  and  C1B_12 
REMARK    8  A    between atoms: C2B_13  and  O2B_19 
REMARK    9  A    between atoms: C3B_14  and  O3B_20 
REMARK   10  A    between atoms: C4B_15  and  N4B_18 
REMARK   11  A    between atoms: C5B_16  and  C6B_17 
REMARK   12  A    between atoms: C2C_23  and  O2C_28 
REMARK   13  A    between atoms: C3C_24  and  O3C_29 
REMARK   14  A    between atoms: C4C_25  and  O4C_30 
REMARK   15  A    between atoms: C5C_26  and  C6C_27 
REMARK   16  A    between atoms: C6C_27  and  O6C_32 
ROOT
ATOM      1  C1B QPU d   1     168.698  50.778  10.865  0.00  0.00     0.159 C 
ATOM      2  C2B QPU d   1     167.273  50.220  10.662  0.00  0.00     0.110 C 
ATOM      3  C3B QPU d   1     166.269  50.999  11.522  0.00  0.00     0.094 C 
ATOM      4  C4B QPU d   1     166.684  50.854  12.997  0.00  0.00     0.154 C 
ATOM      5  C5B QPU d   1     168.129  51.433  13.154  0.00  0.00     0.068 C 
ATOM      6  O5B QPU d   1     169.039  50.710  12.269  0.00  0.00    -0.351 OA
ATOM      7  H14 QPU d   1     169.409  50.165  10.291  0.00  0.00     0.133 H 
ATOM      8  H15 QPU d   1     167.255  49.165  10.972  0.00  0.00     0.094 H 
ATOM      9  H16 QPU d   1     166.281  52.061  11.237  0.00  0.00     0.090 H 
ATOM     10  H17 QPU d   1     166.687  49.791  13.280  0.00  0.00     0.092 H 
ATOM     11  H18 QPU d   1     168.117  52.497  12.875  0.00  0.00     0.086 H 
ENDROOT
BRANCH   4  12
ATOM     12  N4B QPU d   1     165.707  51.578  13.846  0.00  0.00    -0.057 N 
ATOM     13  H22 QPU d   1     166.153  52.383  14.256  0.00  0.00     0.278 HD
ATOM     14  H23 QPU d   1     164.929  51.877  13.280  0.00  0.00     0.278 HD
BRANCH  12  15
ATOM     15  C1A QPU d   1     165.218  50.687  14.921  0.00  0.00     0.154 C 
ATOM     16  C2A QPU d   1     163.732  50.296  14.711  0.00  0.00     0.092 C 
ATOM     17  C3A QPU d   1     162.863  51.552  14.841  0.00  0.00     0.087 C 
ATOM     18  H2  QPU d   1     163.435  49.580  15.491  0.00  0.00     0.090 H 
ATOM     19  C4A QPU d   1     162.680  51.827  16.340  0.00  0.00     0.068 C 
ATOM     20  H3  QPU d   1     163.372  52.402  14.363  0.00  0.00     0.091 H 
ATOM     21  C5A QPU d   1     164.077  51.978  16.981  0.00  0.00    -0.003 C 
ATOM     22  H4  QPU d   1     162.160  50.979  16.811  0.00  0.00     0.087 H 
ATOM     23  C7A QPU d   1     165.338  51.404  16.285  0.00  0.00     0.071 C 
ATOM     24  H5  QPU d   1     164.217  52.934  16.455  0.00  0.00     0.047 H 
ATOM     25  H9  QPU d   1     165.978  52.278  16.092  0.00  0.00     0.086 H 
ATOM     26  H1  QPU d   1     165.832  49.774  14.931  0.00  0.00     0.092 H 
BRANCH  16  27
ATOM     27  O2A QPU d   1     163.575  49.676  13.446  0.00  0.00    -0.391 OA
ATOM     28  H10 QPU d   1     163.827  50.286  12.762  0.00  0.00     0.210 HD
ENDBRANCH  16  27
BRANCH  17  29
ATOM     29  O3A QPU d   1     161.585  51.374  14.235  0.00  0.00    -0.390 OA
ATOM     30  H11 QPU d   1     161.697  51.204  13.307  0.00  0.00     0.210 HD
ENDBRANCH  17  29
BRANCH  19  31
ATOM     31  O4A QPU d   1     161.885  53.002  16.499  0.00  0.00    -0.392 OA
ATOM     32  H12 QPU d   1     161.037  52.867  16.092  0.00  0.00     0.210 HD
ENDBRANCH  19  31
BRANCH  21  33
ATOM     33  C6A QPU d   1     164.221  52.683  18.322  0.00  0.00    -0.068 C 
ATOM     34  H6  QPU d   1     165.280  52.695  18.618  0.00  0.00     0.028 H 
ATOM     35  H7  QPU d   1     163.634  52.148  19.083  0.00  0.00     0.028 H 
ATOM     36  H8  QPU d   1     163.853  53.716  18.235  0.00  0.00     0.028 H 
ENDBRANCH  21  33
BRANCH  23  37
ATOM     37  O6A QPU d   1     166.042  50.559  17.194  0.00  0.00    -0.393 OA
ATOM     38  H13 QPU d   1     166.814  50.209  16.766  0.00  0.00     0.210 HD
ENDBRANCH  23  37
ENDBRANCH  12  15
ENDBRANCH   4  12
BRANCH   3  39
ATOM     39  O3B QPU d   1     164.961  50.473  11.326  0.00  0.00    -0.391 OA
ATOM     40  H25 QPU d   1     164.345  50.948  11.871  0.00  0.00     0.210 HD
ENDBRANCH   3  39
BRANCH   5  41
ATOM     41  C6B QPU d   1     168.635  51.304  14.586  0.00  0.00    -0.050 C 
ATOM     42  H19 QPU d   1     169.651  51.721  14.655  0.00  0.00     0.031 H 
ATOM     43  H20 QPU d   1     168.654  50.242  14.874  0.00  0.00     0.031 H 
ATOM     44  H21 QPU d   1     167.966  51.855  15.262  0.00  0.00     0.031 H 
ENDBRANCH   5  41
BRANCH   2  45
ATOM     45  O2B QPU d   1     166.934  50.299   9.286  0.00  0.00    -0.388 OA
ATOM     46  H24 QPU d   1     166.939  51.209   9.012  0.00  0.00     0.210 HD
ENDBRANCH   2  45
BRANCH   1  47
ATOM     47  O4C QPU d   1     168.776  52.131  10.405  0.00  0.00    -0.348 OA
BRANCH  47  48
ATOM     48  C4C QPU d   1     169.378  52.382   9.100  0.00  0.00     0.095 C 
ATOM     49  C3C QPU d   1     168.401  53.175   8.238  0.00  0.00     0.089 C 
ATOM     50  C2C QPU d   1     169.045  53.409   6.861  0.00  0.00     0.083 C 
ATOM     51  H29 QPU d   1     168.182  54.142   8.716  0.00  0.00     0.091 H 
ATOM     52  C1C QPU d   1     170.357  54.204   7.028  0.00  0.00     0.046 C 
ATOM     53  H28 QPU d   1     169.268  52.435   6.401  0.00  0.00     0.090 H 
ATOM     54  O5C QPU d   1     171.260  53.503   7.924  0.00  0.00    -0.378 OA
ATOM     55  H26 QPU d   1     170.130  55.196   7.445  0.00  0.00     0.078 H 
ATOM     56  H27 QPU d   1     170.838  54.321   6.046  0.00  0.00     0.078 H 
ATOM     57  C5C QPU d   1     170.692  53.216   9.249  0.00  0.00     0.086 C 
ATOM     58  H31 QPU d   1     170.437  54.164   9.746  0.00  0.00     0.090 H 
ATOM     59  H30 QPU d   1     169.607  51.422   8.615  0.00  0.00     0.091 H 
BRANCH  49  60
ATOM     60  O3C QPU d   1     167.204  52.442   8.085  0.00  0.00    -0.390 OA
ATOM     61  H35 QPU d   1     166.818  52.286   8.939  0.00  0.00     0.210 HD
ENDBRANCH  49  60
BRANCH  50  62
ATOM     62  O2C QPU d   1     168.161  54.136   6.008  0.00  0.00    -0.391 OA
ATOM     63  H34 QPU d   1     167.357  53.643   5.892  0.00  0.00     0.210 HD
ENDBRANCH  50  62
BRANCH  57  64
ATOM     64  C6C QPU d   1     171.776  52.518  10.068  0.00  0.00     0.043 C 
ATOM     65  H32 QPU d   1     172.623  52.279   9.409  0.00  0.00     0.078 H 
ATOM     66  H33 QPU d   1     171.364  51.588  10.488  0.00  0.00     0.078 H 
BRANCH  64  67
ATOM     67  O6C QPU d   1     172.235  53.337  11.128  0.00  0.00    -0.398 OA
ATOM     68  H36 QPU d   1     172.906  52.875  11.616  0.00  0.00     0.209 HD
ENDBRANCH  64  67
ENDBRANCH  57  64
ENDBRANCH  47  48
ENDBRANCH   1  47
TORSDOF 16
