REMARK  7 active torsions:
REMARK  status: ('A' for Active; 'I' for Inactive)
REMARK    1  A    between atoms: P_1  and  O5'_5 
REMARK    2  A    between atoms: O5'_5  and  C5'_6 
REMARK    3  A    between atoms: C5'_6  and  C4'_7 
REMARK    4  A    between atoms: C3'_9  and  O3'_10 
REMARK    5  A    between atoms: C2'_11  and  O2'_12 
REMARK    6  A    between atoms: C1'_13  and  N9_14 
REMARK    7  A    between atoms: C6_18  and  N6_19 
ROOT
ATOM      1  C4' AMP d   1      32.457   3.139   9.617  0.00  0.00     0.089 C 
ATOM      2  O4' AMP d   1      32.724   1.921  10.295  0.00  0.00    -0.353 OA
ATOM      3  C3' AMP d   1      33.785   3.779   9.227  0.00  0.00     0.091 C 
ATOM      4  C2' AMP d   1      34.756   2.621   9.408  0.00  0.00     0.105 C 
ATOM      5  C1' AMP d   1      34.110   1.894  10.577  0.00  0.00     0.139 C 
ATOM      6  H3  AMP d   1      31.903   3.833  10.266  0.00  0.00     0.090 H 
ATOM      7  H4  AMP d   1      33.774   4.145   8.190  0.00  0.00     0.091 H 
ATOM      8  H6  AMP d   1      34.766   1.986   8.510  0.00  0.00     0.093 H 
ATOM      9  H8  AMP d   1      34.326   2.420  11.519  0.00  0.00     0.122 H 
ENDROOT
BRANCH   5  10
ATOM     10  N9  AMP d   1      34.573   0.495  10.684  0.00  0.00    -0.294 N 
ATOM     11  C8  AMP d   1      34.801  -0.367   9.658  0.00  0.00     0.071 A 
ATOM     12  N7  AMP d   1      35.233  -1.562  10.143  0.00  0.00    -0.236 NA
ATOM     13  H9  AMP d   1      34.659  -0.135   8.604  0.00  0.00     0.144 H 
ATOM     14  C5  AMP d   1      35.276  -1.448  11.497  0.00  0.00     0.149 A 
ATOM     15  C6  AMP d   1      35.652  -2.327  12.622  0.00  0.00     0.155 A 
ATOM     16  C4  AMP d   1      34.847  -0.083  11.853  0.00  0.00     0.167 A 
ATOM     17  N1  AMP d   1      35.569  -1.819  13.885  0.00  0.00    -0.222 NA
ATOM     18  C2  AMP d   1      35.160  -0.548  14.147  0.00  0.00     0.091 A 
ATOM     19  N3  AMP d   1      34.801   0.312  13.158  0.00  0.00    -0.222 NA
ATOM     20  H12 AMP d   1      35.119  -0.211  15.177  0.00  0.00     0.146 H 
BRANCH  15  21
ATOM     21  N6  AMP d   1      36.080  -3.596  12.350  0.00  0.00    -0.382 N 
ATOM     22  H10 AMP d   1      36.347  -4.226  13.120  0.00  0.00     0.157 HD
ATOM     23  H11 AMP d   1      36.135  -3.923  11.375  0.00  0.00     0.157 HD
ENDBRANCH  15  21
ENDBRANCH   5  10
BRANCH   4  24
ATOM     24  O2' AMP d   1      36.107   3.017   9.690  0.00  0.00    -0.388 OA
ATOM     25  H7  AMP d   1      36.126   3.523  10.494  0.00  0.00     0.210 HD
ENDBRANCH   4  24
BRANCH   1  26
ATOM     26  C5' AMP d   1      31.593   2.745   8.438  0.00  0.00     0.059 C 
ATOM     27  H1  AMP d   1      32.177   2.165   7.708  0.00  0.00     0.079 H 
ATOM     28  H2  AMP d   1      30.731   2.150   8.773  0.00  0.00     0.079 H 
BRANCH  26  29
ATOM     29  O5' AMP d   1      31.164   3.962   7.872  0.00  0.00    -0.280 OA
BRANCH  29  30
ATOM     30  P   AMP d   1      29.842   4.054   6.980  0.00  0.00     0.422 P 
ATOM     31  O1P AMP d   1      29.987   5.436   6.368  0.00  0.00    -0.617 OA
ATOM     32  O2P AMP d   1      30.009   2.977   5.921  0.00  0.00    -0.617 OA
ATOM     33  O3P AMP d   1      28.627   3.852   7.892  0.00  0.00    -0.617 OA
ENDBRANCH  29  30
ENDBRANCH  26  29
ENDBRANCH   1  26
BRANCH   3  34
ATOM     34  O3' AMP d   1      34.109   4.853  10.128  0.00  0.00    -0.390 OA
ATOM     35  H5  AMP d   1      34.938   5.241   9.872  0.00  0.00     0.210 HD
ENDBRANCH   3  34
TORSDOF 7
