REMARK  3 active torsions:
REMARK  status: ('A' for Active; 'I' for Inactive)
REMARK    1  A    between atoms: C2_2  and  C1_1 
REMARK       I    between atoms: N1_9  and  C2_2 
REMARK    2  A    between atoms: C4_3  and  C5_4 
REMARK    3  A    between atoms: C4_3  and  N1_9 
ROOT
ATOM      1  C2  OGA d   1      45.123  53.894  17.317  0.00  0.00     0.318 C 
ATOM      2  O2' OGA d   1      45.259  52.674  17.384  0.00  0.00    -0.261 OA
ATOM      3  N1  OGA d   1      45.552  54.705  18.264  0.00  0.00    -0.342 N 
ATOM      4  H3  OGA d   1      45.376  55.681  18.132  0.00  0.00     0.163 HD
ENDROOT
BRANCH   3   5
ATOM      5  C4  OGA d   1      46.256  54.327  19.484  0.00  0.00     0.075 C 
ATOM      6  H1  OGA d   1      45.608  53.677  20.090  0.00  0.00     0.080 H 
ATOM      7  H2  OGA d   1      47.175  53.784  19.219  0.00  0.00     0.080 H 
BRANCH   5   8
ATOM      8  C5  OGA d   1      46.618  55.561  20.287  0.00  0.00     0.191 C 
ATOM      9  O3  OGA d   1      47.071  55.328  21.439  0.00  0.00    -0.647 OA
ATOM     10  O4  OGA d   1      46.471  56.732  19.803  0.00  0.00    -0.647 OA
ENDBRANCH   5   8
ENDBRANCH   3   5
BRANCH   1  11
ATOM     11  C1  OGA d   1      44.420  54.549  16.210  0.00  0.00     0.270 C 
ATOM     12  O1  OGA d   1      44.196  55.774  16.316  0.00  0.00    -0.640 OA
ATOM     13  O2  OGA d   1      44.021  53.885  15.230  0.00  0.00    -0.640 OA
ENDBRANCH   1  11
TORSDOF 3
