REMARK  7 active torsions:
REMARK  status: ('A' for Active; 'I' for Inactive)
REMARK    1  A    between atoms: S5'_2  and  CS_1 
REMARK    2  A    between atoms: C5'_3  and  S5'_2 
REMARK    3  A    between atoms: C4'_4  and  C5'_3 
REMARK    4  A    between atoms: C2'_6  and  O2'_7 
REMARK    5  A    between atoms: C3'_8  and  O3'_9 
REMARK    6  A    between atoms: C1'_10  and  N9_11 
REMARK    7  A    between atoms: C6_15  and  N6_16 
ROOT
ATOM      1  C4' MTH d   1      12.104  -1.724   1.536  0.00  0.00     0.076 C 
ATOM      2  O4' MTH d   1      12.224  -0.313   1.231  0.00  0.00    -0.355 OA
ATOM      3  C2' MTH d   1       9.893  -0.937   1.107  0.00  0.00     0.105 C 
ATOM      4  C3' MTH d   1      10.652  -1.933   1.974  0.00  0.00     0.090 C 
ATOM      5  C1' MTH d   1      10.923   0.167   0.770  0.00  0.00     0.138 C 
ATOM      6  H6  MTH d   1      12.770  -1.997   2.368  0.00  0.00     0.088 H 
ATOM      7  H7  MTH d   1       9.565  -1.446   0.189  0.00  0.00     0.093 H 
ATOM      8  H9  MTH d   1      10.305  -2.958   1.776  0.00  0.00     0.091 H 
ATOM      9  H11 MTH d   1      10.653   1.102   1.282  0.00  0.00     0.122 H 
ENDROOT
BRANCH   5  10
ATOM     10  N9  MTH d   1      10.996   0.397  -0.659  0.00  0.00    -0.311 N 
ATOM     11  C8  MTH d   1      11.957   0.991  -1.284  0.00  0.00    -0.015 C 
ATOM     12  C7  MTH d   1      11.702   1.246  -2.490  0.00  0.00    -0.051 C 
ATOM     13  H12 MTH d   1      12.903   1.248  -0.810  0.00  0.00     0.111 H 
ATOM     14  C5  MTH d   1      10.781   0.473  -2.971  0.00  0.00     0.057 A 
ATOM     15  H13 MTH d   1      12.199   2.027  -3.063  0.00  0.00     0.087 H 
ATOM     16  C6  MTH d   1      10.260   0.254  -4.216  0.00  0.00     0.136 A 
ATOM     17  C4  MTH d   1      10.238  -0.043  -1.775  0.00  0.00     0.147 A 
ATOM     18  N1  MTH d   1       9.171  -0.572  -4.226  0.00  0.00    -0.224 NA
ATOM     19  C2  MTH d   1       8.633  -1.098  -3.073  0.00  0.00     0.091 A 
ATOM     20  N3  MTH d   1       9.162  -0.864  -1.832  0.00  0.00    -0.223 NA
ATOM     21  H16 MTH d   1       7.752  -1.725  -3.151  0.00  0.00     0.146 H 
BRANCH  16  22
ATOM     22  N6  MTH d   1      10.826   0.784  -5.336  0.00  0.00    -0.383 N 
ATOM     23  H14 MTH d   1      10.409   0.600  -6.260  0.00  0.00     0.157 HD
ATOM     24  H15 MTH d   1      11.671   1.368  -5.259  0.00  0.00     0.157 HD
ENDBRANCH  16  22
ENDBRANCH   5  10
BRANCH   3  25
ATOM     25  O2' MTH d   1       8.734  -0.316   1.714  0.00  0.00    -0.388 OA
ATOM     26  H8  MTH d   1       9.002   0.162   2.490  0.00  0.00     0.210 HD
ENDBRANCH   3  25
BRANCH   1  27
ATOM     27  C5' MTH d   1      12.534  -2.508   0.287  0.00  0.00     0.003 C 
ATOM     28  H4  MTH d   1      11.837  -2.251  -0.524  0.00  0.00     0.052 H 
ATOM     29  H5  MTH d   1      13.548  -2.177   0.018  0.00  0.00     0.052 H 
BRANCH  27  30
ATOM     30  S5' MTH d   1      12.566  -4.273   0.429  0.00  0.00    -0.171 SA
BRANCH  30  31
ATOM     31  CS  MTH d   1      14.196  -4.382   1.175  0.00  0.00    -0.035 C 
ATOM     32  H1  MTH d   1      14.443  -5.437   1.363  0.00  0.00     0.041 H 
ATOM     33  H2  MTH d   1      14.202  -3.829   2.126  0.00  0.00     0.041 H 
ATOM     34  H3  MTH d   1      14.941  -3.947   0.493  0.00  0.00     0.041 H 
ENDBRANCH  30  31
ENDBRANCH  27  30
ENDBRANCH   1  27
BRANCH   4  35
ATOM     35  O3' MTH d   1      10.589  -1.667   3.386  0.00  0.00    -0.390 OA
ATOM     36  H10 MTH d   1       9.683  -1.687   3.671  0.00  0.00     0.210 HD
ENDBRANCH   4  35
TORSDOF 7
