REMARK  7 active torsions:
REMARK  status: ('A' for Active; 'I' for Inactive)
REMARK    1  A    between atoms: P_1  and  O5'_5 
REMARK    2  A    between atoms: O5'_5  and  C5'_6 
REMARK    3  A    between atoms: C5'_6  and  C4'_7 
REMARK    4  A    between atoms: C3'_9  and  O3'_10 
REMARK    5  A    between atoms: C2'_11  and  O2'_12 
REMARK    6  A    between atoms: C1'_13  and  N1_14 
REMARK    7  A    between atoms: C3_18  and  C7_20 
ROOT
ATOM      1  C4' NCN d   1      16.155 -27.248  18.025  0.00  0.00     0.089 C 
ATOM      2  O4' NCN d   1      14.912 -27.924  18.101  0.00  0.00    -0.354 OA
ATOM      3  C3' NCN d   1      16.084 -26.250  19.212  0.00  0.00     0.091 C 
ATOM      4  C2' NCN d   1      14.618 -25.818  19.178  0.00  0.00     0.104 C 
ATOM      5  C1' NCN d   1      13.898 -26.961  18.414  0.00  0.00     0.133 C 
ATOM      6  H3  NCN d   1      16.228 -26.692  17.079  0.00  0.00     0.090 H 
ATOM      7  H4  NCN d   1      16.355 -26.732  20.163  0.00  0.00     0.091 H 
ATOM      8  H6  NCN d   1      14.216 -25.694  20.194  0.00  0.00     0.093 H 
ATOM      9  H8  NCN d   1      13.476 -26.567  17.478  0.00  0.00     0.122 H 
ENDROOT
BRANCH   5  10
ATOM     10  N1  NCN d   1      12.792 -27.520  19.213  0.00  0.00    -0.357 N 
ATOM     11  C6  NCN d   1      12.860 -28.800  19.741  0.00  0.00    -0.022 A 
ATOM     12  C5  NCN d   1      11.779 -29.317  20.491  0.00  0.00    -0.067 A 
ATOM     13  H9  NCN d   1      13.748 -29.409  19.578  0.00  0.00     0.111 H 
ATOM     14  C4  NCN d   1      10.628 -28.508  20.689  0.00  0.00    -0.067 A 
ATOM     15  H10 NCN d   1      11.828 -30.321  20.911  0.00  0.00     0.085 H 
ATOM     16  C3  NCN d   1      10.576 -27.193  20.140  0.00  0.00     0.036 A 
ATOM     17  H11 NCN d   1       9.785 -28.893  21.261  0.00  0.00     0.084 H 
ATOM     18  C2  NCN d   1      11.683 -26.737  19.407  0.00  0.00     0.027 A 
ATOM     19  H12 NCN d   1      11.306 -26.481  18.406  0.00  0.00     0.072 H 
ATOM     20  H13 NCN d   1      12.033 -25.825  19.912  0.00  0.00     0.072 H 
BRANCH  16  21
ATOM     21  C7  NCN d   1       9.365 -26.298  20.326  0.00  0.00     0.206 C 
ATOM     22  O7  NCN d   1       8.314 -26.737  21.010  0.00  0.00    -0.644 OA
ATOM     23  O8  NCN d   1       9.361 -25.190  19.837  0.00  0.00    -0.644 OA
ENDBRANCH  16  21
ENDBRANCH   5  10
BRANCH   4  24
ATOM     24  O2' NCN d   1      14.467 -24.592  18.424  0.00  0.00    -0.388 OA
ATOM     25  H7  NCN d   1      13.551 -24.339  18.413  0.00  0.00     0.210 HD
ENDBRANCH   4  24
BRANCH   1  26
ATOM     26  C5' NCN d   1      17.342 -28.231  18.092  0.00  0.00     0.059 C 
ATOM     27  H1  NCN d   1      17.686 -28.456  17.072  0.00  0.00     0.079 H 
ATOM     28  H2  NCN d   1      18.163 -27.773  18.663  0.00  0.00     0.079 H 
BRANCH  26  29
ATOM     29  O5' NCN d   1      16.939 -29.440  18.732  0.00  0.00    -0.280 OA
BRANCH  29  30
ATOM     30  P   NCN d   1      16.910 -29.643  20.325  0.00  0.00     0.422 P 
ATOM     31  O1P NCN d   1      16.525 -31.070  20.620  0.00  0.00    -0.617 OA
ATOM     32  O2P NCN d   1      15.822 -28.651  20.958  0.00  0.00    -0.617 OA
ATOM     33  O3P NCN d   1      18.356 -29.288  20.945  0.00  0.00    -0.617 OA
ENDBRANCH  29  30
ENDBRANCH  26  29
ENDBRANCH   1  26
BRANCH   3  34
ATOM     34  O3' NCN d   1      16.902 -25.104  18.987  0.00  0.00    -0.390 OA
ATOM     35  H5  NCN d   1      16.834 -24.517  19.731  0.00  0.00     0.210 HD
ENDBRANCH   3  34
TORSDOF 7
