REMARK  10 active torsions:
REMARK  status: ('A' for Active; 'I' for Inactive)
REMARK    1  A    between atoms: C25_3  and  N2_20 
REMARK    2  A    between atoms: O3_29  and  C7_5 
REMARK    3  A    between atoms: C11_7  and  C20_25 
REMARK    4  A    between atoms: O1_23  and  C13_10 
REMARK    5  A    between atoms: C18_18  and  O1_23 
REMARK    6  A    between atoms: N2_20  and  C19_19 
REMARK       I    between atoms: C20_25  and  N5_27 
REMARK    7  A    between atoms: N5_27  and  C22_28 
REMARK    8  A    between atoms: C23_30  and  O3_29 
REMARK    9  A    between atoms: C5_35  and  C23_30 
REMARK   10  A    between atoms: N1_31  and  C26_36 
ROOT
ATOM      1  N2  857 d   1      36.743  36.914  12.243  0.00  0.00    -0.320 N 
ATOM      2  H10 857 d   1      35.793  37.278  12.403  0.00  0.00     0.169 HD
ENDROOT
BRANCH   1   3
ATOM      3  C25 857 d   1      37.638  37.810  11.769  0.00  0.00     0.038 A 
ATOM      4  C24 857 d   1      38.797  37.469  10.955  0.00  0.00    -0.055 A 
ATOM      5  C21 857 d   1      39.645  38.489  10.442  0.00  0.00    -0.057 A 
ATOM      6  H2  857 d   1      39.015  36.429  10.739  0.00  0.00     0.087 H 
ATOM      7  C10 857 d   1      39.251  39.826  10.771  0.00  0.00     0.067 A 
ATOM      8  H1  857 d   1      40.524  38.271   9.846  0.00  0.00     0.086 H 
ATOM      9  C7  857 d   1      38.088  40.183  11.564  0.00  0.00     0.092 A 
ATOM     10 CL   857 d   1      40.245  41.085  10.165  0.00  0.00    -0.081 Cl
ATOM     11  C6  857 d   1      37.252  39.140  12.084  0.00  0.00    -0.023 A 
ATOM     12  H3  857 d   1      36.375  39.355  12.684  0.00  0.00     0.091 H 
BRANCH   9  13
ATOM     13  O3  857 d   1      37.766  41.507  11.839  0.00  0.00    -0.347 OA
BRANCH  13  14
ATOM     14  C23 857 d   1      36.976  41.719  13.024  0.00  0.00     0.053 C 
ATOM     15  H15 857 d   1      37.565  41.451  13.913  0.00  0.00     0.078 H 
ATOM     16  H16 857 d   1      36.071  41.095  12.981  0.00  0.00     0.078 H 
BRANCH  14  17
ATOM     17  C5  857 d   1      36.580  43.190  13.097  0.00  0.00     0.124 C 
ATOM     18  N1  857 d   1      37.560  43.947  13.955  0.00  0.00    -0.069 N 
ATOM     19  C2  857 d   1      38.476  44.873  13.225  0.00  0.00     0.084 C 
ATOM     20  H17 857 d   1      38.203  43.203  14.178  0.00  0.00     0.280 HD
ATOM     21  C3  857 d   1      38.068  44.703  11.773  0.00  0.00    -0.040 C 
ATOM     22  H18 857 d   1      39.527  44.585  13.374  0.00  0.00     0.076 H 
ATOM     23  H19 857 d   1      38.330  45.912  13.555  0.00  0.00     0.076 H 
ATOM     24  C4  857 d   1      36.828  43.845  11.742  0.00  0.00    -0.035 C 
ATOM     25  H20 857 d   1      38.877  44.213  11.212  0.00  0.00     0.035 H 
ATOM     26  H21 857 d   1      37.855  45.685  11.326  0.00  0.00     0.035 H 
ATOM     27  H22 857 d   1      36.953  43.060  10.981  0.00  0.00     0.036 H 
ATOM     28  H23 857 d   1      35.963  44.473  11.483  0.00  0.00     0.036 H 
ATOM     29  H24 857 d   1      35.541  43.301  13.441  0.00  0.00     0.087 H 
BRANCH  18  30
ATOM     30  C26 857 d   1      37.150  44.334  15.324  0.00  0.00     0.067 C 
ATOM     31  H25 857 d   1      37.973  44.876  15.814  0.00  0.00     0.068 H 
ATOM     32  H26 857 d   1      36.909  43.431  15.904  0.00  0.00     0.068 H 
ATOM     33  H27 857 d   1      36.264  44.983  15.272  0.00  0.00     0.068 H 
ENDBRANCH  18  30
ENDBRANCH  14  17
ENDBRANCH  13  14
ENDBRANCH   9  13
ENDBRANCH   1   3
BRANCH   1  34
ATOM     34  C19 857 d   1      36.934  35.519  12.555  0.00  0.00     0.252 A 
ATOM     35  N4  857 d   1      38.138  34.984  12.902  0.00  0.00    -0.206 NA
ATOM     36  C15 857 d   1      37.861  33.687  13.077  0.00  0.00     0.097 A 
ATOM     37  C14 857 d   1      38.695  32.626  13.522  0.00  0.00    -0.020 A 
ATOM     38  C16 857 d   1      36.447  33.494  12.846  0.00  0.00     0.108 A 
ATOM     39  C18 857 d   1      38.014  31.354  13.771  0.00  0.00     0.078 A 
ATOM     40  H7  857 d   1      39.762  32.750  13.667  0.00  0.00     0.091 H 
ATOM     41  C1  857 d   1      36.582  31.119  13.609  0.00  0.00    -0.048 A 
ATOM     42  C17 857 d   1      35.793  32.223  13.115  0.00  0.00    -0.045 A 
ATOM     43  H9  857 d   1      36.133  30.162  13.848  0.00  0.00     0.087 H 
ATOM     44  H8  857 d   1      34.728  32.106  12.947  0.00  0.00     0.088 H 
ATOM     45  O4  857 d   1      35.887  34.634  12.511  0.00  0.00    -0.276 OA
BRANCH  39  46
ATOM     46  O1  857 d   1      38.707  30.242  14.175  0.00  0.00    -0.311 OA
BRANCH  46  47
ATOM     47  C13 857 d   1      39.441  29.471  13.313  0.00  0.00     0.079 A 
ATOM     48  C12 857 d   1      40.195  28.527  14.056  0.00  0.00    -0.017 A 
ATOM     49  C11 857 d   1      40.957  27.653  13.256  0.00  0.00     0.126 A 
ATOM     50  H4  857 d   1      40.186  28.482  15.139  0.00  0.00     0.091 H 
ATOM     51  N3  857 d   1      40.948  27.780  11.882  0.00  0.00    -0.255 NA
ATOM     52  C9  857 d   1      40.250  28.663  11.130  0.00  0.00     0.006 A 
ATOM     53  C8  857 d   1      39.436  29.568  11.862  0.00  0.00    -0.033 A 
ATOM     54  H6  857 d   1      40.308  28.678  10.048  0.00  0.00     0.114 H 
ATOM     55  H5  857 d   1      38.829  30.309  11.354  0.00  0.00     0.090 H 
BRANCH  49  56
ATOM     56  C20 857 d   1      41.687  26.581  13.927  0.00  0.00     0.269 C 
ATOM     57  O2  857 d   1      41.655  26.429  15.143  0.00  0.00    -0.266 OA
ATOM     58  N5  857 d   1      42.411  25.757  13.144  0.00  0.00    -0.360 N 
ATOM     59  H11 857 d   1      42.450  25.846  12.149  0.00  0.00     0.162 HD
BRANCH  58  60
ATOM     60  C22 857 d   1      43.140  24.714  13.886  0.00  0.00    -0.018 C 
ATOM     61  H12 857 d   1      43.703  24.087  13.179  0.00  0.00     0.056 H 
ATOM     62  H13 857 d   1      42.424  24.090  14.440  0.00  0.00     0.056 H 
ATOM     63  H14 857 d   1      43.838  25.187  14.593  0.00  0.00     0.056 H 
ENDBRANCH  58  60
ENDBRANCH  49  56
ENDBRANCH  46  47
ENDBRANCH  39  46
ENDBRANCH   1  34
TORSDOF 10
