REMARK  7 active torsions:
REMARK  status: ('A' for Active; 'I' for Inactive)
REMARK    1  A    between atoms: O6_1  and  C6_2 
REMARK    2  A    between atoms: C6_2  and  C5_3 
REMARK    3  A    between atoms: C4_5  and  O4_6 
REMARK    4  A    between atoms: C3_7  and  O3_8 
REMARK    5  A    between atoms: O3_8  and  C7_9 
REMARK    6  A    between atoms: C2_10  and  O2_11 
REMARK    7  A    between atoms: C1_12  and  O1_13 
ROOT
ATOM      1  C5  3MG d   1      -6.257  20.710 -15.845  0.00  0.00     0.089 C 
ATOM      2  O5  3MG d   1      -6.245  19.417 -15.225  0.00  0.00    -0.349 OA
ATOM      3  C4  3MG d   1      -7.590  20.991 -16.540  0.00  0.00     0.090 C 
ATOM      4  C3  3MG d   1      -7.917  19.849 -17.504  0.00  0.00     0.094 C 
ATOM      5  C2  3MG d   1      -7.895  18.515 -16.759  0.00  0.00     0.110 C 
ATOM      6  C1  3MG d   1      -6.517  18.324 -16.112  0.00  0.00     0.156 C 
ATOM      7  H4  3MG d   1      -5.447  20.766 -16.587  0.00  0.00     0.090 H 
ATOM      8  H5  3MG d   1      -8.383  21.040 -15.779  0.00  0.00     0.091 H 
ATOM      9  H7  3MG d   1      -7.141  19.822 -18.283  0.00  0.00     0.091 H 
ATOM     10  H11 3MG d   1      -8.663  18.525 -15.972  0.00  0.00     0.094 H 
ATOM     11  H13 3MG d   1      -5.759  18.308 -16.909  0.00  0.00     0.133 H 
ENDROOT
BRANCH   1  12
ATOM     12  C6  3MG d   1      -6.034  21.743 -14.759  0.00  0.00     0.043 C 
ATOM     13  H2  3MG d   1      -6.733  22.581 -14.899  0.00  0.00     0.078 H 
ATOM     14  H3  3MG d   1      -6.204  21.284 -13.774  0.00  0.00     0.078 H 
BRANCH  12  15
ATOM     15  O6  3MG d   1      -4.702  22.220 -14.836  0.00  0.00    -0.398 OA
ATOM     16  H1  3MG d   1      -4.559  22.868 -14.156  0.00  0.00     0.209 HD
ENDBRANCH  12  15
ENDBRANCH   1  12
BRANCH   3  17
ATOM     17  O4  3MG d   1      -7.529  22.259 -17.212  0.00  0.00    -0.390 OA
ATOM     18  H6  3MG d   1      -8.359  22.429 -17.642  0.00  0.00     0.210 HD
ENDBRANCH   3  17
BRANCH   6  19
ATOM     19  O1  3MG d   1      -6.427  17.100 -15.368  0.00  0.00    -0.369 OA
ATOM     20  H14 3MG d   1      -5.553  17.014 -15.006  0.00  0.00     0.212 HD
ENDBRANCH   6  19
BRANCH   4  21
ATOM     21  O3  3MG d   1      -9.178  20.061 -18.143  0.00  0.00    -0.385 OA
BRANCH  21  22
ATOM     22  C7  3MG d   1      -9.043  20.256 -19.559  0.00  0.00     0.005 C 
ATOM     23  H8  3MG d   1     -10.037  20.414 -20.004  0.00  0.00     0.066 H 
ATOM     24  H9  3MG d   1      -8.578  19.367 -20.009  0.00  0.00     0.066 H 
ATOM     25  H10 3MG d   1      -8.412  21.136 -19.749  0.00  0.00     0.066 H 
ENDBRANCH  21  22
ENDBRANCH   4  21
BRANCH   5  26
ATOM     26  O2  3MG d   1      -8.179  17.451 -17.672  0.00  0.00    -0.388 OA
ATOM     27  H12 3MG d   1      -8.165  16.623 -17.206  0.00  0.00     0.210 HD
ENDBRANCH   5  26
TORSDOF 7
