REMARK  11 active torsions:
REMARK  status: ('A' for Active; 'I' for Inactive)
REMARK    1  A    between atoms: C1_1  and  C2_2 
REMARK    2  A    between atoms: C2_2  and  O2_15 
REMARK    3  A    between atoms: C4_4  and  O4_16 
REMARK    4  A    between atoms: C5_5  and  N5_12 
REMARK    5  A    between atoms: C6_6  and  C7_7 
REMARK    6  A    between atoms: C7_7  and  O7_18 
REMARK    7  A    between atoms: C7_7  and  C8_8 
REMARK    8  A    between atoms: C8_8  and  O8_19 
REMARK    9  A    between atoms: C8_8  and  C9_9 
REMARK   10  A    between atoms: C9_9  and  O9_20 
REMARK       I    between atoms: N5_12  and  C10_10 
REMARK   11  A    between atoms: C10_10  and  C11_11 
ROOT
ATOM      1  C2  SIA d   1      24.586  18.664  64.529  0.00  0.00     0.256 C 
ATOM      2  C3  SIA d   1      23.607  17.605  63.920  0.00  0.00     0.023 C 
ATOM      3  C4  SIA d   1      24.219  16.805  62.791  0.00  0.00     0.063 C 
ATOM      4  C5  SIA d   1      25.757  16.831  62.830  0.00  0.00     0.064 C 
ATOM      5  C6  SIA d   1      26.274  18.228  62.674  0.00  0.00     0.091 C 
ATOM      6  O6  SIA d   1      25.578  19.104  63.568  0.00  0.00    -0.336 OA
ATOM      7  H1  SIA d   1      22.720  18.130  63.535  0.00  0.00     0.045 H 
ATOM      8  H2  SIA d   1      23.305  16.910  64.717  0.00  0.00     0.045 H 
ATOM      9  H3  SIA d   1      23.888  17.249  61.841  0.00  0.00     0.086 H 
ATOM     10  H4  SIA d   1      26.126  16.381  63.764  0.00  0.00     0.080 H 
ATOM     11  H5  SIA d   1      26.089  18.545  61.637  0.00  0.00     0.090 H 
ENDROOT
BRANCH   5  12
ATOM     12  C7  SIA d   1      27.777  18.375  62.966  0.00  0.00     0.089 C 
ATOM     13  H6  SIA d   1      28.350  17.729  62.284  0.00  0.00     0.091 H 
BRANCH  12  14
ATOM     14  O7  SIA d   1      28.006  17.988  64.275  0.00  0.00    -0.390 OA
ATOM     15  H16 SIA d   1      27.504  18.543  64.861  0.00  0.00     0.210 HD
ENDBRANCH  12  14
BRANCH  12  16
ATOM     16  C8  SIA d   1      28.218  19.847  62.767  0.00  0.00     0.083 C 
ATOM     17  H7  SIA d   1      27.644  20.537  63.403  0.00  0.00     0.090 H 
BRANCH  16  18
ATOM     18  O8  SIA d   1      27.929  20.043  61.408  0.00  0.00    -0.391 OA
ATOM     19  H17 SIA d   1      28.162  20.930  61.161  0.00  0.00     0.210 HD
ENDBRANCH  16  18
BRANCH  16  20
ATOM     20  C9  SIA d   1      29.733  19.988  63.074  0.00  0.00     0.043 C 
ATOM     21  H8  SIA d   1      29.985  19.441  63.994  0.00  0.00     0.078 H 
ATOM     22  H9  SIA d   1      29.998  21.049  63.194  0.00  0.00     0.078 H 
BRANCH  20  23
ATOM     23  O9  SIA d   1      30.407  19.451  62.006  0.00  0.00    -0.398 OA
ATOM     24  H18 SIA d   1      30.177  19.927  61.216  0.00  0.00     0.209 HD
ENDBRANCH  20  23
ENDBRANCH  16  20
ENDBRANCH  12  16
ENDBRANCH   5  12
BRANCH   4  25
ATOM     25  N5  SIA d   1      26.235  16.089  61.645  0.00  0.00    -0.352 N 
ATOM     26  C10 SIA d   1      26.990  15.005  61.783  0.00  0.00     0.214 C 
ATOM     27  O10 SIA d   1      27.303  14.551  62.885  0.00  0.00    -0.274 OA
ATOM     28  H13 SIA d   1      25.988  16.406  60.730  0.00  0.00     0.163 HD
BRANCH  26  29
ATOM     29  C11 SIA d   1      27.453  14.273  60.588  0.00  0.00    -0.003 C 
ATOM     30  H10 SIA d   1      28.061  13.411  60.899  0.00  0.00     0.040 H 
ATOM     31  H11 SIA d   1      28.060  14.942  59.960  0.00  0.00     0.040 H 
ATOM     32  H12 SIA d   1      26.583  13.921  60.014  0.00  0.00     0.040 H 
ENDBRANCH  26  29
ENDBRANCH   4  25
BRANCH   3  33
ATOM     33  O4  SIA d   1      23.799  15.495  62.836  0.00  0.00    -0.393 OA
ATOM     34  H15 SIA d   1      24.195  15.012  62.120  0.00  0.00     0.210 HD
ENDBRANCH   3  33
BRANCH   1  35
ATOM     35  C1  SIA d   1      23.728  19.837  64.984  0.00  0.00     0.238 C 
ATOM     36  O1B SIA d   1      24.339  20.924  64.993  0.00  0.00    -0.644 OA
ATOM     37  O1A SIA d   1      22.517  19.715  65.288  0.00  0.00    -0.644 OA
ENDBRANCH   1  35
BRANCH   1  38
ATOM     38  O2  SIA d   1      25.289  18.140  65.650  0.00  0.00    -0.357 OA
ATOM     39  H14 SIA d   1      25.830  17.411  65.370  0.00  0.00     0.213 HD
ENDBRANCH   1  38
TORSDOF 11
