REMARK  10 active torsions:
REMARK  status: ('A' for Active; 'I' for Inactive)
REMARK    1  A    between atoms: C1_1  and  C2_2 
REMARK    2  A    between atoms: C4_4  and  O4_15 
REMARK    3  A    between atoms: C5_5  and  N5_12 
REMARK    4  A    between atoms: C6_6  and  C7_7 
REMARK    5  A    between atoms: C7_7  and  O7_17 
REMARK    6  A    between atoms: C7_7  and  C8_8 
REMARK    7  A    between atoms: C8_8  and  O8_18 
REMARK    8  A    between atoms: C8_8  and  C9_9 
REMARK    9  A    between atoms: C9_9  and  O9_19 
REMARK       I    between atoms: N5_12  and  C10_10 
REMARK   10  A    between atoms: C10_10  and  C11_11 
ROOT
ATOM      1  C2  DAN d   1      24.248  18.704  64.104  0.00  0.00     0.144 C 
ATOM      2  C3  DAN d   1      23.593  17.584  63.650  0.00  0.00    -0.035 C 
ATOM      3  C4  DAN d   1      24.269  16.616  62.675  0.00  0.00     0.076 C 
ATOM      4  C5  DAN d   1      25.849  16.735  62.785  0.00  0.00     0.068 C 
ATOM      5  C6  DAN d   1      26.232  18.204  62.721  0.00  0.00     0.094 C 
ATOM      6  O6  DAN d   1      25.637  18.868  63.812  0.00  0.00    -0.335 OA
ATOM      7  H1  DAN d   1      22.578  17.382  63.989  0.00  0.00     0.085 H 
ATOM      8  H2  DAN d   1      23.965  16.847  61.643  0.00  0.00     0.092 H 
ATOM      9  H3  DAN d   1      26.222  16.283  63.716  0.00  0.00     0.081 H 
ATOM     10  H4  DAN d   1      25.866  18.631  61.776  0.00  0.00     0.091 H 
ENDROOT
BRANCH   5  11
ATOM     11  C7  DAN d   1      27.760  18.413  62.816  0.00  0.00     0.089 C 
ATOM     12  H5  DAN d   1      28.258  17.855  62.009  0.00  0.00     0.091 H 
BRANCH  11  13
ATOM     13  O7  DAN d   1      28.169  17.914  64.097  0.00  0.00    -0.390 OA
ATOM     14  H14 DAN d   1      27.719  18.396  64.781  0.00  0.00     0.210 HD
ENDBRANCH  11  13
BRANCH  11  15
ATOM     15  C8  DAN d   1      28.160  19.892  62.731  0.00  0.00     0.083 C 
ATOM     16  H6  DAN d   1      27.580  20.476  63.460  0.00  0.00     0.090 H 
BRANCH  15  17
ATOM     17  O8  DAN d   1      27.835  20.249  61.453  0.00  0.00    -0.391 OA
ATOM     18  H15 DAN d   1      28.323  19.710  60.841  0.00  0.00     0.210 HD
ENDBRANCH  15  17
BRANCH  15  19
ATOM     19  C9  DAN d   1      29.691  20.165  62.968  0.00  0.00     0.043 C 
ATOM     20  H7  DAN d   1      29.983  19.834  63.975  0.00  0.00     0.078 H 
ATOM     21  H8  DAN d   1      29.906  21.238  62.858  0.00  0.00     0.078 H 
BRANCH  19  22
ATOM     22  O9  DAN d   1      30.391  19.429  61.994  0.00  0.00    -0.398 OA
ATOM     23  H16 DAN d   1      30.126  19.719  61.129  0.00  0.00     0.209 HD
ENDBRANCH  19  22
ENDBRANCH  15  19
ENDBRANCH  11  15
ENDBRANCH   5  11
BRANCH   4  24
ATOM     24  N5  DAN d   1      26.371  16.014  61.596  0.00  0.00    -0.351 N 
ATOM     25  C10 DAN d   1      27.116  14.918  61.687  0.00  0.00     0.214 C 
ATOM     26  O10 DAN d   1      27.525  14.491  62.770  0.00  0.00    -0.274 OA
ATOM     27  H12 DAN d   1      26.152  16.369  60.687  0.00  0.00     0.163 HD
BRANCH  25  28
ATOM     28  C11 DAN d   1      27.565  14.204  60.400  0.00  0.00    -0.003 C 
ATOM     29  H9  DAN d   1      28.169  13.323  60.661  0.00  0.00     0.040 H 
ATOM     30  H10 DAN d   1      28.167  14.893  59.789  0.00  0.00     0.040 H 
ATOM     31  H11 DAN d   1      26.680  13.886  59.829  0.00  0.00     0.040 H 
ENDBRANCH  25  28
ENDBRANCH   4  24
BRANCH   3  32
ATOM     32  O4  DAN d   1      23.821  15.341  63.024  0.00  0.00    -0.389 OA
ATOM     33  H13 DAN d   1      22.875  15.306  62.943  0.00  0.00     0.210 HD
ENDBRANCH   3  32
BRANCH   1  34
ATOM     34  C1  DAN d   1      23.577  19.704  64.856  0.00  0.00     0.233 C 
ATOM     35  O1B DAN d   1      22.378  19.599  65.209  0.00  0.00    -0.642 OA
ATOM     36  O1A DAN d   1      24.261  20.692  65.185  0.00  0.00    -0.642 OA
ENDBRANCH   1  34
TORSDOF 10
