REMARK  10 active torsions:
REMARK  status: ('A' for Active; 'I' for Inactive)
REMARK    1  A    between atoms: C1_1  and  C2_4 
REMARK    2  A    between atoms: C4_6  and  N4_7 
REMARK    3  A    between atoms: C5_8  and  N5_9 
REMARK       I    between atoms: N5_9  and  C10_10 
REMARK    4  A    between atoms: C10_10  and  C11_12 
REMARK    5  A    between atoms: C6_13  and  C7_15 
REMARK    6  A    between atoms: C7_15  and  C8_17 
REMARK    7  A    between atoms: C7_15  and  O7_16 
REMARK    8  A    between atoms: C8_17  and  C9_19 
REMARK    9  A    between atoms: C8_17  and  O8_18 
REMARK   10  A    between atoms: C9_19  and  O9_20 
ROOT
ATOM      1  C2  4AM d   1      24.187  18.807  64.073  0.00  0.00     0.144 C 
ATOM      2  C3  4AM d   1      23.497  17.780  63.471  0.00  0.00    -0.033 C 
ATOM      3  C4  4AM d   1      24.187  16.694  62.639  0.00  0.00     0.141 C 
ATOM      4  C5  4AM d   1      25.700  16.750  62.831  0.00  0.00     0.070 C 
ATOM      5  C6  4AM d   1      26.149  18.214  62.817  0.00  0.00     0.094 C 
ATOM      6  O6  4AM d   1      25.578  18.842  63.941  0.00  0.00    -0.335 OA
ATOM      7  H1  4AM d   1      22.416  17.737  63.591  0.00  0.00     0.084 H 
ATOM      8  H2  4AM d   1      23.960  16.842  61.573  0.00  0.00     0.093 H 
ATOM      9  H6  4AM d   1      25.984  16.276  63.782  0.00  0.00     0.080 H 
ATOM     10  H11 4AM d   1      25.794  18.695  61.894  0.00  0.00     0.091 H 
ENDROOT
BRANCH   5  11
ATOM     11  C7  4AM d   1      27.669  18.356  62.904  0.00  0.00     0.089 C 
ATOM     12  H12 4AM d   1      28.125  17.868  62.030  0.00  0.00     0.091 H 
BRANCH  11  13
ATOM     13  C8  4AM d   1      28.052  19.827  62.904  0.00  0.00     0.083 C 
ATOM     14  H14 4AM d   1      27.469  20.378  63.657  0.00  0.00     0.090 H 
BRANCH  13  15
ATOM     15  C9  4AM d   1      29.523  20.106  63.100  0.00  0.00     0.043 C 
ATOM     16  H16 4AM d   1      29.802  19.848  64.132  0.00  0.00     0.078 H 
ATOM     17  H17 4AM d   1      29.711  21.176  62.926  0.00  0.00     0.078 H 
BRANCH  15  18
ATOM     18  O9  4AM d   1      30.294  19.368  62.230  0.00  0.00    -0.398 OA
ATOM     19  H18 4AM d   1      30.061  19.590  61.336  0.00  0.00     0.209 HD
ENDBRANCH  15  18
ENDBRANCH  13  15
BRANCH  13  20
ATOM     20  O8  4AM d   1      27.735  20.200  61.632  0.00  0.00    -0.391 OA
ATOM     21  H15 4AM d   1      28.255  19.697  61.017  0.00  0.00     0.210 HD
ENDBRANCH  13  20
ENDBRANCH  11  13
BRANCH  11  22
ATOM     22  O7  4AM d   1      28.141  17.731  64.078  0.00  0.00    -0.390 OA
ATOM     23  H13 4AM d   1      29.087  17.807  64.117  0.00  0.00     0.210 HD
ENDBRANCH  11  22
ENDBRANCH   5  11
BRANCH   4  24
ATOM     24  N5  4AM d   1      26.327  16.038  61.693  0.00  0.00    -0.352 N 
ATOM     25  C10 4AM d   1      26.921  14.861  61.882  0.00  0.00     0.214 C 
ATOM     26  O10 4AM d   1      27.019  14.329  62.995  0.00  0.00    -0.274 OA
ATOM     27  H7  4AM d   1      26.304  16.443  60.779  0.00  0.00     0.163 HD
BRANCH  25  28
ATOM     28  C11 4AM d   1      27.530  14.163  60.659  0.00  0.00    -0.003 C 
ATOM     29  H8  4AM d   1      27.982  13.209  60.968  0.00  0.00     0.040 H 
ATOM     30  H9  4AM d   1      28.303  14.808  60.216  0.00  0.00     0.040 H 
ATOM     31  H10 4AM d   1      26.742  13.972  59.916  0.00  0.00     0.040 H 
ENDBRANCH  25  28
ENDBRANCH   4  24
BRANCH   3  32
ATOM     32  N4  4AM d   1      23.637  15.422  63.082  0.00  0.00    -0.070 N 
ATOM     33  H3  4AM d   1      22.639  15.420  62.941  0.00  0.00     0.275 HD
ATOM     34  H4  4AM d   1      23.838  15.292  64.061  0.00  0.00     0.275 HD
ATOM     35  H5  4AM d   1      24.053  14.673  62.551  0.00  0.00     0.275 HD
ENDBRANCH   3  32
BRANCH   1  36
ATOM     36  C1  4AM d   1      23.547  19.823  64.794  0.00  0.00     0.233 C 
ATOM     37  O1B 4AM d   1      22.320  19.788  65.025  0.00  0.00    -0.642 OA
ATOM     38  O1A 4AM d   1      24.239  20.800  65.125  0.00  0.00    -0.642 OA
ENDBRANCH   1  36
TORSDOF 10
