REMARK  10 active torsions:
REMARK  status: ('A' for Active; 'I' for Inactive)
REMARK    1  A    between atoms: C1_1  and  C2_2 
REMARK    2  A    between atoms: C4_4  and  N4_13 
REMARK    3  A    between atoms: C5_5  and  N5_12 
REMARK    4  A    between atoms: C6_6  and  C7_7 
REMARK    5  A    between atoms: C7_7  and  O7_20 
REMARK    6  A    between atoms: C7_7  and  C8_8 
REMARK    7  A    between atoms: C8_8  and  O8_21 
REMARK    8  A    between atoms: C8_8  and  C9_9 
REMARK    9  A    between atoms: C9_9  and  O9_22 
REMARK       I    between atoms: N5_12  and  C10_10 
REMARK   10  A    between atoms: C10_10  and  C11_11 
REMARK       I    between atoms: N4_13  and  C12_14 
REMARK       I    between atoms: C12_14  and  N6_15 
ROOT
ATOM      1  C2  GNA d   1      24.303  18.762  64.084  0.00  0.00     0.144 C 
ATOM      2  C3  GNA d   1      23.674  17.624  63.569  0.00  0.00    -0.040 C 
ATOM      3  C4  GNA d   1      24.348  16.653  62.602  0.00  0.00     0.068 C 
ATOM      4  C5  GNA d   1      25.865  16.736  62.842  0.00  0.00     0.063 C 
ATOM      5  C6  GNA d   1      26.300  18.203  62.787  0.00  0.00     0.094 C 
ATOM      6  O6  GNA d   1      25.683  18.910  63.882  0.00  0.00    -0.335 OA
ATOM      7  H1  GNA d   1      22.649  17.419  63.874  0.00  0.00     0.084 H 
ATOM      8  H2  GNA d   1      24.143  16.986  61.574  0.00  0.00     0.083 H 
ATOM      9  H3  GNA d   1      26.126  16.294  63.815  0.00  0.00     0.080 H 
ATOM     10  H4  GNA d   1      25.974  18.640  61.831  0.00  0.00     0.091 H 
ENDROOT
BRANCH   5  11
ATOM     11  C7  GNA d   1      27.816  18.348  62.915  0.00  0.00     0.089 C 
ATOM     12  H5  GNA d   1      28.298  17.897  62.035  0.00  0.00     0.091 H 
BRANCH  11  13
ATOM     13  O7  GNA d   1      28.232  17.694  64.055  0.00  0.00    -0.390 OA
ATOM     14  H18 GNA d   1      27.807  18.079  64.812  0.00  0.00     0.210 HD
ENDBRANCH  11  13
BRANCH  11  15
ATOM     15  C8  GNA d   1      28.225  19.838  63.009  0.00  0.00     0.083 C 
ATOM     16  H6  GNA d   1      27.711  20.307  63.861  0.00  0.00     0.090 H 
BRANCH  15  17
ATOM     17  O8  GNA d   1      27.818  20.371  61.823  0.00  0.00    -0.391 OA
ATOM     18  H19 GNA d   1      28.257  19.924  61.109  0.00  0.00     0.210 HD
ENDBRANCH  15  17
BRANCH  15  19
ATOM     19  C9  GNA d   1      29.732  20.125  63.109  0.00  0.00     0.043 C 
ATOM     20  H7  GNA d   1      30.093  19.807  64.098  0.00  0.00     0.078 H 
ATOM     21  H8  GNA d   1      29.901  21.205  62.987  0.00  0.00     0.078 H 
BRANCH  19  22
ATOM     22  O9  GNA d   1      30.429  19.452  62.141  0.00  0.00    -0.398 OA
ATOM     23  H20 GNA d   1      30.124  19.726  61.284  0.00  0.00     0.209 HD
ENDBRANCH  19  22
ENDBRANCH  15  19
ENDBRANCH  11  15
ENDBRANCH   5  11
BRANCH   4  24
ATOM     24  N5  GNA d   1      26.540  16.010  61.740  0.00  0.00    -0.352 N 
ATOM     25  C10 GNA d   1      27.031  14.784  61.900  0.00  0.00     0.214 C 
ATOM     26  O10 GNA d   1      26.992  14.177  62.971  0.00  0.00    -0.274 OA
ATOM     27  H12 GNA d   1      26.629  16.455  60.849  0.00  0.00     0.163 HD
BRANCH  25  28
ATOM     28  C11 GNA d   1      27.680  14.203  60.639  0.00  0.00    -0.003 C 
ATOM     29  H9  GNA d   1      28.059  13.193  60.854  0.00  0.00     0.040 H 
ATOM     30  H10 GNA d   1      28.514  14.848  60.325  0.00  0.00     0.040 H 
ATOM     31  H11 GNA d   1      26.933  14.151  59.833  0.00  0.00     0.040 H 
ENDBRANCH  25  28
ENDBRANCH   4  24
BRANCH   3  32
ATOM     32  N4  GNA d   1      23.824  15.299  62.734  0.00  0.00    -0.217 N 
ATOM     33  C12 GNA d   1      23.770  14.374  61.768  0.00  0.00     0.665 C 
ATOM     34  N7  GNA d   1      23.643  13.092  62.102  0.00  0.00    -0.235 N 
ATOM     35  N6  GNA d   1      23.875  14.712  60.478  0.00  0.00    -0.235 N 
ATOM     36  H16 GNA d   1      23.562  12.824  63.093  0.00  0.00     0.174 HD
ATOM     37  H17 GNA d   1      23.626  12.368  61.369  0.00  0.00     0.174 HD
ATOM     38  H14 GNA d   1      23.831  13.985  59.750  0.00  0.00     0.174 HD
ATOM     39  H15 GNA d   1      24.000  15.699  60.213  0.00  0.00     0.174 HD
ATOM     40  H13 GNA d   1      23.461  15.028  63.659  0.00  0.00     0.178 HD
ENDBRANCH   3  32
BRANCH   1  41
ATOM     41  C1  GNA d   1      23.590  19.743  64.785  0.00  0.00     0.233 C 
ATOM     42  O1B GNA d   1      22.374  19.611  65.073  0.00  0.00    -0.642 OA
ATOM     43  O1A GNA d   1      24.194  20.796  65.046  0.00  0.00    -0.642 OA
ENDBRANCH   1  41
TORSDOF 10
