REMARK  9 active torsions:
REMARK  status: ('A' for Active; 'I' for Inactive)
REMARK    1  A    between atoms: C1_1  and  C2_4 
REMARK    2  A    between atoms: C4_6  and  NE_21 
REMARK    3  A    between atoms: C5_7  and  N5_8 
REMARK       I    between atoms: N5_8  and  C10_9 
REMARK    4  A    between atoms: C10_9  and  C11_11 
REMARK    5  A    between atoms: C6_12  and  C7_14 
REMARK       I    between atoms: C7_14  and  N8_16 
REMARK    6  A    between atoms: N8_16  and  C9_18 
REMARK    7  A    between atoms: N8_16  and  C81_17 
REMARK    8  A    between atoms: C9_18  and  C91_19 
REMARK    9  A    between atoms: C91_19  and  C92_20 
REMARK       I    between atoms: NE_21  and  CZ_22 
REMARK       I    between atoms: CZ_22  and  NH1_23 
ROOT
ATOM      1  C2  G20 d   1      24.430  18.879  64.220  0.00  0.00     0.144 C 
ATOM      2  C3  G20 d   1      23.967  17.697  63.926  0.00  0.00    -0.040 C 
ATOM      3  C4  G20 d   1      24.592  16.730  62.821  0.00  0.00     0.068 C 
ATOM      4  C5  G20 d   1      25.983  16.876  62.786  0.00  0.00     0.069 C 
ATOM      5  C6  G20 d   1      26.277  18.367  62.827  0.00  0.00     0.143 C 
ATOM      6  O6  G20 d   1      25.739  18.935  63.984  0.00  0.00    -0.328 OA
ATOM      7  H1  G20 d   1      23.093  17.345  64.472  0.00  0.00     0.084 H 
ATOM      8  H2  G20 d   1      24.198  17.071  61.852  0.00  0.00     0.083 H 
ATOM      9  H3  G20 d   1      26.395  16.429  63.703  0.00  0.00     0.081 H 
ATOM     10  H8  G20 d   1      25.904  18.884  61.931  0.00  0.00     0.102 H 
ENDROOT
BRANCH   5  11
ATOM     11  C7  G20 d   1      27.781  18.403  62.922  0.00  0.00     0.251 C 
ATOM     12  N8  G20 d   1      28.479  18.732  61.821  0.00  0.00    -0.354 N 
ATOM     13  O7  G20 d   1      28.329  18.056  63.976  0.00  0.00    -0.270 OA
BRANCH  12  14
ATOM     14  C9  G20 d   1      29.952  18.690  62.006  0.00  0.00    -0.003 C 
ATOM     15  H12 G20 d   1      30.233  19.422  62.778  0.00  0.00     0.064 H 
ATOM     16  H13 G20 d   1      30.436  18.956  61.055  0.00  0.00     0.064 H 
BRANCH  14  17
ATOM     17  C91 G20 d   1      30.449  17.288  62.443  0.00  0.00    -0.053 C 
ATOM     18  H14 G20 d   1      29.962  16.532  61.810  0.00  0.00     0.034 H 
ATOM     19  H15 G20 d   1      30.162  17.127  63.493  0.00  0.00     0.034 H 
BRANCH  17  20
ATOM     20  C92 G20 d   1      31.945  17.121  62.324  0.00  0.00    -0.075 C 
ATOM     21  H16 G20 d   1      32.228  16.109  62.649  0.00  0.00     0.027 H 
ATOM     22  H17 G20 d   1      32.449  17.864  62.960  0.00  0.00     0.027 H 
ATOM     23  H18 G20 d   1      32.248  17.268  61.277  0.00  0.00     0.027 H 
ENDBRANCH  17  20
ENDBRANCH  14  17
ENDBRANCH  12  14
BRANCH  12  24
ATOM     24  C81 G20 d   1      27.982  19.086  60.480  0.00  0.00    -0.016 C 
ATOM     25  H9  G20 d   1      28.834  19.299  59.818  0.00  0.00     0.056 H 
ATOM     26  H10 G20 d   1      27.340  19.977  60.550  0.00  0.00     0.056 H 
ATOM     27  H11 G20 d   1      27.401  18.247  60.071  0.00  0.00     0.056 H 
ENDBRANCH  12  24
ENDBRANCH   5  11
BRANCH   4  28
ATOM     28  N5  G20 d   1      26.592  16.177  61.679  0.00  0.00    -0.351 N 
ATOM     29  C10 G20 d   1      27.077  14.949  61.837  0.00  0.00     0.214 C 
ATOM     30  O10 G20 d   1      27.057  14.354  62.916  0.00  0.00    -0.274 OA
ATOM     31  H4  G20 d   1      26.650  16.621  60.785  0.00  0.00     0.163 HD
BRANCH  29  32
ATOM     32  C11 G20 d   1      27.570  14.290  60.559  0.00  0.00    -0.003 C 
ATOM     33  H5  G20 d   1      27.950  13.284  60.788  0.00  0.00     0.040 H 
ATOM     34  H6  G20 d   1      28.377  14.896  60.122  0.00  0.00     0.040 H 
ATOM     35  H7  G20 d   1      26.739  14.213  59.842  0.00  0.00     0.040 H 
ENDBRANCH  29  32
ENDBRANCH   4  28
BRANCH   3  36
ATOM     36  NE  G20 d   1      24.236  15.291  62.936  0.00  0.00    -0.217 N 
ATOM     37  CZ  G20 d   1      23.862  14.335  61.987  0.00  0.00     0.665 C 
ATOM     38  NH2 G20 d   1      23.618  13.070  62.357  0.00  0.00    -0.235 N 
ATOM     39  NH1 G20 d   1      23.842  14.659  60.699  0.00  0.00    -0.235 N 
ATOM     40  H22 G20 d   1      23.632  12.813  63.354  0.00  0.00     0.174 HD
ATOM     41  H23 G20 d   1      23.416  12.355  61.644  0.00  0.00     0.174 HD
ATOM     42  H20 G20 d   1      23.567  13.958  59.996  0.00  0.00     0.174 HD
ATOM     43  H21 G20 d   1      24.101  15.611  60.403  0.00  0.00     0.174 HD
ATOM     44  H19 G20 d   1      24.272  14.929  63.900  0.00  0.00     0.178 HD
ENDBRANCH   3  36
BRANCH   1  45
ATOM     45  C1  G20 d   1      23.631  19.829  64.890  0.00  0.00     0.233 C 
ATOM     46  O1B G20 d   1      22.404  19.670  65.115  0.00  0.00    -0.642 OA
ATOM     47  O1A G20 d   1      24.220  20.893  65.141  0.00  0.00    -0.642 OA
ENDBRANCH   1  45
TORSDOF 9
