REMARK  4 active torsions:
REMARK  status: ('A' for Active; 'I' for Inactive)
REMARK    1  A    between atoms: N1_1  and  C8_2 
REMARK    2  A    between atoms: C9_8  and  N4_9 
REMARK    3  A    between atoms: N4_9  and  C17_10 
REMARK    4  A    between atoms: C17_10  and  C18_11 
ROOT
ATOM      1  N4  S79 d   1      17.307  17.530  16.278  0.00  0.00    -0.220 N 
ATOM      2  H4  S79 d   1      18.258  17.561  15.884  0.00  0.00     0.178 HD
ENDROOT
BRANCH   1   3
ATOM      3  C9  S79 d   1      17.069  17.370  17.601  0.00  0.00     0.701 A 
ATOM      4  N3  S79 d   1      15.962  16.932  18.061  0.00  0.00    -0.063 NA
ATOM      5  C6  S79 d   1      16.112  16.901  19.384  0.00  0.00     0.105 A 
ATOM      6  C5  S79 d   1      15.105  16.469  20.320  0.00  0.00    -0.023 A 
ATOM      7  C1  S79 d   1      17.199  17.309  19.700  0.00  0.00     0.079 A 
ATOM      8  C4  S79 d   1      15.470  16.536  21.787  0.00  0.00     0.092 A 
ATOM      9  H3  S79 d   1      14.135  16.114  19.990  0.00  0.00     0.090 H 
ATOM     10  N2  S79 d   1      14.598  16.158  22.744  0.00  0.00    -0.064 NA
ATOM     11  C3  S79 d   1      16.734  16.998  22.151  0.00  0.00     0.050 A 
ATOM     12  C8  S79 d   1      14.959  16.241  24.042  0.00  0.00     0.700 A 
ATOM     13  N6  S79 d   1      16.174  16.684  24.431  0.00  0.00    -0.165 N 
ATOM     14  C7  S79 d   1      17.074  17.063  23.504  0.00  0.00     0.206 A 
ATOM     15  H16 S79 d   1      16.404  16.730  25.403  0.00  0.00     0.186 HD
ATOM     16  O1  S79 d   1      18.338  17.512  23.879  0.00  0.00    -0.171 OA
ATOM     17  C2  S79 d   1      17.685  17.415  21.056  0.00  0.00    -0.038 A 
ATOM     18  H15 S79 d   1      18.683  17.776  21.276  0.00  0.00     0.088 H 
ATOM     19  N5  S79 d   1      18.020  17.683  18.498  0.00  0.00    -0.188 N 
ATOM     20  H14 S79 d   1      18.977  18.051  18.397  0.00  0.00     0.184 HD
BRANCH  12  21
ATOM     21  N1  S79 d   1      14.024  15.832  25.027  0.00  0.00    -0.233 N 
ATOM     22  H1  S79 d   1      13.094  15.492  24.744  0.00  0.00     0.174 HD
ATOM     23  H2  S79 d   1      14.275  15.875  26.025  0.00  0.00     0.174 HD
ENDBRANCH  12  21
ENDBRANCH   1   3
BRANCH   1  24
ATOM     24  C17 S79 d   1      16.117  17.654  15.460  0.00  0.00     0.034 C 
ATOM     25  H5  S79 d   1      15.340  18.189  16.026  0.00  0.00     0.072 H 
ATOM     26  H6  S79 d   1      15.752  16.651  15.194  0.00  0.00     0.072 H 
BRANCH  24  27
ATOM     27  C18 S79 d   1      16.439  18.428  14.189  0.00  0.00    -0.029 A 
ATOM     28  C20 S79 d   1      16.912  19.743  14.236  0.00  0.00    -0.018 A 
ATOM     29  C26 S79 d   1      17.118  20.404  15.450  0.00  0.00    -0.072 A 
ATOM     30  C21 S79 d   1      17.181  20.416  13.038  0.00  0.00    -0.025 A 
ATOM     31  C25 S79 d   1      17.602  21.715  15.475  0.00  0.00    -0.082 A 
ATOM     32  H7  S79 d   1      16.900  19.895  16.382  0.00  0.00     0.084 H 
ATOM     33  C24 S79 d   1      17.868  22.386  14.280  0.00  0.00    -0.082 A 
ATOM     34  H8  S79 d   1      17.771  22.212  16.424  0.00  0.00     0.083 H 
ATOM     35  C23 S79 d   1      17.661  21.729  13.064  0.00  0.00    -0.072 A 
ATOM     36  H9  S79 d   1      18.232  23.407  14.295  0.00  0.00     0.083 H 
ATOM     37  H10 S79 d   1      17.874  22.242  12.133  0.00  0.00     0.084 H 
ATOM     38  C22 S79 d   1      16.982  19.776  11.811  0.00  0.00    -0.072 A 
ATOM     39  C27 S79 d   1      16.504  18.461  11.769  0.00  0.00    -0.082 A 
ATOM     40  H11 S79 d   1      17.199  20.301  10.888  0.00  0.00     0.084 H 
ATOM     41  C19 S79 d   1      16.228  17.787  12.961  0.00  0.00    -0.074 A 
ATOM     42  H12 S79 d   1      16.349  17.968  10.816  0.00  0.00     0.083 H 
ATOM     43  H13 S79 d   1      15.852  16.771  12.936  0.00  0.00     0.084 H 
ENDBRANCH  24  27
ENDBRANCH   1  24
TORSDOF 4
