REMARK  21 active torsions:
REMARK  status: ('A' for Active; 'I' for Inactive)
REMARK    1  A    between atoms: O42_24  and  C11_1 
REMARK    2  A    between atoms: C21_2  and  N21_3 
REMARK       I    between atoms: N21_3  and  C71_4 
REMARK    3  A    between atoms: C71_4  and  C81_6 
REMARK    4  A    between atoms: C31_7  and  O31_8 
REMARK    5  A    between atoms: C41_9  and  O41_10 
REMARK    6  A    between atoms: C51_11  and  C61_13 
REMARK    7  A    between atoms: C61_13  and  O61_14 
REMARK    8  A    between atoms: O43_39  and  C12_15 
REMARK    9  A    between atoms: C22_16  and  N22_17 
REMARK       I    between atoms: N22_17  and  C72_18 
REMARK   10  A    between atoms: C72_18  and  C82_20 
REMARK   11  A    between atoms: C32_21  and  O32_22 
REMARK   12  A    between atoms: C42_23  and  O42_24 
REMARK   13  A    between atoms: C52_25  and  C62_27 
REMARK   14  A    between atoms: C62_27  and  O62_28 
REMARK   15  A    between atoms: C13_29  and  O13_30 
REMARK   16  A    between atoms: C23_31  and  N23_32 
REMARK       I    between atoms: N23_32  and  C73_33 
REMARK   17  A    between atoms: C73_33  and  C83_35 
REMARK   18  A    between atoms: C33_36  and  O33_37 
REMARK   19  A    between atoms: C43_38  and  O43_39 
REMARK   20  A    between atoms: C53_40  and  C63_42 
REMARK   21  A    between atoms: C63_42  and  O63_43 
ROOT
ATOM      1  C12 CTO d   1      29.368  -7.453  -9.803  0.00  0.00     0.154 C 
ATOM      2  C22 CTO d   1      28.569  -6.464  -8.957  0.00  0.00     0.087 C 
ATOM      3  C32 CTO d   1      27.645  -7.220  -7.994  0.00  0.00     0.087 C 
ATOM      4  C42 CTO d   1      26.833  -8.304  -8.711  0.00  0.00     0.095 C 
ATOM      5  C52 CTO d   1      27.769  -9.215  -9.530  0.00  0.00     0.089 C 
ATOM      6  O52 CTO d   1      28.504  -8.395 -10.454  0.00  0.00    -0.349 OA
ATOM      7  H15 CTO d   1      30.097  -7.985  -9.174  0.00  0.00     0.132 H 
ATOM      8  H16 CTO d   1      27.945  -5.863  -9.634  0.00  0.00     0.084 H 
ATOM      9  H21 CTO d   1      28.258  -7.711  -7.224  0.00  0.00     0.090 H 
ATOM     10  H23 CTO d   1      26.105  -7.834  -9.389  0.00  0.00     0.091 H 
ATOM     11  H24 CTO d   1      28.468  -9.702  -8.835  0.00  0.00     0.090 H 
ENDROOT
BRANCH   1  12
ATOM     12  O43 CTO d   1      30.030  -6.700 -10.817  0.00  0.00    -0.348 OA
BRANCH  12  13
ATOM     13  C43 CTO d   1      31.089  -7.438 -11.431  0.00  0.00     0.095 C 
ATOM     14  C33 CTO d   1      30.997  -7.313 -12.948  0.00  0.00     0.087 C 
ATOM     15  C23 CTO d   1      32.275  -7.811 -13.625  0.00  0.00     0.086 C 
ATOM     16  H35 CTO d   1      30.877  -6.248 -13.197  0.00  0.00     0.090 H 
ATOM     17  C13 CTO d   1      33.481  -7.116 -12.974  0.00  0.00     0.151 C 
ATOM     18  H30 CTO d   1      32.359  -8.901 -13.503  0.00  0.00     0.084 H 
ATOM     19  O53 CTO d   1      33.499  -7.466 -11.587  0.00  0.00    -0.349 OA
ATOM     20  H28 CTO d   1      33.400  -6.026 -13.098  0.00  0.00     0.132 H 
ATOM     21  C53 CTO d   1      32.406  -6.923 -10.860  0.00  0.00     0.089 C 
ATOM     22  H38 CTO d   1      32.428  -5.824 -10.903  0.00  0.00     0.090 H 
ATOM     23  H37 CTO d   1      30.988  -8.502 -11.169  0.00  0.00     0.091 H 
BRANCH  14  24
ATOM     24  O33 CTO d   1      29.833  -8.022 -13.429  0.00  0.00    -0.391 OA
ATOM     25  H36 CTO d   1      29.930  -8.949 -13.245  0.00  0.00     0.210 HD
ENDBRANCH  14  24
BRANCH  15  26
ATOM     26  N23 CTO d   1      32.249  -7.475 -15.044  0.00  0.00    -0.349 N 
ATOM     27  C73 CTO d   1      32.117  -8.382 -16.012  0.00  0.00     0.214 C 
ATOM     28  O73 CTO d   1      31.660  -8.122 -17.116  0.00  0.00    -0.274 OA
ATOM     29  H31 CTO d   1      32.335  -6.513 -15.305  0.00  0.00     0.163 HD
BRANCH  27  30
ATOM     30  C83 CTO d   1      32.585  -9.753 -15.674  0.00  0.00    -0.003 C 
ATOM     31  H32 CTO d   1      32.431 -10.416 -16.538  0.00  0.00     0.040 H 
ATOM     32  H33 CTO d   1      32.015 -10.133 -14.813  0.00  0.00     0.040 H 
ATOM     33  H34 CTO d   1      33.655  -9.723 -15.421  0.00  0.00     0.040 H 
ENDBRANCH  27  30
ENDBRANCH  15  26
BRANCH  17  34
ATOM     34  O13 CTO d   1      34.709  -7.591 -13.552  0.00  0.00    -0.369 OA
ATOM     35  H29 CTO d   1      35.444  -7.179 -13.114  0.00  0.00     0.212 HD
ENDBRANCH  17  34
BRANCH  21  36
ATOM     36  C63 CTO d   1      32.548  -7.406  -9.415  0.00  0.00     0.043 C 
ATOM     37  H39 CTO d   1      33.194  -8.295  -9.382  0.00  0.00     0.078 H 
ATOM     38  H40 CTO d   1      31.558  -7.657  -9.008  0.00  0.00     0.078 H 
BRANCH  36  39
ATOM     39  O63 CTO d   1      33.136  -6.350  -8.644  0.00  0.00    -0.398 OA
ATOM     40  H41 CTO d   1      33.232  -6.633  -7.742  0.00  0.00     0.209 HD
ENDBRANCH  36  39
ENDBRANCH  21  36
ENDBRANCH  12  13
ENDBRANCH   1  12
BRANCH   2  41
ATOM     41  N22 CTO d   1      29.447  -5.545  -8.213  0.00  0.00    -0.349 N 
ATOM     42  C72 CTO d   1      29.816  -4.323  -8.636  0.00  0.00     0.214 C 
ATOM     43  O72 CTO d   1      30.468  -3.565  -7.930  0.00  0.00    -0.274 OA
ATOM     44  H17 CTO d   1      29.795  -5.853  -7.327  0.00  0.00     0.163 HD
BRANCH  42  45
ATOM     45  C82 CTO d   1      29.429  -3.930 -10.020  0.00  0.00    -0.003 C 
ATOM     46  H18 CTO d   1      29.794  -2.913 -10.228  0.00  0.00     0.040 H 
ATOM     47  H19 CTO d   1      28.333  -3.953 -10.115  0.00  0.00     0.040 H 
ATOM     48  H20 CTO d   1      29.874  -4.634 -10.739  0.00  0.00     0.040 H 
ENDBRANCH  42  45
ENDBRANCH   2  41
BRANCH   3  49
ATOM     49  O32 CTO d   1      26.808  -6.246  -7.367  0.00  0.00    -0.391 OA
ATOM     50  H22 CTO d   1      26.302  -5.791  -8.030  0.00  0.00     0.210 HD
ENDBRANCH   3  49
BRANCH   5  51
ATOM     51  C62 CTO d   1      27.053 -10.305 -10.332  0.00  0.00     0.043 C 
ATOM     52  H25 CTO d   1      26.448 -10.931  -9.660  0.00  0.00     0.078 H 
ATOM     53  H26 CTO d   1      27.789 -10.933 -10.855  0.00  0.00     0.078 H 
BRANCH  51  54
ATOM     54  O62 CTO d   1      26.209  -9.645 -11.280  0.00  0.00    -0.398 OA
ATOM     55  H27 CTO d   1      26.740  -9.103 -11.851  0.00  0.00     0.209 HD
ENDBRANCH  51  54
ENDBRANCH   5  51
BRANCH   4  56
ATOM     56  O42 CTO d   1      26.141  -9.059  -7.715  0.00  0.00    -0.348 OA
BRANCH  56  57
ATOM     57  C11 CTO d   1      24.780  -9.360  -8.040  0.00  0.00     0.154 C 
ATOM     58  C21 CTO d   1      24.229 -10.314  -6.994  0.00  0.00     0.087 C 
ATOM     59  C31 CTO d   1      22.779 -10.676  -7.326  0.00  0.00     0.086 C 
ATOM     60  H2  CTO d   1      24.258  -9.838  -6.003  0.00  0.00     0.084 H 
ATOM     61  C41 CTO d   1      21.958  -9.400  -7.552  0.00  0.00     0.089 C 
ATOM     62  H7  CTO d   1      22.737 -11.333  -8.207  0.00  0.00     0.090 H 
ATOM     63  C51 CTO d   1      22.645  -8.413  -8.491  0.00  0.00     0.089 C 
ATOM     64  H9  CTO d   1      21.853  -8.903  -6.577  0.00  0.00     0.091 H 
ATOM     65  O51 CTO d   1      23.980  -8.180  -8.032  0.00  0.00    -0.349 OA
ATOM     66  H11 CTO d   1      22.656  -8.815  -9.515  0.00  0.00     0.090 H 
ATOM     67  H1  CTO d   1      24.736  -9.827  -9.035  0.00  0.00     0.132 H 
BRANCH  58  68
ATOM     68  N21 CTO d   1      25.088 -11.480  -6.996  0.00  0.00    -0.349 N 
ATOM     69  C71 CTO d   1      25.634 -11.995  -5.902  0.00  0.00     0.214 C 
ATOM     70  O71 CTO d   1      25.733 -11.370  -4.848  0.00  0.00    -0.274 OA
ATOM     71  H3  CTO d   1      25.281 -11.922  -7.872  0.00  0.00     0.163 HD
BRANCH  69  72
ATOM     72  C81 CTO d   1      26.153 -13.397  -6.101  0.00  0.00    -0.003 C 
ATOM     73  H4  CTO d   1      26.591 -13.763  -5.160  0.00  0.00     0.040 H 
ATOM     74  H5  CTO d   1      26.922 -13.395  -6.887  0.00  0.00     0.040 H 
ATOM     75  H6  CTO d   1      25.325 -14.056  -6.401  0.00  0.00     0.040 H 
ENDBRANCH  69  72
ENDBRANCH  58  68
BRANCH  59  76
ATOM     76  O31 CTO d   1      22.208 -11.309  -6.174  0.00  0.00    -0.391 OA
ATOM     77  H8  CTO d   1      22.704 -12.092  -5.966  0.00  0.00     0.210 HD
ENDBRANCH  59  76
BRANCH  61  78
ATOM     78  O41 CTO d   1      20.642  -9.719  -8.021  0.00  0.00    -0.390 OA
ATOM     79  H10 CTO d   1      20.200 -10.259  -7.376  0.00  0.00     0.210 HD
ENDBRANCH  61  78
BRANCH  63  80
ATOM     80  C61 CTO d   1      21.914  -7.082  -8.456  0.00  0.00     0.043 C 
ATOM     81  H12 CTO d   1      21.792  -6.755  -7.413  0.00  0.00     0.078 H 
ATOM     82  H13 CTO d   1      20.925  -7.191  -8.924  0.00  0.00     0.078 H 
BRANCH  80  83
ATOM     83  O61 CTO d   1      22.675  -6.123  -9.170  0.00  0.00    -0.398 OA
ATOM     84  H14 CTO d   1      23.529  -6.032  -8.764  0.00  0.00     0.209 HD
ENDBRANCH  80  83
ENDBRANCH  63  80
ENDBRANCH  56  57
ENDBRANCH   4  56
TORSDOF 21
