REMARK  28 active torsions:
REMARK  status: ('A' for Active; 'I' for Inactive)
REMARK    1  A    between atoms: N_1  and  CA_2 
REMARK    2  A    between atoms: CA_2  and  C_3 
REMARK    3  A    between atoms: CA_2  and  CB_5 
REMARK       I    between atoms: C_3  and  N_6 
REMARK    4  A    between atoms: N_6  and  CA_7 
REMARK    5  A    between atoms: CA_7  and  C_8 
REMARK    6  A    between atoms: CA_7  and  CB_10 
REMARK       I    between atoms: C_8  and  N_15 
REMARK    7  A    between atoms: CB_10  and  CG_11 
REMARK    8  A    between atoms: CG_11  and  CD_12 
REMARK    9  A    between atoms: CD_12  and  CE_13 
REMARK   10  A    between atoms: CE_13  and  NZ_14 
REMARK   11  A    between atoms: N_15  and  CA_16 
REMARK   12  A    between atoms: CA_16  and  C_17 
REMARK   13  A    between atoms: CA_16  and  CB_19 
REMARK       I    between atoms: C_17  and  N_26 
REMARK   14  A    between atoms: CB_19  and  CG_20 
REMARK   15  A    between atoms: N_26  and  CA_27 
REMARK   16  A    between atoms: CA_27  and  C_28 
REMARK   17  A    between atoms: CA_27  and  CB_30 
REMARK       I    between atoms: C_28  and  N_37 
REMARK   18  A    between atoms: CB_30  and  CG_31 
REMARK   19  A    between atoms: CG_31  and  CD_32 
REMARK   20  A    between atoms: CD_32  and  NE_33 
REMARK       I    between atoms: NE_33  and  CZ_34 
REMARK       I    between atoms: CZ_34  and  NH1_35 
REMARK   21  A    between atoms: N_37  and  CA_38 
REMARK   22  A    between atoms: CA_38  and  C_39 
REMARK   23  A    between atoms: CA_38  and  CB_41 
REMARK       I    between atoms: C_39  and  N_47 
REMARK   24  A    between atoms: CB_41  and  CG_42 
REMARK   25  A    between atoms: N_47  and  CA_48 
REMARK   26  A    between atoms: CA_48  and  C_49 
REMARK   27  A    between atoms: CA_48  and  CB_51 
REMARK   28  A    between atoms: CB_51  and  CG_52 
ROOT
ATOM      1  C   PHE d   1      -5.477  16.166  29.946  0.00  0.00     0.241 C 
ATOM      2  O   PHE d   1      -5.791  17.327  29.652  0.00  0.00    -0.271 OA
ATOM      3  N   ARG d   1      -5.327  15.742  31.197  0.00  0.00    -0.346 N 
ATOM      4  H30 ARG d   1      -5.031  14.800  31.354  0.00  0.00     0.163 HD
ENDROOT
BRANCH   1   5
ATOM      5  CA  PHE d   1      -5.229  15.115  28.866  0.00  0.00     0.093 C 
ATOM      6  H22 PHE d   1      -5.588  14.143  29.236  0.00  0.00     0.088 H 
BRANCH   5   7
ATOM      7  N   PHE d   1      -5.954  15.449  27.652  0.00  0.00    -0.346 N 
ATOM      8  C   LYS d   1      -7.282  15.429  27.594  0.00  0.00     0.241 C 
ATOM      9  O   LYS d   1      -8.002  15.146  28.556  0.00  0.00    -0.271 OA
ATOM     10  H21 PHE d   1      -5.438  15.702  26.834  0.00  0.00     0.163 HD
BRANCH   8  11
ATOM     11  CA  LYS d   1      -7.870  15.756  26.228  0.00  0.00     0.089 C 
ATOM     12  H9  LYS d   1      -7.210  15.279  25.488  0.00  0.00     0.087 H 
BRANCH  11  13
ATOM     13  N   LYS d   1      -9.193  15.184  26.012  0.00  0.00    -0.346 N 
ATOM     14  C   ALA d   1      -9.366  14.225  25.106  0.00  0.00     0.248 C 
ATOM     15  O   ALA d   1      -8.479  13.889  24.308  0.00  0.00    -0.271 OA
ATOM     16  H8  LYS d   1      -9.972  15.513  26.546  0.00  0.00     0.163 HD
BRANCH  14  17
ATOM     17  CA  ALA d   1     -10.742  13.557  25.088  0.00  0.00     0.172 C 
ATOM     18  H4  ALA d   1     -11.502  14.346  25.188  0.00  0.00     0.098 H 
BRANCH  17  19
ATOM     19  N   ALA d   1     -10.996  12.840  23.802  0.00  0.00    -0.067 N 
ATOM     20  H1  ALA d   1     -11.909  12.415  23.829  0.00  0.00     0.275 HD
ATOM     21  H2  ALA d   1     -10.297  12.126  23.672  0.00  0.00     0.275 HD
ATOM     22  H3  ALA d   1     -10.953  13.496  23.038  0.00  0.00     0.275 HD
ENDBRANCH  17  19
BRANCH  17  23
ATOM     23  CB  ALA d   1     -10.887  12.605  26.278  0.00  0.00    -0.042 C 
ATOM     24  H5  ALA d   1     -10.696  13.154  27.212  0.00  0.00     0.030 H 
ATOM     25  H6  ALA d   1     -10.162  11.783  26.181  0.00  0.00     0.030 H 
ATOM     26  H7  ALA d   1     -11.907  12.194  26.297  0.00  0.00     0.030 H 
ENDBRANCH  17  23
ENDBRANCH  14  17
ENDBRANCH  11  13
BRANCH  11  27
ATOM     27  CB  LYS d   1      -7.825  17.265  25.939  0.00  0.00    -0.038 C 
ATOM     28  H10 LYS d   1      -7.801  17.394  24.847  0.00  0.00     0.036 H 
ATOM     29  H11 LYS d   1      -6.896  17.660  26.375  0.00  0.00     0.036 H 
BRANCH  27  30
ATOM     30  CG  LYS d   1      -8.973  18.098  26.474  0.00  0.00    -0.061 C 
ATOM     31  H12 LYS d   1      -8.916  18.137  27.572  0.00  0.00     0.033 H 
ATOM     32  H13 LYS d   1      -9.928  17.642  26.172  0.00  0.00     0.033 H 
BRANCH  30  33
ATOM     33  CD  LYS d   1      -8.886  19.512  25.911  0.00  0.00    -0.043 C 
ATOM     34  H14 LYS d   1      -8.046  20.032  26.395  0.00  0.00     0.035 H 
ATOM     35  H15 LYS d   1      -9.824  20.040  26.138  0.00  0.00     0.035 H 
BRANCH  33  36
ATOM     36  CE  LYS d   1      -8.667  19.532  24.396  0.00  0.00     0.080 C 
ATOM     37  H16 LYS d   1      -9.488  18.986  23.909  0.00  0.00     0.075 H 
ATOM     38  H17 LYS d   1      -7.711  19.039  24.166  0.00  0.00     0.075 H 
BRANCH  36  39
ATOM     39  NZ  LYS d   1      -8.632  20.932  23.866  0.00  0.00    -0.079 N 
ATOM     40  H18 LYS d   1      -8.487  20.910  22.869  0.00  0.00     0.274 HD
ATOM     41  H19 LYS d   1      -7.879  21.439  24.304  0.00  0.00     0.274 HD
ATOM     42  H20 LYS d   1      -9.507  21.390  24.068  0.00  0.00     0.274 HD
ENDBRANCH  36  39
ENDBRANCH  33  36
ENDBRANCH  30  33
ENDBRANCH  27  30
ENDBRANCH  11  27
ENDBRANCH   8  11
ENDBRANCH   5   7
BRANCH   5  43
ATOM     43  CB  PHE d   1      -3.740  15.000  28.555  0.00  0.00    -0.014 C 
ATOM     44  H23 PHE d   1      -3.306  16.011  28.566  0.00  0.00     0.043 H 
ATOM     45  H24 PHE d   1      -3.629  14.564  27.551  0.00  0.00     0.043 H 
BRANCH  43  46
ATOM     46  CG  PHE d   1      -2.980  14.153  29.520  0.00  0.00    -0.056 A 
ATOM     47  CD1 PHE d   1      -3.284  12.804  29.676  0.00  0.00    -0.077 A 
ATOM     48  CE1 PHE d   1      -2.568  12.009  30.567  0.00  0.00    -0.082 A 
ATOM     49  H25 PHE d   1      -4.089  12.366  29.096  0.00  0.00     0.084 H 
ATOM     50  CZ  PHE d   1      -1.522  12.558  31.299  0.00  0.00    -0.083 A 
ATOM     51  H27 PHE d   1      -2.826  10.963  30.690  0.00  0.00     0.083 H 
ATOM     52  CE2 PHE d   1      -1.197  13.903  31.146  0.00  0.00    -0.082 A 
ATOM     53  H29 PHE d   1      -0.960  11.939  31.989  0.00  0.00     0.083 H 
ATOM     54  CD2 PHE d   1      -1.927  14.694  30.254  0.00  0.00    -0.077 A 
ATOM     55  H28 PHE d   1      -0.382  14.335  31.716  0.00  0.00     0.083 H 
ATOM     56  H26 PHE d   1      -1.671  15.740  30.132  0.00  0.00     0.084 H 
ENDBRANCH  43  46
ENDBRANCH   5  43
ENDBRANCH   1   5
BRANCH   3  57
ATOM     57  CA  ARG d   1      -5.576  16.595  32.341  0.00  0.00     0.089 C 
ATOM     58  H31 ARG d   1      -6.520  17.132  32.165  0.00  0.00     0.087 H 
BRANCH  57  59
ATOM     59  C   ARG d   1      -4.476  17.653  32.547  0.00  0.00     0.241 C 
ATOM     60  O   ARG d   1      -3.296  17.326  32.709  0.00  0.00    -0.271 OA
ATOM     61  N   HIS d   1      -4.877  18.920  32.517  0.00  0.00    -0.346 N 
ATOM     62  H43 HIS d   1      -5.824  19.112  32.260  0.00  0.00     0.163 HD
BRANCH  61  63
ATOM     63  CA  HIS d   1      -4.002  20.051  32.841  0.00  0.00     0.094 C 
ATOM     64  H44 HIS d   1      -3.215  19.719  33.533  0.00  0.00     0.088 H 
BRANCH  63  65
ATOM     65  C   HIS d   1      -4.855  21.123  33.491  0.00  0.00     0.241 C 
ATOM     66  O   HIS d   1      -5.979  21.380  33.050  0.00  0.00    -0.271 OA
ATOM     67  N   ASP d   1      -4.320  21.761  34.523  0.00  0.00    -0.344 N 
ATOM     68  H50 ASP d   1      -3.391  21.530  34.813  0.00  0.00     0.163 HD
BRANCH  67  69
ATOM     69  CA  ASP d   1      -5.060  22.796  35.247  0.00  0.00     0.105 C 
ATOM     70  H51 ASP d   1      -6.076  22.409  35.416  0.00  0.00     0.090 H 
BRANCH  69  71
ATOM     71  C   ASP d   1      -5.204  24.102  34.454  0.00  0.00     0.197 C 
ATOM     72  O   ASP d   1      -4.217  24.699  34.015  0.00  0.00    -0.646 OA
ATOM     73  OXT ASP d   1      -6.322  24.585  34.234  0.00  0.00    -0.646 OA
ENDBRANCH  69  71
BRANCH  69  74
ATOM     74  CB  ASP d   1      -4.430  23.050  36.621  0.00  0.00     0.044 C 
ATOM     75  H52 ASP d   1      -4.722  24.054  36.963  0.00  0.00     0.053 H 
ATOM     76  H53 ASP d   1      -3.336  23.001  36.522  0.00  0.00     0.053 H 
BRANCH  74  77
ATOM     77  CG  ASP d   1      -4.870  22.036  37.659  0.00  0.00     0.175 C 
ATOM     78  OD1 ASP d   1      -5.806  21.256  37.380  0.00  0.00    -0.648 OA
ATOM     79  OD2 ASP d   1      -4.289  22.027  38.765  0.00  0.00    -0.648 OA
ENDBRANCH  74  77
ENDBRANCH  69  74
ENDBRANCH  67  69
ENDBRANCH  63  65
BRANCH  63  80
ATOM     80  CB  HIS d   1      -3.359  20.653  31.592  0.00  0.00     0.004 C 
ATOM     81  H45 HIS d   1      -2.737  21.506  31.902  0.00  0.00     0.046 H 
ATOM     82  H46 HIS d   1      -4.162  21.006  30.928  0.00  0.00     0.046 H 
BRANCH  80  83
ATOM     83  CG  HIS d   1      -2.499  19.703  30.822  0.00  0.00     0.053 A 
ATOM     84  ND1 HIS d   1      -1.181  19.454  31.149  0.00  0.00    -0.247 NA
ATOM     85  CE1 HIS d   1      -0.674  18.589  30.291  0.00  0.00     0.064 A 
ATOM     86  NE2 HIS d   1      -1.614  18.270  29.417  0.00  0.00    -0.359 N 
ATOM     87  H48 HIS d   1       0.344  18.204  30.301  0.00  0.00     0.143 H 
ATOM     88  CD2 HIS d   1      -2.764  18.954  29.725  0.00  0.00     0.002 A 
ATOM     89  H49 HIS d   1      -1.501  17.614  28.631  0.00  0.00     0.166 HD
ATOM     90  H47 HIS d   1      -3.710  18.904  29.189  0.00  0.00     0.114 H 
ENDBRANCH  80  83
ENDBRANCH  63  80
ENDBRANCH  61  63
ENDBRANCH  57  59
BRANCH  57  91
ATOM     91  CB  ARG d   1      -5.750  15.718  33.578  0.00  0.00    -0.036 C 
ATOM     92  H32 ARG d   1      -4.768  15.297  33.840  0.00  0.00     0.036 H 
ATOM     93  H33 ARG d   1      -6.443  14.902  33.324  0.00  0.00     0.036 H 
BRANCH  91  94
ATOM     94  CG  ARG d   1      -6.292  16.434  34.790  0.00  0.00    -0.048 C 
ATOM     95  H34 ARG d   1      -7.109  17.103  34.481  0.00  0.00     0.035 H 
ATOM     96  H35 ARG d   1      -5.488  17.026  35.252  0.00  0.00     0.035 H 
BRANCH  94  97
ATOM     97  CD  ARG d   1      -6.813  15.444  35.787  0.00  0.00     0.009 C 
ATOM     98  H36 ARG d   1      -6.085  14.627  35.898  0.00  0.00     0.064 H 
ATOM     99  H37 ARG d   1      -7.769  15.037  35.426  0.00  0.00     0.064 H 
BRANCH  97 100
ATOM    100  NE  ARG d   1      -7.022  16.075  37.082  0.00  0.00    -0.227 N 
ATOM    101  CZ  ARG d   1      -7.401  15.425  38.183  0.00  0.00     0.665 C 
ATOM    102  NH1 ARG d   1      -7.608  14.120  38.141  0.00  0.00    -0.235 N 
ATOM    103  NH2 ARG d   1      -7.570  16.081  39.326  0.00  0.00    -0.235 N 
ATOM    104  H39 ARG d   1      -7.901  13.617  38.991  0.00  0.00     0.174 HD
ATOM    105  H40 ARG d   1      -7.476  13.606  37.258  0.00  0.00     0.174 HD
ATOM    106  H41 ARG d   1      -7.410  17.098  39.365  0.00  0.00     0.174 HD
ATOM    107  H42 ARG d   1      -7.861  15.573  40.173  0.00  0.00     0.174 HD
ATOM    108  H38 ARG d   1      -6.867  17.091  37.153  0.00  0.00     0.177 HD
ENDBRANCH  97 100
ENDBRANCH  94  97
ENDBRANCH  91  94
ENDBRANCH  57  91
ENDBRANCH   3  57
TORSDOF 28
