REMARK  19 active torsions:
REMARK  status: ('A' for Active; 'I' for Inactive)
REMARK    1  A    between atoms: C2_4  and  C1_1 
REMARK    2  A    between atoms: O4_33  and  C2_4 
REMARK    3  A    between atoms: C4_6  and  O4_7 
REMARK    4  A    between atoms: C5_8  and  O5_9 
REMARK    5  A    between atoms: C6_10  and  C7_12 
REMARK    6  A    between atoms: C7_12  and  O7_13 
REMARK    7  A    between atoms: C7_12  and  C8_14 
REMARK    8  A    between atoms: C8_14  and  O8_15 
REMARK    9  A    between atoms: C9_18  and  C10_17 
REMARK   10  A    between atoms: O2_19  and  C9_18 
REMARK   11  A    between atoms: C2_20  and  O2_19 
REMARK   12  A    between atoms: C2_20  and  C1_21 
REMARK   13  A    between atoms: C1_21  and  O1A_22 
REMARK   14  A    between atoms: C6_25  and  C7_26 
REMARK   15  A    between atoms: C7_26  and  O7_27 
REMARK   16  A    between atoms: C7_26  and  C8_28 
REMARK   17  A    between atoms: C8_28  and  O8_29 
REMARK   18  A    between atoms: C5_30  and  O5_31 
REMARK   19  A    between atoms: C4_32  and  O4_33 
ROOT
ATOM      1  C2  KDO d   1      31.066  -2.046   5.359  0.00  0.00     0.188 C 
ATOM      2  C3  KDO d   1      30.177  -1.970   4.090  0.00  0.00     0.016 C 
ATOM      3  O6  KDO d   1      31.528  -0.692   5.732  0.00  0.00    -0.342 OA
ATOM      4  C6  KDO d   1      32.129   0.124   4.686  0.00  0.00     0.096 C 
ATOM      5  C5  KDO d   1      31.111   0.261   3.540  0.00  0.00     0.088 C 
ATOM      6  C4  KDO d   1      30.833  -1.128   2.982  0.00  0.00     0.074 C 
ATOM      7  H21 KDO d   1      29.212  -1.516   4.358  0.00  0.00     0.045 H 
ATOM      8  H22 KDO d   1      30.010  -2.989   3.711  0.00  0.00     0.045 H 
ATOM      9  H23 KDO d   1      32.995  -0.422   4.283  0.00  0.00     0.091 H 
ATOM     10  H29 KDO d   1      31.546   0.896   2.754  0.00  0.00     0.091 H 
ATOM     11  H31 KDO d   1      31.790  -1.598   2.710  0.00  0.00     0.087 H 
ENDROOT
BRANCH   6  12
ATOM     12  O4  KDO d   1      29.998  -1.047   1.751  0.00  0.00    -0.338 OA
BRANCH  12  13
ATOM     13  C2  KDO d   1      30.694  -1.553   0.595  0.00  0.00     0.259 C 
ATOM     14  C3  KDO d   1      29.772  -1.375  -0.629  0.00  0.00     0.024 C 
ATOM     15  C4  KDO d   1      28.593  -2.340  -0.546  0.00  0.00     0.068 C 
ATOM     16  H1  KDO d   1      30.343  -1.578  -1.547  0.00  0.00     0.045 H 
ATOM     17  H2  KDO d   1      29.395  -0.342  -0.653  0.00  0.00     0.045 H 
ATOM     18  C5  KDO d   1      29.071  -3.774  -0.297  0.00  0.00     0.088 C 
ATOM     19  H3  KDO d   1      27.941  -2.036   0.286  0.00  0.00     0.087 H 
ATOM     20  C6  KDO d   1      29.933  -3.794   0.970  0.00  0.00     0.096 C 
ATOM     21  H5  KDO d   1      28.210  -4.450  -0.190  0.00  0.00     0.091 H 
ATOM     22  O6  KDO d   1      31.076  -2.943   0.792  0.00  0.00    -0.336 OA
ATOM     23  H7  KDO d   1      29.321  -3.425   1.806  0.00  0.00     0.091 H 
BRANCH  13  24
ATOM     24  C1  KDO d   1      31.946  -0.702   0.307  0.00  0.00     0.239 C 
ATOM     25  O1A KDO d   1      31.798   0.539   0.381  0.00  0.00    -0.644 OA
ATOM     26  O1B KDO d   1      32.989  -1.307  -0.032  0.00  0.00    -0.644 OA
ENDBRANCH  13  24
BRANCH  15  27
ATOM     27  O4  KDO d   1      27.843  -2.276  -1.787  0.00  0.00    -0.393 OA
ATOM     28  H4  KDO d   1      27.107  -2.875  -1.742  0.00  0.00     0.210 HD
ENDBRANCH  15  27
BRANCH  18  29
ATOM     29  O5  KDO d   1      29.900  -4.185  -1.390  0.00  0.00    -0.390 OA
ATOM     30  H6  KDO d   1      30.649  -3.604  -1.454  0.00  0.00     0.210 HD
ENDBRANCH  18  29
BRANCH  20  31
ATOM     31  C7  KDO d   1      30.488  -5.176   1.334  0.00  0.00     0.083 C 
ATOM     32  H8  KDO d   1      31.143  -5.529   0.524  0.00  0.00     0.090 H 
BRANCH  31  33
ATOM     33  O7  KDO d   1      29.397  -6.060   1.488  0.00  0.00    -0.391 OA
ATOM     34  H9  KDO d   1      28.829  -5.742   2.180  0.00  0.00     0.210 HD
ENDBRANCH  31  33
BRANCH  31  35
ATOM     35  C8  KDO d   1      31.286  -5.137   2.646  0.00  0.00     0.043 C 
ATOM     36  H10 KDO d   1      32.051  -4.349   2.583  0.00  0.00     0.078 H 
ATOM     37  H11 KDO d   1      31.774  -6.110   2.804  0.00  0.00     0.078 H 
BRANCH  35  38
ATOM     38  O8  KDO d   1      30.412  -4.861   3.747  0.00  0.00    -0.398 OA
ATOM     39  H12 KDO d   1      29.751  -5.541   3.804  0.00  0.00     0.209 HD
ENDBRANCH  35  38
ENDBRANCH  31  35
ENDBRANCH  20  31
ENDBRANCH  12  13
ENDBRANCH   6  12
BRANCH   5  40
ATOM     40  O5  KDO d   1      29.871   0.839   3.965  0.00  0.00    -0.390 OA
ATOM     41  H30 KDO d   1      29.281   0.901   3.223  0.00  0.00     0.210 HD
ENDBRANCH   5  40
BRANCH   1  42
ATOM     42  O2  KDO d   1      32.139  -3.057   5.219  0.00  0.00    -0.349 OA
BRANCH  42  43
ATOM     43  C9  KDO d   1      33.556  -2.668   5.317  0.00  0.00     0.037 C 
ATOM     44  H16 KDO d   1      33.563  -1.586   5.516  0.00  0.00     0.080 H 
ATOM     45  H17 KDO d   1      33.961  -3.204   6.188  0.00  0.00     0.080 H 
BRANCH  43  46
ATOM     46  C10 KDO d   1      34.471  -2.880   4.265  0.00  0.00    -0.089 C 
ATOM     47  C11 KDO d   1      34.538  -4.102   3.575  0.00  0.00    -0.123 C 
ATOM     48  H13 KDO d   1      35.257  -4.232   2.767  0.00  0.00     0.066 H 
ATOM     49  H14 KDO d   1      33.871  -4.919   3.848  0.00  0.00     0.066 H 
ATOM     50  H15 KDO d   1      35.145  -2.074   3.979  0.00  0.00     0.078 H 
ENDBRANCH  43  46
ENDBRANCH  42  43
ENDBRANCH   1  42
BRANCH   1  51
ATOM     51  C1  KDO d   1      30.186  -2.499   6.528  0.00  0.00     0.069 C 
ATOM     52  H18 KDO d   1      30.428  -1.838   7.373  0.00  0.00     0.082 H 
ATOM     53  H19 KDO d   1      30.493  -3.528   6.768  0.00  0.00     0.082 H 
BRANCH  51  54
ATOM     54  O1A KDO d   1      28.956  -2.514   6.438  0.00  0.00    -0.396 OA
ATOM     55  H20 KDO d   1      28.584  -2.822   7.256  0.00  0.00     0.209 HD
ENDBRANCH  51  54
ENDBRANCH   1  51
BRANCH   4  56
ATOM     56  C7  KDO d   1      32.678   1.447   5.273  0.00  0.00     0.083 C 
ATOM     57  H24 KDO d   1      31.832   2.021   5.679  0.00  0.00     0.090 H 
BRANCH  56  58
ATOM     58  O7  KDO d   1      33.319   2.231   4.249  0.00  0.00    -0.391 OA
ATOM     59  H25 KDO d   1      32.690   2.435   3.567  0.00  0.00     0.210 HD
ENDBRANCH  56  58
BRANCH  56  60
ATOM     60  C8  KDO d   1      33.679   1.186   6.407  0.00  0.00     0.043 C 
ATOM     61  H26 KDO d   1      34.148   2.134   6.711  0.00  0.00     0.078 H 
ATOM     62  H27 KDO d   1      34.455   0.487   6.061  0.00  0.00     0.078 H 
BRANCH  60  63
ATOM     63  O8  KDO d   1      32.980   0.615   7.522  0.00  0.00    -0.398 OA
ATOM     64  H28 KDO d   1      32.575  -0.202   7.256  0.00  0.00     0.209 HD
ENDBRANCH  60  63
ENDBRANCH  56  60
ENDBRANCH   4  56
TORSDOF 19
