REMARK  10 active torsions:
REMARK  status: ('A' for Active; 'I' for Inactive)
REMARK       I    between atoms: C1_1  and  N3_16 
REMARK       I    between atoms: N4_17  and  C1_1 
REMARK    1  A    between atoms: O5_2  and  N4_17 
REMARK    2  A    between atoms: C6_18  and  O5_2 
REMARK    3  A    between atoms: C7_3  and  C6_18 
REMARK    4  A    between atoms: N8_19  and  C7_3 
REMARK    5  A    between atoms: C11_5  and  C9_4 
REMARK       I    between atoms: C9_4  and  N8_19 
REMARK    6  A    between atoms: C12_6  and  C11_5 
REMARK    7  A    between atoms: N20_24  and  C14_8 
REMARK    8  A    between atoms: C24_12  and  C21_11 
REMARK    9  A    between atoms: C21_11  and  N20_24 
REMARK   10  A    between atoms: C25_25  and  C24_12 
ROOT
ATOM      1  C12 I50 d   1      18.050 -13.686  21.432  0.00  0.00     0.013 A 
ATOM      2  C13 I50 d   1      17.389 -14.375  22.477  0.00  0.00     0.151 A 
ATOM      3  C14 I50 d   1      18.010 -15.482  23.083  0.00  0.00     0.068 A 
ATOM      4  C15 I50 d   1      19.298 -15.911  22.654  0.00  0.00    -0.053 A 
ATOM      5  C16 I50 d   1      19.961 -15.227  21.618  0.00  0.00    -0.059 A 
ATOM      6  C17 I50 d   1      19.334 -14.117  21.009  0.00  0.00     0.043 A 
ATOM      7 CL18 I50 d   1      20.161 -13.243  19.696  0.00  0.00    -0.084 Cl
ATOM      8  F19 I50 d   1      16.163 -13.977  22.916  0.00  0.00    -0.203 F 
ATOM      9  H5  I50 d   1      19.769 -16.766  23.126  0.00  0.00     0.087 H 
ATOM     10  H6  I50 d   1      20.943 -15.549  21.291  0.00  0.00     0.086 H 
ENDROOT
BRANCH   1  11
ATOM     11  C11 I50 d   1      17.429 -12.468  20.738  0.00  0.00     0.038 C 
ATOM     12  H3  I50 d   1      17.664 -11.562  21.316  0.00  0.00     0.054 H 
ATOM     13  H4  I50 d   1      17.848 -12.375  19.725  0.00  0.00     0.054 H 
BRANCH  11  14
ATOM     14  C9  I50 d   1      15.911 -12.625  20.643  0.00  0.00     0.222 C 
ATOM     15  N8  I50 d   1      15.038 -11.486  20.898  0.00  0.00    -0.359 N 
ATOM     16  H18 I50 d   1      15.423 -10.614  21.198  0.00  0.00     0.162 HD
ATOM     17  O10 I50 d   1      15.467 -13.605  20.146  0.00  0.00    -0.273 OA
BRANCH  15  18
ATOM     18  C7  I50 d   1      13.596 -11.628  20.712  0.00  0.00     0.017 C 
ATOM     19  H1  I50 d   1      13.350 -11.582  19.641  0.00  0.00     0.067 H 
ATOM     20  H2  I50 d   1      13.258 -12.590  21.125  0.00  0.00     0.067 H 
BRANCH  18  21
ATOM     21  C6  I50 d   1      12.915 -10.474  21.453  0.00  0.00     0.061 C 
ATOM     22  H16 I50 d   1      13.508  -9.555  21.338  0.00  0.00     0.080 H 
ATOM     23  H17 I50 d   1      11.906 -10.313  21.046  0.00  0.00     0.080 H 
BRANCH  21  24
ATOM     24  O5  I50 d   1      12.832 -10.821  22.809  0.00  0.00    -0.265 OA
BRANCH  24  25
ATOM     25  N4  I50 d   1      12.353 -12.083  23.185  0.00  0.00    -0.097 N 
ATOM     26  C1  I50 d   1      11.282 -11.893  24.144  0.00  0.00     0.689 C 
ATOM     27  N2  I50 d   1      11.094 -10.758  24.654  0.00  0.00    -0.233 N 
ATOM     28  N3  I50 d   1      10.304 -12.949  24.333  0.00  0.00    -0.233 N 
ATOM     29  H11 I50 d   1      10.334 -10.619  25.335  0.00  0.00     0.174 HD
ATOM     30  H12 I50 d   1      11.700  -9.968  24.390  0.00  0.00     0.174 HD
ATOM     31  H13 I50 d   1      10.461 -13.877  23.914  0.00  0.00     0.174 HD
ATOM     32  H14 I50 d   1       9.453 -12.770  24.886  0.00  0.00     0.174 HD
ATOM     33  H15 I50 d   1      12.701 -12.989  22.840  0.00  0.00     0.213 HD
ENDBRANCH  24  25
ENDBRANCH  21  24
ENDBRANCH  18  21
ENDBRANCH  15  18
ENDBRANCH  11  14
ENDBRANCH   1  11
BRANCH   3  34
ATOM     34  N20 I50 d   1      17.349 -16.196  24.172  0.00  0.00    -0.381 N 
ATOM     35  H19 I50 d   1      16.458 -15.860  24.565  0.00  0.00     0.160 HD
BRANCH  34  36
ATOM     36  C21 I50 d   1      17.992 -17.400  24.685  0.00  0.00     0.058 C 
ATOM     37  H7  I50 d   1      17.248 -18.205  24.773  0.00  0.00     0.073 H 
ATOM     38  H8  I50 d   1      18.791 -17.712  23.996  0.00  0.00     0.073 H 
BRANCH  36  39
ATOM     39  C24 I50 d   1      18.595 -17.103  26.071  0.00  0.00     0.286 C 
ATOM     40  F31 I50 d   1      17.669 -16.436  26.825  0.00  0.00    -0.199 F 
ATOM     41  F32 I50 d   1      18.883 -18.303  26.648  0.00  0.00    -0.199 F 
BRANCH  39  42
ATOM     42  C25 I50 d   1      19.858 -16.229  25.915  0.00  0.00     0.015 A 
ATOM     43  C30 I50 d   1      19.777 -14.832  26.172  0.00  0.00    -0.071 A 
ATOM     44  C29 I50 d   1      20.916 -14.020  26.016  0.00  0.00    -0.082 A 
ATOM     45  H10 I50 d   1      18.838 -14.393  26.488  0.00  0.00     0.084 H 
ATOM     46  C28 I50 d   1      22.147 -14.589  25.597  0.00  0.00    -0.083 A 
ATOM     47  H22 I50 d   1      20.853 -12.957  26.216  0.00  0.00     0.083 H 
ATOM     48  C27 I50 d   1      22.229 -15.983  25.340  0.00  0.00    -0.082 A 
ATOM     49  H21 I50 d   1      23.022 -13.961  25.474  0.00  0.00     0.083 H 
ATOM     50  C26 I50 d   1      21.088 -16.797  25.493  0.00  0.00    -0.071 A 
ATOM     51  H9  I50 d   1      23.169 -16.422  25.026  0.00  0.00     0.083 H 
ATOM     52  H20 I50 d   1      21.151 -17.860  25.288  0.00  0.00     0.084 H 
ENDBRANCH  39  42
ENDBRANCH  36  39
ENDBRANCH  34  36
ENDBRANCH   3  34
TORSDOF 10
