REMARK  4 active torsions:
REMARK  status: ('A' for Active; 'I' for Inactive)
REMARK       I    between atoms: N1_13  and  C1_1 
REMARK       I    between atoms: C1_1  and  N2_14 
REMARK    1  A    between atoms: C2_2  and  N1_13 
REMARK    2  A    between atoms: C8_5  and  C9_6 
REMARK    3  A    between atoms: C5_17  and  C8_5 
REMARK    4  A    between atoms: C9_6  and  C10_7 
ROOT
ATOM      1  C2  4PG d   1      31.933   5.977  28.441  0.00  0.00     0.049 A 
ATOM      2  C3  4PG d   1      31.321   5.185  29.466  0.00  0.00    -0.056 A 
ATOM      3  C7  4PG d   1      31.176   6.999  27.813  0.00  0.00    -0.056 A 
ATOM      4  C4  4PG d   1      29.976   5.416  29.851  0.00  0.00    -0.074 A 
ATOM      5  C5  4PG d   1      29.202   6.439  29.231  0.00  0.00    -0.051 A 
ATOM      6  C6  4PG d   1      29.819   7.234  28.199  0.00  0.00    -0.074 A 
ATOM      7  H1  4PG d   1      31.892   4.402  29.952  0.00  0.00     0.086 H 
ATOM      8  H2  4PG d   1      31.628   7.605  27.036  0.00  0.00     0.086 H 
ATOM      9  H15 4PG d   1      29.530   4.806  30.628  0.00  0.00     0.084 H 
ATOM     10  H16 4PG d   1      29.250   8.017  27.711  0.00  0.00     0.084 H 
ENDROOT
BRANCH   5  11
ATOM     11  C8  4PG d   1      27.736   6.641  29.702  0.00  0.00     0.019 C 
ATOM     12  H3  4PG d   1      27.139   5.793  29.335  0.00  0.00     0.052 H 
ATOM     13  H4  4PG d   1      27.728   6.647  30.802  0.00  0.00     0.052 H 
BRANCH  11  14
ATOM     14  C9  4PG d   1      27.080   7.925  29.218  0.00  0.00     0.163 C 
ATOM     15  O1  4PG d   1      26.477   7.886  28.152  0.00  0.00    -0.292 OA
BRANCH  14  16
ATOM     16  C10 4PG d   1      27.147   9.239  30.001  0.00  0.00     0.010 A 
ATOM     17  C11 4PG d   1      26.504  10.407  29.482  0.00  0.00    -0.070 A 
ATOM     18  C12 4PG d   1      26.554  11.640  30.192  0.00  0.00    -0.082 A 
ATOM     19  H5  4PG d   1      25.973  10.353  28.538  0.00  0.00     0.085 H 
ATOM     20  C13 4PG d   1      27.248  11.722  31.437  0.00  0.00    -0.083 A 
ATOM     21  H6  4PG d   1      26.064  12.518  29.787  0.00  0.00     0.083 H 
ATOM     22  C14 4PG d   1      27.890  10.571  31.966  0.00  0.00    -0.082 A 
ATOM     23  H7  4PG d   1      27.285  12.661  31.977  0.00  0.00     0.083 H 
ATOM     24  C15 4PG d   1      27.841   9.335  31.256  0.00  0.00    -0.070 A 
ATOM     25  H8  4PG d   1      28.418  10.632  32.911  0.00  0.00     0.083 H 
ATOM     26  H9  4PG d   1      28.332   8.460  31.667  0.00  0.00     0.085 H 
ENDBRANCH  14  16
ENDBRANCH  11  14
ENDBRANCH   5  11
BRANCH   1  27
ATOM     27  N1  4PG d   1      33.244   5.769  28.074  0.00  0.00    -0.193 N 
ATOM     28  C1  4PG d   1      33.874   4.645  27.885  0.00  0.00     0.669 C 
ATOM     29  N2  4PG d   1      35.106   4.749  27.564  0.00  0.00    -0.235 N 
ATOM     30  N3  4PG d   1      33.376   3.469  28.004  0.00  0.00    -0.235 N 
ATOM     31  H11 4PG d   1      35.668   3.902  27.399  0.00  0.00     0.174 HD
ATOM     32  H12 4PG d   1      35.537   5.680  27.471  0.00  0.00     0.174 HD
ATOM     33  H13 4PG d   1      32.386   3.353  28.262  0.00  0.00     0.174 HD
ATOM     34  H14 4PG d   1      33.967   2.641  27.842  0.00  0.00     0.174 HD
ATOM     35  H10 4PG d   1      33.804   6.621  27.929  0.00  0.00     0.184 HD
ENDBRANCH   1  27
TORSDOF 4
