REMARK  12 active torsions:
REMARK  status: ('A' for Active; 'I' for Inactive)
REMARK       I    between atoms: C9_14  and  N2_3 
REMARK       I    between atoms: C8_12  and  N1_6 
REMARK    1  A    between atoms: C4_8  and  C9_14 
REMARK    2  A    between atoms: C6_10  and  C8_12 
REMARK    3  A    between atoms: C7_11  and  C12_18 
REMARK    4  A    between atoms: N28_32  and  C7_11 
REMARK    5  A    between atoms: S8_13  and  C26_30 
REMARK    6  A    between atoms: N28_32  and  S8_13 
REMARK    7  A    between atoms: S9_15  and  C27_31 
REMARK    8  A    between atoms: N32_36  and  S9_15 
REMARK    9  A    between atoms: C23_27  and  N28_32 
REMARK   10  A    between atoms: C24_28  and  N32_36 
REMARK   11  A    between atoms: N32_36  and  C33_37 
REMARK   12  A    between atoms: C33_37  and  C34_38 
ROOT
ATOM      1  C21 G4G d   1      12.548 -17.744 -18.134  0.00  0.00     0.103 C 
ATOM      2  N22 G4G d   1      13.908 -18.187 -18.563  0.00  0.00    -0.071 N 
ATOM      3  C23 G4G d   1      11.917 -18.964 -17.431  0.00  0.00     0.068 C 
ATOM      4  C24 G4G d   1      12.671 -20.221 -18.033  0.00  0.00     0.068 C 
ATOM      5  C25 G4G d   1      13.984 -19.656 -18.638  0.00  0.00     0.103 C 
ATOM      6  H17 G4G d   1      11.947 -17.450 -19.007  0.00  0.00     0.079 H 
ATOM      7  H18 G4G d   1      12.622 -16.896 -17.438  0.00  0.00     0.079 H 
ATOM      8  H19 G4G d   1      14.588 -17.855 -17.897  0.00  0.00     0.277 HD
ATOM      9  H20 G4G d   1      14.110 -17.799 -19.471  0.00  0.00     0.277 HD
ATOM     10  H21 G4G d   1      10.835 -19.009 -17.621  0.00  0.00     0.079 H 
ATOM     11  H22 G4G d   1      12.904 -20.946 -17.239  0.00  0.00     0.079 H 
ATOM     12  H23 G4G d   1      14.849 -20.017 -18.062  0.00  0.00     0.079 H 
ATOM     13  H24 G4G d   1      14.082 -19.974 -19.686  0.00  0.00     0.079 H 
ENDROOT
BRANCH   3  14
ATOM     14  N28 G4G d   1      12.190 -18.950 -15.949  0.00  0.00    -0.294 N 
BRANCH  14  15
ATOM     15  C7  G4G d   1      13.465 -18.713 -15.248  0.00  0.00     0.029 C 
ATOM     16  H9  G4G d   1      14.017 -17.920 -15.774  0.00  0.00     0.072 H 
ATOM     17  H10 G4G d   1      13.249 -18.389 -14.219  0.00  0.00     0.072 H 
BRANCH  15  18
ATOM     18  C12 G4G d   1      14.337 -19.970 -15.196  0.00  0.00    -0.040 A 
ATOM     19  C13 G4G d   1      13.775 -21.236 -14.829  0.00  0.00    -0.075 A 
ATOM     20  C29 G4G d   1      14.628 -22.383 -14.801  0.00  0.00    -0.082 A 
ATOM     21  H11 G4G d   1      12.724 -21.322 -14.578  0.00  0.00     0.084 H 
ATOM     22  C31 G4G d   1      16.020 -22.298 -15.098  0.00  0.00    -0.083 A 
ATOM     23  H25 G4G d   1      14.203 -23.347 -14.546  0.00  0.00     0.083 H 
ATOM     24  C30 G4G d   1      16.583 -21.040 -15.464  0.00  0.00    -0.082 A 
ATOM     25  H27 G4G d   1      16.645 -23.182 -15.046  0.00  0.00     0.083 H 
ATOM     26  C14 G4G d   1      15.729 -19.898 -15.527  0.00  0.00    -0.075 A 
ATOM     27  H26 G4G d   1      17.640 -20.953 -15.690  0.00  0.00     0.083 H 
ATOM     28  H12 G4G d   1      16.147 -18.946 -15.835  0.00  0.00     0.084 H 
ENDBRANCH  15  18
ENDBRANCH  14  15
BRANCH  14  29
ATOM     29  S8  G4G d   1      10.840 -19.314 -14.999  0.00  0.00     0.261 S 
ATOM     30  O10 G4G d   1      10.244 -20.508 -15.581  0.00  0.00    -0.200 OA
ATOM     31  O41 G4G d   1      11.296 -19.434 -13.589  0.00  0.00    -0.200 OA
BRANCH  29  32
ATOM     32  C26 G4G d   1       9.720 -17.972 -15.036  0.00  0.00     0.079 A 
ATOM     33  C17 G4G d   1      10.024 -16.716 -14.442  0.00  0.00    -0.059 A 
ATOM     34  C1  G4G d   1       9.091 -15.638 -14.470  0.00  0.00    -0.066 A 
ATOM     35  H13 G4G d   1      10.984 -16.575 -13.958  0.00  0.00     0.085 H 
ATOM     36  C4  G4G d   1       7.834 -15.833 -15.147  0.00  0.00     0.031 A 
ATOM     37  H1  G4G d   1       9.322 -14.693 -13.992  0.00  0.00     0.085 H 
ATOM     38  C3  G4G d   1       7.523 -17.075 -15.759  0.00  0.00    -0.066 A 
ATOM     39  C19 G4G d   1       8.459 -18.150 -15.696  0.00  0.00    -0.059 A 
ATOM     40  H7  G4G d   1       6.577 -17.206 -16.273  0.00  0.00     0.085 H 
ATOM     41  H15 G4G d   1       8.216 -19.105 -16.148  0.00  0.00     0.085 H 
BRANCH  36  42
ATOM     42  C9  G4G d   1       6.888 -14.708 -15.135  0.00  0.00     0.249 C 
ATOM     43  N2  G4G d   1       5.591 -14.937 -15.375  0.00  0.00    -0.366 N 
ATOM     44  H2  G4G d   1       5.276 -15.864 -15.578  0.00  0.00     0.159 HD
ATOM     45  H3  G4G d   1       4.937 -14.181 -15.351  0.00  0.00     0.159 HD
ATOM     46  O1  G4G d   1       7.304 -13.591 -14.885  0.00  0.00    -0.268 OA
ENDBRANCH  36  42
ENDBRANCH  29  32
ENDBRANCH  14  29
ENDBRANCH   3  14
BRANCH   4  47
ATOM     47  N32 G4G d   1      11.807 -20.890 -19.073  0.00  0.00    -0.294 N 
BRANCH  47  48
ATOM     48  S9  G4G d   1      11.455 -22.544 -18.773  0.00  0.00     0.261 S 
ATOM     49  O11 G4G d   1      11.453 -22.795 -17.349  0.00  0.00    -0.200 OA
ATOM     50  O40 G4G d   1      10.479 -22.979 -19.757  0.00  0.00    -0.200 OA
BRANCH  48  51
ATOM     51  C27 G4G d   1      12.993 -23.210 -19.405  0.00  0.00     0.079 A 
ATOM     52  C18 G4G d   1      13.256 -23.227 -20.800  0.00  0.00    -0.059 A 
ATOM     53  C2  G4G d   1      14.490 -23.745 -21.258  0.00  0.00    -0.066 A 
ATOM     54  H14 G4G d   1      12.523 -22.849 -21.503  0.00  0.00     0.085 H 
ATOM     55  C6  G4G d   1      15.429 -24.264 -20.352  0.00  0.00     0.031 A 
ATOM     56  H4  G4G d   1      14.713 -23.741 -22.319  0.00  0.00     0.085 H 
ATOM     57  C5  G4G d   1      15.183 -24.272 -18.959  0.00  0.00    -0.066 A 
ATOM     58  C20 G4G d   1      13.941 -23.745 -18.502  0.00  0.00    -0.059 A 
ATOM     59  H8  G4G d   1      15.915 -24.666 -18.263  0.00  0.00     0.085 H 
ATOM     60  H16 G4G d   1      13.718 -23.754 -17.441  0.00  0.00     0.085 H 
BRANCH  55  61
ATOM     61  C8  G4G d   1      16.733 -24.799 -20.898  0.00  0.00     0.249 C 
ATOM     62  O2  G4G d   1      17.088 -24.464 -22.015  0.00  0.00    -0.268 OA
ATOM     63  N1  G4G d   1      17.482 -25.623 -20.146  0.00  0.00    -0.366 N 
ATOM     64  H5  G4G d   1      17.172 -25.886 -19.232  0.00  0.00     0.159 HD
ATOM     65  H6  G4G d   1      18.349 -25.974 -20.500  0.00  0.00     0.159 HD
ENDBRANCH  55  61
ENDBRANCH  48  51
ENDBRANCH  47  48
BRANCH  47  66
ATOM     66  C33 G4G d   1      11.278 -20.279 -20.323  0.00  0.00     0.029 C 
ATOM     67  H28 G4G d   1      11.084 -21.089 -21.042  0.00  0.00     0.072 H 
ATOM     68  H29 G4G d   1      12.050 -19.608 -20.727  0.00  0.00     0.072 H 
BRANCH  66  69
ATOM     69  C34 G4G d   1       9.994 -19.476 -20.159  0.00  0.00    -0.040 A 
ATOM     70  C35 G4G d   1       9.051 -19.862 -19.185  0.00  0.00    -0.075 A 
ATOM     71  C36 G4G d   1       7.868 -19.078 -19.080  0.00  0.00    -0.082 A 
ATOM     72  H30 G4G d   1       9.220 -20.719 -18.543  0.00  0.00     0.084 H 
ATOM     73  C37 G4G d   1       7.665 -17.945 -19.923  0.00  0.00    -0.083 A 
ATOM     74  H31 G4G d   1       7.112 -19.345 -18.351  0.00  0.00     0.083 H 
ATOM     75  C39 G4G d   1       8.619 -17.562 -20.902  0.00  0.00    -0.082 A 
ATOM     76  H32 G4G d   1       6.758 -17.361 -19.813  0.00  0.00     0.083 H 
ATOM     77  C38 G4G d   1       9.785 -18.362 -21.018  0.00  0.00    -0.075 A 
ATOM     78  H34 G4G d   1       8.463 -16.695 -21.534  0.00  0.00     0.083 H 
ATOM     79  H33 G4G d   1      10.526 -18.121 -21.771  0.00  0.00     0.084 H 
ENDBRANCH  66  69
ENDBRANCH  47  66
ENDBRANCH   4  47
TORSDOF 12
