REMARK  12 active torsions:
REMARK  status: ('A' for Active; 'I' for Inactive)
REMARK       I    between atoms: C9_14  and  N2_3 
REMARK       I    between atoms: C8_12  and  N1_6 
REMARK    1  A    between atoms: C4_8  and  C9_14 
REMARK    2  A    between atoms: C6_10  and  C8_12 
REMARK    3  A    between atoms: C7_11  and  C12_18 
REMARK    4  A    between atoms: N28_32  and  C7_11 
REMARK    5  A    between atoms: S8_13  and  C26_30 
REMARK    6  A    between atoms: N28_32  and  S8_13 
REMARK    7  A    between atoms: S9_15  and  C27_31 
REMARK    8  A    between atoms: N32_36  and  S9_15 
REMARK    9  A    between atoms: C23_27  and  N28_32 
REMARK   10  A    between atoms: C24_28  and  N32_36 
REMARK   11  A    between atoms: N32_36  and  C33_37 
REMARK   12  A    between atoms: C33_37  and  C34_38 
ROOT
ATOM      1  C21 G4G d   1     -12.339  17.494 -18.148  0.00  0.00     0.103 C 
ATOM      2  N22 G4G d   1     -13.734  17.941 -18.425  0.00  0.00    -0.071 N 
ATOM      3  C23 G4G d   1     -11.716  18.620 -17.310  0.00  0.00     0.068 C 
ATOM      4  C24 G4G d   1     -12.438  19.922 -17.844  0.00  0.00     0.068 C 
ATOM      5  C25 G4G d   1     -13.788  19.427 -18.450  0.00  0.00     0.103 C 
ATOM      6  H17 G4G d   1     -11.783  17.359 -19.088  0.00  0.00     0.079 H 
ATOM      7  H18 G4G d   1     -12.341  16.549 -17.584  0.00  0.00     0.079 H 
ATOM      8  H19 G4G d   1     -14.346  17.596 -17.703  0.00  0.00     0.277 HD
ATOM      9  H20 G4G d   1     -14.031  17.580 -19.318  0.00  0.00     0.277 HD
ATOM     10  H21 G4G d   1     -10.631  18.659 -17.487  0.00  0.00     0.079 H 
ATOM     11  H22 G4G d   1     -12.629  20.619 -17.014  0.00  0.00     0.079 H 
ATOM     12  H23 G4G d   1     -14.633  19.788 -17.845  0.00  0.00     0.079 H 
ATOM     13  H24 G4G d   1     -13.897  19.787 -19.484  0.00  0.00     0.079 H 
ENDROOT
BRANCH   3  14
ATOM     14  N28 G4G d   1     -11.968  18.548 -15.834  0.00  0.00    -0.294 N 
BRANCH  14  15
ATOM     15  C7  G4G d   1     -13.248  18.288 -15.128  0.00  0.00     0.029 C 
ATOM     16  H9  G4G d   1     -13.846  17.567 -15.705  0.00  0.00     0.072 H 
ATOM     17  H10 G4G d   1     -13.040  17.876 -14.129  0.00  0.00     0.072 H 
BRANCH  15  18
ATOM     18  C12 G4G d   1     -14.034  19.618 -14.987  0.00  0.00    -0.040 A 
ATOM     19  C13 G4G d   1     -13.355  20.789 -14.511  0.00  0.00    -0.075 A 
ATOM     20  C29 G4G d   1     -14.125  21.995 -14.416  0.00  0.00    -0.082 A 
ATOM     21  H11 G4G d   1     -12.307  20.763 -14.236  0.00  0.00     0.084 H 
ATOM     22  C31 G4G d   1     -15.507  22.049 -14.757  0.00  0.00    -0.083 A 
ATOM     23  H25 G4G d   1     -13.637  22.900 -14.072  0.00  0.00     0.083 H 
ATOM     24  C30 G4G d   1     -16.188  20.887 -15.223  0.00  0.00    -0.082 A 
ATOM     25  H27 G4G d   1     -16.047  22.984 -14.661  0.00  0.00     0.083 H 
ATOM     26  C14 G4G d   1     -15.424  19.683 -15.313  0.00  0.00    -0.075 A 
ATOM     27  H26 G4G d   1     -17.237  20.915 -15.496  0.00  0.00     0.083 H 
ATOM     28  H12 G4G d   1     -15.921  18.778 -15.643  0.00  0.00     0.084 H 
ENDBRANCH  15  18
ENDBRANCH  14  15
BRANCH  14  29
ATOM     29  S8  G4G d   1     -10.591  18.898 -14.895  0.00  0.00     0.261 S 
ATOM     30  O10 G4G d   1     -10.018  20.097 -15.498  0.00  0.00    -0.200 OA
ATOM     31  O41 G4G d   1     -11.008  18.939 -13.472  0.00  0.00    -0.200 OA
BRANCH  29  32
ATOM     32  C26 G4G d   1      -9.475  17.547 -14.967  0.00  0.00     0.079 A 
ATOM     33  C17 G4G d   1      -9.806  16.264 -14.447  0.00  0.00    -0.059 A 
ATOM     34  C1  G4G d   1      -8.856  15.204 -14.519  0.00  0.00    -0.066 A 
ATOM     35  H13 G4G d   1     -10.778  16.094 -13.998  0.00  0.00     0.085 H 
ATOM     36  C4  G4G d   1      -7.577  15.433 -15.134  0.00  0.00     0.031 A 
ATOM     37  H1  G4G d   1      -9.097  14.229 -14.112  0.00  0.00     0.085 H 
ATOM     38  C3  G4G d   1      -7.256  16.710 -15.667  0.00  0.00    -0.066 A 
ATOM     39  C19 G4G d   1      -8.203  17.764 -15.577  0.00  0.00    -0.059 A 
ATOM     40  H7  G4G d   1      -6.295  16.879 -16.139  0.00  0.00     0.085 H 
ATOM     41  H15 G4G d   1      -7.958  18.742 -15.975  0.00  0.00     0.085 H 
BRANCH  36  42
ATOM     42  C9  G4G d   1      -6.600  14.337 -15.208  0.00  0.00     0.249 C 
ATOM     43  N2  G4G d   1      -5.309  14.622 -15.473  0.00  0.00    -0.366 N 
ATOM     44  H2  G4G d   1      -5.028  15.569 -15.631  0.00  0.00     0.159 HD
ATOM     45  H3  G4G d   1      -4.632  13.887 -15.511  0.00  0.00     0.159 HD
ATOM     46  O1  G4G d   1      -6.984  13.188 -15.008  0.00  0.00    -0.268 OA
ENDBRANCH  36  42
ENDBRANCH  29  32
ENDBRANCH  14  29
ENDBRANCH   3  14
BRANCH   4  47
ATOM     47  N32 G4G d   1     -11.595  20.611 -18.879  0.00  0.00    -0.294 N 
BRANCH  47  48
ATOM     48  S9  G4G d   1     -11.300  22.257 -18.532  0.00  0.00     0.261 S 
ATOM     49  O11 G4G d   1     -11.404  22.555 -17.122  0.00  0.00    -0.200 OA
ATOM     50  O40 G4G d   1     -10.240  22.705 -19.428  0.00  0.00    -0.200 OA
BRANCH  48  51
ATOM     51  C27 G4G d   1     -12.773  22.943 -19.264  0.00  0.00     0.079 A 
ATOM     52  C18 G4G d   1     -12.831  23.205 -20.652  0.00  0.00    -0.059 A 
ATOM     53  C2  G4G d   1     -14.028  23.751 -21.189  0.00  0.00    -0.066 A 
ATOM     54  H14 G4G d   1     -11.982  22.994 -21.292  0.00  0.00     0.085 H 
ATOM     55  C6  G4G d   1     -15.098  24.063 -20.334  0.00  0.00     0.031 A 
ATOM     56  H4  G4G d   1     -14.115  23.926 -22.255  0.00  0.00     0.085 H 
ATOM     57  C5  G4G d   1     -15.075  23.759 -18.961  0.00  0.00    -0.066 A 
ATOM     58  C20 G4G d   1     -13.876  23.223 -18.417  0.00  0.00    -0.059 A 
ATOM     59  H8  G4G d   1     -15.945  23.928 -18.337  0.00  0.00     0.085 H 
ATOM     60  H16 G4G d   1     -13.804  23.028 -17.353  0.00  0.00     0.085 H 
BRANCH  55  61
ATOM     61  C8  G4G d   1     -16.371  24.578 -20.963  0.00  0.00     0.249 C 
ATOM     62  O2  G4G d   1     -16.675  24.207 -22.081  0.00  0.00    -0.268 OA
ATOM     63  N1  G4G d   1     -17.132  25.428 -20.276  0.00  0.00    -0.366 N 
ATOM     64  H5  G4G d   1     -16.857  25.716 -19.359  0.00  0.00     0.159 HD
ATOM     65  H6  G4G d   1     -17.978  25.778 -20.678  0.00  0.00     0.159 HD
ENDBRANCH  55  61
ENDBRANCH  48  51
ENDBRANCH  47  48
BRANCH  47  66
ATOM     66  C33 G4G d   1     -11.105  19.990 -20.136  0.00  0.00     0.029 C 
ATOM     67  H28 G4G d   1     -10.974  20.792 -20.877  0.00  0.00     0.072 H 
ATOM     68  H29 G4G d   1     -11.877  19.290 -20.487  0.00  0.00     0.072 H 
BRANCH  66  69
ATOM     69  C34 G4G d   1      -9.793  19.225 -20.045  0.00  0.00    -0.040 A 
ATOM     70  C35 G4G d   1      -8.867  19.525 -19.021  0.00  0.00    -0.075 A 
ATOM     71  C36 G4G d   1      -7.659  18.764 -18.994  0.00  0.00    -0.082 A 
ATOM     72  H30 G4G d   1      -9.065  20.299 -18.288  0.00  0.00     0.084 H 
ATOM     73  C37 G4G d   1      -7.407  17.783 -19.992  0.00  0.00    -0.083 A 
ATOM     74  H31 G4G d   1      -6.931  18.935 -18.209  0.00  0.00     0.083 H 
ATOM     75  C39 G4G d   1      -8.360  17.465 -20.991  0.00  0.00    -0.082 A 
ATOM     76  H32 G4G d   1      -6.456  17.262 -19.988  0.00  0.00     0.083 H 
ATOM     77  C38 G4G d   1      -9.561  18.219 -21.024  0.00  0.00    -0.075 A 
ATOM     78  H34 G4G d   1      -8.177  16.672 -21.707  0.00  0.00     0.083 H 
ATOM     79  H33 G4G d   1     -10.300  18.029 -21.794  0.00  0.00     0.084 H 
ENDBRANCH  66  69
ENDBRANCH  47  66
ENDBRANCH   4  47
TORSDOF 12
