REMARK  12 active torsions:
REMARK  status: ('A' for Active; 'I' for Inactive)
REMARK    1  A    between atoms: C6_2  and  N43_41 
REMARK    2  A    between atoms: C27_5  and  S9_7 
REMARK    3  A    between atoms: S9_7  and  N32_10 
REMARK    4  A    between atoms: N32_10  and  C33_11 
REMARK    5  A    between atoms: N32_10  and  C24_18 
REMARK    6  A    between atoms: C33_11  and  C34_12 
REMARK    7  A    between atoms: C23_22  and  N28_23 
REMARK    8  A    between atoms: N28_23  and  C7_24 
REMARK    9  A    between atoms: N28_23  and  S8_31 
REMARK   10  A    between atoms: C7_24  and  C12_25 
REMARK   11  A    between atoms: S8_31  and  C26_32 
REMARK   12  A    between atoms: C4_35  and  N42_40 
ROOT
ATOM      1  C24 G3G d   1     -12.723 -20.193  18.179  0.00  0.00     0.068 C 
ATOM      2  C25 G3G d   1     -13.996 -19.563  18.790  0.00  0.00     0.103 C 
ATOM      3  N22 G3G d   1     -13.939 -18.096  18.546  0.00  0.00    -0.071 N 
ATOM      4  C21 G3G d   1     -12.524 -17.728  18.239  0.00  0.00     0.103 C 
ATOM      5  C23 G3G d   1     -11.975 -18.973  17.493  0.00  0.00     0.068 C 
ATOM      6  H12 G3G d   1     -13.013 -20.942  17.427  0.00  0.00     0.079 H 
ATOM      7  H13 G3G d   1     -14.030 -19.762  19.871  0.00  0.00     0.079 H 
ATOM      8  H14 G3G d   1     -14.891 -19.988  18.311  0.00  0.00     0.079 H 
ATOM      9  H15 G3G d   1     -14.250 -17.601  19.367  0.00  0.00     0.277 HD
ATOM     10  H16 G3G d   1     -14.531 -17.857  17.766  0.00  0.00     0.277 HD
ATOM     11  H17 G3G d   1     -11.957 -17.543  19.163  0.00  0.00     0.079 H 
ATOM     12  H18 G3G d   1     -12.481 -16.835  17.598  0.00  0.00     0.079 H 
ATOM     13  H19 G3G d   1     -10.888 -19.061  17.637  0.00  0.00     0.079 H 
ENDROOT
BRANCH   1  14
ATOM     14  N32 G3G d   1     -11.785 -20.849  19.169  0.00  0.00    -0.294 N 
BRANCH  14  15
ATOM     15  S9  G3G d   1     -11.453 -22.526  18.919  0.00  0.00     0.261 S 
ATOM     16  O40 G3G d   1     -10.441 -22.958  19.864  0.00  0.00    -0.200 OA
ATOM     17  O11 G3G d   1     -11.462 -22.828  17.498  0.00  0.00    -0.200 OA
BRANCH  15  18
ATOM     18  C27 G3G d   1     -12.954 -23.173  19.637  0.00  0.00     0.079 A 
ATOM     19  C20 G3G d   1     -13.989 -23.639  18.789  0.00  0.00    -0.058 A 
ATOM     20  C5  G3G d   1     -15.189 -24.164  19.337  0.00  0.00    -0.056 A 
ATOM     21  H3  G3G d   1     -13.864 -23.594  17.713  0.00  0.00     0.086 H 
ATOM     22  C6  G3G d   1     -15.353 -24.198  20.742  0.00  0.00     0.025 A 
ATOM     23  H2  G3G d   1     -15.972 -24.535  18.685  0.00  0.00     0.086 H 
ATOM     24  C2  G3G d   1     -14.331 -23.739  21.595  0.00  0.00    -0.056 A 
ATOM     25  C18 G3G d   1     -13.122 -23.236  21.045  0.00  0.00    -0.058 A 
ATOM     26  H1  G3G d   1     -14.467 -23.770  22.670  0.00  0.00     0.086 H 
ATOM     27  H4  G3G d   1     -12.327 -22.900  21.701  0.00  0.00     0.086 H 
BRANCH  22  28
ATOM     28  N43 G3G d   1     -16.495 -24.681  21.264  0.00  0.00    -0.399 N 
ATOM     29  H33 G3G d   1     -16.623 -24.709  22.286  0.00  0.00     0.156 HD
ATOM     30  H34 G3G d   1     -17.242 -25.022  20.642  0.00  0.00     0.156 HD
ENDBRANCH  22  28
ENDBRANCH  15  18
ENDBRANCH  14  15
BRANCH  14  31
ATOM     31  C33 G3G d   1     -11.314 -20.239  20.448  0.00  0.00     0.029 C 
ATOM     32  H5  G3G d   1     -11.152 -21.049  21.175  0.00  0.00     0.072 H 
ATOM     33  H6  G3G d   1     -12.102 -19.566  20.818  0.00  0.00     0.072 H 
BRANCH  31  34
ATOM     34  C34 G3G d   1     -10.019 -19.437  20.332  0.00  0.00    -0.040 A 
ATOM     35  C38 G3G d   1      -9.761 -18.388  21.257  0.00  0.00    -0.075 A 
ATOM     36  C39 G3G d   1      -8.575 -17.619  21.180  0.00  0.00    -0.082 A 
ATOM     37  H7  G3G d   1     -10.485 -18.174  22.035  0.00  0.00     0.084 H 
ATOM     38  C37 G3G d   1      -7.636 -17.921  20.158  0.00  0.00    -0.083 A 
ATOM     39  H8  G3G d   1      -8.388 -16.817  21.885  0.00  0.00     0.083 H 
ATOM     40  C36 G3G d   1      -7.886 -18.984  19.240  0.00  0.00    -0.082 A 
ATOM     41  H9  G3G d   1      -6.724 -17.340  20.075  0.00  0.00     0.083 H 
ATOM     42  C35 G3G d   1      -9.085 -19.741  19.313  0.00  0.00    -0.075 A 
ATOM     43  H10 G3G d   1      -7.152 -19.217  18.477  0.00  0.00     0.083 H 
ATOM     44  H11 G3G d   1      -9.281 -20.536  18.602  0.00  0.00     0.084 H 
ENDBRANCH  31  34
ENDBRANCH  14  31
ENDBRANCH   1  14
BRANCH   5  45
ATOM     45  N28 G3G d   1     -12.267 -18.891  16.022  0.00  0.00    -0.294 N 
BRANCH  45  46
ATOM     46  C7  G3G d   1     -13.582 -18.751  15.371  0.00  0.00     0.029 C 
ATOM     47  H20 G3G d   1     -13.411 -18.438  14.330  0.00  0.00     0.072 H 
ATOM     48  H21 G3G d   1     -14.140 -17.966  15.903  0.00  0.00     0.072 H 
BRANCH  46  49
ATOM     49  C12 G3G d   1     -14.451 -20.007  15.345  0.00  0.00    -0.040 A 
ATOM     50  C14 G3G d   1     -15.872 -19.870  15.454  0.00  0.00    -0.075 A 
ATOM     51  C30 G3G d   1     -16.736 -21.002  15.418  0.00  0.00    -0.082 A 
ATOM     52  H22 G3G d   1     -16.301 -18.881  15.567  0.00  0.00     0.084 H 
ATOM     53  C31 G3G d   1     -16.164 -22.305  15.297  0.00  0.00    -0.083 A 
ATOM     54  H23 G3G d   1     -17.811 -20.876  15.482  0.00  0.00     0.083 H 
ATOM     55  C29 G3G d   1     -14.749 -22.452  15.210  0.00  0.00    -0.082 A 
ATOM     56  H24 G3G d   1     -16.804 -23.180  15.271  0.00  0.00     0.083 H 
ATOM     57  C13 G3G d   1     -13.886 -21.313  15.225  0.00  0.00    -0.075 A 
ATOM     58  H25 G3G d   1     -14.320 -23.445  15.131  0.00  0.00     0.083 H 
ATOM     59  H26 G3G d   1     -12.812 -21.439  15.146  0.00  0.00     0.084 H 
ENDBRANCH  46  49
ENDBRANCH  45  46
BRANCH  45  60
ATOM     60  S8  G3G d   1     -10.952 -19.258  15.026  0.00  0.00     0.261 S 
ATOM     61  O41 G3G d   1     -11.441 -19.450  13.647  0.00  0.00    -0.200 OA
ATOM     62  O10 G3G d   1     -10.250 -20.410  15.616  0.00  0.00    -0.200 OA
BRANCH  60  63
ATOM     63  C26 G3G d   1      -9.845 -17.889  15.050  0.00  0.00     0.079 A 
ATOM     64  C17 G3G d   1     -10.074 -16.615  14.464  0.00  0.00    -0.058 A 
ATOM     65  C1  G3G d   1      -9.104 -15.565  14.565  0.00  0.00    -0.056 A 
ATOM     66  H27 G3G d   1     -11.000 -16.434  13.930  0.00  0.00     0.086 H 
ATOM     67  C4  G3G d   1      -7.848 -15.800  15.233  0.00  0.00     0.025 A 
ATOM     68  H28 G3G d   1      -9.315 -14.591  14.138  0.00  0.00     0.086 H 
ATOM     69  C3  G3G d   1      -7.607 -17.079  15.822  0.00  0.00    -0.056 A 
ATOM     70  C19 G3G d   1      -8.614 -18.085  15.768  0.00  0.00    -0.058 A 
ATOM     71  H29 G3G d   1      -6.660 -17.283  16.309  0.00  0.00     0.086 H 
ATOM     72  H30 G3G d   1      -8.448 -19.025  16.282  0.00  0.00     0.086 H 
BRANCH  67  73
ATOM     73  N42 G3G d   1      -6.885 -14.854  15.316  0.00  0.00    -0.399 N 
ATOM     74  H31 G3G d   1      -7.038 -13.925  14.898  0.00  0.00     0.156 HD
ATOM     75  H32 G3G d   1      -5.998 -15.062  15.797  0.00  0.00     0.156 HD
ENDBRANCH  67  73
ENDBRANCH  60  63
ENDBRANCH  45  60
ENDBRANCH   5  45
TORSDOF 12
