REMARK  12 active torsions:
REMARK  status: ('A' for Active; 'I' for Inactive)
REMARK    1  A    between atoms: C6_2  and  N43_41 
REMARK    2  A    between atoms: C27_5  and  S9_7 
REMARK    3  A    between atoms: S9_7  and  N32_10 
REMARK    4  A    between atoms: N32_10  and  C33_11 
REMARK    5  A    between atoms: N32_10  and  C24_18 
REMARK    6  A    between atoms: C33_11  and  C34_12 
REMARK    7  A    between atoms: C23_22  and  N28_23 
REMARK    8  A    between atoms: N28_23  and  C7_24 
REMARK    9  A    between atoms: N28_23  and  S8_31 
REMARK   10  A    between atoms: C7_24  and  C12_25 
REMARK   11  A    between atoms: S8_31  and  C26_32 
REMARK   12  A    between atoms: C4_35  and  N42_40 
ROOT
ATOM      1  C24 G3G d   1     -16.248  20.172  -5.295  0.00  0.00     0.068 C 
ATOM      2  C25 G3G d   1     -14.892  19.744  -4.694  0.00  0.00     0.103 C 
ATOM      3  N22 G3G d   1     -14.809  18.276  -4.702  0.00  0.00    -0.071 N 
ATOM      4  C21 G3G d   1     -16.122  17.704  -5.115  0.00  0.00     0.103 C 
ATOM      5  C23 G3G d   1     -16.918  18.829  -5.822  0.00  0.00     0.068 C 
ATOM      6  H12 G3G d   1     -16.070  20.854  -6.140  0.00  0.00     0.079 H 
ATOM      7  H13 G3G d   1     -14.813  20.113  -3.661  0.00  0.00     0.079 H 
ATOM      8  H14 G3G d   1     -14.072  20.163  -5.296  0.00  0.00     0.079 H 
ATOM      9  H15 G3G d   1     -14.576  17.948  -3.778  0.00  0.00     0.277 HD
ATOM     10  H16 G3G d   1     -14.096  17.984  -5.352  0.00  0.00     0.277 HD
ATOM     11  H17 G3G d   1     -16.674  17.353  -4.231  0.00  0.00     0.079 H 
ATOM     12  H18 G3G d   1     -15.965  16.863  -5.807  0.00  0.00     0.079 H 
ATOM     13  H19 G3G d   1     -17.985  18.775  -5.561  0.00  0.00     0.079 H 
ENDROOT
BRANCH   1  14
ATOM     14  N32 G3G d   1     -17.154  20.876  -4.305  0.00  0.00    -0.294 N 
BRANCH  14  15
ATOM     15  S9  G3G d   1     -17.460  22.552  -4.594  0.00  0.00     0.261 S 
ATOM     16  O40 G3G d   1     -18.604  22.931  -3.768  0.00  0.00    -0.200 OA
ATOM     17  O11 G3G d   1     -17.291  22.971  -5.961  0.00  0.00    -0.200 OA
BRANCH  15  18
ATOM     18  C27 G3G d   1     -16.030  23.186  -3.725  0.00  0.00     0.079 A 
ATOM     19  C20 G3G d   1     -14.951  23.671  -4.506  0.00  0.00    -0.058 A 
ATOM     20  C5  G3G d   1     -13.764  24.192  -3.917  0.00  0.00    -0.056 A 
ATOM     21  H3  G3G d   1     -15.032  23.644  -5.587  0.00  0.00     0.086 H 
ATOM     22  C6  G3G d   1     -13.667  24.222  -2.500  0.00  0.00     0.025 A 
ATOM     23  H2  G3G d   1     -12.953  24.558  -4.536  0.00  0.00     0.086 H 
ATOM     24  C2  G3G d   1     -14.745  23.750  -1.731  0.00  0.00    -0.056 A 
ATOM     25  C18 G3G d   1     -15.930  23.232  -2.315  0.00  0.00    -0.058 A 
ATOM     26  H1  G3G d   1     -14.668  23.783  -0.650  0.00  0.00     0.086 H 
ATOM     27  H4  G3G d   1     -16.744  22.878  -1.692  0.00  0.00     0.086 H 
BRANCH  22  28
ATOM     28  N43 G3G d   1     -12.557  24.717  -1.905  0.00  0.00    -0.399 N 
ATOM     29  H33 G3G d   1     -12.489  24.738  -0.877  0.00  0.00     0.156 HD
ATOM     30  H34 G3G d   1     -11.780  25.073  -2.480  0.00  0.00     0.156 HD
ENDBRANCH  22  28
ENDBRANCH  15  18
ENDBRANCH  14  15
BRANCH  14  31
ATOM     31  C33 G3G d   1     -17.729  20.229  -3.098  0.00  0.00     0.029 C 
ATOM     32  H5  G3G d   1     -17.882  21.035  -2.365  0.00  0.00     0.072 H 
ATOM     33  H6  G3G d   1     -16.958  19.537  -2.728  0.00  0.00     0.072 H 
BRANCH  31  34
ATOM     34  C34 G3G d   1     -19.019  19.440  -3.126  0.00  0.00    -0.040 A 
ATOM     35  C38 G3G d   1     -19.129  18.292  -2.279  0.00  0.00    -0.075 A 
ATOM     36  C39 G3G d   1     -20.323  17.529  -2.234  0.00  0.00    -0.082 A 
ATOM     37  H7  G3G d   1     -18.286  18.001  -1.662  0.00  0.00     0.084 H 
ATOM     38  C37 G3G d   1     -21.398  17.880  -3.088  0.00  0.00    -0.083 A 
ATOM     39  H8  G3G d   1     -20.412  16.688  -1.555  0.00  0.00     0.083 H 
ATOM     40  C36 G3G d   1     -21.287  19.009  -3.946  0.00  0.00    -0.082 A 
ATOM     41  H9  G3G d   1     -22.306  17.288  -3.087  0.00  0.00     0.083 H 
ATOM     42  C35 G3G d   1     -20.101  19.788  -3.964  0.00  0.00    -0.075 A 
ATOM     43  H10 G3G d   1     -22.116  19.277  -4.592  0.00  0.00     0.083 H 
ATOM     44  H11 G3G d   1     -20.026  20.648  -4.619  0.00  0.00     0.084 H 
ENDBRANCH  31  34
ENDBRANCH  14  31
ENDBRANCH   1  14
BRANCH   5  45
ATOM     45  N28 G3G d   1     -16.749  18.796  -7.316  0.00  0.00    -0.294 N 
BRANCH  45  46
ATOM     46  C7  G3G d   1     -15.462  18.546  -8.006  0.00  0.00     0.029 C 
ATOM     47  H20 G3G d   1     -15.677  18.165  -9.015  0.00  0.00     0.072 H 
ATOM     48  H21 G3G d   1     -14.905  17.787  -7.438  0.00  0.00     0.072 H 
BRANCH  46  49
ATOM     49  C12 G3G d   1     -14.581  19.799  -8.137  0.00  0.00    -0.040 A 
ATOM     50  C14 G3G d   1     -13.210  19.757  -7.747  0.00  0.00    -0.075 A 
ATOM     51  C30 G3G d   1     -12.364  20.899  -7.852  0.00  0.00    -0.082 A 
ATOM     52  H22 G3G d   1     -12.800  18.831  -7.360  0.00  0.00     0.084 H 
ATOM     53  C31 G3G d   1     -12.909  22.111  -8.369  0.00  0.00    -0.083 A 
ATOM     54  H23 G3G d   1     -11.326  20.847  -7.545  0.00  0.00     0.083 H 
ATOM     55  C29 G3G d   1     -14.278  22.166  -8.760  0.00  0.00    -0.082 A 
ATOM     56  H24 G3G d   1     -12.282  22.990  -8.464  0.00  0.00     0.083 H 
ATOM     57  C13 G3G d   1     -15.114  21.020  -8.648  0.00  0.00    -0.075 A 
ATOM     58  H25 G3G d   1     -14.688  23.092  -9.147  0.00  0.00     0.083 H 
ATOM     59  H26 G3G d   1     -16.154  21.074  -8.950  0.00  0.00     0.084 H 
ENDBRANCH  46  49
ENDBRANCH  45  46
BRANCH  45  60
ATOM     60  S8  G3G d   1     -18.107  19.118  -8.269  0.00  0.00     0.261 S 
ATOM     61  O41 G3G d   1     -17.628  19.187  -9.668  0.00  0.00    -0.200 OA
ATOM     62  O10 G3G d   1     -18.809  20.283  -7.677  0.00  0.00    -0.200 OA
BRANCH  60  63
ATOM     63  C26 G3G d   1     -19.278  17.795  -8.232  0.00  0.00     0.079 A 
ATOM     64  C17 G3G d   1     -19.061  16.528  -8.852  0.00  0.00    -0.058 A 
ATOM     65  C1  G3G d   1     -20.055  15.517  -8.777  0.00  0.00    -0.056 A 
ATOM     66  H27 G3G d   1     -18.135  16.337  -9.382  0.00  0.00     0.086 H 
ATOM     67  C4  G3G d   1     -21.295  15.760  -8.074  0.00  0.00     0.025 A 
ATOM     68  H28 G3G d   1     -19.883  14.557  -9.250  0.00  0.00     0.086 H 
ATOM     69  C3  G3G d   1     -21.523  17.026  -7.452  0.00  0.00    -0.056 A 
ATOM     70  C19 G3G d   1     -20.499  18.022  -7.538  0.00  0.00    -0.058 A 
ATOM     71  H29 G3G d   1     -22.450  17.227  -6.927  0.00  0.00     0.086 H 
ATOM     72  H30 G3G d   1     -20.659  18.981  -7.059  0.00  0.00     0.086 H 
BRANCH  67  73
ATOM     73  N42 G3G d   1     -22.245  14.801  -7.990  0.00  0.00    -0.399 N 
ATOM     74  H31 G3G d   1     -22.092  13.884  -8.434  0.00  0.00     0.156 HD
ATOM     75  H32 G3G d   1     -23.121  14.987  -7.482  0.00  0.00     0.156 HD
ENDBRANCH  67  73
ENDBRANCH  60  63
ENDBRANCH  45  60
ENDBRANCH   5  45
TORSDOF 12
