REMARK  9 active torsions:
REMARK  status: ('A' for Active; 'I' for Inactive)
REMARK    1  A    between atoms: N_1  and  CA_2 
REMARK    2  A    between atoms: CA_2  and  CB_3 
REMARK    3  A    between atoms: CA_2  and  C_10 
REMARK    4  A    between atoms: CB_3  and  CG_4 
REMARK    5  A    between atoms: CG_4  and  CD_5 
REMARK    6  A    between atoms: CD_5  and  CE_6 
REMARK    7  A    between atoms: CE_6  and  NZ_7 
REMARK    8  A    between atoms: NZ_7  and  CH1_8 
REMARK    9  A    between atoms: NZ_7  and  CH2_9 
ROOT
ATOM      1  CD  MLY d   1     -24.578 -18.371 -18.775  0.00  0.00    -0.042 C 
ATOM      2  H9  MLY d   1     -23.723 -18.619 -18.129  0.00  0.00     0.035 H 
ATOM      3  H10 MLY d   1     -25.016 -17.415 -18.452  0.00  0.00     0.035 H 
ENDROOT
BRANCH   1   4
ATOM      4  CG  MLY d   1     -25.624 -19.467 -18.673  0.00  0.00    -0.061 C 
ATOM      5  H7  MLY d   1     -26.581 -19.079 -19.052  0.00  0.00     0.033 H 
ATOM      6  H8  MLY d   1     -25.304 -20.320 -19.289  0.00  0.00     0.033 H 
BRANCH   4   7
ATOM      7  CB  MLY d   1     -25.820 -19.943 -17.242  0.00  0.00    -0.029 C 
ATOM      8  H5  MLY d   1     -24.966 -20.569 -16.945  0.00  0.00     0.036 H 
ATOM      9  H6  MLY d   1     -25.887 -19.073 -16.573  0.00  0.00     0.036 H 
BRANCH   7  10
ATOM     10  CA  MLY d   1     -27.107 -20.759 -17.144  0.00  0.00     0.182 C 
ATOM     11  H4  MLY d   1     -27.928 -20.177 -17.588  0.00  0.00     0.101 H 
BRANCH  10  12
ATOM     12  N   MLY d   1     -27.431 -20.995 -15.702  0.00  0.00    -0.065 N 
ATOM     13  H1  MLY d   1     -27.512 -20.110 -15.227  0.00  0.00     0.275 HD
ATOM     14  H2  MLY d   1     -26.696 -21.539 -15.277  0.00  0.00     0.275 HD
ATOM     15  H3  MLY d   1     -28.303 -21.495 -15.631  0.00  0.00     0.275 HD
ENDBRANCH  10  12
BRANCH  10  16
ATOM     16  C   MLY d   1     -26.969 -22.041 -17.928  0.00  0.00     0.204 C 
ATOM     17  O   MLY d   1     -26.241 -22.951 -17.527  0.00  0.00    -0.646 OA
ATOM     18  OXT MLY d   1     -27.567 -22.210 -18.999  0.00  0.00    -0.646 OA
ENDBRANCH  10  16
ENDBRANCH   7  10
ENDBRANCH   4   7
ENDBRANCH   1   4
BRANCH   1  19
ATOM     19  CE  MLY d   1     -24.105 -18.251 -20.220  0.00  0.00     0.083 C 
ATOM     20  H11 MLY d   1     -24.979 -18.145 -20.879  0.00  0.00     0.075 H 
ATOM     21  H12 MLY d   1     -23.547 -19.158 -20.495  0.00  0.00     0.075 H 
BRANCH  19  22
ATOM     22  NZ  MLY d   1     -23.231 -17.077 -20.381  0.00  0.00    -0.079 N 
ATOM     23  H13 MLY d   1     -23.677 -16.268 -19.977  0.00  0.00     0.278 HD
BRANCH  22  24
ATOM     24  CH1 MLY d   1     -22.985 -16.836 -21.812  0.00  0.00     0.066 C 
ATOM     25  H14 MLY d   1     -22.332 -15.959 -21.929  0.00  0.00     0.068 H 
ATOM     26  H15 MLY d   1     -23.942 -16.652 -22.323  0.00  0.00     0.068 H 
ATOM     27  H16 MLY d   1     -22.497 -17.718 -22.254  0.00  0.00     0.068 H 
ENDBRANCH  22  24
BRANCH  22  28
ATOM     28  CH2 MLY d   1     -21.954 -17.324 -19.698  0.00  0.00     0.066 C 
ATOM     29  H17 MLY d   1     -22.139 -17.504 -18.629  0.00  0.00     0.068 H 
ATOM     30  H18 MLY d   1     -21.300 -16.447 -19.814  0.00  0.00     0.068 H 
ATOM     31  H19 MLY d   1     -21.467 -18.206 -20.139  0.00  0.00     0.068 H 
ENDBRANCH  22  28
ENDBRANCH  19  22
ENDBRANCH   1  19
TORSDOF 9
