REMARK  13 active torsions:
REMARK  status: ('A' for Active; 'I' for Inactive)
REMARK    1  A    between atoms: C1_2  and  C2_3 
REMARK    2  A    between atoms: C8_9  and  C1_2 
REMARK    3  A    between atoms: P_22  and  C8_9 
REMARK    4  A    between atoms: C8_9  and  N2_24 
REMARK    5  A    between atoms: C10_11  and  C9_10 
REMARK    6  A    between atoms: C9_10  and  P_22 
REMARK    7  A    between atoms: C11_12  and  C10_11 
REMARK    8  A    between atoms: C10_11  and  C21_25 
REMARK       I    between atoms: N1_33  and  C11_12 
REMARK    9  A    between atoms: C12_13  and  C13_14 
REMARK   10  A    between atoms: C12_13  and  C20_21 
REMARK   11  A    between atoms: C12_13  and  N1_33 
REMARK   12  A    between atoms: C13_14  and  C14_15 
REMARK   13  A    between atoms: C21_25  and  C22_26 
ROOT
ATOM      1  C10 PH0 d   1      34.733   6.600   1.680  0.00  0.00     0.036 C 
ATOM      2  H11 PH0 d   1      33.955   6.608   2.457  0.00  0.00     0.056 H 
ENDROOT
BRANCH   1   3
ATOM      3  C9  PH0 d   1      34.787   5.238   0.971  0.00  0.00     0.021 C 
ATOM      4  H9  PH0 d   1      35.660   5.219   0.301  0.00  0.00     0.050 H 
ATOM      5  H10 PH0 d   1      33.868   5.107   0.380  0.00  0.00     0.050 H 
BRANCH   3   6
ATOM      6  P   PH0 d   1      34.927   3.845   2.175  0.00  0.00     0.138 P 
ATOM      7  O1  PH0 d   1      34.144   4.231   3.459  0.00  0.00    -0.666 OA
ATOM      8  O5  PH0 d   1      36.545   3.494   2.524  0.00  0.00    -0.666 OA
BRANCH   6   9
ATOM      9  C8  PH0 d   1      34.159   2.440   1.280  0.00  0.00     0.177 C 
ATOM     10  H8  PH0 d   1      34.639   2.276   0.304  0.00  0.00     0.101 H 
BRANCH   9  11
ATOM     11  C1  PH0 d   1      32.674   2.749   1.112  0.00  0.00    -0.005 C 
ATOM     12  H1  PH0 d   1      32.183   2.541   2.074  0.00  0.00     0.044 H 
ATOM     13  H2  PH0 d   1      32.584   3.820   0.879  0.00  0.00     0.044 H 
BRANCH  11  14
ATOM     14  C2  PH0 d   1      31.925   1.993   0.051  0.00  0.00    -0.056 A 
ATOM     15  C3  PH0 d   1      32.378   1.849  -1.285  0.00  0.00    -0.077 A 
ATOM     16  C4  PH0 d   1      31.545   1.122  -2.155  0.00  0.00    -0.082 A 
ATOM     17  H3  PH0 d   1      33.317   2.277  -1.618  0.00  0.00     0.084 H 
ATOM     18  C5  PH0 d   1      30.321   0.587  -1.788  0.00  0.00    -0.083 A 
ATOM     19  H4  PH0 d   1      31.881   0.971  -3.174  0.00  0.00     0.083 H 
ATOM     20  C6  PH0 d   1      29.913   0.703  -0.484  0.00  0.00    -0.082 A 
ATOM     21  H5  PH0 d   1      29.697   0.086  -2.519  0.00  0.00     0.083 H 
ATOM     22  C7  PH0 d   1      30.705   1.418   0.410  0.00  0.00    -0.077 A 
ATOM     23  H6  PH0 d   1      28.988   0.245  -0.154  0.00  0.00     0.083 H 
ATOM     24  H7  PH0 d   1      30.359   1.533   1.431  0.00  0.00     0.084 H 
ENDBRANCH  11  14
ENDBRANCH   9  11
BRANCH   9  25
ATOM     25  N2  PH0 d   1      34.301   1.249   2.156  0.00  0.00    -0.065 N 
ATOM     26  H20 PH0 d   1      33.891   0.448   1.703  0.00  0.00     0.275 HD
ATOM     27  H21 PH0 d   1      33.830   1.417   3.031  0.00  0.00     0.275 HD
ATOM     28  H22 PH0 d   1      35.279   1.073   2.329  0.00  0.00     0.275 HD
ENDBRANCH   9  25
ENDBRANCH   6   9
ENDBRANCH   3   6
ENDBRANCH   1   3
BRANCH   1  29
ATOM     29  C11 PH0 d   1      34.469   7.651   0.640  0.00  0.00     0.223 C 
ATOM     30  O2  PH0 d   1      35.150   7.649  -0.336  0.00  0.00    -0.273 OA
ATOM     31  N1  PH0 d   1      33.492   8.528   0.769  0.00  0.00    -0.346 N 
ATOM     32  H30 PH0 d   1      32.906   8.459   1.576  0.00  0.00     0.163 HD
BRANCH  31  33
ATOM     33  C12 PH0 d   1      33.212   9.588  -0.185  0.00  0.00     0.100 C 
ATOM     34  H12 PH0 d   1      32.710   9.130  -1.050  0.00  0.00     0.090 H 
BRANCH  33  35
ATOM     35  C13 PH0 d   1      32.302  10.670   0.384  0.00  0.00    -0.013 C 
ATOM     36  H13 PH0 d   1      31.841  11.235  -0.440  0.00  0.00     0.043 H 
ATOM     37  H14 PH0 d   1      32.891  11.354   1.012  0.00  0.00     0.043 H 
BRANCH  35  38
ATOM     38  C14 PH0 d   1      31.224  10.020   1.217  0.00  0.00    -0.056 A 
ATOM     39  C15 PH0 d   1      31.440   9.760   2.591  0.00  0.00    -0.077 A 
ATOM     40  C16 PH0 d   1      30.420   9.178   3.316  0.00  0.00    -0.082 A 
ATOM     41  H15 PH0 d   1      32.383  10.012   3.062  0.00  0.00     0.084 H 
ATOM     42  C17 PH0 d   1      29.222   8.837   2.701  0.00  0.00    -0.083 A 
ATOM     43  H16 PH0 d   1      30.555   8.985   4.374  0.00  0.00     0.083 H 
ATOM     44  C18 PH0 d   1      29.016   9.108   1.362  0.00  0.00    -0.082 A 
ATOM     45  H17 PH0 d   1      28.441   8.354   3.277  0.00  0.00     0.083 H 
ATOM     46  C19 PH0 d   1      30.023   9.701   0.633  0.00  0.00    -0.077 A 
ATOM     47  H18 PH0 d   1      28.073   8.857   0.891  0.00  0.00     0.083 H 
ATOM     48  H19 PH0 d   1      29.865   9.919  -0.417  0.00  0.00     0.084 H 
ENDBRANCH  35  38
ENDBRANCH  33  35
BRANCH  33  49
ATOM     49  C20 PH0 d   1      34.468  10.270  -0.665  0.00  0.00     0.197 C 
ATOM     50  O3  PH0 d   1      35.419  10.598   0.127  0.00  0.00    -0.646 OA
ATOM     51  O4  PH0 d   1      34.522  10.443  -1.897  0.00  0.00    -0.646 OA
ENDBRANCH  33  49
ENDBRANCH  31  33
ENDBRANCH   1  29
BRANCH   1  52
ATOM     52  C21 PH0 d   1      36.112   6.880   2.282  0.00  0.00    -0.029 C 
ATOM     53  H23 PH0 d   1      36.804   7.163   1.475  0.00  0.00     0.041 H 
ATOM     54  H24 PH0 d   1      36.478   5.968   2.776  0.00  0.00     0.041 H 
BRANCH  52  55
ATOM     55  C22 PH0 d   1      36.056   8.013   3.308  0.00  0.00    -0.057 A 
ATOM     56  C23 PH0 d   1      37.191   8.781   3.543  0.00  0.00    -0.077 A 
ATOM     57  C24 PH0 d   1      37.203   9.847   4.459  0.00  0.00    -0.082 A 
ATOM     58  H25 PH0 d   1      38.100   8.549   3.000  0.00  0.00     0.084 H 
ATOM     59  C25 PH0 d   1      36.048  10.110   5.179  0.00  0.00    -0.083 A 
ATOM     60  H26 PH0 d   1      38.094  10.449   4.599  0.00  0.00     0.083 H 
ATOM     61  C26 PH0 d   1      34.907   9.319   5.006  0.00  0.00    -0.082 A 
ATOM     62  H27 PH0 d   1      36.029  10.935   5.882  0.00  0.00     0.083 H 
ATOM     63  C27 PH0 d   1      34.904   8.269   4.070  0.00  0.00    -0.077 A 
ATOM     64  H28 PH0 d   1      34.020   9.517   5.597  0.00  0.00     0.083 H 
ATOM     65  H29 PH0 d   1      34.017   7.660   3.937  0.00  0.00     0.084 H 
ENDBRANCH  52  55
ENDBRANCH   1  52
TORSDOF 13
