REMARK  8 active torsions:
REMARK  status: ('A' for Active; 'I' for Inactive)
REMARK    1  A    between atoms: N_1  and  CA_2 
REMARK    2  A    between atoms: CA_2  and  CB_3 
REMARK    3  A    between atoms: CA_2  and  C_9 
REMARK    4  A    between atoms: CB_3  and  CG_4 
REMARK    5  A    between atoms: CG_4  and  CD_5 
REMARK    6  A    between atoms: CD_5  and  CE_6 
REMARK    7  A    between atoms: CE_6  and  NZ_7 
REMARK    8  A    between atoms: NZ_7  and  CM_8 
ROOT
ATOM      1  CG  MLZ d   1     -25.070 -19.016 -18.636  0.00  0.00    -0.061 C 
ATOM      2  H7  MLZ d   1     -25.942 -18.350 -18.719  0.00  0.00     0.033 H 
ATOM      3  H8  MLZ d   1     -25.103 -19.766 -19.440  0.00  0.00     0.033 H 
ENDROOT
BRANCH   1   4
ATOM      4  CB  MLZ d   1     -25.137 -19.737 -17.298  0.00  0.00    -0.029 C 
ATOM      5  H5  MLZ d   1     -24.273 -20.411 -17.201  0.00  0.00     0.036 H 
ATOM      6  H6  MLZ d   1     -25.119 -18.999 -16.483  0.00  0.00     0.036 H 
BRANCH   4   7
ATOM      7  CA  MLZ d   1     -26.430 -20.552 -17.220  0.00  0.00     0.182 C 
ATOM      8  H4  MLZ d   1     -27.170 -20.099 -17.896  0.00  0.00     0.101 H 
BRANCH   7   9
ATOM      9  N   MLZ d   1     -26.994 -20.526 -15.837  0.00  0.00    -0.065 N 
ATOM     10  H1  MLZ d   1     -27.164 -19.571 -15.561  0.00  0.00     0.275 HD
ATOM     11  H2  MLZ d   1     -26.338 -20.948 -15.199  0.00  0.00     0.275 HD
ATOM     12  H3  MLZ d   1     -27.861 -21.040 -15.818  0.00  0.00     0.275 HD
ENDBRANCH   7   9
BRANCH   7  13
ATOM     13  C   MLZ d   1     -26.153 -21.954 -17.693  0.00  0.00     0.204 C 
ATOM     14  O   MLZ d   1     -25.435 -22.706 -17.026  0.00  0.00    -0.646 OA
ATOM     15  OXT MLZ d   1     -26.620 -22.366 -18.766  0.00  0.00    -0.646 OA
ENDBRANCH   7  13
ENDBRANCH   4   7
ENDBRANCH   1   4
BRANCH   1  16
ATOM     16  CD  MLZ d   1     -23.806 -18.183 -18.801  0.00  0.00    -0.043 C 
ATOM     17  H9  MLZ d   1     -22.963 -18.686 -18.305  0.00  0.00     0.035 H 
ATOM     18  H10 MLZ d   1     -23.955 -17.190 -18.353  0.00  0.00     0.035 H 
BRANCH  16  19
ATOM     19  CE  MLZ d   1     -23.515 -18.037 -20.287  0.00  0.00     0.081 C 
ATOM     20  H11 MLZ d   1     -24.475 -17.940 -20.815  0.00  0.00     0.075 H 
ATOM     21  H12 MLZ d   1     -23.001 -18.949 -20.625  0.00  0.00     0.075 H 
BRANCH  19  22
ATOM     22  NZ  MLZ d   1     -22.692 -16.901 -20.642  0.00  0.00    -0.079 N 
ATOM     23  H13 MLZ d   1     -21.739 -17.142 -20.417  0.00  0.00     0.276 HD
ATOM     24  H14 MLZ d   1     -22.988 -16.128 -20.067  0.00  0.00     0.276 HD
BRANCH  22  25
ATOM     25  CM  MLZ d   1     -22.704 -16.439 -22.020  0.00  0.00     0.065 C 
ATOM     26  H15 MLZ d   1     -22.031 -15.575 -22.123  0.00  0.00     0.067 H 
ATOM     27  H16 MLZ d   1     -23.726 -16.143 -22.299  0.00  0.00     0.067 H 
ATOM     28  H17 MLZ d   1     -22.364 -17.249 -22.681  0.00  0.00     0.067 H 
ENDBRANCH  22  25
ENDBRANCH  19  22
ENDBRANCH  16  19
ENDBRANCH   1  16
TORSDOF 8
