REMARK  17 active torsions:
REMARK  status: ('A' for Active; 'I' for Inactive)
REMARK    1  A    between atoms: N1_1  and  C31_39 
REMARK    2  A    between atoms: C2_3  and  C3_4 
REMARK       I    between atoms: C3_4  and  N2_6 
REMARK    3  A    between atoms: N2_6  and  C4_7 
REMARK    4  A    between atoms: C4_7  and  C5_8 
REMARK    5  A    between atoms: C4_7  and  C6_9 
REMARK    6  A    between atoms: C4_7  and  C7_10 
REMARK    7  A    between atoms: N3_11  and  C10_14 
REMARK    8  A    between atoms: C10_14  and  C11_15 
REMARK    9  A    between atoms: C11_15  and  O2_16 
REMARK   10  A    between atoms: C11_15  and  C12_17 
REMARK   11  A    between atoms: C12_17  and  C13_18 
REMARK   12  A    between atoms: C13_18  and  C14_19 
REMARK   13  A    between atoms: C13_18  and  C21_26 
REMARK   14  A    between atoms: C14_19  and  C15_20 
REMARK       I    between atoms: C21_26  and  N4_28 
REMARK   15  A    between atoms: N4_28  and  C22_29 
REMARK   16  A    between atoms: C23_30  and  O4_31 
REMARK   17  A    between atoms: C31_39  and  C32_40 
ROOT
ATOM      1  C10 MK1 d   1      28.323 -12.032  -2.604  0.00  0.00     0.108 C 
ATOM      2  H20 MK1 d   1      29.243 -11.791  -3.156  0.00  0.00     0.080 H 
ATOM      3  H21 MK1 d   1      27.536 -12.328  -3.314  0.00  0.00     0.080 H 
ENDROOT
BRANCH   1   4
ATOM      4  N3  MK1 d   1      27.875 -10.829  -1.852  0.00  0.00    -0.053 N 
ATOM      5  C2  MK1 d   1      28.498  -9.529  -2.401  0.00  0.00     0.203 C 
ATOM      6  C1  MK1 d   1      27.929  -8.393  -1.544  0.00  0.00     0.119 C 
ATOM      7  H4  MK1 d   1      28.209  -9.398  -3.454  0.00  0.00     0.102 H 
ATOM      8  N1  MK1 d   1      26.436  -8.312  -1.583  0.00  0.00    -0.063 N 
ATOM      9  H2  MK1 d   1      28.243  -8.551  -0.502  0.00  0.00     0.080 H 
ATOM     10  H3  MK1 d   1      28.340  -7.441  -1.910  0.00  0.00     0.080 H 
ATOM     11  C9  MK1 d   1      25.892  -9.605  -1.130  0.00  0.00     0.106 C 
ATOM     12  H1  MK1 d   1      26.142  -8.152  -2.534  0.00  0.00     0.280 HD
ATOM     13  C8  MK1 d   1      26.390 -10.817  -1.915  0.00  0.00     0.107 C 
ATOM     14  H18 MK1 d   1      24.796  -9.566  -1.219  0.00  0.00     0.078 H 
ATOM     15  H19 MK1 d   1      26.170  -9.743  -0.075  0.00  0.00     0.078 H 
ATOM     16  H16 MK1 d   1      25.990 -11.740  -1.469  0.00  0.00     0.078 H 
ATOM     17  H17 MK1 d   1      26.062 -10.743  -2.962  0.00  0.00     0.078 H 
ATOM     18  H15 MK1 d   1      28.159 -10.922  -0.889  0.00  0.00     0.281 HD
BRANCH   5  19
ATOM     19  C3  MK1 d   1      30.020  -9.505  -2.295  0.00  0.00     0.251 C 
ATOM     20  O1  MK1 d   1      30.550  -9.894  -1.247  0.00  0.00    -0.271 OA
ATOM     21  N2  MK1 d   1      30.694  -9.048  -3.373  0.00  0.00    -0.351 N 
ATOM     22  H5  MK1 d   1      30.145  -8.755  -4.156  0.00  0.00     0.163 HD
BRANCH  21  23
ATOM     23  C4  MK1 d   1      32.151  -8.938  -3.510  0.00  0.00     0.022 C 
BRANCH  23  24
ATOM     24  C5  MK1 d   1      32.365  -8.349  -4.903  0.00  0.00    -0.054 C 
ATOM     25  H6  MK1 d   1      33.443  -8.232  -5.090  0.00  0.00     0.030 H 
ATOM     26  H7  MK1 d   1      31.873  -7.367  -4.965  0.00  0.00     0.030 H 
ATOM     27  H8  MK1 d   1      31.933  -9.024  -5.657  0.00  0.00     0.030 H 
ENDBRANCH  23  24
BRANCH  23  28
ATOM     28  C6  MK1 d   1      32.786 -10.321  -3.448  0.00  0.00    -0.054 C 
ATOM     29  H9  MK1 d   1      33.877 -10.228  -3.551  0.00  0.00     0.030 H 
ATOM     30  H10 MK1 d   1      32.392 -10.943  -4.265  0.00  0.00     0.030 H 
ATOM     31  H11 MK1 d   1      32.548 -10.791  -2.482  0.00  0.00     0.030 H 
ENDBRANCH  23  28
BRANCH  23  32
ATOM     32  C7  MK1 d   1      32.752  -7.974  -2.480  0.00  0.00    -0.054 C 
ATOM     33  H12 MK1 d   1      33.842  -7.922  -2.619  0.00  0.00     0.030 H 
ATOM     34  H13 MK1 d   1      32.528  -8.335  -1.465  0.00  0.00     0.030 H 
ATOM     35  H14 MK1 d   1      32.317  -6.973  -2.617  0.00  0.00     0.030 H 
ENDBRANCH  23  32
ENDBRANCH  21  23
ENDBRANCH   5  19
BRANCH   8  36
ATOM     36  C31 MK1 d   1      25.949  -7.187  -0.753  0.00  0.00     0.108 C 
ATOM     37  H44 MK1 d   1      26.264  -7.392   0.281  0.00  0.00     0.083 H 
ATOM     38  H45 MK1 d   1      24.851  -7.199  -0.811  0.00  0.00     0.083 H 
BRANCH  36  39
ATOM     39  C32 MK1 d   1      26.392  -5.776  -1.076  0.00  0.00    -0.015 A 
ATOM     40  C33 MK1 d   1      25.980  -5.146  -2.268  0.00  0.00     0.009 A 
ATOM     41  N5  MK1 d   1      26.333  -3.839  -2.670  0.00  0.00    -0.273 NA
ATOM     42  H46 MK1 d   1      25.338  -5.713  -2.932  0.00  0.00     0.115 H 
ATOM     43  C34 MK1 d   1      27.167  -3.209  -1.721  0.00  0.00     0.002 A 
ATOM     44  C35 MK1 d   1      27.626  -3.753  -0.511  0.00  0.00    -0.066 A 
ATOM     45  H47 MK1 d   1      27.487  -2.199  -1.951  0.00  0.00     0.114 H 
ATOM     46  C36 MK1 d   1      27.230  -5.063  -0.181  0.00  0.00    -0.072 A 
ATOM     47  H48 MK1 d   1      28.267  -3.181   0.150  0.00  0.00     0.085 H 
ATOM     48  H49 MK1 d   1      27.561  -5.521   0.744  0.00  0.00     0.084 H 
ENDBRANCH  36  39
ENDBRANCH   8  36
ENDBRANCH   1   4
BRANCH   1  49
ATOM     49  C11 MK1 d   1      28.603 -13.204  -1.640  0.00  0.00     0.059 C 
ATOM     50  H22 MK1 d   1      28.006 -13.080  -0.724  0.00  0.00     0.085 H 
BRANCH  49  51
ATOM     51  O2  MK1 d   1      28.207 -14.383  -2.353  0.00  0.00    -0.394 OA
ATOM     52  H23 MK1 d   1      27.285 -14.324  -2.572  0.00  0.00     0.210 HD
ENDBRANCH  49  51
BRANCH  49  53
ATOM     53  C12 MK1 d   1      30.094 -13.364  -1.256  0.00  0.00    -0.028 C 
ATOM     54  H24 MK1 d   1      30.431 -12.427  -0.788  0.00  0.00     0.038 H 
ATOM     55  H25 MK1 d   1      30.669 -13.541  -2.177  0.00  0.00     0.038 H 
BRANCH  53  56
ATOM     56  C13 MK1 d   1      30.380 -14.522  -0.278  0.00  0.00     0.029 C 
ATOM     57  H26 MK1 d   1      30.045 -15.466  -0.734  0.00  0.00     0.055 H 
BRANCH  56  58
ATOM     58  C14 MK1 d   1      31.903 -14.603   0.004  0.00  0.00    -0.029 C 
ATOM     59  H27 MK1 d   1      32.232 -13.643   0.428  0.00  0.00     0.041 H 
ATOM     60  H28 MK1 d   1      32.426 -14.783  -0.947  0.00  0.00     0.041 H 
BRANCH  58  61
ATOM     61  C15 MK1 d   1      32.271 -15.711   0.975  0.00  0.00    -0.057 A 
ATOM     62  C16 MK1 d   1      31.959 -17.073   0.712  0.00  0.00    -0.077 A 
ATOM     63  C17 MK1 d   1      32.294 -18.088   1.628  0.00  0.00    -0.082 A 
ATOM     64  H29 MK1 d   1      31.454 -17.335  -0.211  0.00  0.00     0.084 H 
ATOM     65  C18 MK1 d   1      32.953 -17.725   2.830  0.00  0.00    -0.083 A 
ATOM     66  H30 MK1 d   1      32.053 -19.124   1.419  0.00  0.00     0.083 H 
ATOM     67  C19 MK1 d   1      33.269 -16.376   3.101  0.00  0.00    -0.082 A 
ATOM     68  H31 MK1 d   1      33.217 -18.492   3.549  0.00  0.00     0.083 H 
ATOM     69  C20 MK1 d   1      32.929 -15.361   2.176  0.00  0.00    -0.077 A 
ATOM     70  H32 MK1 d   1      33.775 -16.116   4.024  0.00  0.00     0.083 H 
ATOM     71  H33 MK1 d   1      33.171 -14.325   2.386  0.00  0.00     0.084 H 
ENDBRANCH  58  61
ENDBRANCH  56  58
BRANCH  56  72
ATOM     72  C21 MK1 d   1      29.630 -14.311   1.047  0.00  0.00     0.222 C 
ATOM     73  O3  MK1 d   1      29.568 -13.230   1.644  0.00  0.00    -0.273 OA
ATOM     74  N4  MK1 d   1      29.060 -15.420   1.520  0.00  0.00    -0.350 N 
ATOM     75  H34 MK1 d   1      28.892 -16.171   0.881  0.00  0.00     0.163 HD
BRANCH  74  76
ATOM     76  C22 MK1 d   1      28.676 -15.600   2.880  0.00  0.00     0.063 C 
ATOM     77  C23 MK1 d   1      28.985 -16.960   3.479  0.00  0.00     0.063 C 
ATOM     78  C24 MK1 d   1      28.011 -17.106   4.618  0.00  0.00    -0.014 C 
ATOM     79  H36 MK1 d   1      30.020 -16.990   3.851  0.00  0.00     0.087 H 
ATOM     80  C25 MK1 d   1      26.780 -16.338   4.189  0.00  0.00    -0.047 A 
ATOM     81  H38 MK1 d   1      28.430 -16.679   5.541  0.00  0.00     0.044 H 
ATOM     82  H39 MK1 d   1      27.766 -18.166   4.783  0.00  0.00     0.044 H 
ATOM     83  C26 MK1 d   1      25.422 -16.375   4.614  0.00  0.00    -0.076 A 
ATOM     84  C30 MK1 d   1      27.190 -15.431   3.137  0.00  0.00    -0.027 A 
ATOM     85  C27 MK1 d   1      24.497 -15.516   4.004  0.00  0.00    -0.082 A 
ATOM     86  H40 MK1 d   1      25.108 -17.056   5.397  0.00  0.00     0.084 H 
ATOM     87  C28 MK1 d   1      24.865 -14.625   2.983  0.00  0.00    -0.082 A 
ATOM     88  H41 MK1 d   1      23.464 -15.540   4.331  0.00  0.00     0.083 H 
ATOM     89  C29 MK1 d   1      26.205 -14.593   2.566  0.00  0.00    -0.074 A 
ATOM     90  H42 MK1 d   1      24.128 -13.974   2.526  0.00  0.00     0.083 H 
ATOM     91  H43 MK1 d   1      26.494 -13.904   1.781  0.00  0.00     0.084 H 
ATOM     92  H35 MK1 d   1      29.220 -14.837   3.456  0.00  0.00     0.084 H 
BRANCH  77  93
ATOM     93  O4  MK1 d   1      28.800 -18.005   2.513  0.00  0.00    -0.393 OA
ATOM     94  H37 MK1 d   1      29.000 -18.843   2.913  0.00  0.00     0.210 HD
ENDBRANCH  77  93
ENDBRANCH  74  76
ENDBRANCH  56  72
ENDBRANCH  53  56
ENDBRANCH  49  53
ENDBRANCH   1  49
TORSDOF 17
