REMARK  11 active torsions:
REMARK  status: ('A' for Active; 'I' for Inactive)
REMARK    1  A    between atoms: C2_13  and  N2_14 
REMARK    2  A    between atoms: N9_17  and  C1'_18 
REMARK    3  A    between atoms: C2'_20  and  O2'_21 
REMARK    4  A    between atoms: C3'_22  and  O3'_23 
REMARK    5  A    between atoms: C4'_24  and  C5'_25 
REMARK    6  A    between atoms: C5'_25  and  O5'_26 
REMARK    7  A    between atoms: O5'_26  and  PA_27 
REMARK    8  A    between atoms: PA_27  and  O3A_30 
REMARK    9  A    between atoms: O3A_30  and  PB_31 
REMARK   10  A    between atoms: PB_31  and  O3B_34 
REMARK   11  A    between atoms: O3B_34  and  PG_35 
ROOT
ATOM      1  CAA 01G d   1      -8.742  -2.910  14.407  0.00  0.00     0.031 C 
ATOM      2  CAC 01G d   1     -10.133  -3.417  14.297  0.00  0.00     0.035 C 
ATOM      3  OAF 01G d   1     -11.018  -2.897  15.263  0.00  0.00    -0.388 OA
ATOM      4  CAD 01G d   1     -10.617  -3.266  16.587  0.00  0.00     0.035 C 
ATOM      5  CAB 01G d   1      -9.158  -2.895  16.861  0.00  0.00     0.031 C 
ATOM      6  NAE 01G d   1      -8.238  -3.148  15.712  0.00  0.00    -0.211 N 
ATOM      7  C8  01G d   1      -6.945  -3.057  15.902  0.00  0.00     0.709 A 
ATOM      8  N7  01G d   1      -6.529  -1.991  16.582  0.00  0.00    -0.055 NA
ATOM      9  C5  01G d   1      -5.190  -2.114  16.665  0.00  0.00     0.189 A 
ATOM     10  C6  01G d   1      -4.213  -1.362  17.293  0.00  0.00     0.293 A 
ATOM     11  O6  01G d   1      -4.436  -0.252  17.850  0.00  0.00    -0.265 OA
ATOM     12  N1  01G d   1      -2.955  -1.831  17.208  0.00  0.00    -0.154 N 
ATOM     13  C2  01G d   1      -2.616  -2.962  16.603  0.00  0.00     0.680 A 
ATOM     14  N3  01G d   1      -3.515  -3.718  16.008  0.00  0.00    -0.173 N 
ATOM     15  C4  01G d   1      -4.806  -3.299  16.049  0.00  0.00     0.177 A 
ATOM     16  N9  01G d   1      -5.898  -3.880  15.548  0.00  0.00    -0.133 N 
ATOM     17  H1  01G d   1      -8.732  -1.829  14.205  0.00  0.00     0.068 H 
ATOM     18  H2  01G d   1      -8.107  -3.427  13.672  0.00  0.00     0.068 H 
ATOM     19  H3  01G d   1     -10.110  -4.511  14.404  0.00  0.00     0.076 H 
ATOM     20  H4  01G d   1     -10.518  -3.154  13.300  0.00  0.00     0.076 H 
ATOM     21  H5  01G d   1     -10.737  -4.353  16.706  0.00  0.00     0.076 H 
ATOM     22  H6  01G d   1     -11.259  -2.745  17.312  0.00  0.00     0.076 H 
ATOM     23  H7  01G d   1      -8.807  -3.485  17.721  0.00  0.00     0.068 H 
ATOM     24  H8  01G d   1      -9.115  -1.824  17.109  0.00  0.00     0.068 H 
ATOM     25  H9  01G d   1      -2.226  -1.291  17.629  0.00  0.00     0.187 HD
ATOM     26  H12 01G d   1      -3.250  -4.591  15.531  0.00  0.00     0.186 HD
ENDROOT
BRANCH  16  27
ATOM     27  C1' 01G d   1      -5.865  -5.134  14.881  0.00  0.00     0.156 C 
ATOM     28  O4' 01G d   1      -5.863  -4.827  13.407  0.00  0.00    -0.353 OA
ATOM     29  C4' 01G d   1      -6.557  -5.944  12.739  0.00  0.00     0.089 C 
ATOM     30  C3' 01G d   1      -7.642  -6.263  13.686  0.00  0.00     0.091 C 
ATOM     31  H18 01G d   1      -5.902  -6.814  12.584  0.00  0.00     0.090 H 
ATOM     32  C2' 01G d   1      -6.973  -6.122  15.074  0.00  0.00     0.105 C 
ATOM     33  H16 01G d   1      -8.461  -5.535  13.586  0.00  0.00     0.091 H 
ATOM     34  H14 01G d   1      -7.709  -5.739  15.796  0.00  0.00     0.093 H 
ATOM     35  H13 01G d   1      -4.927  -5.631  15.169  0.00  0.00     0.123 H 
BRANCH  29  36
ATOM     36  C5' 01G d   1      -7.054  -5.407  11.388  0.00  0.00     0.058 C 
ATOM     37  H19 01G d   1      -7.629  -6.192  10.875  0.00  0.00     0.079 H 
ATOM     38  H20 01G d   1      -6.189  -5.123  10.770  0.00  0.00     0.079 H 
BRANCH  36  39
ATOM     39  O5' 01G d   1      -7.864  -4.297  11.577  0.00  0.00    -0.287 OA
BRANCH  39  40
ATOM     40  PA  01G d   1      -7.497  -2.923  10.900  0.00  0.00     0.417 P 
ATOM     41  O2A 01G d   1      -8.260  -1.847  11.610  0.00  0.00    -0.624 OA
ATOM     42  O1A 01G d   1      -6.025  -2.741  10.809  0.00  0.00    -0.624 OA
BRANCH  40  43
ATOM     43  O3A 01G d   1      -8.113  -3.084   9.421  0.00  0.00    -0.180 OA
BRANCH  43  44
ATOM     44  PB  01G d   1      -7.555  -2.355   8.118  0.00  0.00     0.428 P 
ATOM     45  O2B 01G d   1      -7.488  -0.889   8.364  0.00  0.00    -0.624 OA
ATOM     46  O1B 01G d   1      -6.295  -2.979   7.666  0.00  0.00    -0.624 OA
BRANCH  44  47
ATOM     47  O3B 01G d   1      -8.686  -2.692   7.083  0.00  0.00    -0.173 OA
BRANCH  47  48
ATOM     48  PG  01G d   1     -10.051  -1.866   6.528  0.00  0.00     0.431 P 
ATOM     49  O2G 01G d   1     -10.419  -0.986   7.776  0.00  0.00    -0.616 OA
ATOM     50  O3G 01G d   1      -9.568  -0.981   5.315  0.00  0.00    -0.616 OA
ATOM     51  O1G 01G d   1     -10.948  -2.991   6.181  0.00  0.00    -0.616 OA
ENDBRANCH  47  48
ENDBRANCH  44  47
ENDBRANCH  43  44
ENDBRANCH  40  43
ENDBRANCH  39  40
ENDBRANCH  36  39
ENDBRANCH  29  36
BRANCH  30  52
ATOM     52  O3' 01G d   1      -8.159  -7.551  13.466  0.00  0.00    -0.390 OA
ATOM     53  H17 01G d   1      -8.813  -7.746  14.127  0.00  0.00     0.210 HD
ENDBRANCH  30  52
BRANCH  32  54
ATOM     54  O2' 01G d   1      -6.419  -7.345  15.585  0.00  0.00    -0.388 OA
ATOM     55  H15 01G d   1      -7.115  -7.979  15.711  0.00  0.00     0.210 HD
ENDBRANCH  32  54
ENDBRANCH  16  27
BRANCH  13  56
ATOM     56  N2  01G d   1      -1.308  -3.289  16.596  0.00  0.00    -0.234 N 
ATOM     57  H10 01G d   1      -0.997  -4.158  16.138  0.00  0.00     0.174 HD
ATOM     58  H11 01G d   1      -0.620  -2.670  17.048  0.00  0.00     0.174 HD
ENDBRANCH  13  56
TORSDOF 11
