REMARK  5 active torsions:
REMARK  status: ('A' for Active; 'I' for Inactive)
REMARK    1  A    between atoms: CG_10  and  CB_11 
REMARK    2  A    between atoms: CB_11  and  CA_12 
REMARK    3  A    between atoms: CA_12  and  C_13 
REMARK    4  A    between atoms: CA_12  and  N_16 
REMARK    5  A    between atoms: CAT_21  and  CAR_22 
ROOT
ATOM      1  CA  23C d   1      23.796   6.267  16.355  0.00  0.00     0.110 C 
ATOM      2  H10 23C d   1      22.868   6.630  16.821  0.00  0.00     0.091 H 
ENDROOT
BRANCH   1   3
ATOM      3  CB  23C d   1      24.712   7.512  16.213  0.00  0.00    -0.011 C 
ATOM      4  H8  23C d   1      24.889   7.961  17.201  0.00  0.00     0.044 H 
ATOM      5  H9  23C d   1      25.673   7.220  15.765  0.00  0.00     0.044 H 
BRANCH   3   6
ATOM      6  CG  23C d   1      23.995   8.522  15.301  0.00  0.00    -0.045 A 
ATOM      7  CD2 23C d   1      22.909   9.321  15.675  0.00  0.00    -0.020 A 
ATOM      8  CAN 23C d   1      22.406   9.282  16.972  0.00  0.00    -0.072 A 
ATOM      9  CAX 23C d   1      22.316  10.194  14.759  0.00  0.00    -0.025 A 
ATOM     10  CAH 23C d   1      21.340  10.072  17.340  0.00  0.00    -0.082 A 
ATOM     11  H1  23C d   1      22.859   8.621  17.702  0.00  0.00     0.084 H 
ATOM     12  CAG 23C d   1      20.751  10.932  16.429  0.00  0.00    -0.082 A 
ATOM     13  H2  23C d   1      20.958  10.020  18.353  0.00  0.00     0.083 H 
ATOM     14  CAL 23C d   1      21.241  10.998  15.130  0.00  0.00    -0.072 A 
ATOM     15  H3  23C d   1      19.912  11.551  16.727  0.00  0.00     0.083 H 
ATOM     16  H4  23C d   1      20.789  11.671  14.410  0.00  0.00     0.084 H 
ATOM     17  CAM 23C d   1      22.795  10.275  13.461  0.00  0.00    -0.072 A 
ATOM     18  CAI 23C d   1      23.863   9.475  13.091  0.00  0.00    -0.082 A 
ATOM     19  H5  23C d   1      22.341  10.953  12.747  0.00  0.00     0.084 H 
ATOM     20  CD1 23C d   1      24.445   8.608  13.997  0.00  0.00    -0.076 A 
ATOM     21  H6  23C d   1      24.247   9.529  12.079  0.00  0.00     0.083 H 
ATOM     22  H7  23C d   1      25.271   7.983  13.678  0.00  0.00     0.084 H 
ENDBRANCH   3   6
ENDBRANCH   1   3
BRANCH   1  23
ATOM     23  C   23C d   1      24.349   5.194  17.336  0.00  0.00     0.197 C 
ATOM     24  OXT 23C d   1      24.097   5.390  18.551  0.00  0.00    -0.646 OA
ATOM     25  O   23C d   1      24.963   4.221  16.875  0.00  0.00    -0.646 OA
ENDBRANCH   1  23
BRANCH   1  26
ATOM     26  N   23C d   1      23.396   5.744  15.026  0.00  0.00    -0.264 N 
ATOM     27  CAW 23C d   1      22.114   5.640  14.660  0.00  0.00     0.262 A 
ATOM     28  OAD 23C d   1      21.158   5.912  15.385  0.00  0.00    -0.267 OA
ATOM     29  CBA 23C d   1      22.029   5.158  13.354  0.00  0.00     0.049 A 
ATOM     30  CAP 23C d   1      20.959   4.858  12.507  0.00  0.00    -0.050 A 
ATOM     31  CAZ 23C d   1      23.342   4.977  12.934  0.00  0.00     0.048 A 
ATOM     32  CAT 23C d   1      21.208   4.371  11.225  0.00  0.00     0.041 A 
ATOM     33  H11 23C d   1      19.939   5.003  12.845  0.00  0.00     0.086 H 
ATOM     34  CAK 23C d   1      22.521   4.187  10.807  0.00  0.00    -0.065 A 
ATOM     35  CAO 23C d   1      23.572   4.490  11.653  0.00  0.00    -0.066 A 
ATOM     36  H12 23C d   1      22.722   3.804   9.813  0.00  0.00     0.085 H 
ATOM     37  H13 23C d   1      24.591   4.346  11.312  0.00  0.00     0.085 H 
ATOM     38  CAV 23C d   1      24.167   5.361  13.995  0.00  0.00     0.262 A 
ATOM     39  OAC 23C d   1      25.405   5.339  13.993  0.00  0.00    -0.267 OA
BRANCH  32  40
ATOM     40  CAR 23C d   1      20.082   4.009  10.269  0.00  0.00     0.209 C 
ATOM     41  OAE 23C d   1      19.012   3.578  10.747  0.00  0.00    -0.644 OA
ATOM     42  OAA 23C d   1      20.318   4.110   9.046  0.00  0.00    -0.644 OA
ENDBRANCH  32  40
ENDBRANCH   1  26
TORSDOF 5
