REMARK  6 active torsions:
REMARK  status: ('A' for Active; 'I' for Inactive)
REMARK    1  A    between atoms: CAV_10  and  CAR_11 
REMARK    2  A    between atoms: CAR_11  and  CBC_12 
REMARK    3  A    between atoms: CBC_12  and  CAQ_13 
REMARK    4  A    between atoms: CBC_12  and  N1_17 
REMARK    5  A    between atoms: CAQ_13  and  CAS_14 
REMARK    6  A    between atoms: CAU_22  and  CAT_23 
ROOT
ATOM      1  CBC WH6 d   1      23.692   7.237  15.916  0.00  0.00     0.036 C 
ATOM      2  H10 WH6 d   1      22.858   7.348  16.624  0.00  0.00     0.074 H 
ENDROOT
BRANCH   1   3
ATOM      3  CAR WH6 d   1      24.166   8.625  15.381  0.00  0.00    -0.020 C 
ATOM      4  H8  WH6 d   1      24.412   9.280  16.230  0.00  0.00     0.043 H 
ATOM      5  H9  WH6 d   1      25.059   8.489  14.753  0.00  0.00     0.043 H 
BRANCH   3   6
ATOM      6  CAV WH6 d   1      23.056   9.264  14.553  0.00  0.00    -0.045 A 
ATOM      7  CAZ WH6 d   1      21.959   9.913  15.124  0.00  0.00    -0.020 A 
ATOM      8  CAN WH6 d   1      21.853  10.030  16.510  0.00  0.00    -0.072 A 
ATOM      9  CAY WH6 d   1      20.959  10.460  14.309  0.00  0.00    -0.025 A 
ATOM     10  CAH WH6 d   1      20.771  10.681  17.084  0.00  0.00    -0.082 A 
ATOM     11  H1  WH6 d   1      22.624   9.608  17.145  0.00  0.00     0.084 H 
ATOM     12  CAG WH6 d   1      19.780  11.226  16.269  0.00  0.00    -0.082 A 
ATOM     13  H2  WH6 d   1      20.696  10.766  18.162  0.00  0.00     0.083 H 
ATOM     14  CAL WH6 d   1      19.869  11.120  14.883  0.00  0.00    -0.072 A 
ATOM     15  H3  WH6 d   1      18.935  11.736  16.717  0.00  0.00     0.083 H 
ATOM     16  H4  WH6 d   1      19.097  11.547  14.253  0.00  0.00     0.084 H 
ATOM     17  CAM WH6 d   1      21.047  10.351  12.924  0.00  0.00    -0.072 A 
ATOM     18  CAI WH6 d   1      22.138   9.691  12.353  0.00  0.00    -0.082 A 
ATOM     19  H5  WH6 d   1      20.274  10.775  12.293  0.00  0.00     0.084 H 
ATOM     20  CAJ WH6 d   1      23.135   9.157  13.159  0.00  0.00    -0.076 A 
ATOM     21  H6  WH6 d   1      22.207   9.595  11.275  0.00  0.00     0.083 H 
ATOM     22  H7  WH6 d   1      23.981   8.653  12.705  0.00  0.00     0.084 H 
ENDBRANCH   3   6
ENDBRANCH   1   3
BRANCH   1  23
ATOM     23  CAQ WH6 d   1      24.877   6.618  16.640  0.00  0.00     0.035 C 
ATOM     24  H11 WH6 d   1      25.316   7.368  17.315  0.00  0.00     0.052 H 
ATOM     25  H12 WH6 d   1      25.628   6.308  15.898  0.00  0.00     0.052 H 
BRANCH  23  26
ATOM     26  CAS WH6 d   1      24.457   5.410  17.451  0.00  0.00     0.174 C 
ATOM     27  OAE WH6 d   1      24.951   4.319  17.105  0.00  0.00    -0.648 OA
ATOM     28  OAA WH6 d   1      23.644   5.609  18.379  0.00  0.00    -0.648 OA
ENDBRANCH  23  26
ENDBRANCH   1  23
BRANCH   1  29
ATOM     29  N1  WH6 d   1      23.226   6.505  14.721  0.00  0.00    -0.274 N 
ATOM     30  CAX WH6 d   1      21.934   6.291  14.393  0.00  0.00     0.262 A 
ATOM     31  OAD WH6 d   1      20.960   6.608  15.084  0.00  0.00    -0.267 OA
ATOM     32  CBB WH6 d   1      21.870   5.649  13.147  0.00  0.00     0.049 A 
ATOM     33  CAP WH6 d   1      20.827   5.178  12.340  0.00  0.00    -0.050 A 
ATOM     34  CBA WH6 d   1      23.199   5.484  12.734  0.00  0.00     0.048 A 
ATOM     35  CAU WH6 d   1      21.121   4.550  11.124  0.00  0.00     0.041 A 
ATOM     36  H13 WH6 d   1      19.797   5.299  12.655  0.00  0.00     0.086 H 
ATOM     37  CAK WH6 d   1      22.439   4.395  10.720  0.00  0.00    -0.065 A 
ATOM     38  CAO WH6 d   1      23.477   4.855  11.524  0.00  0.00    -0.066 A 
ATOM     39  H14 WH6 d   1      22.661   3.914   9.774  0.00  0.00     0.085 H 
ATOM     40  H15 WH6 d   1      24.505   4.723  11.207  0.00  0.00     0.085 H 
ATOM     41  CAW WH6 d   1      24.005   6.048  13.730  0.00  0.00     0.262 A 
ATOM     42  OAC WH6 d   1      25.241   6.090  13.719  0.00  0.00    -0.267 OA
BRANCH  35  43
ATOM     43  CAT WH6 d   1      20.018   4.009  10.199  0.00  0.00     0.209 C 
ATOM     44  OAF WH6 d   1      20.174   4.122   8.960  0.00  0.00    -0.644 OA
ATOM     45  OAB WH6 d   1      19.040   3.455  10.725  0.00  0.00    -0.644 OA
ENDBRANCH  35  43
ENDBRANCH   1  29
TORSDOF 6
