REMARK  9 active torsions:
REMARK  status: ('A' for Active; 'I' for Inactive)
REMARK    1  A    between atoms: C1_1  and  C20_16 
REMARK       I    between atoms: C20_16  and  N6_4 
REMARK    2  A    between atoms: N3_28  and  C8_6 
REMARK    3  A    between atoms: C11_9  and  C5_24 
REMARK    4  A    between atoms: C17_30  and  C14_12 
REMARK    5  A    between atoms: N5_31  and  C19_15 
REMARK    6  A    between atoms: C27_20  and  N8_39 
REMARK    7  A    between atoms: N2_22  and  C23_34 
REMARK    8  A    between atoms: C17_30  and  N5_31 
REMARK    9  A    between atoms: N5_31  and  C18_32 
ROOT
ATOM      1  C1  JNJ d   1      43.907  51.284  24.433  0.00  0.00     0.157 A 
ATOM      2  C2  JNJ d   1      43.357  50.529  23.349  0.00  0.00     0.032 A 
ATOM      3  C3  JNJ d   1      42.353  50.749  22.334  0.00  0.00    -0.067 A 
ATOM      4  C7  JNJ d   1      44.037  49.288  23.387  0.00  0.00     0.111 A 
ATOM      5  N1  JNJ d   1      44.860  50.569  25.091  0.00  0.00    -0.160 NA
ATOM      6  N2  JNJ d   1      44.926  49.358  24.454  0.00  0.00    -0.229 N 
ATOM      7  C4  JNJ d   1      42.054  49.714  21.390  0.00  0.00    -0.068 A 
ATOM      8  C5  JNJ d   1      42.741  48.458  21.435  0.00  0.00     0.018 A 
ATOM      9  C6  JNJ d   1      43.735  48.262  22.442  0.00  0.00     0.157 A 
ATOM     10  F1  JNJ d   1      44.379  47.083  22.489  0.00  0.00    -0.203 F 
ATOM     11  H1  JNJ d   1      41.827  51.696  22.287  0.00  0.00     0.085 H 
ATOM     12  H14 JNJ d   1      41.298  49.883  20.632  0.00  0.00     0.085 H 
ENDROOT
BRANCH   8  13
ATOM     13  C11 JNJ d   1      42.438  47.358  20.488  0.00  0.00     0.016 A 
ATOM     14  C10 JNJ d   1      43.308  46.963  19.414  0.00  0.00     0.129 A 
ATOM     15  C9  JNJ d   1      42.975  45.885  18.539  0.00  0.00    -0.019 A 
ATOM     16  F2  JNJ d   1      44.474  47.602  19.205  0.00  0.00    -0.205 F 
ATOM     17  C8  JNJ d   1      41.755  45.173  18.726  0.00  0.00     0.043 A 
ATOM     18  H4  JNJ d   1      43.648  45.609  17.735  0.00  0.00     0.091 H 
ATOM     19  C13 JNJ d   1      40.884  45.559  19.789  0.00  0.00    -0.056 A 
ATOM     20  C12 JNJ d   1      41.219  46.627  20.650  0.00  0.00    -0.067 A 
ATOM     21  H6  JNJ d   1      39.953  45.025  19.937  0.00  0.00     0.087 H 
ATOM     22  H5  JNJ d   1      40.539  46.898  21.450  0.00  0.00     0.085 H 
BRANCH  17  23
ATOM     23  N3  JNJ d   1      41.370  44.085  17.891  0.00  0.00    -0.307 N 
ATOM     24  C14 JNJ d   1      40.451  44.018  16.820  0.00  0.00     0.136 A 
ATOM     25  N4  JNJ d   1      40.406  42.785  16.331  0.00  0.00    -0.244 NA
ATOM     26  C15 JNJ d   1      41.278  42.046  17.063  0.00  0.00     0.019 A 
ATOM     27  C16 JNJ d   1      41.879  42.811  18.018  0.00  0.00     0.004 A 
ATOM     28  H7  JNJ d   1      41.471  40.986  16.908  0.00  0.00     0.117 H 
ATOM     29  H8  JNJ d   1      42.620  42.478  18.743  0.00  0.00     0.114 H 
BRANCH  24  30
ATOM     30  C17 JNJ d   1      39.625  45.190  16.298  0.00  0.00     0.137 C 
ATOM     31  H15 JNJ d   1      38.873  45.446  17.059  0.00  0.00     0.088 H 
ATOM     32  H16 JNJ d   1      39.119  44.869  15.376  0.00  0.00     0.088 H 
BRANCH  30  33
ATOM     33  N5  JNJ d   1      40.415  46.421  15.992  0.00  0.00    -0.072 N 
ATOM     34  H17 JNJ d   1      41.218  46.451  16.601  0.00  0.00     0.279 HD
BRANCH  33  35
ATOM     35  C19 JNJ d   1      40.870  46.396  14.590  0.00  0.00     0.066 C 
ATOM     36  H9  JNJ d   1      41.450  47.306  14.376  0.00  0.00     0.068 H 
ATOM     37  H10 JNJ d   1      39.997  46.352  13.922  0.00  0.00     0.068 H 
ATOM     38  H11 JNJ d   1      41.503  45.511  14.425  0.00  0.00     0.068 H 
ENDBRANCH  33  35
BRANCH  33  39
ATOM     39  C18 JNJ d   1      39.607  47.630  16.205  0.00  0.00     0.066 C 
ATOM     40  H18 JNJ d   1      40.211  48.520  15.973  0.00  0.00     0.068 H 
ATOM     41  H19 JNJ d   1      39.280  47.672  17.254  0.00  0.00     0.068 H 
ATOM     42  H20 JNJ d   1      38.726  47.603  15.547  0.00  0.00     0.068 H 
ENDBRANCH  33  39
ENDBRANCH  30  33
ENDBRANCH  24  30
ENDBRANCH  17  23
ENDBRANCH   8  13
BRANCH   6  43
ATOM     43  C23 JNJ d   1      45.753  48.308  24.997  0.00  0.00     0.060 A 
ATOM     44  C22 JNJ d   1      45.226  47.427  25.996  0.00  0.00    -0.039 A 
ATOM     45  C21 JNJ d   1      46.041  46.377  26.515  0.00  0.00     0.050 A 
ATOM     46  H12 JNJ d   1      44.212  47.557  26.356  0.00  0.00     0.088 H 
ATOM     47  C27 JNJ d   1      45.917  45.332  27.468  0.00  0.00     0.162 A 
ATOM     48  C26 JNJ d   1      47.348  46.234  26.027  0.00  0.00     0.115 A 
ATOM     49  N7  JNJ d   1      47.043  44.611  27.558  0.00  0.00    -0.109 NA
ATOM     50  O2  JNJ d   1      47.937  45.179  26.653  0.00  0.00    -0.211 OA
ATOM     51  C25 JNJ d   1      47.931  47.074  25.038  0.00  0.00    -0.045 A 
ATOM     52  C24 JNJ d   1      47.100  48.123  24.526  0.00  0.00    -0.052 A 
ATOM     53  H21 JNJ d   1      48.948  46.929  24.691  0.00  0.00     0.088 H 
ATOM     54  H13 JNJ d   1      47.494  48.791  23.768  0.00  0.00     0.087 H 
BRANCH  47  55
ATOM     55  N8  JNJ d   1      44.812  45.106  28.182  0.00  0.00    -0.381 N 
ATOM     56  H22 JNJ d   1      44.786  44.330  28.859  0.00  0.00     0.157 HD
ATOM     57  H23 JNJ d   1      43.986  45.708  28.056  0.00  0.00     0.157 HD
ENDBRANCH  47  55
ENDBRANCH   6  43
BRANCH   1  58
ATOM     58  C20 JNJ d   1      43.549  52.661  24.859  0.00  0.00     0.270 C 
ATOM     59  N6  JNJ d   1      44.249  53.118  25.943  0.00  0.00    -0.365 N 
ATOM     60  H2  JNJ d   1      44.074  54.035  26.300  0.00  0.00     0.159 HD
ATOM     61  H3  JNJ d   1      44.935  52.534  26.378  0.00  0.00     0.159 HD
ATOM     62  O1  JNJ d   1      42.696  53.365  24.313  0.00  0.00    -0.266 OA
ENDBRANCH   1  58
TORSDOF 9
