REMARK  3 active torsions:
REMARK  status: ('A' for Active; 'I' for Inactive)
REMARK    1  A    between atoms: C8_1  and  C7_2 
REMARK    2  A    between atoms: C7_2  and  CG_3 
REMARK    3  A    between atoms: C1_8  and  O1_9 
ROOT
ATOM      1  CG  ETY d   1      25.301  38.427  42.499  0.00  0.00    -0.058 A 
ATOM      2  C3  ETY d   1      24.463  38.912  43.535  0.00  0.00    -0.074 A 
ATOM      3  C2  ETY d   1      23.057  38.838  43.426  0.00  0.00    -0.051 A 
ATOM      4  C5  ETY d   1      24.693  37.860  41.343  0.00  0.00    -0.074 A 
ATOM      5  C6  ETY d   1      23.289  37.782  41.225  0.00  0.00    -0.051 A 
ATOM      6  C1  ETY d   1      22.478  38.273  42.272  0.00  0.00     0.065 A 
ATOM      7  H6  ETY d   1      24.908  39.346  44.423  0.00  0.00     0.084 H 
ATOM      8  H7  ETY d   1      22.427  39.213  44.225  0.00  0.00     0.087 H 
ATOM      9  H8  ETY d   1      25.318  37.483  40.542  0.00  0.00     0.084 H 
ATOM     10  H9  ETY d   1      22.837  37.349  40.340  0.00  0.00     0.087 H 
ENDROOT
BRANCH   1  11
ATOM     11  C7  ETY d   1      26.796  38.506  42.616  0.00  0.00    -0.044 C 
ATOM     12  H4  ETY d   1      27.230  38.411  41.610  0.00  0.00     0.039 H 
ATOM     13  H5  ETY d   1      27.061  39.486  43.039  0.00  0.00     0.039 H 
BRANCH  11  14
ATOM     14  C8  ETY d   1      27.394  37.413  43.508  0.00  0.00    -0.073 C 
ATOM     15  H1  ETY d   1      28.487  37.530  43.549  0.00  0.00     0.028 H 
ATOM     16  H2  ETY d   1      27.147  36.425  43.093  0.00  0.00     0.028 H 
ATOM     17  H3  ETY d   1      26.978  37.499  44.523  0.00  0.00     0.028 H 
ENDBRANCH  11  14
ENDBRANCH   1  11
BRANCH   6  18
ATOM     18  O1  ETY d   1      21.115  38.201  42.163  0.00  0.00    -0.361 OA
ATOM     19  H10 ETY d   1      20.833  38.691  41.400  0.00  0.00     0.217 HD
ENDBRANCH   6  18
TORSDOF 3
