REMARK  4 active torsions:
REMARK  status: ('A' for Active; 'I' for Inactive)
REMARK    1  A    between atoms: N_1  and  CA_2 
REMARK    2  A    between atoms: CA_2  and  C_3 
REMARK    3  A    between atoms: CA_2  and  CB_6 
REMARK    4  A    between atoms: CB_6  and  OG_7 
ROOT
ATOM      1  CA  DSN d   1      57.281  23.176  23.322  0.00  0.00     0.202 C 
ATOM      2  H4  DSN d   1      56.361  22.877  22.799  0.00  0.00     0.104 H 
ENDROOT
BRANCH   1   3
ATOM      3  N   DSN d   1      56.852  23.901  24.585  0.00  0.00    -0.063 N 
ATOM      4  H1  DSN d   1      56.352  23.264  25.185  0.00  0.00     0.275 HD
ATOM      5  H2  DSN d   1      56.253  24.674  24.342  0.00  0.00     0.275 HD
ATOM      6  H3  DSN d   1      57.667  24.247  25.067  0.00  0.00     0.275 HD
ENDBRANCH   1   3
BRANCH   1   7
ATOM      7  C   DSN d   1      58.039  24.078  22.376  0.00  0.00     0.206 C 
ATOM      8  O   DSN d   1      58.879  23.523  21.590  0.00  0.00    -0.646 OA
ATOM      9  OXT DSN d   1      57.778  25.277  22.423  0.00  0.00    -0.646 OA
ENDBRANCH   1   7
BRANCH   1  10
ATOM     10  CB  DSN d   1      58.030  21.901  23.644  0.00  0.00     0.053 C 
ATOM     11  H5  DSN d   1      58.245  21.379  22.700  0.00  0.00     0.077 H 
ATOM     12  H6  DSN d   1      57.385  21.271  24.273  0.00  0.00     0.077 H 
BRANCH  10  13
ATOM     13  OG  DSN d   1      59.289  22.113  24.347  0.00  0.00    -0.398 OA
ATOM     14  H7  DSN d   1      59.120  22.555  25.171  0.00  0.00     0.209 HD
ENDBRANCH  10  13
ENDBRANCH   1  10
TORSDOF 4
