REMARK  3 active torsions:
REMARK  status: ('A' for Active; 'I' for Inactive)
REMARK    1  A    between atoms: C5_2  and  C10_5 
REMARK    2  A    between atoms: C8_4  and  C13_6 
REMARK       I    between atoms: C10_5  and  N11_14 
REMARK    3  A    between atoms: C13_6  and  C18_18 
ROOT
ATOM      1  C4  78P d   1      26.540  65.623   9.392  0.00  0.00     0.101 A 
ATOM      2  C5  78P d   1      26.938  66.429  10.492  0.00  0.00     0.062 A 
ATOM      3  C6  78P d   1      28.292  66.356  10.936  0.00  0.00    -0.065 A 
ATOM      4  C8  78P d   1      25.567  64.552   7.749  0.00  0.00     0.141 A 
ATOM      5  C1  78P d   1      29.227  65.493  10.290  0.00  0.00    -0.080 A 
ATOM      6  C2  78P d   1      28.819  64.697   9.193  0.00  0.00    -0.055 A 
ATOM      7  C3  78P d   1      27.499  64.753   8.741  0.00  0.00     0.063 A 
ATOM      8  N7  78P d   1      26.837  64.106   7.718  0.00  0.00    -0.340 N 
ATOM      9  N9  78P d   1      25.344  65.447   8.718  0.00  0.00    -0.230 NA
ATOM     10  H1  78P d   1      28.614  66.963  11.774  0.00  0.00     0.085 H 
ATOM     11  H6  78P d   1      30.252  65.447  10.640  0.00  0.00     0.083 H 
ATOM     12  H7  78P d   1      29.532  64.043   8.703  0.00  0.00     0.087 H 
ATOM     13  H8  78P d   1      27.235  63.419   7.062  0.00  0.00     0.167 HD
ENDROOT
BRANCH   4  14
ATOM     14  C13 78P d   1      24.469  64.088   6.773  0.00  0.00     0.181 C 
ATOM     15  C17 78P d   1      24.272  62.577   6.863  0.00  0.00    -0.026 C 
ATOM     16  C16 78P d   1      23.248  62.410   7.976  0.00  0.00    -0.040 C 
ATOM     17  H4  78P d   1      25.216  62.073   7.120  0.00  0.00     0.037 H 
ATOM     18  H5  78P d   1      23.888  62.175   5.914  0.00  0.00     0.037 H 
ATOM     19  C15 78P d   1      22.394  63.670   7.891  0.00  0.00     0.083 C 
ATOM     20  H13 78P d   1      22.635  61.512   7.811  0.00  0.00     0.035 H 
ATOM     21  H14 78P d   1      23.744  62.340   8.955  0.00  0.00     0.035 H 
ATOM     22  N14 78P d   1      23.157  64.678   7.141  0.00  0.00    -0.059 N 
ATOM     23  H2  78P d   1      21.451  63.449   7.369  0.00  0.00     0.075 H 
ATOM     24  H3  78P d   1      22.174  64.043   8.902  0.00  0.00     0.075 H 
ATOM     25  H11 78P d   1      22.653  64.936   6.307  0.00  0.00     0.278 HD
ATOM     26  H12 78P d   1      23.299  65.495   7.715  0.00  0.00     0.278 HD
BRANCH  14  27
ATOM     27  C18 78P d   1      24.884  64.550   5.375  0.00  0.00    -0.038 C 
ATOM     28  H15 78P d   1      25.856  64.106   5.116  0.00  0.00     0.031 H 
ATOM     29  H16 78P d   1      24.966  65.647   5.361  0.00  0.00     0.031 H 
ATOM     30  H17 78P d   1      24.128  64.229   4.643  0.00  0.00     0.031 H 
ENDBRANCH  14  27
ENDBRANCH   4  14
BRANCH   2  31
ATOM     31  C10 78P d   1      26.013  67.369  11.218  0.00  0.00     0.251 C 
ATOM     32  N11 78P d   1      24.708  67.304  10.913  0.00  0.00    -0.366 N 
ATOM     33  H9  78P d   1      24.057  67.910  11.370  0.00  0.00     0.159 HD
ATOM     34  H10 78P d   1      24.387  66.650  10.228  0.00  0.00     0.159 HD
ATOM     35  O12 78P d   1      26.394  68.187  12.046  0.00  0.00    -0.268 OA
ENDBRANCH   2  31
TORSDOF 3
