REMARK  5 active torsions:
REMARK  status: ('A' for Active; 'I' for Inactive)
REMARK    1  A    between atoms: CAM_6  and  CAJ_7 
REMARK    2  A    between atoms: CAJ_7  and  CAN_8 
REMARK    3  A    between atoms: CAN_8  and  CAL_9 
REMARK    4  A    between atoms: CAN_8  and  CAK_12 
REMARK    5  A    between atoms: CAK_12  and  NAO_13 
ROOT
ATOM      1  CAJ 23N d   1      10.997 -11.185  22.018  0.00  0.00    -0.027 C 
ATOM      2  H6  23N d   1      11.373 -11.773  21.168  0.00  0.00     0.041 H 
ATOM      3  H7  23N d   1      10.829 -11.850  22.878  0.00  0.00     0.041 H 
ENDROOT
BRANCH   1   4
ATOM      4  CAM 23N d   1       9.712 -10.454  21.642  0.00  0.00    -0.057 A 
ATOM      5  CAH 23N d   1       9.481 -10.073  20.323  0.00  0.00    -0.077 A 
ATOM      6  CAF 23N d   1       8.325  -9.372  19.980  0.00  0.00    -0.082 A 
ATOM      7  H1  23N d   1      10.205 -10.323  19.556  0.00  0.00     0.084 H 
ATOM      8  CAE 23N d   1       7.387  -9.052  20.968  0.00  0.00    -0.083 A 
ATOM      9  H2  23N d   1       8.154  -9.076  18.951  0.00  0.00     0.083 H 
ATOM     10  CAG 23N d   1       7.626  -9.438  22.287  0.00  0.00    -0.082 A 
ATOM     11  H3  23N d   1       6.484  -8.510  20.711  0.00  0.00     0.083 H 
ATOM     12  CAI 23N d   1       8.786 -10.129  22.629  0.00  0.00    -0.077 A 
ATOM     13  H4  23N d   1       6.900  -9.197  23.055  0.00  0.00     0.083 H 
ATOM     14  H5  23N d   1       8.967 -10.412  23.660  0.00  0.00     0.084 H 
ENDBRANCH   1   4
BRANCH   1  15
ATOM     15  CAN 23N d   1      11.993 -10.056  22.386  0.00  0.00     0.050 C 
ATOM     16  H8  23N d   1      11.426  -9.129  22.218  0.00  0.00     0.059 H 
BRANCH  15  17
ATOM     17  CAL 23N d   1      12.372 -10.018  23.886  0.00  0.00     0.178 C 
ATOM     18  OAD 23N d   1      12.249  -8.902  24.401  0.00  0.00    -0.648 OA
ATOM     19  OAA 23N d   1      12.762 -11.054  24.483  0.00  0.00    -0.648 OA
ENDBRANCH  15  17
BRANCH  15  20
ATOM     20  CAK 23N d   1      13.213  -9.933  21.460  0.00  0.00     0.047 C 
ATOM     21  H9  23N d   1      12.905 -10.044  20.410  0.00  0.00     0.064 H 
ATOM     22  H10 23N d   1      13.956 -10.706  21.707  0.00  0.00     0.064 H 
BRANCH  20  23
ATOM     23  NAO 23N d   1      13.785  -8.583  21.685  0.00  0.00    -0.000 NA
ATOM     24  OAC 23N d   1      14.805  -8.627  22.694  0.00  0.00    -0.089 OA
ATOM     25  OAB 23N d   1      14.358  -7.968  20.507  0.00  0.00    -0.089 OA
ENDBRANCH  20  23
ENDBRANCH  15  20
ENDBRANCH   1  15
TORSDOF 5
