REMARK  3 active torsions:
REMARK  status: ('A' for Active; 'I' for Inactive)
REMARK    1  A    between atoms: C2_4  and  O2_5 
REMARK    2  A    between atoms: C3_6  and  O3_7 
REMARK    3  A    between atoms: C4_8  and  O4_9 
ROOT
ATOM      1  C5  LDY d   1      35.347  25.922 -41.913  0.00  0.00     0.046 C 
ATOM      2  O5  LDY d   1      34.375  26.945 -41.599  0.00  0.00    -0.386 OA
ATOM      3  C1  LDY d   1      34.310  28.018 -42.573  0.00  0.00     0.046 C 
ATOM      4  C2  LDY d   1      34.157  27.477 -44.024  0.00  0.00     0.083 C 
ATOM      5  C3  LDY d   1      35.019  26.233 -44.333  0.00  0.00     0.089 C 
ATOM      6  C4  LDY d   1      34.953  25.222 -43.196  0.00  0.00     0.083 C 
ATOM      7  H1  LDY d   1      35.385  25.189 -41.093  0.00  0.00     0.078 H 
ATOM      8  H2  LDY d   1      36.337  26.384 -42.038  0.00  0.00     0.078 H 
ATOM      9  H3  LDY d   1      35.234  28.611 -42.511  0.00  0.00     0.078 H 
ATOM     10  H4  LDY d   1      33.447  28.658 -42.340  0.00  0.00     0.078 H 
ATOM     11  H5  LDY d   1      33.102  27.203 -44.172  0.00  0.00     0.090 H 
ATOM     12  H7  LDY d   1      34.634  25.761 -45.249  0.00  0.00     0.091 H 
ATOM     13  H9  LDY d   1      35.651  24.395 -43.395  0.00  0.00     0.090 H 
ENDROOT
BRANCH   4  14
ATOM     14  O2  LDY d   1      34.500  28.509 -44.943  0.00  0.00    -0.391 OA
ATOM     15  H6  LDY d   1      33.921  29.251 -44.815  0.00  0.00     0.210 HD
ENDBRANCH   4  14
BRANCH   5  16
ATOM     16  O3  LDY d   1      36.372  26.609 -44.543  0.00  0.00    -0.390 OA
ATOM     17  H8  LDY d   1      36.889  25.835 -44.732  0.00  0.00     0.210 HD
ENDBRANCH   5  16
BRANCH   6  18
ATOM     18  O4  LDY d   1      33.630  24.705 -43.084  0.00  0.00    -0.391 OA
ATOM     19  H10 LDY d   1      33.027  25.417 -42.907  0.00  0.00     0.210 HD
ENDBRANCH   6  18
TORSDOF 3
