REMARK  1 active torsions:
REMARK  status: ('A' for Active; 'I' for Inactive)
REMARK    1  A    between atoms: C1_1  and  P1_7 
ROOT
ATOM      1  O1  PPF d   1      22.105   2.843   2.619  0.00  0.00    -0.632 OA
ATOM      2  O2  PPF d   1      20.772   3.150   4.708  0.00  0.00    -0.632 OA
ATOM      3  O3  PPF d   1      22.095   0.981   4.401  0.00  0.00    -0.632 OA
ATOM      4  P1  PPF d   1      21.953   2.465   4.069  0.00  0.00     0.364 P 
ENDROOT
BRANCH   4   5
ATOM      5  C1  PPF d   1      23.276   3.165   4.894  0.00  0.00     0.307 C 
ATOM      6  O4  PPF d   1      23.869   2.487   5.774  0.00  0.00    -0.637 OA
ATOM      7  O5  PPF d   1      23.606   4.336   4.612  0.00  0.00    -0.637 OA
ENDBRANCH   4   5
TORSDOF 1
