REMARK  3 active torsions:
REMARK  status: ('A' for Active; 'I' for Inactive)
REMARK    1  A    between atoms: CB_1  and  CG_2 
REMARK    2  A    between atoms: CB_1  and  P_3 
REMARK    3  A    between atoms: CG_2  and  CD_4 
ROOT
ATOM      1  CB  3PP d   1       0.506  -4.595   9.244  0.00  0.00     0.048 C 
ATOM      2  H1  3PP d   1      -0.351  -5.284   9.240  0.00  0.00     0.054 H 
ATOM      3  H2  3PP d   1       0.527  -4.030   8.300  0.00  0.00     0.054 H 
ENDROOT
BRANCH   1   4
ATOM      4  CG  3PP d   1       1.800  -5.400   9.380  0.00  0.00     0.027 C 
ATOM      5  H3  3PP d   1       1.597  -6.303   9.975  0.00  0.00     0.050 H 
ATOM      6  H4  3PP d   1       2.551  -4.783   9.895  0.00  0.00     0.050 H 
BRANCH   4   7
ATOM      7  CD  3PP d   1       2.348  -5.814   8.033  0.00  0.00     0.173 C 
ATOM      8  OE1 3PP d   1       2.894  -6.941   7.917  0.00  0.00    -0.648 OA
ATOM      9  OE2 3PP d   1       2.240  -4.997   7.091  0.00  0.00    -0.648 OA
ENDBRANCH   4   7
ENDBRANCH   1   4
BRANCH   1  10
ATOM     10  P   3PP d   1       0.337  -3.435  10.633  0.00  0.00     0.260 P 
ATOM     11  O1  3PP d   1       1.677  -2.735  10.752  0.00  0.00    -0.640 OA
ATOM     12  O2  3PP d   1      -0.807  -2.536  10.222  0.00  0.00    -0.640 OA
ATOM     13  O3  3PP d   1       0.004  -4.300  11.824  0.00  0.00    -0.640 OA
ENDBRANCH   1  10
TORSDOF 3
