REMARK  2 active torsions:
REMARK  status: ('A' for Active; 'I' for Inactive)
REMARK    1  A    between atoms: S1_2  and  C2_5 
REMARK    2  A    between atoms: C2_5  and  C1_6 
ROOT
ATOM      1  C2  SAT d   1       2.040  -6.397   8.897  0.00  0.00     0.124 C 
ATOM      2  H1  SAT d   1       1.419  -7.154   8.396  0.00  0.00     0.077 H 
ATOM      3  H2  SAT d   1       1.811  -6.388   9.973  0.00  0.00     0.077 H 
ENDROOT
BRANCH   1   4
ATOM      4  S1  SAT d   1       1.654  -4.896   8.263  0.00  0.00     0.111 S 
ATOM      5  O5  SAT d   1       2.243  -3.819   9.081  0.00  0.00    -0.595 OA
ATOM      6  O3  SAT d   1       0.185  -4.739   8.228  0.00  0.00    -0.595 OA
ATOM      7  O4  SAT d   1       2.177  -4.798   6.897  0.00  0.00    -0.595 OA
ENDBRANCH   1   4
BRANCH   1   8
ATOM      8  C1  SAT d   1       3.497  -6.782   8.722  0.00  0.00     0.189 C 
ATOM      9  O1  SAT d   1       3.852  -7.334   7.660  0.00  0.00    -0.647 OA
ATOM     10  O2  SAT d   1       4.295  -6.576   9.659  0.00  0.00    -0.647 OA
ENDBRANCH   1   8
TORSDOF 2
