REMARK  20 active torsions:
REMARK  status: ('A' for Active; 'I' for Inactive)
REMARK    1  A    between atoms: C10_13  and  N1_3 
REMARK    2  A    between atoms: C29_37  and  C4_6 
REMARK    3  A    between atoms: C11_14  and  C10_13 
REMARK    4  A    between atoms: C10_13  and  C13_17 
REMARK       I    between atoms: N3_15  and  C11_14 
REMARK    5  A    between atoms: C12_16  and  N3_15 
REMARK    6  A    between atoms: C12_16  and  C22_27 
REMARK    7  A    between atoms: C23_28  and  C12_16 
REMARK    8  A    between atoms: C13_17  and  C14_18 
REMARK    9  A    between atoms: C13_17  and  C15_19 
REMARK   10  A    between atoms: C22_27  and  C20_25 
REMARK   11  A    between atoms: C24_29  and  C23_28 
REMARK   12  A    between atoms: C25_30  and  C24_29 
REMARK   13  A    between atoms: C24_29  and  O4_36 
REMARK   14  A    between atoms: C25_30  and  N4_31 
REMARK   15  A    between atoms: C25_30  and  C29_37 
REMARK       I    between atoms: N4_31  and  C26_32 
REMARK   16  A    between atoms: C26_32  and  C27_33 
REMARK   17  A    between atoms: C27_33  and  O3_34 
REMARK   18  A    between atoms: O3_34  and  C28_35 
REMARK   19  A    between atoms: C30_39  and  C36_45 
REMARK   20  A    between atoms: C34_43  and  C35_44 
ROOT
ATOM      1  C23 AB1 d   1     -19.650   1.717  -0.358  0.00  0.00    -0.020 C 
ATOM      2  H28 AB1 d   1     -20.559   2.312  -0.529  0.00  0.00     0.040 H 
ATOM      3  H29 AB1 d   1     -19.384   1.753   0.709  0.00  0.00     0.040 H 
ENDROOT
BRANCH   1   4
ATOM      4  C12 AB1 d   1     -18.510   2.345  -1.157  0.00  0.00     0.018 C 
ATOM      5  H13 AB1 d   1     -17.532   1.921  -0.886  0.00  0.00     0.073 H 
BRANCH   4   6
ATOM      6  N3  AB1 d   1     -18.813   2.150  -2.577  0.00  0.00    -0.354 N 
ATOM      7  C11 AB1 d   1     -17.918   1.661  -3.435  0.00  0.00     0.241 C 
ATOM      8  O2  AB1 d   1     -16.789   1.330  -3.098  0.00  0.00    -0.271 OA
ATOM      9  H12 AB1 d   1     -19.723   2.392  -2.914  0.00  0.00     0.162 HD
BRANCH   7  10
ATOM     10  C10 AB1 d   1     -18.398   1.565  -4.867  0.00  0.00     0.096 C 
ATOM     11  H11 AB1 d   1     -19.496   1.608  -4.826  0.00  0.00     0.088 H 
BRANCH  10  12
ATOM     12  N1  AB1 d   1     -17.945   2.718  -5.660  0.00  0.00    -0.320 N 
ATOM     13  C2  AB1 d   1     -16.554   2.676  -6.136  0.00  0.00     0.002 C 
ATOM     14  C37 AB1 d   1     -16.121   4.090  -6.555  0.00  0.00    -0.035 C 
ATOM     15  H3  AB1 d   1     -16.481   1.998  -6.999  0.00  0.00     0.064 H 
ATOM     16  H4  AB1 d   1     -15.900   2.315  -5.329  0.00  0.00     0.064 H 
ATOM     17  C1  AB1 d   1     -17.183   4.864  -7.326  0.00  0.00    -0.002 C 
ATOM     18  H47 AB1 d   1     -15.871   4.658  -5.647  0.00  0.00     0.037 H 
ATOM     19  H48 AB1 d   1     -15.227   4.003  -7.191  0.00  0.00     0.037 H 
ATOM     20  N2  AB1 d   1     -18.344   4.806  -6.457  0.00  0.00    -0.343 N 
ATOM     21  H1  AB1 d   1     -16.868   5.905  -7.492  0.00  0.00     0.064 H 
ATOM     22  H2  AB1 d   1     -17.392   4.386  -8.294  0.00  0.00     0.064 H 
ATOM     23  C3  AB1 d   1     -18.812   3.697  -5.917  0.00  0.00     0.319 C 
ATOM     24  H5  AB1 d   1     -18.820   5.662  -6.255  0.00  0.00     0.164 HD
ATOM     25  O1  AB1 d   1     -19.997   3.583  -5.704  0.00  0.00    -0.247 OA
ENDBRANCH  10  12
BRANCH  10  26
ATOM     26  C13 AB1 d   1     -18.039   0.253  -5.599  0.00  0.00    -0.033 C 
ATOM     27  H14 AB1 d   1     -16.948   0.239  -5.739  0.00  0.00     0.042 H 
BRANCH  26  28
ATOM     28  C14 AB1 d   1     -18.432  -0.979  -4.794  0.00  0.00    -0.071 C 
ATOM     29  H15 AB1 d   1     -18.158  -1.885  -5.354  0.00  0.00     0.028 H 
ATOM     30  H16 AB1 d   1     -19.518  -0.971  -4.618  0.00  0.00     0.028 H 
ATOM     31  H17 AB1 d   1     -17.904  -0.970  -3.829  0.00  0.00     0.028 H 
ENDBRANCH  26  28
BRANCH  26  32
ATOM     32  C15 AB1 d   1     -18.698   0.164  -6.974  0.00  0.00    -0.071 C 
ATOM     33  H18 AB1 d   1     -18.424   1.047  -7.570  0.00  0.00     0.028 H 
ATOM     34  H19 AB1 d   1     -19.791   0.126  -6.855  0.00  0.00     0.028 H 
ATOM     35  H20 AB1 d   1     -18.353  -0.746  -7.488  0.00  0.00     0.028 H 
ENDBRANCH  26  32
ENDBRANCH  10  26
ENDBRANCH   7  10
ENDBRANCH   4   6
BRANCH   4  36
ATOM     36  C22 AB1 d   1     -18.584   3.852  -0.877  0.00  0.00    -0.022 C 
ATOM     37  H26 AB1 d   1     -18.293   4.016   0.171  0.00  0.00     0.043 H 
ATOM     38  H27 AB1 d   1     -19.626   4.173  -1.023  0.00  0.00     0.043 H 
BRANCH  36  39
ATOM     39  C20 AB1 d   1     -17.702   4.724  -1.748  0.00  0.00    -0.056 A 
ATOM     40  C19 AB1 d   1     -18.282   5.604  -2.671  0.00  0.00    -0.077 A 
ATOM     41  C18 AB1 d   1     -17.483   6.418  -3.478  0.00  0.00    -0.082 A 
ATOM     42  H24 AB1 d   1     -19.361   5.654  -2.760  0.00  0.00     0.084 H 
ATOM     43  C17 AB1 d   1     -16.099   6.370  -3.359  0.00  0.00    -0.083 A 
ATOM     44  H23 AB1 d   1     -17.942   7.087  -4.197  0.00  0.00     0.083 H 
ATOM     45  C16 AB1 d   1     -15.525   5.505  -2.430  0.00  0.00    -0.082 A 
ATOM     46  H22 AB1 d   1     -15.473   6.999  -3.982  0.00  0.00     0.083 H 
ATOM     47  C21 AB1 d   1     -16.315   4.684  -1.627  0.00  0.00    -0.077 A 
ATOM     48  H21 AB1 d   1     -14.446   5.470  -2.330  0.00  0.00     0.083 H 
ATOM     49  H25 AB1 d   1     -15.851   4.016  -0.910  0.00  0.00     0.084 H 
ENDBRANCH  36  39
ENDBRANCH   4  36
ENDBRANCH   1   4
BRANCH   1  50
ATOM     50  C24 AB1 d   1     -19.950   0.266  -0.728  0.00  0.00     0.057 C 
ATOM     51  H30 AB1 d   1     -20.058   0.204  -1.821  0.00  0.00     0.086 H 
BRANCH  50  52
ATOM     52  C25 AB1 d   1     -18.912  -0.775  -0.291  0.00  0.00     0.041 C 
ATOM     53  H31 AB1 d   1     -17.944  -0.606  -0.784  0.00  0.00     0.076 H 
BRANCH  52  54
ATOM     54  N4  AB1 d   1     -18.809  -0.695   1.165  0.00  0.00    -0.352 N 
ATOM     55  C26 AB1 d   1     -17.682  -0.290   1.762  0.00  0.00     0.242 C 
ATOM     56  O5  AB1 d   1     -16.680   0.041   1.153  0.00  0.00    -0.271 OA
ATOM     57  H32 AB1 d   1     -19.597  -0.948   1.726  0.00  0.00     0.163 HD
BRANCH  55  58
ATOM     58  C27 AB1 d   1     -17.653  -0.242   3.264  0.00  0.00     0.099 C 
ATOM     59  H33 AB1 d   1     -17.661   0.811   3.581  0.00  0.00     0.089 H 
ATOM     60  H34 AB1 d   1     -16.727  -0.723   3.612  0.00  0.00     0.089 H 
BRANCH  58  61
ATOM     61  O3  AB1 d   1     -18.767  -0.908   3.869  0.00  0.00    -0.341 OA
BRANCH  61  62
ATOM     62  C28 AB1 d   1     -18.583  -1.507   5.093  0.00  0.00     0.081 A 
ATOM     63  C30 AB1 d   1     -18.459  -0.738   6.255  0.00  0.00    -0.028 A 
ATOM     64  C31 AB1 d   1     -18.259  -1.358   7.490  0.00  0.00    -0.074 A 
ATOM     65  C32 AB1 d   1     -18.182  -2.744   7.568  0.00  0.00    -0.082 A 
ATOM     66  H38 AB1 d   1     -18.164  -0.759   8.388  0.00  0.00     0.084 H 
ATOM     67  C33 AB1 d   1     -18.298  -3.514   6.414  0.00  0.00    -0.074 A 
ATOM     68  H39 AB1 d   1     -18.032  -3.225   8.528  0.00  0.00     0.083 H 
ATOM     69  C34 AB1 d   1     -18.494  -2.898   5.181  0.00  0.00    -0.028 A 
ATOM     70  H40 AB1 d   1     -18.236  -4.595   6.476  0.00  0.00     0.084 H 
BRANCH  63  71
ATOM     71  C36 AB1 d   1     -18.546   0.765   6.218  0.00  0.00    -0.049 C 
ATOM     72  H44 AB1 d   1     -18.704   1.098   5.181  0.00  0.00     0.033 H 
ATOM     73  H45 AB1 d   1     -17.610   1.196   6.603  0.00  0.00     0.033 H 
ATOM     74  H46 AB1 d   1     -19.388   1.099   6.842  0.00  0.00     0.033 H 
ENDBRANCH  63  71
BRANCH  69  75
ATOM     75  C35 AB1 d   1     -18.614  -3.762   3.960  0.00  0.00    -0.049 C 
ATOM     76  H41 AB1 d   1     -18.764  -3.127   3.075  0.00  0.00     0.033 H 
ATOM     77  H42 AB1 d   1     -19.472  -4.441   4.074  0.00  0.00     0.033 H 
ATOM     78  H43 AB1 d   1     -17.694  -4.352   3.836  0.00  0.00     0.033 H 
ENDBRANCH  69  75
ENDBRANCH  61  62
ENDBRANCH  58  61
ENDBRANCH  55  58
ENDBRANCH  52  54
BRANCH  52  79
ATOM     79  C29 AB1 d   1     -19.458  -2.178  -0.580  0.00  0.00    -0.020 C 
ATOM     80  H36 AB1 d   1     -20.452  -2.261  -0.115  0.00  0.00     0.043 H 
ATOM     81  H37 AB1 d   1     -19.552  -2.291  -1.670  0.00  0.00     0.043 H 
BRANCH  79  82
ATOM     82  C4  AB1 d   1     -18.593  -3.321  -0.058  0.00  0.00    -0.056 A 
ATOM     83  C5  AB1 d   1     -19.205  -4.415   0.557  0.00  0.00    -0.077 A 
ATOM     84  C6  AB1 d   1     -18.447  -5.482   1.044  0.00  0.00    -0.082 A 
ATOM     85  H6  AB1 d   1     -20.284  -4.436   0.658  0.00  0.00     0.084 H 
ATOM     86  C7  AB1 d   1     -17.056  -5.463   0.921  0.00  0.00    -0.083 A 
ATOM     87  H7  AB1 d   1     -18.938  -6.325   1.517  0.00  0.00     0.083 H 
ATOM     88  C8  AB1 d   1     -16.440  -4.371   0.299  0.00  0.00    -0.082 A 
ATOM     89  H8  AB1 d   1     -16.460  -6.284   1.303  0.00  0.00     0.083 H 
ATOM     90  C9  AB1 d   1     -17.203  -3.308  -0.187  0.00  0.00    -0.077 A 
ATOM     91  H9  AB1 d   1     -15.361  -4.351   0.194  0.00  0.00     0.083 H 
ATOM     92  H10 AB1 d   1     -16.714  -2.468  -0.667  0.00  0.00     0.084 H 
ENDBRANCH  79  82
ENDBRANCH  52  79
ENDBRANCH  50  52
BRANCH  50  93
ATOM     93  O4  AB1 d   1     -21.178  -0.069  -0.095  0.00  0.00    -0.393 OA
ATOM     94  H35 AB1 d   1     -21.844   0.560  -0.346  0.00  0.00     0.210 HD
ENDBRANCH  50  93
ENDBRANCH   1  50
TORSDOF 20
