REMARK  20 active torsions:
REMARK  status: ('A' for Active; 'I' for Inactive)
REMARK    1  A    between atoms: C10_13  and  N1_3 
REMARK    2  A    between atoms: C29_37  and  C4_6 
REMARK    3  A    between atoms: C11_14  and  C10_13 
REMARK    4  A    between atoms: C10_13  and  C13_17 
REMARK       I    between atoms: N3_15  and  C11_14 
REMARK    5  A    between atoms: C12_16  and  N3_15 
REMARK    6  A    between atoms: C12_16  and  C22_27 
REMARK    7  A    between atoms: C23_28  and  C12_16 
REMARK    8  A    between atoms: C13_17  and  C14_18 
REMARK    9  A    between atoms: C13_17  and  C15_19 
REMARK   10  A    between atoms: C22_27  and  C20_25 
REMARK   11  A    between atoms: C24_29  and  C23_28 
REMARK   12  A    between atoms: C25_30  and  C24_29 
REMARK   13  A    between atoms: C24_29  and  O4_36 
REMARK   14  A    between atoms: C25_30  and  N4_31 
REMARK   15  A    between atoms: C25_30  and  C29_37 
REMARK       I    between atoms: N4_31  and  C26_32 
REMARK   16  A    between atoms: C26_32  and  C27_33 
REMARK   17  A    between atoms: C27_33  and  O3_34 
REMARK   18  A    between atoms: O3_34  and  C28_35 
REMARK   19  A    between atoms: C30_39  and  C36_45 
REMARK   20  A    between atoms: C34_43  and  C35_44 
ROOT
ATOM      1  C23 AB1 d   1     -11.316  16.154   0.066  0.00  0.00    -0.020 C 
ATOM      2  H28 AB1 d   1     -12.277  16.658   0.242  0.00  0.00     0.040 H 
ATOM      3  H29 AB1 d   1     -11.222  15.908  -1.002  0.00  0.00     0.040 H 
ENDROOT
BRANCH   1   4
ATOM      4  C12 AB1 d   1     -11.318  14.846   0.853  0.00  0.00     0.018 C 
ATOM      5  H13 AB1 d   1     -10.497  14.176   0.558  0.00  0.00     0.073 H 
BRANCH   4   6
ATOM      6  N3  AB1 d   1     -11.261  15.204   2.270  0.00  0.00    -0.354 N 
ATOM      7  C11 AB1 d   1     -10.365  14.678   3.115  0.00  0.00     0.241 C 
ATOM      8  O2  AB1 d   1      -9.512  13.852   2.781  0.00  0.00    -0.271 OA
ATOM      9  H12 AB1 d   1     -11.919  15.870   2.623  0.00  0.00     0.162 HD
BRANCH   7  10
ATOM     10  C10 AB1 d   1     -10.493  15.188   4.537  0.00  0.00     0.096 C 
ATOM     11  H11 AB1 d   1     -11.089  16.111   4.486  0.00  0.00     0.088 H 
BRANCH  10  12
ATOM     12  N1  AB1 d   1     -11.237  14.233   5.387  0.00  0.00    -0.320 N 
ATOM     13  C2  AB1 d   1     -10.474  13.048   5.776  0.00  0.00     0.002 C 
ATOM     14  C37 AB1 d   1     -11.458  11.906   6.023  0.00  0.00    -0.035 C 
ATOM     15  H3  AB1 d   1      -9.906  13.256   6.695  0.00  0.00     0.064 H 
ATOM     16  H4  AB1 d   1      -9.778  12.772   4.970  0.00  0.00     0.064 H 
ATOM     17  C1  AB1 d   1     -12.583  12.305   6.968  0.00  0.00    -0.002 C 
ATOM     18  H47 AB1 d   1     -11.896  11.602   5.061  0.00  0.00     0.037 H 
ATOM     19  H48 AB1 d   1     -10.912  11.058   6.462  0.00  0.00     0.037 H 
ATOM     20  N2  AB1 d   1     -13.170  13.474   6.333  0.00  0.00    -0.343 N 
ATOM     21  H1  AB1 d   1     -13.323  11.496   7.060  0.00  0.00     0.064 H 
ATOM     22  H2  AB1 d   1     -12.188  12.556   7.963  0.00  0.00     0.064 H 
ATOM     23  C3  AB1 d   1     -12.503  14.466   5.749  0.00  0.00     0.319 C 
ATOM     24  H5  AB1 d   1     -14.168  13.538   6.335  0.00  0.00     0.164 HD
ATOM     25  O1  AB1 d   1     -13.041  15.535   5.569  0.00  0.00    -0.247 OA
ENDBRANCH  10  12
BRANCH  10  26
ATOM     26  C13 AB1 d   1      -9.148  15.564   5.198  0.00  0.00    -0.033 C 
ATOM     27  H14 AB1 d   1      -8.592  14.630   5.364  0.00  0.00     0.042 H 
BRANCH  26  28
ATOM     28  C14 AB1 d   1      -8.305  16.470   4.310  0.00  0.00    -0.071 C 
ATOM     29  H15 AB1 d   1      -7.361  16.709   4.822  0.00  0.00     0.028 H 
ATOM     30  H16 AB1 d   1      -8.857  17.399   4.105  0.00  0.00     0.028 H 
ATOM     31  H17 AB1 d   1      -8.088  15.956   3.362  0.00  0.00     0.028 H 
ENDBRANCH  26  28
BRANCH  26  32
ATOM     32  C15 AB1 d   1      -9.327  16.258   6.547  0.00  0.00    -0.071 C 
ATOM     33  H18 AB1 d   1      -9.934  15.623   7.209  0.00  0.00     0.028 H 
ATOM     34  H19 AB1 d   1      -9.834  17.223   6.399  0.00  0.00     0.028 H 
ATOM     35  H20 AB1 d   1      -8.342  16.428   7.005  0.00  0.00     0.028 H 
ENDBRANCH  26  32
ENDBRANCH  10  26
ENDBRANCH   7  10
ENDBRANCH   4   6
BRANCH   4  36
ATOM     36  C22 AB1 d   1     -12.695  14.228   0.613  0.00  0.00    -0.022 C 
ATOM     37  H26 AB1 d   1     -12.786  13.994  -0.458  0.00  0.00     0.043 H 
ATOM     38  H27 AB1 d   1     -13.459  14.968   0.893  0.00  0.00     0.043 H 
BRANCH  36  39
ATOM     39  C20 AB1 d   1     -12.952  12.962   1.398  0.00  0.00    -0.056 A 
ATOM     40  C19 AB1 d   1     -13.991  12.940   2.327  0.00  0.00    -0.077 A 
ATOM     41  C18 AB1 d   1     -14.256  11.786   3.063  0.00  0.00    -0.082 A 
ATOM     42  H24 AB1 d   1     -14.597  13.826   2.478  0.00  0.00     0.084 H 
ATOM     43  C17 AB1 d   1     -13.487  10.642   2.858  0.00  0.00    -0.083 A 
ATOM     44  H23 AB1 d   1     -15.058  11.779   3.792  0.00  0.00     0.083 H 
ATOM     45  C16 AB1 d   1     -12.455  10.658   1.921  0.00  0.00    -0.082 A 
ATOM     46  H22 AB1 d   1     -13.691   9.742   3.426  0.00  0.00     0.083 H 
ATOM     47  C21 AB1 d   1     -12.191  11.814   1.189  0.00  0.00    -0.077 A 
ATOM     48  H21 AB1 d   1     -11.856   9.769   1.761  0.00  0.00     0.083 H 
ATOM     49  H25 AB1 d   1     -11.392  11.820   0.456  0.00  0.00     0.084 H 
ENDBRANCH  36  39
ENDBRANCH   4  36
ENDBRANCH   1   4
BRANCH   1  50
ATOM     50  C24 AB1 d   1     -10.200  17.129   0.425  0.00  0.00     0.057 C 
ATOM     51  H30 AB1 d   1     -10.204  17.257   1.518  0.00  0.00     0.086 H 
BRANCH  50  52
ATOM     52  C25 AB1 d   1      -8.791  16.694   0.016  0.00  0.00     0.041 C 
ATOM     53  H31 AB1 d   1      -8.511  15.759   0.523  0.00  0.00     0.076 H 
BRANCH  52  54
ATOM     54  N4  AB1 d   1      -8.739  16.554  -1.434  0.00  0.00    -0.352 N 
ATOM     55  C26 AB1 d   1      -8.564  15.346  -1.971  0.00  0.00     0.242 C 
ATOM     56  O5  AB1 d   1      -8.464  14.332  -1.298  0.00  0.00    -0.271 OA
ATOM     57  H32 AB1 d   1      -8.834  17.358  -2.022  0.00  0.00     0.163 HD
BRANCH  55  58
ATOM     58  C27 AB1 d   1      -8.493  15.223  -3.475  0.00  0.00     0.099 C 
ATOM     59  H33 AB1 d   1      -9.312  14.570  -3.812  0.00  0.00     0.089 H 
ATOM     60  H34 AB1 d   1      -7.528  14.769  -3.744  0.00  0.00     0.089 H 
BRANCH  58  61
ATOM     61  O3  AB1 d   1      -8.607  16.480  -4.148  0.00  0.00    -0.341 OA
BRANCH  61  62
ATOM     62  C28 AB1 d   1      -8.095  16.630  -5.415  0.00  0.00     0.081 A 
ATOM     63  C30 AB1 d   1      -8.707  16.023  -6.523  0.00  0.00    -0.028 A 
ATOM     64  C31 AB1 d   1      -8.166  16.192  -7.794  0.00  0.00    -0.074 A 
ATOM     65  C32 AB1 d   1      -7.023  16.964  -7.979  0.00  0.00    -0.082 A 
ATOM     66  H38 AB1 d   1      -8.639  15.719  -8.647  0.00  0.00     0.084 H 
ATOM     67  C33 AB1 d   1      -6.412  17.567  -6.884  0.00  0.00    -0.074 A 
ATOM     68  H39 AB1 d   1      -6.610  17.095  -8.973  0.00  0.00     0.083 H 
ATOM     69  C34 AB1 d   1      -6.941  17.403  -5.606  0.00  0.00    -0.028 A 
ATOM     70  H40 AB1 d   1      -5.520  18.167  -7.026  0.00  0.00     0.084 H 
BRANCH  63  71
ATOM     71  C36 AB1 d   1      -9.953  15.182  -6.401  0.00  0.00    -0.049 C 
ATOM     72  H44 AB1 d   1     -10.263  15.137  -5.347  0.00  0.00     0.033 H 
ATOM     73  H45 AB1 d   1      -9.746  14.165  -6.766  0.00  0.00     0.033 H 
ATOM     74  H46 AB1 d   1     -10.758  15.630  -7.002  0.00  0.00     0.033 H 
ENDBRANCH  63  71
BRANCH  69  75
ATOM     75  C35 AB1 d   1      -6.240  18.082  -4.458  0.00  0.00    -0.049 C 
ATOM     76  H41 AB1 d   1      -6.772  17.860  -3.521  0.00  0.00     0.033 H 
ATOM     77  H42 AB1 d   1      -6.230  19.169  -4.626  0.00  0.00     0.033 H 
ATOM     78  H43 AB1 d   1      -5.206  17.712  -4.389  0.00  0.00     0.033 H 
ENDBRANCH  69  75
ENDBRANCH  61  62
ENDBRANCH  58  61
ENDBRANCH  55  58
ENDBRANCH  52  54
BRANCH  52  79
ATOM     79  C29 AB1 d   1      -7.804  17.819   0.328  0.00  0.00    -0.020 C 
ATOM     80  H36 AB1 d   1      -8.189  18.750  -0.114  0.00  0.00     0.043 H 
ATOM     81  H37 AB1 d   1      -7.739  17.930   1.420  0.00  0.00     0.043 H 
BRANCH  79  82
ATOM     82  C4  AB1 d   1      -6.406  17.575  -0.212  0.00  0.00    -0.056 A 
ATOM     83  C5  AB1 d   1      -5.759  18.600  -0.904  0.00  0.00    -0.077 A 
ATOM     84  C6  AB1 d   1      -4.472  18.405  -1.409  0.00  0.00    -0.082 A 
ATOM     85  H6  AB1 d   1      -6.258  19.551  -1.050  0.00  0.00     0.084 H 
ATOM     86  C7  AB1 d   1      -3.823  17.184  -1.216  0.00  0.00    -0.083 A 
ATOM     87  H7  AB1 d   1      -3.976  19.202  -1.951  0.00  0.00     0.083 H 
ATOM     88  C8  AB1 d   1      -4.469  16.161  -0.514  0.00  0.00    -0.082 A 
ATOM     89  H8  AB1 d   1      -2.824  17.030  -1.608  0.00  0.00     0.083 H 
ATOM     90  C9  AB1 d   1      -5.759  16.353  -0.017  0.00  0.00    -0.077 A 
ATOM     91  H9  AB1 d   1      -3.965  15.214  -0.355  0.00  0.00     0.083 H 
ATOM     92  H10 AB1 d   1      -6.258  15.554   0.520  0.00  0.00     0.084 H 
ENDBRANCH  79  82
ENDBRANCH  52  79
ENDBRANCH  50  52
BRANCH  50  93
ATOM     93  O4  AB1 d   1     -10.498  18.379  -0.192  0.00  0.00    -0.393 OA
ATOM     94  H35 AB1 d   1     -11.372  18.654   0.059  0.00  0.00     0.210 HD
ENDBRANCH  50  93
ENDBRANCH   1  50
TORSDOF 20
