REMARK  14 active torsions:
REMARK  status: ('A' for Active; 'I' for Inactive)
REMARK    1  A    between atoms: CA_2  and  N_1 
REMARK    2  A    between atoms: C_3  and  CA_2 
REMARK    3  A    between atoms: CA_2  and  CB_5 
REMARK       I    between atoms: C_3  and  N_10 
REMARK    4  A    between atoms: CB_5  and  CG_6 
REMARK    5  A    between atoms: CG_6  and  CD_7 
REMARK    6  A    between atoms: CD_7  and  CE_8 
REMARK    7  A    between atoms: CE_8  and  NZ_9 
REMARK    8  A    between atoms: N_10  and  CA_11 
REMARK    9  A    between atoms: CA_11  and  C_12 
REMARK   10  A    between atoms: CA_11  and  CB_14 
REMARK   11  A    between atoms: CB_14  and  CG_15 
REMARK   12  A    between atoms: CG_15  and  CD_16 
REMARK   13  A    between atoms: CD_16  and  CE_17 
REMARK   14  A    between atoms: CE_17  and  NZ_18 
ROOT
ATOM      1  C   LYS d   1       5.226  18.875  15.737  0.00  0.00     0.249 C 
ATOM      2  O   LYS d   1       4.449  18.143  16.359  0.00  0.00    -0.271 OA
ATOM      3  N   LYS d   1       5.201  20.199  15.851  0.00  0.00    -0.345 N 
ATOM      4  H16 LYS d   1       5.877  20.742  15.353  0.00  0.00     0.163 HD
ENDROOT
BRANCH   1   5
ATOM      5  CA  LYS d   1       6.358  18.318  14.871  0.00  0.00     0.176 C 
ATOM      6  H4  LYS d   1       7.193  19.032  14.917  0.00  0.00     0.099 H 
BRANCH   5   7
ATOM      7  CB  LYS d   1       5.926  18.234  13.414  0.00  0.00    -0.030 C 
ATOM      8  H5  LYS d   1       6.832  18.290  12.793  0.00  0.00     0.036 H 
ATOM      9  H6  LYS d   1       5.284  19.103  13.206  0.00  0.00     0.036 H 
BRANCH   7  10
ATOM     10  CG  LYS d   1       5.164  16.991  13.003  0.00  0.00    -0.061 C 
ATOM     11  H7  LYS d   1       4.149  17.023  13.427  0.00  0.00     0.033 H 
ATOM     12  H8  LYS d   1       5.688  16.098  13.374  0.00  0.00     0.033 H 
BRANCH  10  13
ATOM     13  CD  LYS d   1       5.081  16.940  11.471  0.00  0.00    -0.043 C 
ATOM     14  H9  LYS d   1       4.963  17.956  11.067  0.00  0.00     0.035 H 
ATOM     15  H10 LYS d   1       4.226  16.321  11.162  0.00  0.00     0.035 H 
BRANCH  13  16
ATOM     16  CE  LYS d   1       6.381  16.325  10.962  0.00  0.00     0.080 C 
ATOM     17  H11 LYS d   1       7.232  16.868  11.399  0.00  0.00     0.075 H 
ATOM     18  H12 LYS d   1       6.415  16.410   9.866  0.00  0.00     0.075 H 
BRANCH  16  19
ATOM     19  NZ  LYS d   1       6.470  14.886  11.345  0.00  0.00    -0.079 N 
ATOM     20  H13 LYS d   1       7.335  14.499  11.000  0.00  0.00     0.274 HD
ATOM     21  H14 LYS d   1       5.694  14.383  10.945  0.00  0.00     0.274 HD
ATOM     22  H15 LYS d   1       6.442  14.803  12.349  0.00  0.00     0.274 HD
ENDBRANCH  16  19
ENDBRANCH  13  16
ENDBRANCH  10  13
ENDBRANCH   7  10
ENDBRANCH   5   7
BRANCH   5  23
ATOM     23  N   LYS d   1       6.858  17.030  15.426  0.00  0.00    -0.067 N 
ATOM     24  H1  LYS d   1       7.602  16.679  14.843  0.00  0.00     0.275 HD
ATOM     25  H2  LYS d   1       6.106  16.360  15.450  0.00  0.00     0.275 HD
ATOM     26  H3  LYS d   1       7.205  17.179  16.360  0.00  0.00     0.275 HD
ENDBRANCH   5  23
ENDBRANCH   1   5
BRANCH   3  27
ATOM     27  CA  LYS d   1       4.216  20.882  16.681  0.00  0.00     0.096 C 
ATOM     28  H17 LYS d   1       4.039  20.251  17.565  0.00  0.00     0.089 H 
BRANCH  27  29
ATOM     29  C   LYS d   1       2.877  21.123  16.003  0.00  0.00     0.196 C 
ATOM     30  OXT LYS d   1       1.884  21.330  16.756  0.00  0.00    -0.646 OA
ATOM     31  O   LYS d   1       2.814  21.078  14.763  0.00  0.00    -0.646 OA
ENDBRANCH  27  29
BRANCH  27  32
ATOM     32  CB  LYS d   1       4.753  22.250  17.150  0.00  0.00    -0.037 C 
ATOM     33  H18 LYS d   1       3.967  22.759  17.727  0.00  0.00     0.036 H 
ATOM     34  H19 LYS d   1       5.006  22.852  16.265  0.00  0.00     0.036 H 
BRANCH  32  35
ATOM     35  CG  LYS d   1       5.994  22.120  18.024  0.00  0.00    -0.061 C 
ATOM     36  H20 LYS d   1       6.864  22.479  17.454  0.00  0.00     0.033 H 
ATOM     37  H21 LYS d   1       6.135  21.059  18.277  0.00  0.00     0.033 H 
BRANCH  35  38
ATOM     38  CD  LYS d   1       5.898  22.913  19.307  0.00  0.00    -0.043 C 
ATOM     39  H22 LYS d   1       5.086  22.498  19.922  0.00  0.00     0.035 H 
ATOM     40  H23 LYS d   1       5.673  23.962  19.062  0.00  0.00     0.035 H 
BRANCH  38  41
ATOM     41  CE  LYS d   1       7.195  22.860  20.103  0.00  0.00     0.080 C 
ATOM     42  H24 LYS d   1       7.480  23.884  20.386  0.00  0.00     0.075 H 
ATOM     43  H25 LYS d   1       7.981  22.422  19.471  0.00  0.00     0.075 H 
BRANCH  41  44
ATOM     44  NZ  LYS d   1       7.061  22.036  21.346  0.00  0.00    -0.079 N 
ATOM     45  H26 LYS d   1       7.939  22.028  21.840  0.00  0.00     0.274 HD
ATOM     46  H27 LYS d   1       6.807  21.093  21.098  0.00  0.00     0.274 HD
ATOM     47  H28 LYS d   1       6.347  22.432  21.937  0.00  0.00     0.274 HD
ENDBRANCH  41  44
ENDBRANCH  38  41
ENDBRANCH  35  38
ENDBRANCH  32  35
ENDBRANCH  27  32
ENDBRANCH   3  27
TORSDOF 14
