REMARK  7 active torsions:
REMARK  status: ('A' for Active; 'I' for Inactive)
REMARK    1  A    between atoms: P_1  and  N_5 
REMARK    2  A    between atoms: N_5  and  CA_6 
REMARK    3  A    between atoms: CA_6  and  CB_9 
REMARK    4  A    between atoms: CA_6  and  C_7 
REMARK       I    between atoms: C_7  and  N_13 
REMARK    5  A    between atoms: CB_9  and  CG_10 
REMARK    6  A    between atoms: CG_10  and  CD1_11 
REMARK    7  A    between atoms: CG_10  and  CD2_12 
ROOT
ATOM      1  CA  0FA d   1      52.845  18.274  -3.728  0.00  0.00     0.093 C 
ATOM      2  H2  0FA d   1      53.467  19.155  -3.946  0.00  0.00     0.087 H 
ENDROOT
BRANCH   1   3
ATOM      3  N   0FA d   1      51.647  18.358  -4.546  0.00  0.00    -0.305 N 
ATOM      4  H1  0FA d   1      50.768  18.086  -4.155  0.00  0.00     0.167 HD
BRANCH   3   5
ATOM      5  P   0FA d   1      51.711  18.957  -6.294  0.00  0.00     0.372 P 
ATOM      6  O1P 0FA d   1      51.695  20.529  -6.165  0.00  0.00    -0.623 OA
ATOM      7  O2P 0FA d   1      53.151  18.547  -6.825  0.00  0.00    -0.623 OA
ATOM      8  O3P 0FA d   1      50.559  18.333  -7.008  0.00  0.00    -0.623 OA
ENDBRANCH   3   5
ENDBRANCH   1   3
BRANCH   1   9
ATOM      9  CB  0FA d   1      52.511  18.258  -2.230  0.00  0.00    -0.035 C 
ATOM     10  H3  0FA d   1      51.908  17.359  -2.036  0.00  0.00     0.037 H 
ATOM     11  H4  0FA d   1      51.911  19.155  -2.016  0.00  0.00     0.037 H 
BRANCH   9  12
ATOM     12  CG  0FA d   1      53.658  18.245  -1.268  0.00  0.00    -0.059 C 
ATOM     13  H5  0FA d   1      54.270  17.337  -1.374  0.00  0.00     0.038 H 
BRANCH  12  14
ATOM     14  CD1 0FA d   1      54.569  19.458  -1.522  0.00  0.00    -0.073 C 
ATOM     15  H6  0FA d   1      55.409  19.441  -0.812  0.00  0.00     0.028 H 
ATOM     16  H7  0FA d   1      53.992  20.385  -1.386  0.00  0.00     0.028 H 
ATOM     17  H8  0FA d   1      54.958  19.416  -2.550  0.00  0.00     0.028 H 
ENDBRANCH  12  14
BRANCH  12  18
ATOM     18  CD2 0FA d   1      52.857  18.186   0.045  0.00  0.00    -0.073 C 
ATOM     19  H9  0FA d   1      52.261  17.262   0.070  0.00  0.00     0.028 H 
ATOM     20  H10 0FA d   1      52.187  19.056   0.105  0.00  0.00     0.028 H 
ATOM     21  H11 0FA d   1      53.551  18.198   0.899  0.00  0.00     0.028 H 
ENDBRANCH  12  18
ENDBRANCH   9  12
ENDBRANCH   1   9
BRANCH   1  22
ATOM     22  C   0FA d   1      53.654  17.016  -4.017  0.00  0.00     0.238 C 
ATOM     23  O   0FA d   1      54.877  17.099  -3.857  0.00  0.00    -0.271 OA
ATOM     24  N   0FA d   1      53.033  15.930  -4.338  0.00  0.00    -0.368 N 
ATOM     25  H12 0FA d   1      53.551  15.096  -4.530  0.00  0.00     0.159 HD
ATOM     26  H13 0FA d   1      52.035  15.923  -4.394  0.00  0.00     0.159 HD
ENDBRANCH   1  22
TORSDOF 7
