REMARK  11 active torsions:
REMARK  status: ('A' for Active; 'I' for Inactive)
REMARK    1  A    between atoms: CA_2  and  N_1 
REMARK    2  A    between atoms: C_3  and  CA_2 
REMARK    3  A    between atoms: CA_2  and  CB_5 
REMARK       I    between atoms: C_3  and  N_9 
REMARK    4  A    between atoms: CB_5  and  CG1_6 
REMARK    5  A    between atoms: CB_5  and  CG2_7 
REMARK    6  A    between atoms: CG1_6  and  CD1_8 
REMARK    7  A    between atoms: N_9  and  CA_10 
REMARK    8  A    between atoms: CA_10  and  C_11 
REMARK    9  A    between atoms: CA_10  and  CB_13 
REMARK   10  A    between atoms: CB_13  and  CG1_14 
REMARK   11  A    between atoms: CB_13  and  CG2_15 
ROOT
ATOM      1  CA  ILE d   1      19.755  64.792  13.438  0.00  0.00     0.179 C 
ATOM      2  H4  ILE d   1      19.863  65.251  14.432  0.00  0.00     0.099 H 
ENDROOT
BRANCH   1   3
ATOM      3  C   ILE d   1      21.116  64.760  12.736  0.00  0.00     0.249 C 
ATOM      4  O   ILE d   1      21.207  64.283  11.575  0.00  0.00    -0.271 OA
ATOM      5  N   VAL d   1      22.157  65.244  13.402  0.00  0.00    -0.344 N 
ATOM      6  H14 ILE d   1      21.990  65.679  14.287  0.00  0.00     0.163 HD
BRANCH   5   7
ATOM      7  CA  VAL d   1      23.548  65.177  12.910  0.00  0.00     0.099 C 
ATOM      8  H15 ILE d   1      23.500  64.924  11.841  0.00  0.00     0.090 H 
BRANCH   7   9
ATOM      9  C   VAL d   1      24.356  64.089  13.603  0.00  0.00     0.197 C 
ATOM     10  OXT VAL d   1      24.824  63.169  12.886  0.00  0.00    -0.646 OA
ATOM     11  O   VAL d   1      24.136  63.829  14.818  0.00  0.00    -0.646 OA
ENDBRANCH   7   9
BRANCH   7  12
ATOM     12  CB  VAL d   1      24.272  66.524  13.036  0.00  0.00    -0.032 C 
ATOM     13  H16 ILE d   1      24.144  67.038  12.072  0.00  0.00     0.042 H 
BRANCH  12  14
ATOM     14  CG1 VAL d   1      23.658  67.445  14.107  0.00  0.00    -0.071 C 
ATOM     15  H17 ILE d   1      24.221  68.389  14.146  0.00  0.00     0.028 H 
ATOM     16  H18 ILE d   1      23.706  66.949  15.088  0.00  0.00     0.028 H 
ATOM     17  H19 ILE d   1      22.609  67.654  13.852  0.00  0.00     0.028 H 
ENDBRANCH  12  14
BRANCH  12  18
ATOM     18  CG2 VAL d   1      25.768  66.341  13.240  0.00  0.00    -0.071 C 
ATOM     19  H20 ILE d   1      26.166  65.679  12.457  0.00  0.00     0.028 H 
ATOM     20  H21 ILE d   1      25.951  65.893  14.228  0.00  0.00     0.028 H 
ATOM     21  H22 ILE d   1      26.268  67.319  13.183  0.00  0.00     0.028 H 
ENDBRANCH  12  18
ENDBRANCH   7  12
ENDBRANCH   5   7
ENDBRANCH   1   3
BRANCH   1  22
ATOM     22  CB  ILE d   1      19.267  63.318  13.602  0.00  0.00    -0.022 C 
ATOM     23  H5  ILE d   1      19.206  62.916  12.580  0.00  0.00     0.043 H 
BRANCH  22  24
ATOM     24  CG1 ILE d   1      17.873  63.128  14.214  0.00  0.00    -0.063 C 
ATOM     25  H6  ILE d   1      17.523  62.109  13.992  0.00  0.00     0.033 H 
ATOM     26  H7  ILE d   1      17.184  63.858  13.764  0.00  0.00     0.033 H 
BRANCH  24  27
ATOM     27  CD1 ILE d   1      17.884  63.329  15.738  0.00  0.00    -0.076 C 
ATOM     28  H11 ILE d   1      16.868  63.184  16.134  0.00  0.00     0.027 H 
ATOM     29  H12 ILE d   1      18.227  64.348  15.971  0.00  0.00     0.027 H 
ATOM     30  H13 ILE d   1      18.565  62.599  16.199  0.00  0.00     0.027 H 
ENDBRANCH  24  27
ENDBRANCH  22  24
BRANCH  22  31
ATOM     31  CG2 ILE d   1      20.280  62.439  14.365  0.00  0.00    -0.070 C 
ATOM     32  H8  ILE d   1      21.282  62.572  13.930  0.00  0.00     0.028 H 
ATOM     33  H9  ILE d   1      19.983  61.383  14.285  0.00  0.00     0.028 H 
ATOM     34  H10 ILE d   1      20.298  62.736  15.424  0.00  0.00     0.028 H 
ENDBRANCH  22  31
ENDBRANCH   1  22
BRANCH   1  35
ATOM     35  N   ILE d   1      18.807  65.586  12.650  0.00  0.00    -0.066 N 
ATOM     36  H1  ILE d   1      19.150  66.530  12.563  0.00  0.00     0.275 HD
ATOM     37  H2  ILE d   1      17.911  65.596  13.112  0.00  0.00     0.275 HD
ATOM     38  H3  ILE d   1      18.708  65.178  11.733  0.00  0.00     0.275 HD
ENDBRANCH   1  35
TORSDOF 11
