REMARK  9 active torsions:
REMARK  status: ('A' for Active; 'I' for Inactive)
REMARK    1  A    between atoms: C1_1  and  N3_18 
REMARK    2  A    between atoms: C2_2  and  S2_19 
REMARK       I    between atoms: N3_18  and  C3_3 
REMARK    3  A    between atoms: C3_3  and  C4_21 
REMARK       I    between atoms: N4_26  and  C12_9 
REMARK    4  A    between atoms: C12_9  and  O2_24 
REMARK    5  A    between atoms: O2_24  and  C13_10 
REMARK    6  A    between atoms: C13_10  and  C17_27 
REMARK    7  A    between atoms: C4_21  and  C5_22 
REMARK    8  A    between atoms: C5_22  and  N4_26 
REMARK    9  A    between atoms: C5_22  and  C6_23 
ROOT
ATOM      1  C5  IN8 d   1      26.233  43.247  46.926  0.00  0.00     0.047 C 
ATOM      2  H16 IN8 d   1      27.169  42.689  46.775  0.00  0.00     0.081 H 
ENDROOT
BRANCH   1   3
ATOM      3  C4  IN8 d   1      26.188  43.809  48.362  0.00  0.00     0.020 C 
ATOM      4  H14 IN8 d   1      25.184  44.208  48.571  0.00  0.00     0.049 H 
ATOM      5  H15 IN8 d   1      26.420  43.008  49.079  0.00  0.00     0.049 H 
BRANCH   3   6
ATOM      6  C3  IN8 d   1      27.225  44.931  48.490  0.00  0.00     0.159 C 
ATOM      7  N3  IN8 d   1      28.430  44.764  47.839  0.00  0.00    -0.315 N 
ATOM      8  H12 IN8 d   1      28.548  43.911  47.330  0.00  0.00     0.170 HD
ATOM      9  O1  IN8 d   1      26.967  46.087  49.215  0.00  0.00    -0.177 OA
BRANCH   7  10
ATOM     10  C1  IN8 d   1      29.535  45.686  47.814  0.00  0.00     0.196 A 
ATOM     11  N1  IN8 d   1      30.627  45.522  47.174  0.00  0.00    -0.122 NA
ATOM     12  N2  IN8 d   1      31.484  46.590  47.396  0.00  0.00    -0.133 NA
ATOM     13  C2  IN8 d   1      30.993  47.577  48.155  0.00  0.00     0.157 A 
ATOM     14  S1  IN8 d   1      29.387  47.205  48.700  0.00  0.00    -0.022 SA
BRANCH  13  15
ATOM     15  S2  IN8 d   1      31.950  49.024  48.573  0.00  0.00    -0.114 SA
ATOM     16  H13 IN8 d   1      32.084  49.060  49.571  0.00  0.00     0.109 HD
ENDBRANCH  13  15
ENDBRANCH   7  10
ENDBRANCH   3   6
ENDBRANCH   1   3
BRANCH   1  17
ATOM     17  N4  IN8 d   1      25.096  42.348  46.830  0.00  0.00    -0.328 N 
ATOM     18  C12 IN8 d   1      25.045  41.156  47.464  0.00  0.00     0.361 C 
ATOM     19  O3  IN8 d   1      26.015  40.713  48.108  0.00  0.00    -0.238 OA
ATOM     20  H17 IN8 d   1      24.316  42.624  46.269  0.00  0.00     0.165 HD
BRANCH  18  21
ATOM     21  O2  IN8 d   1      23.809  40.497  47.353  0.00  0.00    -0.299 OA
BRANCH  21  22
ATOM     22  C13 IN8 d   1      23.887  39.203  47.856  0.00  0.00     0.054 C 
ATOM     23  H6  IN8 d   1      24.937  38.874  47.867  0.00  0.00     0.082 H 
ATOM     24  H7  IN8 d   1      23.297  38.525  47.222  0.00  0.00     0.082 H 
BRANCH  22  25
ATOM     25  C17 IN8 d   1      23.344  39.188  49.246  0.00  0.00    -0.034 A 
ATOM     26  C16 IN8 d   1      22.481  40.139  49.667  0.00  0.00    -0.075 A 
ATOM     27  C15 IN8 d   1      21.977  40.094  50.949  0.00  0.00    -0.082 A 
ATOM     28  H10 IN8 d   1      22.185  40.937  48.996  0.00  0.00     0.084 H 
ATOM     29  C14 IN8 d   1      22.315  39.076  51.793  0.00  0.00    -0.083 A 
ATOM     30  H9  IN8 d   1      21.306  40.874  51.290  0.00  0.00     0.083 H 
ATOM     31  C19 IN8 d   1      23.156  38.090  51.337  0.00  0.00    -0.082 A 
ATOM     32  H8  IN8 d   1      21.927  39.046  52.805  0.00  0.00     0.083 H 
ATOM     33  C18 IN8 d   1      23.669  38.157  50.062  0.00  0.00    -0.075 A 
ATOM     34  H11 IN8 d   1      23.416  37.258  51.982  0.00  0.00     0.083 H 
ATOM     35  H18 IN8 d   1      24.337  37.380  49.709  0.00  0.00     0.084 H 
ENDBRANCH  22  25
ENDBRANCH  21  22
ENDBRANCH  18  21
ENDBRANCH   1  17
BRANCH   1  36
ATOM     36  C6  IN8 d   1      26.145  44.315  45.896  0.00  0.00    -0.035 A 
ATOM     37  C11 IN8 d   1      25.396  45.453  46.091  0.00  0.00    -0.075 A 
ATOM     38  C10 IN8 d   1      25.290  46.392  45.115  0.00  0.00    -0.082 A 
ATOM     39  H5  IN8 d   1      24.884  45.602  47.035  0.00  0.00     0.084 H 
ATOM     40  C9  IN8 d   1      25.912  46.205  43.920  0.00  0.00    -0.083 A 
ATOM     41  H4  IN8 d   1      24.709  47.291  45.289  0.00  0.00     0.083 H 
ATOM     42  C8  IN8 d   1      26.571  45.042  43.671  0.00  0.00    -0.082 A 
ATOM     43  H3  IN8 d   1      25.882  46.983  43.166  0.00  0.00     0.083 H 
ATOM     44  C7  IN8 d   1      26.717  44.123  44.668  0.00  0.00    -0.075 A 
ATOM     45  H2  IN8 d   1      26.978  44.846  42.685  0.00  0.00     0.083 H 
ATOM     46  H1  IN8 d   1      27.296  43.225  44.484  0.00  0.00     0.084 H 
ENDBRANCH   1  36
TORSDOF 9
