REMARK  9 active torsions:
REMARK  status: ('A' for Active; 'I' for Inactive)
REMARK    1  A    between atoms: C22_1  and  O21_2 
REMARK    2  A    between atoms: O21_2  and  C18_3 
REMARK    3  A    between atoms: C7_8  and  C3_9 
REMARK    4  A    between atoms: C2_10  and  C8_11 
REMARK       I    between atoms: C8_11  and  N10_13 
REMARK    5  A    between atoms: N10_13  and  C26_14 
REMARK    6  A    between atoms: C26_14  and  C27_15 
REMARK    7  A    between atoms: C4_17  and  C6_18 
REMARK    8  A    between atoms: C13_22  and  O24_23 
REMARK    9  A    between atoms: C15_25  and  O23_26 
ROOT
ATOM      1  C3  2GG d   1      31.468   8.517  26.237  0.00  0.00     0.048 A 
ATOM      2  C2  2GG d   1      31.041   8.090  27.512  0.00  0.00     0.165 A 
ATOM      3  N1  2GG d   1      30.093   8.892  28.004  0.00  0.00    -0.121 NA
ATOM      4  C4  2GG d   1      30.704   9.670  25.984  0.00  0.00     0.128 A 
ATOM      5  O3  2GG d   1      29.885   9.874  27.047  0.00  0.00    -0.211 OA
ENDROOT
BRANCH   1   6
ATOM      6  C7  2GG d   1      32.448   7.914  25.378  0.00  0.00    -0.020 A 
ATOM      7  C20 2GG d   1      32.094   7.332  24.129  0.00  0.00    -0.069 A 
ATOM      8  C19 2GG d   1      33.059   6.753  23.268  0.00  0.00    -0.050 A 
ATOM      9  H5  2GG d   1      31.053   7.332  23.826  0.00  0.00     0.085 H 
ATOM     10  C18 2GG d   1      34.418   6.776  23.649  0.00  0.00     0.068 A 
ATOM     11  H4  2GG d   1      32.758   6.299  22.331  0.00  0.00     0.087 H 
ATOM     12  C17 2GG d   1      34.773   7.351  24.890  0.00  0.00    -0.050 A 
ATOM     13  C16 2GG d   1      33.803   7.919  25.724  0.00  0.00    -0.069 A 
ATOM     14  H6  2GG d   1      35.812   7.352  25.201  0.00  0.00     0.087 H 
ATOM     15  H7  2GG d   1      34.109   8.373  26.660  0.00  0.00     0.085 H 
BRANCH  10  16
ATOM     16  O21 2GG d   1      35.435   6.238  22.903  0.00  0.00    -0.356 OA
BRANCH  16  17
ATOM     17  C22 2GG d   1      35.110   5.610  21.624  0.00  0.00     0.010 C 
ATOM     18  H1  2GG d   1      36.031   5.232  21.156  0.00  0.00     0.066 H 
ATOM     19  H2  2GG d   1      34.639   6.351  20.961  0.00  0.00     0.066 H 
ATOM     20  H3  2GG d   1      34.415   4.774  21.792  0.00  0.00     0.066 H 
ENDBRANCH  16  17
ENDBRANCH  10  16
ENDBRANCH   1   6
BRANCH   2  21
ATOM     21  C8  2GG d   1      31.565   6.908  28.296  0.00  0.00     0.273 C 
ATOM     22  O9  2GG d   1      32.052   5.928  27.738  0.00  0.00    -0.266 OA
ATOM     23  N10 2GG d   1      31.537   7.058  29.633  0.00  0.00    -0.356 N 
ATOM     24  H8  2GG d   1      31.189   7.911  30.023  0.00  0.00     0.162 HD
BRANCH  23  25
ATOM     25  C26 2GG d   1      32.011   5.986  30.539  0.00  0.00    -0.008 C 
ATOM     26  H9  2GG d   1      31.901   5.012  30.041  0.00  0.00     0.063 H 
ATOM     27  H10 2GG d   1      31.412   5.996  31.461  0.00  0.00     0.063 H 
BRANCH  25  28
ATOM     28  C27 2GG d   1      33.492   6.216  30.890  0.00  0.00    -0.061 C 
ATOM     29  H11 2GG d   1      33.838   5.417  31.563  0.00  0.00     0.029 H 
ATOM     30  H12 2GG d   1      33.603   7.190  31.390  0.00  0.00     0.029 H 
ATOM     31  H13 2GG d   1      34.093   6.205  29.969  0.00  0.00     0.029 H 
ENDBRANCH  25  28
ENDBRANCH  23  25
ENDBRANCH   2  21
BRANCH   4  32
ATOM     32  C6  2GG d   1      30.722  10.492  24.839  0.00  0.00     0.036 A 
ATOM     33  C11 2GG d   1      31.945  11.001  24.391  0.00  0.00    -0.044 A 
ATOM     34  C12 2GG d   1      32.016  11.813  23.258  0.00  0.00     0.068 A 
ATOM     35  H14 2GG d   1      32.853  10.761  24.933  0.00  0.00     0.087 H 
ATOM     36 CL25 2GG d   1      33.548  12.452  22.702  0.00  0.00    -0.081 Cl
ATOM     37  C13 2GG d   1      30.830  12.131  22.581  0.00  0.00     0.090 A 
ATOM     38  C14 2GG d   1      29.599  11.624  23.002  0.00  0.00    -0.017 A 
ATOM     39  C15 2GG d   1      29.545  10.840  24.163  0.00  0.00     0.081 A 
ATOM     40  H16 2GG d   1      28.697  11.834  22.439  0.00  0.00     0.092 H 
BRANCH  37  41
ATOM     41  O24 2GG d   1      30.878  12.874  21.471  0.00  0.00    -0.359 OA
ATOM     42  H15 2GG d   1      29.998  12.998  21.136  0.00  0.00     0.217 HD
ENDBRANCH  37  41
BRANCH  39  43
ATOM     43  O23 2GG d   1      28.338  10.353  24.562  0.00  0.00    -0.360 OA
ATOM     44  H17 2GG d   1      27.745  11.076  24.729  0.00  0.00     0.217 HD
ENDBRANCH  39  43
ENDBRANCH   4  32
TORSDOF 9
