REMARK  7 active torsions:
REMARK  status: ('A' for Active; 'I' for Inactive)
REMARK    1  A    between atoms: C9_6  and  C4_5 
REMARK    2  A    between atoms: S1_7  and  N1_10 
REMARK    3  A    between atoms: S1_7  and  C6_28 
REMARK    4  A    between atoms: N1_10  and  C12_11 
REMARK    5  A    between atoms: N2_16  and  C16_17 
REMARK    6  A    between atoms: C16_17  and  C17_18 
REMARK    7  A    between atoms: C16_17  and  C18_19 
REMARK       I    between atoms: C18_19  and  N3_21 
ROOT
ATOM      1  C12 895 d   1       6.050   6.938  22.151  0.00  0.00     0.098 C 
ATOM      2  C13 895 d   1       4.734   6.331  21.628  0.00  0.00    -0.022 C 
ATOM      3  C14 895 d   1       5.116   4.857  21.438  0.00  0.00     0.001 C 
ATOM      4  C15 895 d   1       7.059   6.123  21.377  0.00  0.00     0.244 C 
ATOM      5  O3  895 d   1       8.198   6.475  21.119  0.00  0.00    -0.271 OA
ATOM      6  N2  895 d   1       6.506   4.953  21.005  0.00  0.00    -0.337 N 
ATOM      7  H5  895 d   1       6.150   6.719  23.224  0.00  0.00     0.088 H 
ATOM      8  H6  895 d   1       4.432   6.792  20.676  0.00  0.00     0.039 H 
ATOM      9  H7  895 d   1       3.923   6.442  22.363  0.00  0.00     0.039 H 
ATOM     10  H8  895 d   1       4.491   4.379  20.670  0.00  0.00     0.064 H 
ATOM     11  H9  895 d   1       5.030   4.298  22.381  0.00  0.00     0.064 H 
ENDROOT
BRANCH   6  12
ATOM     12  C16 895 d   1       7.292   3.952  20.264  0.00  0.00     0.088 C 
ATOM     13  H10 895 d   1       8.351   4.206  20.418  0.00  0.00     0.087 H 
BRANCH  12  14
ATOM     14  C17 895 d   1       7.080   2.525  20.788  0.00  0.00    -0.049 C 
ATOM     15  H11 895 d   1       7.689   1.824  20.199  0.00  0.00     0.030 H 
ATOM     16  H12 895 d   1       6.018   2.255  20.696  0.00  0.00     0.030 H 
ATOM     17  H13 895 d   1       7.381   2.474  21.845  0.00  0.00     0.030 H 
ENDBRANCH  12  14
BRANCH  12  18
ATOM     18  C18 895 d   1       7.033   3.974  18.769  0.00  0.00     0.242 C 
ATOM     19  O4  895 d   1       5.996   4.498  18.370  0.00  0.00    -0.271 OA
ATOM     20  N3  895 d   1       7.959   3.412  17.947  0.00  0.00    -0.346 N 
ATOM     21  C19 895 d   1       9.220   2.793  18.408  0.00  0.00     0.017 C 
ATOM     22  C23 895 d   1       7.669   3.466  16.511  0.00  0.00     0.017 C 
ATOM     23  C20 895 d   1       9.953   1.909  17.390  0.00  0.00     0.034 C 
ATOM     24  H14 895 d   1       8.988   2.172  19.286  0.00  0.00     0.067 H 
ATOM     25  H15 895 d   1       9.903   3.603  18.702  0.00  0.00     0.067 H 
ATOM     26  O5  895 d   1       9.898   2.559  16.131  0.00  0.00    -0.388 OA
ATOM     27  H16 895 d   1       9.462   0.927  17.326  0.00  0.00     0.076 H 
ATOM     28  H17 895 d   1      11.001   1.776  17.697  0.00  0.00     0.076 H 
ATOM     29  C22 895 d   1       8.555   2.562  15.648  0.00  0.00     0.034 C 
ATOM     30  H18 895 d   1       8.159   1.536  15.676  0.00  0.00     0.076 H 
ATOM     31  H19 895 d   1       8.545   2.930  14.612  0.00  0.00     0.076 H 
ATOM     32  H20 895 d   1       7.804   4.504  16.172  0.00  0.00     0.067 H 
ATOM     33  H21 895 d   1       6.622   3.165  16.361  0.00  0.00     0.067 H 
ENDBRANCH  12  18
ENDBRANCH   6  12
BRANCH   1  34
ATOM     34  N1  895 d   1       6.181   8.388  22.008  0.00  0.00    -0.302 N 
ATOM     35  H4  895 d   1       6.001   8.808  21.118  0.00  0.00     0.173 HD
BRANCH  34  36
ATOM     36  S1  895 d   1       6.609   9.330  23.252  0.00  0.00     0.249 S 
ATOM     37  O2  895 d   1       6.672  10.670  22.781  0.00  0.00    -0.201 OA
ATOM     38  O1  895 d   1       5.793   9.034  24.388  0.00  0.00    -0.201 OA
BRANCH  36  39
ATOM     39  C6  895 d   1       8.219   8.819  23.689  0.00  0.00     0.028 C 
ATOM     40  C9  895 d   1       8.466   8.737  25.006  0.00  0.00    -0.054 C 
ATOM     41  H3  895 d   1       7.661   9.019  25.683  0.00  0.00     0.086 H 
ATOM     42  H22 895 d   1       8.975   8.582  22.942  0.00  0.00     0.104 H 
BRANCH  40  43
ATOM     43  C4  895 d   1       9.759   8.289  25.624  0.00  0.00     0.007 A 
ATOM     44  C3  895 d   1       9.878   7.655  26.861  0.00  0.00    -0.064 A 
ATOM     45  C2  895 d   1      11.216   7.364  27.195  0.00  0.00    -0.054 A 
ATOM     46  H2  895 d   1       9.030   7.412  27.499  0.00  0.00     0.085 H 
ATOM     47  C1  895 d   1      12.076   7.770  26.155  0.00  0.00     0.075 A 
ATOM     48  H1  895 d   1      11.539   6.894  28.123  0.00  0.00     0.086 H 
ATOM     49 CL1  895 d   1      13.772   7.513  26.153  0.00  0.00    -0.076 Cl
ATOM     50  S6  895 d   1      11.265   8.512  24.851  0.00  0.00    -0.078 SA
ENDBRANCH  40  43
ENDBRANCH  36  39
ENDBRANCH  34  36
ENDBRANCH   1  34
TORSDOF 7
