REMARK  8 active torsions:
REMARK  status: ('A' for Active; 'I' for Inactive)
REMARK    1  A    between atoms: C9_6  and  C4_5 
REMARK    2  A    between atoms: C9_6  and  C8_7 
REMARK    3  A    between atoms: S1_8  and  N1_11 
REMARK    4  A    between atoms: S1_8  and  C6_29 
REMARK    5  A    between atoms: N1_11  and  C12_12 
REMARK    6  A    between atoms: N2_17  and  C16_18 
REMARK    7  A    between atoms: C16_18  and  C17_19 
REMARK    8  A    between atoms: C16_18  and  C18_20 
REMARK       I    between atoms: C18_20  and  N3_22 
ROOT
ATOM      1  C12 701 d   1       5.832   6.582  22.765  0.00  0.00     0.098 C 
ATOM      2  C13 701 d   1       4.511   6.085  22.153  0.00  0.00    -0.022 C 
ATOM      3  C14 701 d   1       4.891   4.758  21.491  0.00  0.00     0.001 C 
ATOM      4  C15 701 d   1       6.898   5.928  21.886  0.00  0.00     0.244 C 
ATOM      5  O3  701 d   1       8.068   6.303  21.747  0.00  0.00    -0.271 OA
ATOM      6  N2  701 d   1       6.347   4.840  21.311  0.00  0.00    -0.337 N 
ATOM      7  H7  701 d   1       5.922   6.162  23.778  0.00  0.00     0.088 H 
ATOM      8  H8  701 d   1       4.131   6.800  21.408  0.00  0.00     0.039 H 
ATOM      9  H9  701 d   1       3.752   5.930  22.933  0.00  0.00     0.039 H 
ATOM     10  H10 701 d   1       4.385   4.649  20.520  0.00  0.00     0.064 H 
ATOM     11  H11 701 d   1       4.627   3.910  22.140  0.00  0.00     0.064 H 
ENDROOT
BRANCH   6  12
ATOM     12  C16 701 d   1       7.155   3.823  20.618  0.00  0.00     0.088 C 
ATOM     13  H12 701 d   1       8.209   4.016  20.867  0.00  0.00     0.087 H 
BRANCH  12  14
ATOM     14  C17 701 d   1       6.817   2.401  21.089  0.00  0.00    -0.049 C 
ATOM     15  H13 701 d   1       7.442   1.677  20.547  0.00  0.00     0.030 H 
ATOM     16  H14 701 d   1       5.756   2.191  20.889  0.00  0.00     0.030 H 
ATOM     17  H15 701 d   1       7.011   2.317  22.169  0.00  0.00     0.030 H 
ENDBRANCH  12  14
BRANCH  12  18
ATOM     18  C18 701 d   1       7.008   3.922  19.087  0.00  0.00     0.242 C 
ATOM     19  O4  701 d   1       5.947   4.339  18.667  0.00  0.00    -0.271 OA
ATOM     20  N3  701 d   1       8.025   3.565  18.239  0.00  0.00    -0.346 N 
ATOM     21  C19 701 d   1       7.866   3.874  16.808  0.00  0.00     0.017 C 
ATOM     22  C23 701 d   1       9.287   2.880  18.606  0.00  0.00     0.017 C 
ATOM     23  C20 701 d   1       8.262   2.688  15.928  0.00  0.00     0.034 C 
ATOM     24  H16 701 d   1       8.504   4.734  16.556  0.00  0.00     0.067 H 
ATOM     25  H17 701 d   1       6.814   4.128  16.613  0.00  0.00     0.067 H 
ATOM     26  O5  701 d   1       9.522   2.211  16.340  0.00  0.00    -0.388 OA
ATOM     27  H18 701 d   1       8.315   3.010  14.877  0.00  0.00     0.076 H 
ATOM     28  H19 701 d   1       7.514   1.888  16.029  0.00  0.00     0.076 H 
ATOM     29  C22 701 d   1       9.598   1.722  17.661  0.00  0.00     0.034 C 
ATOM     30  H20 701 d   1      10.609   1.338  17.860  0.00  0.00     0.076 H 
ATOM     31  H21 701 d   1       8.864   0.915  17.804  0.00  0.00     0.076 H 
ATOM     32  H22 701 d   1       9.195   2.489  19.630  0.00  0.00     0.067 H 
ATOM     33  H23 701 d   1      10.112   3.606  18.563  0.00  0.00     0.067 H 
ENDBRANCH  12  18
ENDBRANCH   6  12
BRANCH   1  34
ATOM     34  N1  701 d   1       5.931   8.024  22.925  0.00  0.00    -0.302 N 
ATOM     35  H6  701 d   1       5.952   8.646  22.143  0.00  0.00     0.173 HD
BRANCH  34  36
ATOM     36  S1  701 d   1       6.010   8.592  24.556  0.00  0.00     0.250 S 
ATOM     37  O2  701 d   1       4.987   7.872  25.261  0.00  0.00    -0.201 OA
ATOM     38  O1  701 d   1       5.935   9.992  24.414  0.00  0.00    -0.201 OA
BRANCH  36  39
ATOM     39  C6  701 d   1       7.534   8.066  25.212  0.00  0.00     0.034 C 
ATOM     40  C9  701 d   1       8.735   8.632  24.924  0.00  0.00    -0.032 C 
ATOM     41  H24 701 d   1       7.524   7.224  25.902  0.00  0.00     0.105 H 
BRANCH  40  42
ATOM     42  C4  701 d   1       9.953   8.117  25.644  0.00  0.00     0.013 A 
ATOM     43  C3  701 d   1       9.994   7.373  26.833  0.00  0.00    -0.064 A 
ATOM     44  C2  701 d   1      11.306   7.042  27.232  0.00  0.00    -0.054 A 
ATOM     45  H2  701 d   1       9.105   7.081  27.390  0.00  0.00     0.085 H 
ATOM     46  C1  701 d   1      12.245   7.573  26.319  0.00  0.00     0.075 A 
ATOM     47  H1  701 d   1      11.559   6.460  28.117  0.00  0.00     0.086 H 
ATOM     48 CL1  701 d   1      13.937   7.390  26.443  0.00  0.00    -0.076 Cl
ATOM     49  S6  701 d   1      11.523   8.449  25.057  0.00  0.00    -0.078 SA
ENDBRANCH  40  42
BRANCH  40  50
ATOM     50  C8  701 d   1       8.990   9.696  23.882  0.00  0.00    -0.049 C 
ATOM     51  H3  701 d   1       8.036   9.996  23.423  0.00  0.00     0.033 H 
ATOM     52  H4  701 d   1       9.660   9.297  23.107  0.00  0.00     0.033 H 
ATOM     53  H5  701 d   1       9.459  10.570  24.358  0.00  0.00     0.033 H 
ENDBRANCH  40  50
ENDBRANCH  36  39
ENDBRANCH  34  36
ENDBRANCH   1  34
TORSDOF 8
