REMARK  8 active torsions:
REMARK  status: ('A' for Active; 'I' for Inactive)
REMARK    1  A    between atoms: C9_6  and  C4_5 
REMARK    2  A    between atoms: C6_28  and  C9_6 
REMARK    3  A    between atoms: S1_7  and  N1_10 
REMARK    4  A    between atoms: S1_7  and  C6_28 
REMARK    5  A    between atoms: N1_10  and  C12_11 
REMARK    6  A    between atoms: N2_16  and  C16_17 
REMARK    7  A    between atoms: C16_17  and  C17_18 
REMARK    8  A    between atoms: C16_17  and  C18_19 
REMARK       I    between atoms: C18_19  and  N3_21 
ROOT
ATOM      1  C12 894 d   1       5.909   6.206  22.091  0.00  0.00     0.098 C 
ATOM      2  C13 894 d   1       4.625   5.596  21.536  0.00  0.00    -0.022 C 
ATOM      3  C14 894 d   1       5.076   4.440  20.647  0.00  0.00     0.001 C 
ATOM      4  C15 894 d   1       7.030   5.566  21.289  0.00  0.00     0.244 C 
ATOM      5  O3  894 d   1       8.180   5.991  21.261  0.00  0.00    -0.271 OA
ATOM      6  N2  894 d   1       6.542   4.480  20.668  0.00  0.00    -0.337 N 
ATOM      7  H6  894 d   1       6.009   5.948  23.156  0.00  0.00     0.088 H 
ATOM      8  H7  894 d   1       4.069   6.340  20.947  0.00  0.00     0.039 H 
ATOM      9  H8  894 d   1       3.989   5.227  22.354  0.00  0.00     0.039 H 
ATOM     10  H9  894 d   1       4.702   4.575  19.621  0.00  0.00     0.064 H 
ATOM     11  H10 894 d   1       4.712   3.482  21.047  0.00  0.00     0.064 H 
ENDROOT
BRANCH   6  12
ATOM     12  C16 894 d   1       7.388   3.423  20.103  0.00  0.00     0.088 C 
ATOM     13  H11 894 d   1       8.432   3.633  20.379  0.00  0.00     0.087 H 
BRANCH  12  14
ATOM     14  C17 894 d   1       7.002   2.060  20.706  0.00  0.00    -0.049 C 
ATOM     15  H12 894 d   1       7.641   1.275  20.276  0.00  0.00     0.030 H 
ATOM     16  H13 894 d   1       5.949   1.842  20.476  0.00  0.00     0.030 H 
ATOM     17  H14 894 d   1       7.140   2.089  21.797  0.00  0.00     0.030 H 
ENDBRANCH  12  14
BRANCH  12  18
ATOM     18  C18 894 d   1       7.296   3.422  18.559  0.00  0.00     0.242 C 
ATOM     19  O4  894 d   1       6.235   3.763  18.038  0.00  0.00    -0.271 OA
ATOM     20  N3  894 d   1       8.394   3.062  17.814  0.00  0.00    -0.346 N 
ATOM     21  C19 894 d   1       9.661   2.514  18.347  0.00  0.00     0.017 C 
ATOM     22  C23 894 d   1       8.343   3.258  16.353  0.00  0.00     0.017 C 
ATOM     23  C20 894 d   1      10.176   1.340  17.519  0.00  0.00     0.034 C 
ATOM     24  H15 894 d   1       9.493   2.172  19.379  0.00  0.00     0.067 H 
ATOM     25  H16 894 d   1      10.420   3.310  18.343  0.00  0.00     0.067 H 
ATOM     26  O5  894 d   1      10.140   1.708  16.154  0.00  0.00    -0.388 OA
ATOM     27  H17 894 d   1       9.537   0.460  17.684  0.00  0.00     0.076 H 
ATOM     28  H18 894 d   1      11.209   1.103  17.813  0.00  0.00     0.076 H 
ATOM     29  C22 894 d   1       8.851   2.006  15.656  0.00  0.00     0.034 C 
ATOM     30  H19 894 d   1       8.171   1.166  15.860  0.00  0.00     0.076 H 
ATOM     31  H20 894 d   1       8.903   2.180  14.571  0.00  0.00     0.076 H 
ATOM     32  H21 894 d   1       8.975   4.114  16.076  0.00  0.00     0.067 H 
ATOM     33  H22 894 d   1       7.305   3.454  16.045  0.00  0.00     0.067 H 
ENDBRANCH  12  18
ENDBRANCH   6  12
BRANCH   1  34
ATOM     34  N1  894 d   1       5.959   7.638  21.960  0.00  0.00    -0.306 N 
ATOM     35  H5  894 d   1       5.684   8.085  21.109  0.00  0.00     0.173 HD
BRANCH  34  36
ATOM     36  S1  894 d   1       6.504   8.560  23.307  0.00  0.00     0.227 S 
ATOM     37  O2  894 d   1       6.380   9.899  22.812  0.00  0.00    -0.206 OA
ATOM     38  O1  894 d   1       5.768   8.166  24.468  0.00  0.00    -0.206 OA
BRANCH  36  39
ATOM     39  C6  894 d   1       8.260   8.202  23.505  0.00  0.00     0.050 C 
ATOM     40  H23 894 d   1       8.443   7.123  23.398  0.00  0.00     0.059 H 
ATOM     41  H24 894 d   1       8.848   8.750  22.754  0.00  0.00     0.059 H 
BRANCH  39  42
ATOM     42  C9  894 d   1       8.634   8.664  24.906  0.00  0.00    -0.021 C 
ATOM     43  H3  894 d   1       8.727   9.760  24.875  0.00  0.00     0.042 H 
ATOM     44  H4  894 d   1       7.806   8.385  25.574  0.00  0.00     0.042 H 
BRANCH  42  45
ATOM     45  C4  894 d   1       9.899   8.126  25.514  0.00  0.00    -0.015 A 
ATOM     46  C3  894 d   1       9.984   7.467  26.668  0.00  0.00    -0.068 A 
ATOM     47  C2  894 d   1      11.344   7.071  27.018  0.00  0.00    -0.054 A 
ATOM     48  H2  894 d   1       9.120   7.245  27.292  0.00  0.00     0.085 H 
ATOM     49  C1  894 d   1      12.196   7.461  26.064  0.00  0.00     0.075 A 
ATOM     50  H1  894 d   1      11.624   6.536  27.924  0.00  0.00     0.086 H 
ATOM     51 CL1  894 d   1      13.889   7.176  26.124  0.00  0.00    -0.076 Cl
ATOM     52  S6  894 d   1      11.466   8.310  24.716  0.00  0.00    -0.083 SA
ENDBRANCH  42  45
ENDBRANCH  39  42
ENDBRANCH  36  39
ENDBRANCH  34  36
ENDBRANCH   1  34
TORSDOF 8
