REMARK  8 active torsions:
REMARK  status: ('A' for Active; 'I' for Inactive)
REMARK    1  A    between atoms: C2_2  and  O4_19 
REMARK    2  A    between atoms: C4_4  and  O5_20 
REMARK    3  A    between atoms: C5_5  and  C7_7 
REMARK    4  A    between atoms: C6_6  and  O1_10 
REMARK    5  A    between atoms: C7_7  and  C8_8 
REMARK    6  A    between atoms: C8_8  and  C9_9 
REMARK    7  A    between atoms: C9_9  and  C10_12 
REMARK    8  A    between atoms: C13_15  and  O3_18 
ROOT
ATOM      1  C8  G50 d   1      17.644  36.117  -4.029  0.00  0.00    -0.001 C 
ATOM      2  H3  G50 d   1      18.386  35.334  -3.813  0.00  0.00     0.045 H 
ATOM      3  H4  G50 d   1      17.363  36.073  -5.092  0.00  0.00     0.045 H 
ENDROOT
BRANCH   1   4
ATOM      4  C7  G50 d   1      18.260  37.514  -3.714  0.00  0.00     0.165 C 
ATOM      5  O2  G50 d   1      17.567  38.332  -3.109  0.00  0.00    -0.292 OA
BRANCH   4   6
ATOM      6  C5  G50 d   1      19.698  37.946  -4.139  0.00  0.00     0.076 A 
ATOM      7  C4  G50 d   1      19.898  39.248  -4.643  0.00  0.00     0.085 A 
ATOM      8  C3  G50 d   1      21.154  39.694  -5.034  0.00  0.00    -0.018 A 
ATOM      9  C2  G50 d   1      22.228  38.836  -4.934  0.00  0.00     0.071 A 
ATOM     10  H2  G50 d   1      21.287  40.701  -5.412  0.00  0.00     0.092 H 
ATOM     11  C1  G50 d   1      22.070  37.549  -4.439  0.00  0.00    -0.018 A 
ATOM     12  C6  G50 d   1      20.814  37.093  -4.036  0.00  0.00     0.085 A 
ATOM     13  H1  G50 d   1      22.929  36.892  -4.365  0.00  0.00     0.092 H 
BRANCH   7  14
ATOM     14  O5  G50 d   1      18.895  40.138  -4.777  0.00  0.00    -0.360 OA
ATOM     15  H14 G50 d   1      18.504  40.303  -3.927  0.00  0.00     0.217 HD
ENDBRANCH   7  14
BRANCH   9  16
ATOM     16  O4  G50 d   1      23.432  39.265  -5.329  0.00  0.00    -0.361 OA
ATOM     17  H13 G50 d   1      23.397  39.502  -6.248  0.00  0.00     0.217 HD
ENDBRANCH   9  16
BRANCH  12  18
ATOM     18  O1  G50 d   1      20.734  35.822  -3.561  0.00  0.00    -0.360 OA
ATOM     19  H7  G50 d   1      20.407  35.838  -2.669  0.00  0.00     0.217 HD
ENDBRANCH  12  18
ENDBRANCH   4   6
ENDBRANCH   1   4
BRANCH   1  20
ATOM     20  C9  G50 d   1      16.333  35.879  -3.119  0.00  0.00    -0.035 C 
ATOM     21  H5  G50 d   1      15.605  36.680  -3.315  0.00  0.00     0.040 H 
ATOM     22  H6  G50 d   1      16.620  35.897  -2.057  0.00  0.00     0.040 H 
BRANCH  20  23
ATOM     23  C10 G50 d   1      15.688  34.508  -3.452  0.00  0.00    -0.058 A 
ATOM     24  C11 G50 d   1      15.737  34.068  -4.779  0.00  0.00    -0.074 A 
ATOM     25  C12 G50 d   1      15.205  32.838  -5.130  0.00  0.00    -0.051 A 
ATOM     26  H8  G50 d   1      16.194  34.693  -5.537  0.00  0.00     0.084 H 
ATOM     27  C13 G50 d   1      14.593  32.042  -4.179  0.00  0.00     0.065 A 
ATOM     28  H9  G50 d   1      15.269  32.497  -6.157  0.00  0.00     0.087 H 
ATOM     29  C14 G50 d   1      14.527  32.468  -2.840  0.00  0.00    -0.051 A 
ATOM     30  C15 G50 d   1      15.080  33.701  -2.469  0.00  0.00    -0.074 A 
ATOM     31  H10 G50 d   1      14.048  31.843  -2.095  0.00  0.00     0.087 H 
ATOM     32  H11 G50 d   1      15.041  34.031  -1.437  0.00  0.00     0.084 H 
BRANCH  27  33
ATOM     33  O3  G50 d   1      14.087  30.846  -4.595  0.00  0.00    -0.361 OA
ATOM     34  H12 G50 d   1      14.232  30.750  -5.529  0.00  0.00     0.217 HD
ENDBRANCH  27  33
ENDBRANCH  20  23
ENDBRANCH   1  20
TORSDOF 8
