REMARK  21 active torsions:
REMARK  status: ('A' for Active; 'I' for Inactive)
REMARK    1  A    between atoms: C22_21  and  C23_1 
REMARK    2  A    between atoms: C40_2  and  C14_3 
REMARK    3  A    between atoms: C4_18  and  C40_2 
REMARK    4  A    between atoms: C14_3  and  C1_5 
REMARK    5  A    between atoms: C1_5  and  C22_21 
REMARK    6  A    between atoms: C1_5  and  O6_22 
REMARK    7  A    between atoms: C1_5  and  C10_24 
REMARK    8  A    between atoms: C32_16  and  C33_10 
REMARK    9  A    between atoms: N24_43  and  C32_16 
REMARK   10  A    between atoms: O8_23  and  C7_17 
REMARK   11  A    between atoms: N24_43  and  C4_18 
REMARK       I    between atoms: N1_20  and  C30_35 
REMARK   12  A    between atoms: C41_38  and  N1_20 
REMARK   13  A    between atoms: C30_35  and  O8_23 
REMARK       I    between atoms: C10_24  and  N12_26 
REMARK   14  A    between atoms: N12_26  and  C51_27 
REMARK   15  A    between atoms: C59_33  and  O60_34 
REMARK   16  A    between atoms: C41_38  and  C42_39 
REMARK   17  A    between atoms: C45_42  and  C41_38 
REMARK   18  A    between atoms: C42_39  and  C43_40 
REMARK   19  A    between atoms: C42_39  and  C44_41 
REMARK   20  A    between atoms: C42_39  and  C86_47 
REMARK       I    between atoms: N47_45  and  C45_42 
REMARK   21  A    between atoms: N24_43  and  N47_45 
ROOT
ATOM      1  C4  HI1 d   1      11.959  24.212   3.134  0.00  0.00     0.105 C 
ATOM      2  H19 HI1 d   1      12.076  24.062   2.051  0.00  0.00     0.079 H 
ATOM      3  H20 HI1 d   1      12.268  25.234   3.398  0.00  0.00     0.079 H 
ENDROOT
BRANCH   1   4
ATOM      4  C40 HI1 d   1      12.838  23.209   3.882  0.00  0.00    -0.037 C 
ATOM      5  H1  HI1 d   1      12.245  22.303   4.077  0.00  0.00     0.035 H 
ATOM      6  H2  HI1 d   1      13.697  22.954   3.243  0.00  0.00     0.035 H 
BRANCH   4   7
ATOM      7  C14 HI1 d   1      13.376  23.745   5.238  0.00  0.00    -0.026 C 
ATOM      8  H3  HI1 d   1      12.550  23.720   5.964  0.00  0.00     0.038 H 
ATOM      9  H4  HI1 d   1      13.700  24.785   5.087  0.00  0.00     0.038 H 
BRANCH   7  10
ATOM     10  C1  HI1 d   1      14.567  22.956   5.842  0.00  0.00     0.142 C 
BRANCH  10  11
ATOM     11  C22 HI1 d   1      14.643  23.190   7.390  0.00  0.00    -0.004 C 
ATOM     12  H22 HI1 d   1      14.838  24.257   7.571  0.00  0.00     0.045 H 
ATOM     13  H23 HI1 d   1      13.674  22.914   7.831  0.00  0.00     0.045 H 
BRANCH  11  14
ATOM     14  C23 HI1 d   1      15.754  22.363   8.091  0.00  0.00    -0.055 A 
ATOM     15  C24 HI1 d   1      17.153  22.611   7.856  0.00  0.00    -0.077 A 
ATOM     16  C25 HI1 d   1      18.148  21.808   8.496  0.00  0.00    -0.082 A 
ATOM     17  H5  HI1 d   1      17.454  23.412   7.190  0.00  0.00     0.084 H 
ATOM     18  C26 HI1 d   1      17.752  20.745   9.370  0.00  0.00    -0.083 A 
ATOM     19  H6  HI1 d   1      19.200  22.003   8.320  0.00  0.00     0.083 H 
ATOM     20  C27 HI1 d   1      16.360  20.491   9.614  0.00  0.00    -0.082 A 
ATOM     21  H7  HI1 d   1      18.506  20.130   9.849  0.00  0.00     0.083 H 
ATOM     22  C28 HI1 d   1      15.361  21.293   8.976  0.00  0.00    -0.077 A 
ATOM     23  H8  HI1 d   1      16.065  19.690  10.283  0.00  0.00     0.083 H 
ATOM     24  H9  HI1 d   1      14.310  21.097   9.157  0.00  0.00     0.084 H 
ENDBRANCH  11  14
ENDBRANCH  10  11
BRANCH  10  25
ATOM     25  O6  HI1 d   1      15.707  23.579   5.260  0.00  0.00    -0.380 OA
ATOM     26  H24 HI1 d   1      15.694  24.508   5.457  0.00  0.00     0.211 HD
ENDBRANCH  10  25
BRANCH  10  27
ATOM     27  C10 HI1 d   1      14.579  21.422   5.604  0.00  0.00     0.253 C 
ATOM     28  O11 HI1 d   1      13.582  20.720   5.827  0.00  0.00    -0.270 OA
ATOM     29  N12 HI1 d   1      15.766  20.917   5.182  0.00  0.00    -0.347 N 
ATOM     30  H25 HI1 d   1      16.531  21.543   5.027  0.00  0.00     0.163 HD
BRANCH  29  31
ATOM     31  C51 HI1 d   1      15.967  19.452   4.941  0.00  0.00     0.063 C 
ATOM     32  C52 HI1 d   1      15.985  19.058   3.502  0.00  0.00    -0.027 A 
ATOM     33  C57 HI1 d   1      17.037  18.105   3.347  0.00  0.00    -0.047 A 
ATOM     34  C53 HI1 d   1      15.160  19.480   2.389  0.00  0.00    -0.074 A 
ATOM     35  C56 HI1 d   1      17.329  17.520   2.063  0.00  0.00    -0.076 A 
ATOM     36  C58 HI1 d   1      17.729  17.858   4.687  0.00  0.00    -0.014 C 
ATOM     37  C55 HI1 d   1      16.516  17.929   0.925  0.00  0.00    -0.082 A 
ATOM     38  H32 HI1 d   1      18.129  16.798   1.947  0.00  0.00     0.084 H 
ATOM     39  C54 HI1 d   1      15.439  18.901   1.080  0.00  0.00    -0.082 A 
ATOM     40  H29 HI1 d   1      16.715  17.504  -0.052  0.00  0.00     0.083 H 
ATOM     41  H28 HI1 d   1      14.846  19.193   0.221  0.00  0.00     0.083 H 
ATOM     42  C59 HI1 d   1      17.365  19.126   5.499  0.00  0.00     0.063 C 
ATOM     43  H33 HI1 d   1      18.818  17.768   4.560  0.00  0.00     0.044 H 
ATOM     44  H34 HI1 d   1      17.340  16.951   5.173  0.00  0.00     0.044 H 
ATOM     45  H30 HI1 d   1      17.345  18.956   6.586  0.00  0.00     0.087 H 
ATOM     46  H27 HI1 d   1      14.362  20.201   2.524  0.00  0.00     0.084 H 
ATOM     47  H26 HI1 d   1      15.186  18.882   5.466  0.00  0.00     0.084 H 
BRANCH  42  48
ATOM     48  O60 HI1 d   1      18.344  20.119   5.151  0.00  0.00    -0.393 OA
ATOM     49  H31 HI1 d   1      18.078  20.961   5.502  0.00  0.00     0.210 HD
ENDBRANCH  42  48
ENDBRANCH  29  31
ENDBRANCH  10  27
ENDBRANCH   7  10
ENDBRANCH   4   7
ENDBRANCH   1   4
BRANCH   1  50
ATOM     50  N24 HI1 d   1      10.588  24.024   3.493  0.00  0.00     0.015 N 
ATOM     51  H42 HI1 d   1      10.451  23.106   3.886  0.00  0.00     0.309 HD
BRANCH  50  52
ATOM     52  C32 HI1 d   1       9.730  24.212   2.340  0.00  0.00     0.128 C 
ATOM     53  H14 HI1 d   1       9.946  25.194   1.894  0.00  0.00     0.086 H 
ATOM     54  H15 HI1 d   1       9.944  23.421   1.606  0.00  0.00     0.086 H 
BRANCH  52  55
ATOM     55  C33 HI1 d   1       8.241  24.153   2.710  0.00  0.00    -0.030 A 
ATOM     56  C34 HI1 d   1       7.780  23.111   3.582  0.00  0.00    -0.074 A 
ATOM     57  C35 HI1 d   1       6.409  23.047   3.951  0.00  0.00    -0.066 A 
ATOM     58  H10 HI1 d   1       8.478  22.372   3.959  0.00  0.00     0.084 H 
ATOM     59  C36 HI1 d   1       5.496  24.028   3.452  0.00  0.00     0.011 A 
ATOM     60  H11 HI1 d   1       6.057  22.259   4.607  0.00  0.00     0.085 H 
ATOM     61  C37 HI1 d   1       5.941  25.076   2.576  0.00  0.00    -0.066 A 
ATOM     62 BR   HI1 d   1       3.730  23.907   3.965  0.00  0.00    -0.051 Br
ATOM     63  C38 HI1 d   1       7.330  25.139   2.203  0.00  0.00    -0.074 A 
ATOM     64  H12 HI1 d   1       5.239  25.811   2.200  0.00  0.00     0.085 H 
ATOM     65  H13 HI1 d   1       7.684  25.924   1.545  0.00  0.00     0.084 H 
ENDBRANCH  52  55
ENDBRANCH  50  52
BRANCH  50  66
ATOM     66  N47 HI1 d   1      10.233  25.109   4.502  0.00  0.00    -0.185 N 
ATOM     67  C45 HI1 d   1       9.978  24.839   5.793  0.00  0.00     0.265 C 
ATOM     68  O46 HI1 d   1      10.017  23.686   6.260  0.00  0.00    -0.269 OA
ATOM     69  H43 HI1 d   1      10.188  26.058   4.191  0.00  0.00     0.197 HD
BRANCH  67  70
ATOM     70  C41 HI1 d   1       9.623  26.015   6.693  0.00  0.00     0.099 C 
ATOM     71  H35 HI1 d   1      10.162  26.896   6.315  0.00  0.00     0.088 H 
BRANCH  70  72
ATOM     72  N1  HI1 d   1       8.199  26.093   6.317  0.00  0.00    -0.323 N 
ATOM     73  C30 HI1 d   1       7.665  27.063   5.581  0.00  0.00     0.360 C 
ATOM     74  O3  HI1 d   1       8.234  28.037   5.092  0.00  0.00    -0.239 OA
ATOM     75  H21 HI1 d   1       7.593  25.365   6.638  0.00  0.00     0.165 HD
BRANCH  73  76
ATOM     76  O8  HI1 d   1       6.290  26.806   5.423  0.00  0.00    -0.309 OA
BRANCH  76  77
ATOM     77  C7  HI1 d   1       5.353  27.785   5.896  0.00  0.00     0.015 C 
ATOM     78  H16 HI1 d   1       4.328  27.437   5.699  0.00  0.00     0.067 H 
ATOM     79  H17 HI1 d   1       5.523  28.738   5.373  0.00  0.00     0.067 H 
ATOM     80  H18 HI1 d   1       5.489  27.931   6.978  0.00  0.00     0.067 H 
ENDBRANCH  76  77
ENDBRANCH  73  76
ENDBRANCH  70  72
BRANCH  70  81
ATOM     81  C42 HI1 d   1       9.848  26.048   8.247  0.00  0.00    -0.022 C 
BRANCH  81  82
ATOM     82  C43 HI1 d   1       9.378  27.399   8.797  0.00  0.00    -0.067 C 
ATOM     83  H36 HI1 d   1       9.534  27.426   9.886  0.00  0.00     0.028 H 
ATOM     84  H37 HI1 d   1       8.309  27.533   8.576  0.00  0.00     0.028 H 
ATOM     85  H38 HI1 d   1       9.954  28.208   8.324  0.00  0.00     0.028 H 
ENDBRANCH  81  82
BRANCH  81  86
ATOM     86  C44 HI1 d   1       9.027  24.973   8.951  0.00  0.00    -0.067 C 
ATOM     87  H39 HI1 d   1       9.332  23.981   8.586  0.00  0.00     0.028 H 
ATOM     88  H40 HI1 d   1       7.959  25.130   8.739  0.00  0.00     0.028 H 
ATOM     89  H41 HI1 d   1       9.198  25.033  10.036  0.00  0.00     0.028 H 
ENDBRANCH  81  86
BRANCH  81  90
ATOM     90  C86 HI1 d   1      11.310  25.940   8.636  0.00  0.00    -0.067 C 
ATOM     91  H44 HI1 d   1      11.886  26.722   8.119  0.00  0.00     0.028 H 
ATOM     92  H45 HI1 d   1      11.694  24.951   8.347  0.00  0.00     0.028 H 
ATOM     93  H46 HI1 d   1      11.411  26.069   9.724  0.00  0.00     0.028 H 
ENDBRANCH  81  90
ENDBRANCH  70  81
ENDBRANCH  67  70
ENDBRANCH  50  66
ENDBRANCH   1  50
TORSDOF 21
