REMARK  20 active torsions:
REMARK  status: ('A' for Active; 'I' for Inactive)
REMARK    1  A    between atoms: C4_1  and  C14_2 
REMARK    2  A    between atoms: C25_7  and  C4_1 
REMARK    3  A    between atoms: C14_2  and  C1_27 
REMARK    4  A    between atoms: N2_4  and  N1_3 
REMARK       I    between atoms: N1_3  and  C25_7 
REMARK    5  A    between atoms: N1_3  and  C27_19 
REMARK       I    between atoms: C42_8  and  N2_4 
REMARK       I    between atoms: C38_11  and  N3_5 
REMARK    6  A    between atoms: N3_5  and  C41_13 
REMARK    7  A    between atoms: C41_13  and  C42_8 
REMARK    8  A    between atoms: O37_10  and  C36_9 
REMARK    9  A    between atoms: O37_10  and  C38_11 
REMARK   10  A    between atoms: C41_13  and  C35_14 
REMARK   11  A    between atoms: C35_14  and  C47_15 
REMARK   12  A    between atoms: C35_14  and  C46_16 
REMARK   13  A    between atoms: C35_14  and  C45_17 
REMARK   14  A    between atoms: C27_19  and  C28_20 
REMARK   15  A    between atoms: C1_27  and  O22_28 
REMARK   16  A    between atoms: C1_27  and  C15_29 
REMARK   17  A    between atoms: C1_27  and  C2_36 
REMARK   18  A    between atoms: C15_29  and  C16_30 
REMARK       I    between atoms: C2_36  and  N4_38 
REMARK   19  A    between atoms: N4_38  and  C5_39 
REMARK   20  A    between atoms: C13_47  and  O14_48 
ROOT
ATOM      1  C4  HV1 d   1      13.678  24.335   4.970  0.00  0.00     0.009 C 
ATOM      2  H1  HV1 d   1      14.648  24.216   4.465  0.00  0.00     0.046 H 
ATOM      3  H2  HV1 d   1      13.398  25.399   4.981  0.00  0.00     0.046 H 
ENDROOT
BRANCH   1   4
ATOM      4  C14 HV1 d   1      13.795  23.828   6.418  0.00  0.00    -0.020 C 
ATOM      5  H3  HV1 d   1      12.842  23.359   6.703  0.00  0.00     0.038 H 
ATOM      6  H4  HV1 d   1      13.992  24.688   7.075  0.00  0.00     0.038 H 
BRANCH   4   7
ATOM      7  C1  HV1 d   1      14.937  22.786   6.608  0.00  0.00     0.142 C 
BRANCH   7   8
ATOM      8  O22 HV1 d   1      16.112  23.454   6.061  0.00  0.00    -0.380 OA
ATOM      9  H26 HV1 d   1      16.865  22.880   6.138  0.00  0.00     0.211 HD
ENDBRANCH   7   8
BRANCH   7  10
ATOM     10  C15 HV1 d   1      15.081  22.665   8.139  0.00  0.00    -0.004 C 
ATOM     11  H27 HV1 d   1      14.119  22.316   8.541  0.00  0.00     0.045 H 
ATOM     12  H28 HV1 d   1      15.303  23.666   8.537  0.00  0.00     0.045 H 
BRANCH  10  13
ATOM     13  C16 HV1 d   1      16.160  21.721   8.631  0.00  0.00    -0.055 A 
ATOM     14  C17 HV1 d   1      15.750  20.591   9.394  0.00  0.00    -0.077 A 
ATOM     15  C18 HV1 d   1      16.734  19.706   9.848  0.00  0.00    -0.082 A 
ATOM     16  H29 HV1 d   1      14.703  20.421   9.617  0.00  0.00     0.084 H 
ATOM     17  C19 HV1 d   1      18.076  19.952   9.544  0.00  0.00    -0.083 A 
ATOM     18  H30 HV1 d   1      16.457  18.835  10.432  0.00  0.00     0.083 H 
ATOM     19  C20 HV1 d   1      18.500  21.069   8.791  0.00  0.00    -0.082 A 
ATOM     20  H31 HV1 d   1      18.825  19.254   9.902  0.00  0.00     0.083 H 
ATOM     21  C21 HV1 d   1      17.525  21.968   8.327  0.00  0.00    -0.077 A 
ATOM     22  H32 HV1 d   1      19.550  21.229   8.576  0.00  0.00     0.083 H 
ATOM     23  H33 HV1 d   1      17.811  22.837   7.746  0.00  0.00     0.084 H 
ENDBRANCH  10  13
ENDBRANCH   7  10
BRANCH   7  24
ATOM     24  C2  HV1 d   1      14.732  21.310   6.066  0.00  0.00     0.253 C 
ATOM     25  O3  HV1 d   1      13.797  20.531   6.302  0.00  0.00    -0.270 OA
ATOM     26  N4  HV1 d   1      15.885  20.926   5.429  0.00  0.00    -0.347 N 
ATOM     27  H34 HV1 d   1      16.599  21.600   5.240  0.00  0.00     0.163 HD
BRANCH  26  28
ATOM     28  C5  HV1 d   1      16.078  19.482   5.011  0.00  0.00     0.063 C 
ATOM     29  C6  HV1 d   1      15.842  19.164   3.590  0.00  0.00    -0.027 A 
ATOM     30  C7  HV1 d   1      14.858  19.688   2.632  0.00  0.00    -0.074 A 
ATOM     31  C11 HV1 d   1      16.810  18.160   3.227  0.00  0.00    -0.047 A 
ATOM     32  C8  HV1 d   1      14.886  19.154   1.262  0.00  0.00    -0.082 A 
ATOM     33  H36 HV1 d   1      14.136  20.442   2.925  0.00  0.00     0.084 H 
ATOM     34  C9  HV1 d   1      15.877  18.130   0.888  0.00  0.00    -0.082 A 
ATOM     35  H37 HV1 d   1      14.176  19.514   0.526  0.00  0.00     0.083 H 
ATOM     36  C10 HV1 d   1      16.852  17.620   1.870  0.00  0.00    -0.076 A 
ATOM     37  H38 HV1 d   1      15.890  17.745  -0.125  0.00  0.00     0.083 H 
ATOM     38  H39 HV1 d   1      17.579  16.866   1.593  0.00  0.00     0.084 H 
ATOM     39  C12 HV1 d   1      17.696  17.807   4.429  0.00  0.00    -0.014 C 
ATOM     40  C13 HV1 d   1      17.511  19.022   5.379  0.00  0.00     0.063 C 
ATOM     41  H40 HV1 d   1      18.748  17.701   4.125  0.00  0.00     0.044 H 
ATOM     42  H41 HV1 d   1      17.357  16.877   4.909  0.00  0.00     0.044 H 
ATOM     43  H42 HV1 d   1      17.588  18.756   6.444  0.00  0.00     0.087 H 
ATOM     44  H35 HV1 d   1      15.362  18.886   5.596  0.00  0.00     0.084 H 
BRANCH  40  45
ATOM     45  O14 HV1 d   1      18.539  19.964   5.014  0.00  0.00    -0.393 OA
ATOM     46  H43 HV1 d   1      18.473  20.733   5.567  0.00  0.00     0.210 HD
ENDBRANCH  40  45
ENDBRANCH  26  28
ENDBRANCH   7  24
ENDBRANCH   4   7
ENDBRANCH   1   4
BRANCH   1  47
ATOM     47  C25 HV1 d   1      12.640  23.562   4.227  0.00  0.00     0.217 C 
ATOM     48  N1  HV1 d   1      11.283  23.687   4.521  0.00  0.00    -0.158 NA
ATOM     49  O50 HV1 d   1      13.147  22.801   3.369  0.00  0.00    -0.278 OA
BRANCH  48  50
ATOM     50  N2  HV1 d   1      10.722  24.746   5.070  0.00  0.00    -0.280 N 
ATOM     51  C42 HV1 d   1      10.050  24.535   6.214  0.00  0.00     0.256 C 
ATOM     52  O44 HV1 d   1       9.961  23.397   6.718  0.00  0.00    -0.270 OA
ATOM     53  H5  HV1 d   1      10.793  25.655   4.658  0.00  0.00     0.184 HD
BRANCH  51  54
ATOM     54  C41 HV1 d   1       9.461  25.777   6.763  0.00  0.00     0.099 C 
ATOM     55  H10 HV1 d   1      10.036  26.623   6.359  0.00  0.00     0.088 H 
BRANCH  54  56
ATOM     56  N3  HV1 d   1       8.052  25.858   6.323  0.00  0.00    -0.323 N 
ATOM     57  C38 HV1 d   1       7.598  26.800   5.499  0.00  0.00     0.360 C 
ATOM     58  O39 HV1 d   1       8.243  27.718   4.993  0.00  0.00    -0.239 OA
ATOM     59  H6  HV1 d   1       7.408  25.171   6.661  0.00  0.00     0.165 HD
BRANCH  57  60
ATOM     60  O37 HV1 d   1       6.219  26.585   5.281  0.00  0.00    -0.309 OA
BRANCH  60  61
ATOM     61  C36 HV1 d   1       5.276  27.469   5.916  0.00  0.00     0.015 C 
ATOM     62  H7  HV1 d   1       4.253  27.168   5.647  0.00  0.00     0.067 H 
ATOM     63  H8  HV1 d   1       5.456  28.500   5.579  0.00  0.00     0.067 H 
ATOM     64  H9  HV1 d   1       5.399  27.414   7.008  0.00  0.00     0.067 H 
ENDBRANCH  60  61
ENDBRANCH  57  60
ENDBRANCH  54  56
BRANCH  54  65
ATOM     65  C35 HV1 d   1       9.388  25.932   8.351  0.00  0.00    -0.022 C 
BRANCH  65  66
ATOM     66  C47 HV1 d   1       8.549  24.860   9.098  0.00  0.00    -0.067 C 
ATOM     67  H11 HV1 d   1       8.570  25.066  10.178  0.00  0.00     0.028 H 
ATOM     68  H12 HV1 d   1       8.973  23.863   8.906  0.00  0.00     0.028 H 
ATOM     69  H13 HV1 d   1       7.510  24.892   8.739  0.00  0.00     0.028 H 
ENDBRANCH  65  66
BRANCH  65  70
ATOM     70  C46 HV1 d   1      10.808  25.886   8.891  0.00  0.00    -0.067 C 
ATOM     71  H14 HV1 d   1      11.421  26.639   8.374  0.00  0.00     0.028 H 
ATOM     72  H15 HV1 d   1      11.233  24.886   8.719  0.00  0.00     0.028 H 
ATOM     73  H16 HV1 d   1      10.797  26.099   9.970  0.00  0.00     0.028 H 
ENDBRANCH  65  70
BRANCH  65  74
ATOM     74  C45 HV1 d   1       8.762  27.296   8.769  0.00  0.00    -0.067 C 
ATOM     75  H17 HV1 d   1       7.731  27.358   8.391  0.00  0.00     0.028 H 
ATOM     76  H18 HV1 d   1       9.358  28.118   8.345  0.00  0.00     0.028 H 
ATOM     77  H19 HV1 d   1       8.755  27.375   9.866  0.00  0.00     0.028 H 
ENDBRANCH  65  74
ENDBRANCH  54  65
ENDBRANCH  51  54
ENDBRANCH  48  50
BRANCH  48  78
ATOM     78  C27 HV1 d   1      10.669  23.174   3.259  0.00  0.00     0.029 C 
ATOM     79  H20 HV1 d   1      10.423  22.115   3.428  0.00  0.00     0.066 H 
ATOM     80  H21 HV1 d   1      11.435  23.252   2.473  0.00  0.00     0.066 H 
BRANCH  78  81
ATOM     81  C28 HV1 d   1       9.446  23.826   2.738  0.00  0.00    -0.043 A 
ATOM     82  C29 HV1 d   1       8.154  23.390   3.100  0.00  0.00    -0.074 A 
ATOM     83  C30 HV1 d   1       7.039  24.045   2.563  0.00  0.00    -0.066 A 
ATOM     84  H22 HV1 d   1       8.026  22.559   3.784  0.00  0.00     0.084 H 
ATOM     85  C31 HV1 d   1       7.245  25.117   1.676  0.00  0.00     0.011 A 
ATOM     86  H23 HV1 d   1       6.035  23.732   2.826  0.00  0.00     0.085 H 
ATOM     87 BR   HV1 d   1       5.882  26.105   0.842  0.00  0.00    -0.051 Br
ATOM     88  C32 HV1 d   1       8.565  25.517   1.347  0.00  0.00    -0.066 A 
ATOM     89  C33 HV1 d   1       9.663  24.867   1.882  0.00  0.00    -0.074 A 
ATOM     90  H24 HV1 d   1       8.716  26.346   0.665  0.00  0.00     0.085 H 
ATOM     91  H25 HV1 d   1      10.670  25.177   1.628  0.00  0.00     0.084 H 
ENDBRANCH  78  81
ENDBRANCH  48  78
ENDBRANCH   1  47
TORSDOF 20
