REMARK  2 active torsions:
REMARK  status: ('A' for Active; 'I' for Inactive)
REMARK    1  A    between atoms: N1_1  and  C15_11 
REMARK    2  A    between atoms: N5_5  and  C11_10 
ROOT
ATOM      1  N1  H33 d   1      38.074  20.531  22.212  0.00  0.00    -0.269 N 
ATOM      2  C2  H33 d   1      38.080  20.395  23.611  0.00  0.00     0.284 A 
ATOM      3  C3  H33 d   1      38.316  21.533  24.423  0.00  0.00     0.172 A 
ATOM      4  C4  H33 d   1      38.541  22.785  23.848  0.00  0.00     0.148 A 
ATOM      5  N5  H33 d   1      38.516  22.947  22.445  0.00  0.00    -0.287 N 
ATOM      6  C6  H33 d   1      38.290  21.814  21.619  0.00  0.00     0.332 A 
ATOM      7  N7  H33 d   1      38.375  21.718  25.760  0.00  0.00    -0.211 NA
ATOM      8  C8  H33 d   1      38.634  23.018  25.992  0.00  0.00     0.203 A 
ATOM      9  N9  H33 d   1      38.721  23.669  24.845  0.00  0.00    -0.315 N 
ATOM     10  O19 H33 d   1      38.279  21.929  20.393  0.00  0.00    -0.246 OA
ATOM     11  O20 H33 d   1      37.880  19.261  24.068  0.00  0.00    -0.265 OA
ATOM     12 CL   H33 d   1      38.808  23.699  27.356  0.00  0.00    -0.043 Cl
ATOM     13  H1  H33 d   1      38.896  24.678  24.734  0.00  0.00     0.170 HD
ENDROOT
BRANCH   1  14
ATOM     14  C15 H33 d   1      37.833  19.322  21.380  0.00  0.00    -0.007 C 
ATOM     15  H5  H33 d   1      37.693  18.449  22.034  0.00  0.00     0.057 H 
ATOM     16  H6  H33 d   1      38.697  19.152  20.721  0.00  0.00     0.057 H 
ATOM     17  H7  H33 d   1      36.931  19.471  20.769  0.00  0.00     0.057 H 
ENDBRANCH   1  14
BRANCH   5  18
ATOM     18  C11 H33 d   1      38.742  24.283  21.825  0.00  0.00    -0.008 C 
ATOM     19  H2  H33 d   1      38.898  25.032  22.615  0.00  0.00     0.057 H 
ATOM     20  H3  H33 d   1      37.864  24.561  21.224  0.00  0.00     0.057 H 
ATOM     21  H4  H33 d   1      39.631  24.242  21.179  0.00  0.00     0.057 H 
ENDBRANCH   5  18
TORSDOF 2
