REMARK  4 active torsions:
REMARK  status: ('A' for Active; 'I' for Inactive)
REMARK    1  A    between atoms: C1_1  and  S1_12 
REMARK    2  A    between atoms: N4_8  and  C2_2 
REMARK    3  A    between atoms: C3_3  and  C4_4 
REMARK       I    between atoms: C3_3  and  N4_8 
REMARK    4  A    between atoms: S1_12  and  N1_5 
ROOT
ATOM      1  C1  AZM d   1      38.143  20.269  22.393  0.00  0.00     0.237 A 
ATOM      2  C2  AZM d   1      38.245  20.934  24.669  0.00  0.00     0.197 A 
ATOM      3  N2  AZM d   1      37.907  19.643  24.451  0.00  0.00    -0.122 NA
ATOM      4  N3  AZM d   1      37.856  19.287  23.243  0.00  0.00    -0.126 NA
ATOM      5  S2  AZM d   1      38.513  21.702  23.209  0.00  0.00    -0.015 SA
ENDROOT
BRANCH   2   6
ATOM      6  N4  AZM d   1      38.390  21.506  25.864  0.00  0.00    -0.305 N 
ATOM      7  C3  AZM d   1      38.752  22.765  26.055  0.00  0.00     0.219 C 
ATOM      8  O3  AZM d   1      38.969  23.602  25.184  0.00  0.00    -0.274 OA
ATOM      9  H6  AZM d   1      38.213  20.945  26.673  0.00  0.00     0.171 HD
BRANCH   7  10
ATOM     10  C4  AZM d   1      38.883  23.126  27.512  0.00  0.00    -0.002 C 
ATOM     11  H1  AZM d   1      39.185  24.180  27.603  0.00  0.00     0.040 H 
ATOM     12  H2  AZM d   1      39.644  22.485  27.982  0.00  0.00     0.040 H 
ATOM     13  H3  AZM d   1      37.916  22.977  28.015  0.00  0.00     0.040 H 
ENDBRANCH   7  10
ENDBRANCH   2   6
BRANCH   1  14
ATOM     14  S1  AZM d   1      38.143  20.119  20.691  0.00  0.00     0.282 S 
ATOM     15  O1  AZM d   1      38.791  18.818  20.292  0.00  0.00    -0.199 OA
ATOM     16  O2  AZM d   1      38.897  21.259  20.097  0.00  0.00    -0.199 OA
BRANCH  14  17
ATOM     17  N1  AZM d   1      36.585  20.144  20.202  0.00  0.00    -0.323 N 
ATOM     18  H4  AZM d   1      36.365  20.068  19.230  0.00  0.00     0.169 HD
ATOM     19  H5  AZM d   1      35.851  20.235  20.875  0.00  0.00     0.169 HD
ENDBRANCH  14  17
ENDBRANCH   1  14
TORSDOF 4
