REMARK  3 active torsions:
REMARK  status: ('A' for Active; 'I' for Inactive)
REMARK    1  A    between atoms: CAK_5  and  CAP_6 
REMARK    2  A    between atoms: CAP_6  and  N6_7 
REMARK    3  A    between atoms: N6_7  and  C6_8 
ROOT
ATOM      1  N6  H35 d   1      39.125  23.869  25.949  0.00  0.00    -0.367 N 
ATOM      2  H6  H35 d   1      39.093  24.800  25.510  0.00  0.00     0.161 HD
ENDROOT
BRANCH   1   3
ATOM      3  CAP H35 d   1      39.595  23.764  27.375  0.00  0.00     0.038 C 
ATOM      4  H4  H35 d   1      38.754  23.503  28.034  0.00  0.00     0.074 H 
ATOM      5  H5  H35 d   1      40.380  22.998  27.461  0.00  0.00     0.074 H 
BRANCH   3   6
ATOM      6  CAK H35 d   1      40.155  25.138  27.753  0.00  0.00     0.070 A 
ATOM      7  CAM H35 d   1      39.800  25.994  28.723  0.00  0.00    -0.051 A 
ATOM      8  CAO H35 d   1      40.600  27.069  28.641  0.00  0.00    -0.059 A 
ATOM      9  H1  H35 d   1      39.003  25.843  29.449  0.00  0.00     0.087 H 
ATOM     10  CAN H35 d   1      41.460  26.903  27.623  0.00  0.00     0.019 A 
ATOM     11  H2  H35 d   1      40.558  27.938  29.296  0.00  0.00     0.086 H 
ATOM     12  OAL H35 d   1      41.199  25.678  27.069  0.00  0.00    -0.325 OA
ATOM     13  H3  H35 d   1      42.222  27.610  27.299  0.00  0.00     0.123 H 
ENDBRANCH   3   6
ENDBRANCH   1   3
BRANCH   1  14
ATOM     14  C6  H35 d   1      38.751  22.821  25.234  0.00  0.00     0.158 A 
ATOM     15  N1  H35 d   1      38.514  21.652  25.819  0.00  0.00    -0.222 NA
ATOM     16  C2  H35 d   1      38.152  20.579  25.104  0.00  0.00     0.091 A 
ATOM     17  N3  H35 d   1      38.000  20.609  23.767  0.00  0.00    -0.222 NA
ATOM     18  H7  H35 d   1      37.974  19.645  25.625  0.00  0.00     0.146 H 
ATOM     19  C4  H35 d   1      38.204  21.763  23.120  0.00  0.00     0.162 A 
ATOM     20  C5  H35 d   1      38.586  22.896  23.836  0.00  0.00     0.149 A 
ATOM     21  N9  H35 d   1      38.132  22.100  21.824  0.00  0.00    -0.333 N 
ATOM     22  N7  H35 d   1      38.719  23.875  22.946  0.00  0.00    -0.236 NA
ATOM     23  C8  H35 d   1      38.457  23.394  21.725  0.00  0.00     0.066 A 
ATOM     24  H8  H35 d   1      38.501  23.965  20.799  0.00  0.00     0.143 H 
ATOM     25  H9  H35 d   1      37.873  21.476  21.046  0.00  0.00     0.168 HD
ENDBRANCH   1  14
TORSDOF 3
