REMARK  3 active torsions:
REMARK  status: ('A' for Active; 'I' for Inactive)
REMARK    1  A    between atoms: C4_1  and  C3_2 
REMARK    2  A    between atoms: C3_2  and  C2_3 
REMARK    3  A    between atoms: C2_3  and  C1_5 
ROOT
ATOM      1  C3  2KT d   1       0.078  18.656  23.760  0.00  0.00    -0.023 C 
ATOM      2  H4  2KT d   1      -0.650  18.119  24.386  0.00  0.00     0.038 H 
ATOM      3  H5  2KT d   1       0.393  19.578  24.271  0.00  0.00     0.038 H 
ENDROOT
BRANCH   1   4
ATOM      4  C4  2KT d   1      -0.622  19.056  22.485  0.00  0.00    -0.073 C 
ATOM      5  H1  2KT d   1      -1.486  19.693  22.725  0.00  0.00     0.027 H 
ATOM      6  H2  2KT d   1      -0.967  18.154  21.957  0.00  0.00     0.027 H 
ATOM      7  H3  2KT d   1       0.076  19.613  21.843  0.00  0.00     0.027 H 
ENDBRANCH   1   4
BRANCH   1   8
ATOM      8  C2  2KT d   1       1.163  17.870  23.629  0.00  0.00     0.227 C 
ATOM      9  O3  2KT d   1       1.542  17.483  22.443  0.00  0.00    -0.213 OA
BRANCH   8  10
ATOM     10  C1  2KT d   1       1.943  17.426  24.767  0.00  0.00     0.216 C 
ATOM     11  O1  2KT d   1       1.326  16.942  25.727  0.00  0.00    -0.646 OA
ATOM     12  O2  2KT d   1       3.195  17.534  24.707  0.00  0.00    -0.646 OA
ENDBRANCH   8  10
ENDBRANCH   1   8
TORSDOF 3
