REMARK  3 active torsions:
REMARK  status: ('A' for Active; 'I' for Inactive)
REMARK    1  A    between atoms: C3'_3  and  O3'_4 
REMARK    2  A    between atoms: C2'_5  and  O2'_6 
REMARK    3  A    between atoms: C1'_7  and  N9_8 
ROOT
ATOM      1  C4' SAM d   1      -9.462 -26.821  -3.575  0.00  0.00     0.048 C 
ATOM      2  O4' SAM d   1      -8.455 -27.765  -3.192  0.00  0.00    -0.361 OA
ATOM      3  C3' SAM d   1      -8.840 -25.441  -3.367  0.00  0.00     0.085 C 
ATOM      4  C2' SAM d   1      -7.344 -25.691  -3.251  0.00  0.00     0.104 C 
ATOM      5  C1' SAM d   1      -7.407 -27.039  -2.552  0.00  0.00     0.139 C 
ATOM      6  H1  SAM d   1     -10.356 -26.937  -2.944  0.00  0.00     0.078 H 
ATOM      7  H2  SAM d   1      -9.737 -26.962  -4.631  0.00  0.00     0.078 H 
ATOM      8  H3  SAM d   1      -9.079 -24.763  -4.199  0.00  0.00     0.090 H 
ATOM      9  H5  SAM d   1      -6.873 -25.779  -4.241  0.00  0.00     0.093 H 
ATOM     10  H7  SAM d   1      -7.679 -26.886  -1.497  0.00  0.00     0.122 H 
ENDROOT
BRANCH   5  11
ATOM     11  N9  SAM d   1      -6.107 -27.718  -2.579  0.00  0.00    -0.294 N 
ATOM     12  C8  SAM d   1      -5.502 -28.250  -3.685  0.00  0.00     0.071 A 
ATOM     13  N7  SAM d   1      -4.312 -28.755  -3.289  0.00  0.00    -0.236 NA
ATOM     14  H8  SAM d   1      -5.904 -28.264  -4.697  0.00  0.00     0.144 H 
ATOM     15  C5  SAM d   1      -4.159 -28.567  -1.944  0.00  0.00     0.149 A 
ATOM     16  C6  SAM d   1      -3.139 -28.900  -1.045  0.00  0.00     0.155 A 
ATOM     17  C4  SAM d   1      -5.291 -27.908  -1.476  0.00  0.00     0.167 A 
ATOM     18  N6  SAM d   1      -2.035 -29.535  -1.464  0.00  0.00    -0.382 N 
ATOM     19  N1  SAM d   1      -3.286 -28.570   0.292  0.00  0.00    -0.222 NA
ATOM     20  H9  SAM d   1      -1.292 -29.774  -0.792  0.00  0.00     0.157 HD
ATOM     21  H10 SAM d   1      -1.930 -29.784  -2.458  0.00  0.00     0.157 HD
ATOM     22  C2  SAM d   1      -4.415 -27.904   0.751  0.00  0.00     0.091 A 
ATOM     23  N3  SAM d   1      -5.418 -27.586  -0.149  0.00  0.00    -0.222 NA
ATOM     24  H11 SAM d   1      -4.510 -27.637   1.797  0.00  0.00     0.146 H 
ENDBRANCH   5  11
BRANCH   4  25
ATOM     25  O2' SAM d   1      -6.657 -24.672  -2.517  0.00  0.00    -0.389 OA
ATOM     26  H6  SAM d   1      -7.010 -24.625  -1.636  0.00  0.00     0.210 HD
ENDBRANCH   4  25
BRANCH   3  27
ATOM     27  O3' SAM d   1      -9.277 -24.906  -2.138  0.00  0.00    -0.391 OA
ATOM     28  H4  SAM d   1      -9.012 -25.482  -1.431  0.00  0.00     0.210 HD
ENDBRANCH   3  27
TORSDOF 3
