REMARK  0 active torsions:
REMARK  status: ('A' for Active; 'I' for Inactive)
ROOT
ATOM      1  N9  XAN d   1      -2.487   8.456 -29.704  0.00  0.00    -0.224 NA
ATOM      2  C4  XAN d   1      -1.701   7.471 -30.122  0.00  0.00     0.165 A 
ATOM      3  N3  XAN d   1      -0.386   7.326 -30.286  0.00  0.00    -0.291 N 
ATOM      4  C2  XAN d   1       0.141   6.168 -30.739  0.00  0.00     0.328 A 
ATOM      5  O2  XAN d   1       1.381   6.110 -30.866  0.00  0.00    -0.247 OA
ATOM      6  N1  XAN d   1      -0.618   5.086 -31.070  0.00  0.00    -0.273 N 
ATOM      7  C6  XAN d   1      -1.957   5.095 -30.945  0.00  0.00     0.280 A 
ATOM      8  O6  XAN d   1      -2.651   4.102 -31.235  0.00  0.00    -0.265 OA
ATOM      9  C5  XAN d   1      -2.583   6.338 -30.438  0.00  0.00     0.148 A 
ATOM     10  N7  XAN d   1      -3.826   6.743 -30.182  0.00  0.00    -0.343 N 
ATOM     11  C8  XAN d   1      -3.762   8.018 -29.741  0.00  0.00     0.067 A 
ATOM     12  H1  XAN d   1       0.222   8.090 -30.069  0.00  0.00     0.172 HD
ATOM     13  H2  XAN d   1      -0.167   4.263 -31.415  0.00  0.00     0.173 HD
ATOM     14  H3  XAN d   1      -4.683   6.184 -30.299  0.00  0.00     0.167 HD
ATOM     15  H4  XAN d   1      -4.627   8.614 -29.453  0.00  0.00     0.143 H 
ENDROOT
TORSDOF 0
