REMARK  4 active torsions:
REMARK  status: ('A' for Active; 'I' for Inactive)
REMARK    1  A    between atoms: N_1  and  CA_2 
REMARK    2  A    between atoms: CA_2  and  C_3 
REMARK    3  A    between atoms: CA_2  and  CB_5 
REMARK    4  A    between atoms: CB_5  and  CG_6 
ROOT
ATOM      1  CA  ASP d   1       9.009  34.311  60.880  0.00  0.00     0.191 C 
ATOM      2  H4  ASP d   1       9.585  33.735  61.620  0.00  0.00     0.102 H 
ENDROOT
BRANCH   1   3
ATOM      3  N   ASP d   1       8.053  33.380  60.242  0.00  0.00    -0.065 N 
ATOM      4  H1  ASP d   1       8.561  32.656  59.759  0.00  0.00     0.275 HD
ATOM      5  H2  ASP d   1       7.481  33.885  59.584  0.00  0.00     0.275 HD
ATOM      6  H3  ASP d   1       7.466  32.965  60.949  0.00  0.00     0.275 HD
ENDBRANCH   1   3
BRANCH   1   7
ATOM      7  C   ASP d   1       8.309  35.418  61.619  0.00  0.00     0.205 C 
ATOM      8  O   ASP d   1       8.981  36.235  62.262  0.00  0.00    -0.646 OA
ATOM      9  OXT ASP d   1       7.066  35.474  61.596  0.00  0.00    -0.646 OA
ENDBRANCH   1   7
BRANCH   1  10
ATOM     10  CB  ASP d   1      10.009  34.874  59.849  0.00  0.00     0.051 C 
ATOM     11  H5  ASP d   1      10.595  34.038  59.440  0.00  0.00     0.053 H 
ATOM     12  H6  ASP d   1      10.682  35.575  60.364  0.00  0.00     0.053 H 
BRANCH  10  13
ATOM     13  CG  ASP d   1       9.340  35.610  58.688  0.00  0.00     0.175 C 
ATOM     14  OD1 ASP d   1       8.129  35.485  58.512  0.00  0.00    -0.648 OA
ATOM     15  OD2 ASP d   1      10.032  36.326  57.920  0.00  0.00    -0.648 OA
ENDBRANCH  10  13
ENDBRANCH   1  10
TORSDOF 4
