REMARK  3 active torsions:
REMARK  status: ('A' for Active; 'I' for Inactive)
REMARK    1  A    between atoms: P_1  and  O1P_2 
REMARK    2  A    between atoms: O1P_2  and  C2_6 
REMARK    3  A    between atoms: C2_6  and  C1_7 
ROOT
ATOM      1  C2  PGA d   1      12.866  13.414  15.781  0.00  0.00     0.112 C 
ATOM      2  H1  PGA d   1      13.430  13.649  16.696  0.00  0.00     0.092 H 
ATOM      3  H2  PGA d   1      13.530  13.502  14.908  0.00  0.00     0.092 H 
ENDROOT
BRANCH   1   4
ATOM      4  O1P PGA d   1      11.778  14.328  15.645  0.00  0.00    -0.272 OA
BRANCH   4   5
ATOM      5  P   PGA d   1      12.065  15.896  15.453  0.00  0.00     0.422 P 
ATOM      6  O2P PGA d   1      13.149  15.900  14.370  0.00  0.00    -0.617 OA
ATOM      7  O3P PGA d   1      10.741  16.464  15.034  0.00  0.00    -0.617 OA
ATOM      8  O4P PGA d   1      12.507  16.549  16.724  0.00  0.00    -0.617 OA
ENDBRANCH   4   5
ENDBRANCH   1   4
BRANCH   1   9
ATOM      9  C1  PGA d   1      12.325  11.985  15.868  0.00  0.00     0.198 C 
ATOM     10  O1  PGA d   1      12.715  11.049  15.123  0.00  0.00    -0.646 OA
ATOM     11  O2  PGA d   1      11.437  11.763  16.695  0.00  0.00    -0.646 OA
ENDBRANCH   1   9
TORSDOF 3
