REMARK  9 active torsions:
REMARK  status: ('A' for Active; 'I' for Inactive)
REMARK    1  A    between atoms: CAT_4  and  NAA_5 
REMARK    2  A    between atoms: NBD_8  and  CBC_9 
REMARK    3  A    between atoms: CBA_11  and  OAE_12 
REMARK    4  A    between atoms: CAZ_13  and  OAD_14 
REMARK    5  A    between atoms: CBB_15  and  CAN_16 
REMARK    6  A    between atoms: CAN_16  and  NAQ_17 
REMARK       I    between atoms: NAQ_17  and  CAU_18 
REMARK    7  A    between atoms: CAU_18  and  CAL_20 
REMARK    8  A    between atoms: CAL_20  and  CAM_21 
REMARK    9  A    between atoms: CAM_21  and  CAW_22 
ROOT
ATOM      1  CAN NVG d   1      17.302 -10.092  19.864  0.00  0.00     0.022 C 
ATOM      2  H11 NVG d   1      16.556 -10.325  20.639  0.00  0.00     0.068 H 
ATOM      3  H12 NVG d   1      17.871  -9.198  20.159  0.00  0.00     0.068 H 
ENDROOT
BRANCH   1   4
ATOM      4  CBB NVG d   1      16.561  -9.801  18.516  0.00  0.00     0.083 C 
ATOM      5  OAS NVG d   1      15.246 -10.416  18.560  0.00  0.00    -0.354 OA
ATOM      6  CBC NVG d   1      14.718 -10.360  17.183  0.00  0.00     0.141 C 
ATOM      7  CBA NVG d   1      15.951 -10.487  16.258  0.00  0.00     0.105 C 
ATOM      8  H5  NVG d   1      14.064 -11.230  17.022  0.00  0.00     0.123 H 
ATOM      9  CAZ NVG d   1      17.161 -10.283  17.168  0.00  0.00     0.091 C 
ATOM     10  H6  NVG d   1      15.926  -9.725  15.465  0.00  0.00     0.093 H 
ATOM     11  H8  NVG d   1      17.854  -9.533  16.759  0.00  0.00     0.091 H 
ATOM     12  H10 NVG d   1      16.455  -8.708  18.452  0.00  0.00     0.090 H 
BRANCH   6  13
ATOM     13  NBD NVG d   1      13.896  -9.124  16.900  0.00  0.00    -0.280 N 
ATOM     14  CAV NVG d   1      13.041  -9.037  15.762  0.00  0.00     0.330 A 
ATOM     15  OAC NVG d   1      12.944  -9.971  14.961  0.00  0.00    -0.246 OA
ATOM     16  NAO NVG d   1      12.319  -7.914  15.550  0.00  0.00    -0.293 N 
ATOM     17  CAT NVG d   1      12.373  -6.865  16.391  0.00  0.00     0.125 A 
ATOM     18  H1  NVG d   1      11.728  -7.861  14.745  0.00  0.00     0.172 HD
ATOM     19  CAF NVG d   1      13.190  -6.897  17.522  0.00  0.00    -0.024 A 
ATOM     20  CAG NVG d   1      13.954  -8.027  17.784  0.00  0.00    -0.009 A 
ATOM     21  H3  NVG d   1      13.228  -6.042  18.195  0.00  0.00     0.091 H 
ATOM     22  H4  NVG d   1      14.593  -8.065  18.665  0.00  0.00     0.112 H 
BRANCH  17  23
ATOM     23  NAA NVG d   1      11.648  -5.777  16.153  0.00  0.00    -0.284 NA
ATOM     24  H2  NVG d   1      11.692  -4.994  16.786  0.00  0.00     0.188 HD
ENDBRANCH  17  23
ENDBRANCH   6  13
BRANCH   7  25
ATOM     25  OAE NVG d   1      15.989 -11.801  15.674  0.00  0.00    -0.388 OA
ATOM     26  H7  NVG d   1      16.045 -12.451  16.364  0.00  0.00     0.210 HD
ENDBRANCH   7  25
BRANCH   9  27
ATOM     27  OAD NVG d   1      17.818 -11.539  17.298  0.00  0.00    -0.390 OA
ATOM     28  H9  NVG d   1      18.095 -11.841  16.441  0.00  0.00     0.210 HD
ENDBRANCH   9  27
ENDBRANCH   1   4
BRANCH   1  29
ATOM     29  NAQ NVG d   1      18.231 -11.230  19.737  0.00  0.00    -0.359 N 
ATOM     30  CAU NVG d   1      19.541 -11.141  19.982  0.00  0.00     0.217 C 
ATOM     31  OAB NVG d   1      20.112 -10.110  20.337  0.00  0.00    -0.274 OA
ATOM     32  H13 NVG d   1      17.861 -12.114  19.453  0.00  0.00     0.162 HD
BRANCH  30  33
ATOM     33  CAL NVG d   1      20.339 -12.442  19.789  0.00  0.00     0.015 C 
ATOM     34  H14 NVG d   1      21.190 -12.437  20.486  0.00  0.00     0.047 H 
ATOM     35  H15 NVG d   1      20.713 -12.473  18.755  0.00  0.00     0.047 H 
BRANCH  33  36
ATOM     36  CAM NVG d   1      19.505 -13.707  20.045  0.00  0.00    -0.002 C 
ATOM     37  H16 NVG d   1      20.091 -14.588  19.744  0.00  0.00     0.045 H 
ATOM     38  H17 NVG d   1      18.585 -13.656  19.444  0.00  0.00     0.045 H 
BRANCH  36  39
ATOM     39  CAW NVG d   1      19.126 -13.843  21.522  0.00  0.00     0.105 A 
ATOM     40  NAR NVG d   1      18.290 -13.043  22.184  0.00  0.00    -0.233 NA
ATOM     41  CAY NVG d   1      18.206 -13.468  23.438  0.00  0.00     0.085 A 
ATOM     42  CAK NVG d   1      17.491 -13.009  24.543  0.00  0.00    -0.053 A 
ATOM     43  CAX NVG d   1      19.030 -14.583  23.547  0.00  0.00     0.062 A 
ATOM     44  CAI NVG d   1      17.605 -13.678  25.761  0.00  0.00    -0.081 A 
ATOM     45  H18 NVG d   1      16.851 -12.138  24.456  0.00  0.00     0.087 H 
ATOM     46  CAH NVG d   1      18.430 -14.799  25.870  0.00  0.00    -0.081 A 
ATOM     47  H19 NVG d   1      17.052 -13.327  26.625  0.00  0.00     0.083 H 
ATOM     48  CAJ NVG d   1      19.146 -15.254  24.763  0.00  0.00    -0.055 A 
ATOM     49  H20 NVG d   1      18.514 -15.318  26.818  0.00  0.00     0.083 H 
ATOM     50  H21 NVG d   1      19.788 -16.123  24.848  0.00  0.00     0.087 H 
ATOM     51  NAP NVG d   1      19.576 -14.784  22.352  0.00  0.00    -0.343 N 
ATOM     52  H22 NVG d   1      20.234 -15.538  22.109  0.00  0.00     0.167 HD
ENDBRANCH  36  39
ENDBRANCH  33  36
ENDBRANCH  30  33
ENDBRANCH   1  29
TORSDOF 9
