REMARK  4 active torsions:
REMARK  status: ('A' for Active; 'I' for Inactive)
REMARK    1  A    between atoms: N_1  and  CA_2 
REMARK    2  A    between atoms: CA_2  and  C_3 
REMARK    3  A    between atoms: CA_2  and  CB_6 
REMARK    4  A    between atoms: CB_6  and  OG_7 
ROOT
ATOM      1  CA  DSN d   1      31.507  32.428  28.187  0.00  0.00     0.202 C 
ATOM      2  H4  DSN d   1      30.542  32.334  27.668  0.00  0.00     0.104 H 
ENDROOT
BRANCH   1   3
ATOM      3  N   DSN d   1      32.155  33.683  27.721  0.00  0.00    -0.063 N 
ATOM      4  H1  DSN d   1      31.566  34.469  27.947  0.00  0.00     0.275 HD
ATOM      5  H2  DSN d   1      32.291  33.641  26.723  0.00  0.00     0.275 HD
ATOM      6  H3  DSN d   1      33.048  33.790  28.177  0.00  0.00     0.275 HD
ENDBRANCH   1   3
BRANCH   1   7
ATOM      7  C   DSN d   1      32.337  31.206  27.880  0.00  0.00     0.206 C 
ATOM      8  O   DSN d   1      31.979  30.102  28.327  0.00  0.00    -0.646 OA
ATOM      9  OXT DSN d   1      33.357  31.298  27.134  0.00  0.00    -0.646 OA
ENDBRANCH   1   7
BRANCH   1  10
ATOM     10  CB  DSN d   1      31.248  32.456  29.714  0.00  0.00     0.053 C 
ATOM     11  H5  DSN d   1      30.766  31.512  30.010  0.00  0.00     0.077 H 
ATOM     12  H6  DSN d   1      30.579  33.298  29.945  0.00  0.00     0.077 H 
BRANCH  10  13
ATOM     13  OG  DSN d   1      32.466  32.611  30.464  0.00  0.00    -0.398 OA
ATOM     14  H7  DSN d   1      32.886  33.427  30.219  0.00  0.00     0.209 HD
ENDBRANCH  10  13
ENDBRANCH   1  10
TORSDOF 4
