REMARK  8 active torsions:
REMARK  status: ('A' for Active; 'I' for Inactive)
REMARK    1  A    between atoms: PA_1  and  O3A_4 
REMARK    2  A    between atoms: PA_1  and  O5'_9 
REMARK    3  A    between atoms: O3A_4  and  PB_5 
REMARK    4  A    between atoms: O5'_9  and  C5'_10 
REMARK    5  A    between atoms: C5'_10  and  C4'_11 
REMARK    6  A    between atoms: C3'_13  and  O3'_14 
REMARK    7  A    between atoms: C1'_16  and  N1_17 
REMARK    8  A    between atoms: C5_23  and  C5M_24 
ROOT
ATOM      1  C4' TYD d   1      10.412  23.968   1.073  0.00  0.00     0.087 C 
ATOM      2  O4' TYD d   1       9.641  23.732  -0.119  0.00  0.00    -0.356 OA
ATOM      3  C3' TYD d   1       9.410  24.110   2.224  0.00  0.00     0.066 C 
ATOM      4  C2' TYD d   1       8.158  23.473   1.624  0.00  0.00     0.002 C 
ATOM      5  C1' TYD d   1       8.271  24.023   0.202  0.00  0.00     0.116 C 
ATOM      6  H3  TYD d   1      11.007  24.887   0.973  0.00  0.00     0.090 H 
ATOM      7  H4  TYD d   1       9.744  23.588   3.133  0.00  0.00     0.087 H 
ATOM      8  H6  TYD d   1       7.240  23.813   2.126  0.00  0.00     0.043 H 
ATOM      9  H7  TYD d   1       8.203  22.374   1.646  0.00  0.00     0.043 H 
ATOM     10  H8  TYD d   1       8.061  25.102   0.177  0.00  0.00     0.118 H 
ENDROOT
BRANCH   5  11
ATOM     11  N1  TYD d   1       7.397  23.319  -0.765  0.00  0.00    -0.282 N 
ATOM     12  C2  TYD d   1       6.470  24.016  -1.549  0.00  0.00     0.331 A 
ATOM     13  O2  TYD d   1       6.350  25.234  -1.438  0.00  0.00    -0.246 OA
ATOM     14  N3  TYD d   1       5.705  23.326  -2.500  0.00  0.00    -0.275 N 
ATOM     15  C4  TYD d   1       5.875  21.950  -2.671  0.00  0.00     0.256 A 
ATOM     16  H9  TYD d   1       5.037  23.820  -3.057  0.00  0.00     0.173 HD
ATOM     17  O4  TYD d   1       5.234  21.353  -3.539  0.00  0.00    -0.267 OA
ATOM     18  C5  TYD d   1       6.796  21.258  -1.890  0.00  0.00     0.022 A 
ATOM     19  C6  TYD d   1       7.550  21.936  -0.944  0.00  0.00    -0.002 A 
ATOM     20  H13 TYD d   1       8.268  21.390  -0.334  0.00  0.00     0.113 H 
BRANCH  18  21
ATOM     21  C5M TYD d   1       6.979  19.748  -2.065  0.00  0.00    -0.045 C 
ATOM     22  H10 TYD d   1       7.745  19.388  -1.363  0.00  0.00     0.033 H 
ATOM     23  H11 TYD d   1       7.297  19.534  -3.096  0.00  0.00     0.033 H 
ATOM     24  H12 TYD d   1       6.026  19.237  -1.861  0.00  0.00     0.033 H 
ENDBRANCH  18  21
ENDBRANCH   5  11
BRANCH   1  25
ATOM     25  C5' TYD d   1      11.340  22.774   1.305  0.00  0.00     0.058 C 
ATOM     26  H1  TYD d   1      11.967  22.632   0.412  0.00  0.00     0.079 H 
ATOM     27  H2  TYD d   1      11.981  22.985   2.174  0.00  0.00     0.079 H 
BRANCH  25  28
ATOM     28  O5' TYD d   1      10.608  21.571   1.552  0.00  0.00    -0.287 OA
BRANCH  28  29
ATOM     29  PA  TYD d   1      11.386  20.280   2.118  0.00  0.00     0.418 P 
ATOM     30  O1A TYD d   1      12.333  19.782   1.096  0.00  0.00    -0.624 OA
ATOM     31  O2A TYD d   1      10.409  19.329   2.692  0.00  0.00    -0.624 OA
BRANCH  29  32
ATOM     32  O3A TYD d   1      12.266  20.918   3.305  0.00  0.00    -0.173 OA
BRANCH  32  33
ATOM     33  PB  TYD d   1      11.660  21.197   4.769  0.00  0.00     0.431 P 
ATOM     34  O1B TYD d   1      12.310  20.371   5.812  0.00  0.00    -0.616 OA
ATOM     35  O2B TYD d   1      11.843  22.777   5.019  0.00  0.00    -0.616 OA
ATOM     36  O3B TYD d   1      10.072  20.955   4.682  0.00  0.00    -0.616 OA
ENDBRANCH  32  33
ENDBRANCH  29  32
ENDBRANCH  28  29
ENDBRANCH  25  28
ENDBRANCH   1  25
BRANCH   3  37
ATOM     37  O3' TYD d   1       9.185  25.496   2.498  0.00  0.00    -0.393 OA
ATOM     38  H5  TYD d   1       8.564  25.580   3.212  0.00  0.00     0.210 HD
ENDBRANCH   3  37
TORSDOF 8
