REMARK  3 active torsions:
REMARK  status: ('A' for Active; 'I' for Inactive)
REMARK    1  A    between atoms: C12_8  and  C9_9 
REMARK    2  A    between atoms: C8_14  and  N13_15 
REMARK    3  A    between atoms: C2_19  and  N11_20 
ROOT
ATOM      1  C9  LZJ d   1       4.531 -22.119  24.687  0.00  0.00     0.023 A 
ATOM      2  C10 LZJ d   1       3.365 -22.548  25.329  0.00  0.00    -0.053 A 
ATOM      3  C5  LZJ d   1       2.959 -23.878  25.179  0.00  0.00     0.032 A 
ATOM      4  C6  LZJ d   1       1.806 -24.365  25.795  0.00  0.00     0.035 A 
ATOM      5  N1  LZJ d   1       1.453 -25.653  25.629  0.00  0.00    -0.074 NA
ATOM      6  C8  LZJ d   1       5.252 -23.032  23.909  0.00  0.00     0.135 A 
ATOM      7  N7  LZJ d   1       4.838 -24.316  23.782  0.00  0.00    -0.210 NA
ATOM      8  C4  LZJ d   1       3.715 -24.751  24.398  0.00  0.00     0.182 A 
ATOM      9  N3  LZJ d   1       3.324 -26.039  24.255  0.00  0.00    -0.043 NA
ATOM     10  C2  LZJ d   1       2.200 -26.489  24.862  0.00  0.00     0.722 A 
ATOM     11  H4  LZJ d   1       2.785 -21.860  25.934  0.00  0.00     0.086 H 
ATOM     12  H5  LZJ d   1       1.196 -23.708  26.405  0.00  0.00     0.117 H 
ENDROOT
BRANCH   1  13
ATOM     13  C12 LZJ d   1       5.018 -20.708  24.793  0.00  0.00     0.013 A 
ATOM     14  C18 LZJ d   1       6.162 -20.393  25.529  0.00  0.00     0.023 A 
ATOM     15 BR2  LZJ d   1       7.136 -21.717  26.458  0.00  0.00    -0.050 Br
ATOM     16  C17 LZJ d   1       6.616 -19.078  25.606  0.00  0.00    -0.065 A 
ATOM     17  C16 LZJ d   1       5.936 -18.062  24.947  0.00  0.00    -0.080 A 
ATOM     18  H1  LZJ d   1       7.504 -18.847  26.183  0.00  0.00     0.085 H 
ATOM     19  C15 LZJ d   1       4.799 -18.367  24.208  0.00  0.00    -0.065 A 
ATOM     20  H2  LZJ d   1       6.289 -17.039  25.009  0.00  0.00     0.083 H 
ATOM     21  C14 LZJ d   1       4.346 -19.683  24.129  0.00  0.00     0.023 A 
ATOM     22  H3  LZJ d   1       4.263 -17.579  23.692  0.00  0.00     0.085 H 
ATOM     23 BR1  LZJ d   1       2.793 -20.027  23.115  0.00  0.00    -0.050 Br
ENDBRANCH   1  13
BRANCH   6  24
ATOM     24  N13 LZJ d   1       6.383 -22.661  23.262  0.00  0.00    -0.383 N 
ATOM     25  H6  LZJ d   1       6.900 -23.347  22.694  0.00  0.00     0.157 HD
ATOM     26  H7  LZJ d   1       6.726 -21.693  23.338  0.00  0.00     0.157 HD
ENDBRANCH   6  24
BRANCH  10  27
ATOM     27  N11 LZJ d   1       1.836 -27.785  24.705  0.00  0.00    -0.231 N 
ATOM     28  H8  LZJ d   1       0.983 -28.139  25.161  0.00  0.00     0.174 HD
ATOM     29  H9  LZJ d   1       2.412 -28.416  24.129  0.00  0.00     0.174 HD
ENDBRANCH  10  27
TORSDOF 3
