REMARK  11 active torsions:
REMARK  status: ('A' for Active; 'I' for Inactive)
REMARK    1  A    between atoms: C4_3  and  C41_4 
REMARK    2  A    between atoms: C41_4  and  C32_5 
REMARK    3  A    between atoms: C32_5  and  C31_6 
REMARK    4  A    between atoms: C31_6  and  C3_7 
REMARK    5  A    between atoms: C31_6  and  C22_10 
REMARK    6  A    between atoms: C22_10  and  C21_11 
REMARK    7  A    between atoms: C21_11  and  C2_12 
REMARK    8  A    between atoms: C21_11  and  C12_15 
REMARK    9  A    between atoms: C12_15  and  C11_16 
REMARK   10  A    between atoms: C11_16  and  C10_17 
REMARK   11  A    between atoms: C11_16  and  C1_18 
ROOT
ATOM      1  C22 PAY d   1     115.849  42.670  48.355  0.00  0.00    -0.040 C 
ATOM      2  H6  PAY d   1     115.495  43.559  47.812  0.00  0.00     0.035 H 
ATOM      3  H7  PAY d   1     116.889  42.827  48.676  0.00  0.00     0.035 H 
ENDROOT
BRANCH   1   4
ATOM      4  C31 PAY d   1     115.829  41.442  47.346  0.00  0.00     0.032 C 
ATOM      5  H5  PAY d   1     114.805  41.378  46.949  0.00  0.00     0.056 H 
BRANCH   4   6
ATOM      6  C32 PAY d   1     116.784  41.681  46.130  0.00  0.00    -0.043 C 
ATOM      7  H3  PAY d   1     117.782  41.928  46.522  0.00  0.00     0.035 H 
ATOM      8  H4  PAY d   1     116.839  40.748  45.549  0.00  0.00     0.035 H 
BRANCH   6   9
ATOM      9  C41 PAY d   1     116.341  42.829  45.167  0.00  0.00     0.017 C 
ATOM     10  H1  PAY d   1     116.105  43.719  45.768  0.00  0.00     0.049 H 
ATOM     11  H2  PAY d   1     117.174  43.057  44.486  0.00  0.00     0.049 H 
BRANCH   9  12
ATOM     12  C4  PAY d   1     115.126  42.469  44.339  0.00  0.00     0.172 C 
ATOM     13  O42 PAY d   1     115.092  41.361  43.737  0.00  0.00    -0.648 OA
ATOM     14  O41 PAY d   1     114.192  43.308  44.284  0.00  0.00    -0.648 OA
ENDBRANCH   9  12
ENDBRANCH   6   9
ENDBRANCH   4   6
BRANCH   4  15
ATOM     15  C3  PAY d   1     116.130  40.103  48.005  0.00  0.00     0.177 C 
ATOM     16  O31 PAY d   1     116.865  40.048  49.026  0.00  0.00    -0.648 OA
ATOM     17  O32 PAY d   1     115.602  39.083  47.485  0.00  0.00    -0.648 OA
ENDBRANCH   4  15
ENDBRANCH   1   4
BRANCH   1  18
ATOM     18  C21 PAY d   1     114.967  42.508  49.641  0.00  0.00     0.032 C 
ATOM     19  H8  PAY d   1     115.423  41.713  50.249  0.00  0.00     0.056 H 
BRANCH  18  20
ATOM     20  C2  PAY d   1     113.571  42.043  49.300  0.00  0.00     0.177 C 
ATOM     21  O21 PAY d   1     112.730  42.852  48.823  0.00  0.00    -0.648 OA
ATOM     22  O22 PAY d   1     113.321  40.816  49.501  0.00  0.00    -0.648 OA
ENDBRANCH  18  20
BRANCH  18  23
ATOM     23  C12 PAY d   1     115.004  43.826  50.514  0.00  0.00    -0.040 C 
ATOM     24  H9  PAY d   1     114.707  44.669  49.873  0.00  0.00     0.035 H 
ATOM     25  H10 PAY d   1     116.037  43.976  50.862  0.00  0.00     0.035 H 
BRANCH  23  26
ATOM     26  C11 PAY d   1     114.062  43.815  51.772  0.00  0.00     0.028 C 
ATOM     27  H11 PAY d   1     113.048  43.547  51.440  0.00  0.00     0.056 H 
BRANCH  26  28
ATOM     28  C10 PAY d   1     114.021  45.218  52.439  0.00  0.00    -0.064 C 
ATOM     29  H12 PAY d   1     113.357  45.188  53.316  0.00  0.00     0.028 H 
ATOM     30  H13 PAY d   1     113.642  45.956  51.717  0.00  0.00     0.028 H 
ATOM     31  H14 PAY d   1     115.035  45.503  52.756  0.00  0.00     0.028 H 
ENDBRANCH  26  28
BRANCH  26  32
ATOM     32  C1  PAY d   1     114.517  42.804  52.815  0.00  0.00     0.176 C 
ATOM     33  O12 PAY d   1     115.450  43.113  53.607  0.00  0.00    -0.648 OA
ATOM     34  O11 PAY d   1     113.935  41.688  52.851  0.00  0.00    -0.648 OA
ENDBRANCH  26  32
ENDBRANCH  23  26
ENDBRANCH  18  23
ENDBRANCH   1  18
TORSDOF 11
