REMARK WARNING: 32 MAX_TORS EXCEEDED!!!
REMARK  41 active torsions:
REMARK  status: ('A' for Active; 'I' for Inactive)
REMARK    1  A    between atoms: N_1  and  CA_2 
REMARK    2  A    between atoms: CA_2  and  C_3 
REMARK    3  A    between atoms: CA_2  and  CB_5 
REMARK       I    between atoms: C_3  and  N_6 
REMARK    4  A    between atoms: N_6  and  CA_7 
REMARK    5  A    between atoms: CA_7  and  CB_8 
REMARK    6  A    between atoms: CA_7  and  C_17 
REMARK    7  A    between atoms: CB_8  and  CG_9 
REMARK    8  A    between atoms: CG_9  and  CD_10 
REMARK    9  A    between atoms: CD_10  and  NE_11 
REMARK       I    between atoms: NE_11  and  CZ_12 
REMARK       I    between atoms: CZ_12  and  NH2_15 
REMARK   10  A    between atoms: NH1_13  and  CQ1_14 
REMARK   11  A    between atoms: NH2_15  and  CQ2_16 
REMARK       I    between atoms: C_17  and  N_19 
REMARK   12  A    between atoms: N_19  and  CA_20 
REMARK   13  A    between atoms: CA_20  and  C_21 
REMARK   14  A    between atoms: CA_20  and  CB_23 
REMARK       I    between atoms: C_21  and  N_26 
REMARK   15  A    between atoms: CB_23  and  OG1_24 
REMARK   16  A    between atoms: CB_23  and  CG2_25 
REMARK   17  A    between atoms: N_26  and  CA_27 
REMARK   18  A    between atoms: CA_27  and  CB_28 
REMARK   19  A    between atoms: CA_27  and  C_35 
REMARK   20  A    between atoms: CB_28  and  CG_29 
REMARK   21  A    between atoms: CG_29  and  CD_30 
REMARK   22  A    between atoms: CD_30  and  CE_31 
REMARK   23  A    between atoms: CE_31  and  NZ_32 
REMARK   24  A    between atoms: NZ_32  and  CH1_33 
REMARK   25  A    between atoms: NZ_32  and  CH2_34 
REMARK       I    between atoms: C_35  and  N_37 
REMARK   26  A    between atoms: N_37  and  CA_38 
REMARK   27  A    between atoms: CA_38  and  C_39 
REMARK   28  A    between atoms: CA_38  and  CB_41 
REMARK       I    between atoms: C_39  and  N_46 
REMARK   29  A    between atoms: CB_41  and  CG_42 
REMARK   30  A    between atoms: CG_42  and  CD_43 
REMARK       I    between atoms: CD_43  and  NE2_45 
REMARK   31  A    between atoms: N_46  and  CA_47 
REMARK   32  A    between atoms: CA_47  and  C_48 
REMARK   33  A    between atoms: CA_47  and  CB_50 
REMARK       I    between atoms: C_48  and  N_53 
REMARK   34  A    between atoms: CB_50  and  OG1_51 
REMARK   35  A    between atoms: CB_50  and  CG2_52 
REMARK   36  A    between atoms: N_53  and  CA_54 
REMARK   37  A    between atoms: CA_54  and  C_55 
REMARK   38  A    between atoms: CA_54  and  CB_57 
REMARK       I    between atoms: C_55  and  N_58 
REMARK   39  A    between atoms: N_58  and  CA_59 
REMARK   40  A    between atoms: CA_59  and  C_60 
REMARK   41  A    between atoms: CA_59  and  CB_62 
ROOT
ATOM      1  CA  MLY d   1      -8.139 -11.716   5.211  0.00  0.00     0.089 C 
ATOM      2  H33 MLY d   1      -8.472 -11.940   6.235  0.00  0.00     0.087 H 
ENDROOT
BRANCH   1   3
ATOM      3  N   MLY d   1      -8.059 -10.270   5.037  0.00  0.00    -0.346 N 
ATOM      4  C   THR d   1      -8.562  -9.401   5.910  0.00  0.00     0.243 C 
ATOM      5  O   THR d   1      -9.156  -9.725   6.929  0.00  0.00    -0.271 OA
ATOM      6  H32 MLY d   1      -7.604  -9.914   4.221  0.00  0.00     0.163 HD
BRANCH   4   7
ATOM      7  CA  THR d   1      -8.347  -7.935   5.564  0.00  0.00     0.113 C 
ATOM      8  H26 THR d   1      -8.674  -7.764   4.528  0.00  0.00     0.091 H 
BRANCH   7   9
ATOM      9  N   THR d   1      -9.109  -7.046   6.427  0.00  0.00    -0.344 N 
ATOM     10  C   2MR d   1      -9.572  -5.888   5.973  0.00  0.00     0.241 C 
ATOM     11  O   2MR d   1      -9.396  -5.509   4.825  0.00  0.00    -0.271 OA
ATOM     12  H25 THR d   1      -9.286  -7.311   7.375  0.00  0.00     0.163 HD
BRANCH  10  13
ATOM     13  CA  2MR d   1     -10.347  -5.026   6.954  0.00  0.00     0.089 C 
ATOM     14  H9  2MR d   1     -10.086  -5.321   7.981  0.00  0.00     0.087 H 
BRANCH  13  15
ATOM     15  N   2MR d   1      -9.974  -3.632   6.746  0.00  0.00    -0.346 N 
ATOM     16  C   ALA d   1      -8.772  -3.178   7.095  0.00  0.00     0.248 C 
ATOM     17  O   ALA d   1      -7.921  -3.881   7.632  0.00  0.00    -0.271 OA
ATOM     18  H8  2MR d   1     -10.634  -3.004   6.333  0.00  0.00     0.163 HD
BRANCH  16  19
ATOM     19  CA  ALA d   1      -8.498  -1.712   6.801  0.00  0.00     0.172 C 
ATOM     20  H4  ALA d   1      -9.458  -1.177   6.761  0.00  0.00     0.098 H 
BRANCH  19  21
ATOM     21  N   ALA d   1      -7.658  -1.098   7.871  0.00  0.00    -0.067 N 
ATOM     22  H1  ALA d   1      -7.491  -0.128   7.652  0.00  0.00     0.275 HD
ATOM     23  H2  ALA d   1      -6.778  -1.585   7.928  0.00  0.00     0.275 HD
ATOM     24  H3  ALA d   1      -8.138  -1.165   8.755  0.00  0.00     0.275 HD
ENDBRANCH  19  21
BRANCH  19  25
ATOM     25  CB  ALA d   1      -7.803  -1.577   5.448  0.00  0.00    -0.042 C 
ATOM     26  H5  ALA d   1      -8.430  -2.032   4.667  0.00  0.00     0.030 H 
ATOM     27  H6  ALA d   1      -6.830  -2.090   5.483  0.00  0.00     0.030 H 
ATOM     28  H7  ALA d   1      -7.649  -0.512   5.220  0.00  0.00     0.030 H 
ENDBRANCH  19  25
ENDBRANCH  16  19
ENDBRANCH  13  15
BRANCH  13  29
ATOM     29  CB  2MR d   1     -11.848  -5.218   6.750  0.00  0.00    -0.036 C 
ATOM     30  H10 2MR d   1     -12.003  -6.199   6.276  0.00  0.00     0.036 H 
ATOM     31  H11 2MR d   1     -12.202  -4.425   6.075  0.00  0.00     0.036 H 
BRANCH  29  32
ATOM     32  CG  2MR d   1     -12.693  -5.170   8.013  0.00  0.00    -0.048 C 
ATOM     33  H12 2MR d   1     -12.143  -4.629   8.797  0.00  0.00     0.035 H 
ATOM     34  H13 2MR d   1     -12.900  -6.196   8.351  0.00  0.00     0.035 H 
BRANCH  32  35
ATOM     35  CD  2MR d   1     -14.010  -4.456   7.738  0.00  0.00     0.009 C 
ATOM     36  H14 2MR d   1     -13.794  -3.515   7.210  0.00  0.00     0.064 H 
ATOM     37  H15 2MR d   1     -14.495  -4.234   8.700  0.00  0.00     0.064 H 
BRANCH  35  38
ATOM     38  NE  2MR d   1     -14.935  -5.247   6.921  0.00  0.00    -0.227 N 
ATOM     39  CZ  2MR d   1     -16.064  -4.874   6.232  0.00  0.00     0.668 C 
ATOM     40  NH1 2MR d   1     -16.689  -5.854   5.575  0.00  0.00    -0.231 N 
ATOM     41  NH2 2MR d   1     -16.608  -3.605   6.153  0.00  0.00    -0.231 N 
ATOM     42  H17 2MR d   1     -16.316  -6.814   5.607  0.00  0.00     0.177 HD
ATOM     43  H21 2MR d   1     -17.463  -3.508   5.587  0.00  0.00     0.177 HD
ATOM     44  H16 2MR d   1     -14.700  -6.247   6.852  0.00  0.00     0.177 HD
BRANCH  40  45
ATOM     45  CQ1 2MR d   1     -17.927  -5.562   4.794  0.00  0.00    -0.005 C 
ATOM     46  H18 2MR d   1     -18.293  -6.488   4.327  0.00  0.00     0.057 H 
ATOM     47  H19 2MR d   1     -17.701  -4.822   4.012  0.00  0.00     0.057 H 
ATOM     48  H20 2MR d   1     -18.699  -5.161   5.467  0.00  0.00     0.057 H 
ENDBRANCH  40  45
BRANCH  41  49
ATOM     49  CQ2 2MR d   1     -16.109  -2.394   6.779  0.00  0.00    -0.005 C 
ATOM     50  H22 2MR d   1     -16.767  -1.551   6.522  0.00  0.00     0.057 H 
ATOM     51  H23 2MR d   1     -15.091  -2.188   6.418  0.00  0.00     0.057 H 
ATOM     52  H24 2MR d   1     -16.091  -2.526   7.871  0.00  0.00     0.057 H 
ENDBRANCH  41  49
ENDBRANCH  35  38
ENDBRANCH  32  35
ENDBRANCH  29  32
ENDBRANCH  13  29
ENDBRANCH  10  13
ENDBRANCH   7   9
BRANCH   7  53
ATOM     53  CB  THR d   1      -6.829  -7.657   5.665  0.00  0.00     0.060 C 
ATOM     54  H27 THR d   1      -6.295  -8.346   4.994  0.00  0.00     0.086 H 
BRANCH  53  55
ATOM     55  OG1 THR d   1      -6.396  -7.884   7.013  0.00  0.00    -0.393 OA
ATOM     56  H28 THR d   1      -6.867  -7.302   7.598  0.00  0.00     0.210 HD
ENDBRANCH  53  55
BRANCH  53  57
ATOM     57  CG2 THR d   1      -6.509  -6.218   5.252  0.00  0.00    -0.050 C 
ATOM     58  H29 THR d   1      -5.426  -6.046   5.332  0.00  0.00     0.031 H 
ATOM     59  H30 THR d   1      -7.041  -5.519   5.914  0.00  0.00     0.031 H 
ATOM     60  H31 THR d   1      -6.830  -6.055   4.213  0.00  0.00     0.031 H 
ENDBRANCH  53  57
ENDBRANCH   7  53
ENDBRANCH   4   7
ENDBRANCH   1   3
BRANCH   1  61
ATOM     61  CB  MLY d   1      -9.122 -12.315   4.216  0.00  0.00    -0.038 C 
ATOM     62  H34 MLY d   1      -9.039 -13.410   4.276  0.00  0.00     0.036 H 
ATOM     63  H35 MLY d   1      -8.832 -11.979   3.209  0.00  0.00     0.036 H 
BRANCH  61  64
ATOM     64  CG  MLY d   1     -10.581 -11.944   4.430  0.00  0.00    -0.061 C 
ATOM     65  H36 MLY d   1     -10.668 -10.857   4.574  0.00  0.00     0.033 H 
ATOM     66  H37 MLY d   1     -10.967 -12.463   5.319  0.00  0.00     0.033 H 
BRANCH  64  67
ATOM     67  CD  MLY d   1     -11.382 -12.362   3.208  0.00  0.00    -0.042 C 
ATOM     68  H38 MLY d   1     -11.093 -13.387   2.933  0.00  0.00     0.035 H 
ATOM     69  H39 MLY d   1     -11.142 -11.679   2.380  0.00  0.00     0.035 H 
BRANCH  67  70
ATOM     70  CE  MLY d   1     -12.881 -12.328   3.444  0.00  0.00     0.083 C 
ATOM     71  H40 MLY d   1     -13.171 -11.302   3.716  0.00  0.00     0.075 H 
ATOM     72  H41 MLY d   1     -13.121 -13.009   4.274  0.00  0.00     0.075 H 
BRANCH  70  73
ATOM     73  NZ  MLY d   1     -13.673 -12.746   2.234  0.00  0.00    -0.079 N 
ATOM     74  H42 MLY d   1     -14.615 -12.822   2.584  0.00  0.00     0.278 HD
BRANCH  73  75
ATOM     75  CH1 MLY d   1     -13.760 -11.760   1.116  0.00  0.00     0.066 C 
ATOM     76  H43 MLY d   1     -14.362 -12.184   0.299  0.00  0.00     0.068 H 
ATOM     77  H44 MLY d   1     -12.749 -11.534   0.747  0.00  0.00     0.068 H 
ATOM     78  H45 MLY d   1     -14.234 -10.836   1.478  0.00  0.00     0.068 H 
ENDBRANCH  73  75
BRANCH  73  79
ATOM     79  CH2 MLY d   1     -13.358 -14.105   1.673  0.00  0.00     0.066 C 
ATOM     80  H46 MLY d   1     -13.293 -14.834   2.494  0.00  0.00     0.068 H 
ATOM     81  H47 MLY d   1     -12.397 -14.068   1.139  0.00  0.00     0.068 H 
ATOM     82  H48 MLY d   1     -14.153 -14.407   0.976  0.00  0.00     0.068 H 
ENDBRANCH  73  79
ENDBRANCH  70  73
ENDBRANCH  67  70
ENDBRANCH  64  67
ENDBRANCH  61  64
ENDBRANCH   1  61
BRANCH   1  83
ATOM     83  C   MLY d   1      -6.765 -12.342   4.970  0.00  0.00     0.241 C 
ATOM     84  O   MLY d   1      -6.028 -11.918   4.094  0.00  0.00    -0.271 OA
ATOM     85  N   GLN d   1      -6.443 -13.367   5.747  0.00  0.00    -0.346 N 
ATOM     86  H49 GLN d   1      -7.091 -13.668   6.446  0.00  0.00     0.163 HD
BRANCH  85  87
ATOM     87  CA  GLN d   1      -5.174 -14.068   5.613  0.00  0.00     0.090 C 
ATOM     88  H50 GLN d   1      -5.144 -14.854   6.382  0.00  0.00     0.087 H 
BRANCH  87  89
ATOM     89  C   GLN d   1      -3.963 -13.164   5.820  0.00  0.00     0.241 C 
ATOM     90  O   GLN d   1      -2.970 -13.287   5.115  0.00  0.00    -0.271 OA
ATOM     91  N   THR d   1      -4.048 -12.252   6.781  0.00  0.00    -0.344 N 
ATOM     92  H57 THR d   1      -4.891 -12.168   7.312  0.00  0.00     0.163 HD
BRANCH  91  93
ATOM     93  CA  THR d   1      -2.923 -11.373   7.068  0.00  0.00     0.113 C 
ATOM     94  H58 THR d   1      -2.126 -11.578   6.339  0.00  0.00     0.091 H 
BRANCH  93  95
ATOM     95  C   THR d   1      -2.400 -11.652   8.472  0.00  0.00     0.243 C 
ATOM     96  O   THR d   1      -1.535 -10.947   8.966  0.00  0.00    -0.271 OA
ATOM     97  N   ALA d   1      -2.936 -12.691   9.104  0.00  0.00    -0.346 N 
ATOM     98  H64 ALA d   1      -3.643 -13.229   8.645  0.00  0.00     0.163 HD
BRANCH  97  99
ATOM     99  CA  ALA d   1      -2.518 -13.067  10.452  0.00  0.00     0.086 C 
ATOM    100  H65 ALA d   1      -2.307 -12.155  11.030  0.00  0.00     0.086 H 
BRANCH  99 101
ATOM    101  C   ALA d   1      -1.256 -13.913  10.379  0.00  0.00     0.240 C 
ATOM    102  O   ALA d   1      -1.263 -14.989   9.802  0.00  0.00    -0.271 OA
ATOM    103  N   ALA d   1      -0.177 -13.418  10.976  0.00  0.00    -0.345 N 
ATOM    104  H69 ALA d   1      -0.243 -12.539  11.447  0.00  0.00     0.163 HD
BRANCH 103 105
ATOM    105  CA  ALA d   1       1.101 -14.122  10.963  0.00  0.00     0.093 C 
ATOM    106  H70 ALA d   1       1.573 -13.955   9.984  0.00  0.00     0.089 H 
BRANCH 105 107
ATOM    107  C   ALA d   1       0.931 -15.626  11.156  0.00  0.00     0.196 C 
ATOM    108  O   ALA d   1       0.033 -16.031  11.926  0.00  0.00    -0.646 OA
ATOM    109  OXT ALA d   1       1.709 -16.386  10.542  0.00  0.00    -0.646 OA
ENDBRANCH 105 107
BRANCH 105 110
ATOM    110  CB  ALA d   1       2.018 -13.554  12.048  0.00  0.00    -0.048 C 
ATOM    111  H71 ALA d   1       2.979 -14.089  12.033  0.00  0.00     0.030 H 
ATOM    112  H72 ALA d   1       1.544 -13.681  13.032  0.00  0.00     0.030 H 
ATOM    113  H73 ALA d   1       2.191 -12.484  11.859  0.00  0.00     0.030 H 
ENDBRANCH 105 110
ENDBRANCH 103 105
ENDBRANCH  99 101
BRANCH  99 114
ATOM    114  CB  ALA d   1      -3.626 -13.844  11.142  0.00  0.00    -0.049 C 
ATOM    115  H66 ALA d   1      -3.302 -14.123  12.156  0.00  0.00     0.030 H 
ATOM    116  H67 ALA d   1      -3.850 -14.754  10.566  0.00  0.00     0.030 H 
ATOM    117  H68 ALA d   1      -4.529 -13.218  11.204  0.00  0.00     0.030 H 
ENDBRANCH  99 114
ENDBRANCH  97  99
ENDBRANCH  93  95
BRANCH  93 118
ATOM    118  CB  THR d   1      -3.309  -9.886   6.970  0.00  0.00     0.060 C 
ATOM    119  H59 THR d   1      -2.470  -9.274   7.332  0.00  0.00     0.086 H 
BRANCH 118 120
ATOM    120  OG1 THR d   1      -4.455  -9.640   7.784  0.00  0.00    -0.393 OA
ATOM    121  H60 THR d   1      -4.694  -8.722   7.724  0.00  0.00     0.210 HD
ENDBRANCH 118 120
BRANCH 118 122
ATOM    122  CG2 THR d   1      -3.613  -9.504   5.532  0.00  0.00    -0.050 C 
ATOM    123  H61 THR d   1      -3.886  -8.439   5.485  0.00  0.00     0.031 H 
ATOM    124  H62 THR d   1      -4.449 -10.114   5.160  0.00  0.00     0.031 H 
ATOM    125  H63 THR d   1      -2.724  -9.682   4.909  0.00  0.00     0.031 H 
ENDBRANCH 118 122
ENDBRANCH  93 118
ENDBRANCH  91  93
ENDBRANCH  87  89
BRANCH  87 126
ATOM    126  CB  GLN d   1      -5.073 -14.732   4.234  0.00  0.00    -0.030 C 
ATOM    127  H51 GLN d   1      -4.130 -15.296   4.192  0.00  0.00     0.037 H 
ATOM    128  H52 GLN d   1      -5.061 -13.940   3.471  0.00  0.00     0.037 H 
BRANCH 126 129
ATOM    129  CG  GLN d   1      -6.213 -15.687   3.910  0.00  0.00     0.011 C 
ATOM    130  H53 GLN d   1      -5.995 -16.187   2.955  0.00  0.00     0.047 H 
ATOM    131  H54 GLN d   1      -7.144 -15.108   3.817  0.00  0.00     0.047 H 
BRANCH 129 132
ATOM    132  CD  GLN d   1      -6.401 -16.743   4.982  0.00  0.00     0.215 C 
ATOM    133  OE1 GLN d   1      -5.437 -17.328   5.466  0.00  0.00    -0.274 OA
ATOM    134  NE2 GLN d   1      -7.652 -16.997   5.349  0.00  0.00    -0.370 N 
ATOM    135  H55 GLN d   1      -7.837 -17.684   6.052  0.00  0.00     0.159 HD
ATOM    136  H56 GLN d   1      -8.409 -16.502   4.922  0.00  0.00     0.159 HD
ENDBRANCH 129 132
ENDBRANCH 126 129
ENDBRANCH  87 126
ENDBRANCH  85  87
ENDBRANCH   1  83
TORSDOF 41
