REMARK  11 active torsions:
REMARK  status: ('A' for Active; 'I' for Inactive)
REMARK    1  A    between atoms: PBE_2  and  OAS_5 
REMARK    2  A    between atoms: OAS_5  and  PBG_6 
REMARK    3  A    between atoms: PBG_6  and  OAT_9 
REMARK    4  A    between atoms: OAT_9  and  PBF_10 
REMARK    5  A    between atoms: PBF_10  and  O5'_13 
REMARK    6  A    between atoms: O5'_13  and  C5'_14 
REMARK    7  A    between atoms: C5'_14  and  C4'_15 
REMARK    8  A    between atoms: C3'_17  and  O3'_18 
REMARK    9  A    between atoms: C2'_19  and  O2'_20 
REMARK   10  A    between atoms: C1'_21  and  NBC_22 
REMARK   11  A    between atoms: NBD_24  and  CAA_25 
ROOT
ATOM      1  C4' NON d   1      36.057   8.371  58.092  0.00  0.00     0.089 C 
ATOM      2  O4' NON d   1      34.635   8.287  58.311  0.00  0.00    -0.353 OA
ATOM      3  C3' NON d   1      36.225   7.767  56.695  0.00  0.00     0.091 C 
ATOM      4  C2' NON d   1      35.315   6.568  56.806  0.00  0.00     0.105 C 
ATOM      5  C1' NON d   1      34.093   7.234  57.417  0.00  0.00     0.139 C 
ATOM      6  H3  NON d   1      36.631   7.800  58.836  0.00  0.00     0.090 H 
ATOM      7  H4  NON d   1      35.921   8.458  55.895  0.00  0.00     0.091 H 
ATOM      8  H6  NON d   1      35.124   6.076  55.841  0.00  0.00     0.093 H 
ATOM      9  H8  NON d   1      33.543   6.500  58.023  0.00  0.00     0.122 H 
ENDROOT
BRANCH   5  10
ATOM     10  NBC NON d   1      33.142   7.757  56.356  0.00  0.00    -0.295 N 
ATOM     11  CAN NON d   1      32.921   9.049  56.002  0.00  0.00     0.049 A 
ATOM     12  NBD NON d   1      31.971   9.057  55.042  0.00  0.00    -0.340 N 
ATOM     13  H9  NON d   1      33.420   9.923  56.418  0.00  0.00     0.141 H 
ATOM     14  CAX NON d   1      31.581   7.795  54.768  0.00  0.00     0.151 A 
ATOM     15  CAW NON d   1      32.341   6.972  55.616  0.00  0.00     0.184 A 
ATOM     16  CAV NON d   1      30.675   7.206  53.862  0.00  0.00     0.290 A 
ATOM     17  CAM NON d   1      32.199   5.589  55.602  0.00  0.00    -0.044 NA
ATOM     18  CAU NON d   1      31.298   5.014  54.728  0.00  0.00     0.703 A 
ATOM     19  NAB NON d   1      31.178   3.689  54.713  0.00  0.00    -0.233 N 
ATOM     20  NAP NON d   1      30.532   5.814  53.853  0.00  0.00    -0.153 N 
ATOM     21  H13 NON d   1      31.741   3.114  55.355  0.00  0.00     0.174 HD
ATOM     22  H14 NON d   1      30.522   3.239  54.059  0.00  0.00     0.174 HD
ATOM     23  H15 NON d   1      29.884   5.384  53.224  0.00  0.00     0.187 HD
ATOM     24  OAC NON d   1      29.987   7.866  53.090  0.00  0.00    -0.265 OA
BRANCH  12  25
ATOM     25  CAA NON d   1      31.461  10.276  54.384  0.00  0.00    -0.013 C 
ATOM     26  H10 NON d   1      31.960  11.159  54.811  0.00  0.00     0.057 H 
ATOM     27  H11 NON d   1      30.376  10.354  54.546  0.00  0.00     0.057 H 
ATOM     28  H12 NON d   1      31.668  10.224  53.305  0.00  0.00     0.057 H 
ENDBRANCH  12  25
ENDBRANCH   5  10
BRANCH   4  29
ATOM     29  O2' NON d   1      35.803   5.658  57.775  0.00  0.00    -0.388 OA
ATOM     30  H7  NON d   1      36.670   5.364  57.523  0.00  0.00     0.210 HD
ENDBRANCH   4  29
BRANCH   1  31
ATOM     31  C5' NON d   1      36.412   9.839  58.174  0.00  0.00     0.058 C 
ATOM     32  H1  NON d   1      35.961  10.256  59.087  0.00  0.00     0.079 H 
ATOM     33  H2  NON d   1      37.507   9.930  58.232  0.00  0.00     0.079 H 
BRANCH  31  34
ATOM     34  O5' NON d   1      35.955  10.598  57.058  0.00  0.00    -0.287 OA
BRANCH  34  35
ATOM     35  PBF NON d   1      35.220  12.025  57.225  0.00  0.00     0.417 P 
ATOM     36  OAK NON d   1      34.478  12.421  55.821  0.00  0.00    -0.624 OA
ATOM     37  OAE NON d   1      34.308  12.067  58.400  0.00  0.00    -0.624 OA
BRANCH  35  38
ATOM     38  OAT NON d   1      36.328  13.159  57.302  0.00  0.00    -0.180 OA
BRANCH  38  39
ATOM     39  PBG NON d   1      37.334  13.331  58.492  0.00  0.00     0.428 P 
ATOM     40  OAL NON d   1      36.709  12.706  59.842  0.00  0.00    -0.624 OA
ATOM     41  OAF NON d   1      37.742  14.749  58.586  0.00  0.00    -0.624 OA
BRANCH  39  42
ATOM     42  OAS NON d   1      38.550  12.313  58.241  0.00  0.00    -0.173 OA
BRANCH  42  43
ATOM     43  PBE NON d   1      39.809  12.621  57.209  0.00  0.00     0.431 P 
ATOM     44  OAJ NON d   1      39.360  13.840  56.203  0.00  0.00    -0.616 OA
ATOM     45  OAD NON d   1      41.013  13.333  58.094  0.00  0.00    -0.616 OA
ATOM     46  OAI NON d   1      40.204  11.381  56.451  0.00  0.00    -0.616 OA
ENDBRANCH  42  43
ENDBRANCH  39  42
ENDBRANCH  38  39
ENDBRANCH  35  38
ENDBRANCH  34  35
ENDBRANCH  31  34
ENDBRANCH   1  31
BRANCH   3  47
ATOM     47  O3' NON d   1      37.545   7.345  56.512  0.00  0.00    -0.390 OA
ATOM     48  H5  NON d   1      37.760   6.689  57.165  0.00  0.00     0.210 HD
ENDBRANCH   3  47
TORSDOF 11
