REMARK  7 active torsions:
REMARK  status: ('A' for Active; 'I' for Inactive)
REMARK    1  A    between atoms: C10_10  and  C19_19 
REMARK    2  A    between atoms: C11_11  and  O2_23 
REMARK    3  A    between atoms: C13_13  and  C18_18 
REMARK    4  A    between atoms: C17_17  and  C20_20 
REMARK    5  A    between atoms: C17_17  and  O3_24 
REMARK    6  A    between atoms: C20_20  and  C21_21 
REMARK    7  A    between atoms: C21_21  and  O5_26 
ROOT
ATOM      1  C1  HCY d   1      48.582 -15.449  11.648  0.00  0.00    -0.048 C 
ATOM      2  C2  HCY d   1      48.205 -15.916  13.053  0.00  0.00    -0.005 C 
ATOM      3  C3  HCY d   1      47.845 -14.742  13.942  0.00  0.00     0.149 C 
ATOM      4  C4  HCY d   1      47.399 -13.470  13.357  0.00  0.00    -0.036 C 
ATOM      5  C5  HCY d   1      47.332 -13.277  12.033  0.00  0.00    -0.068 C 
ATOM      6  C6  HCY d   1      46.739 -11.979  11.562  0.00  0.00    -0.043 C 
ATOM      7  C7  HCY d   1      47.603 -11.330  10.502  0.00  0.00    -0.057 C 
ATOM      8  C8  HCY d   1      48.093 -12.323   9.450  0.00  0.00    -0.043 C 
ATOM      9  C9  HCY d   1      48.721 -13.592  10.034  0.00  0.00    -0.015 C 
ATOM     10  C10 HCY d   1      47.778 -14.327  11.019  0.00  0.00    -0.014 C 
ATOM     11  C11 HCY d   1      49.390 -14.505   8.967  0.00  0.00     0.041 C 
ATOM     12  C12 HCY d   1      50.320 -13.715   8.027  0.00  0.00    -0.030 C 
ATOM     13  C13 HCY d   1      49.703 -12.431   7.476  0.00  0.00     0.001 C 
ATOM     14  C14 HCY d   1      49.153 -11.610   8.635  0.00  0.00    -0.040 C 
ATOM     15  C15 HCY d   1      48.745 -10.316   7.986  0.00  0.00    -0.058 C 
ATOM     16  C16 HCY d   1      49.727 -10.114   6.843  0.00  0.00    -0.028 C 
ATOM     17  C17 HCY d   1      50.587 -11.349   6.806  0.00  0.00     0.128 C 
ATOM     18  O1  HCY d   1      47.923 -14.828  15.158  0.00  0.00    -0.293 OA
ATOM     19  H1  HCY d   1      48.499 -16.321  10.982  0.00  0.00     0.035 H 
ATOM     20  H2  HCY d   1      49.630 -15.116  11.687  0.00  0.00     0.035 H 
ATOM     21  H3  HCY d   1      49.058 -16.452  13.494  0.00  0.00     0.044 H 
ATOM     22  H4  HCY d   1      47.341 -16.594  12.986  0.00  0.00     0.044 H 
ATOM     23  H5  HCY d   1      47.113 -12.657  14.022  0.00  0.00     0.089 H 
ATOM     24  H6  HCY d   1      46.649 -11.295  12.419  0.00  0.00     0.039 H 
ATOM     25  H7  HCY d   1      45.741 -12.173  11.141  0.00  0.00     0.039 H 
ATOM     26  H8  HCY d   1      48.477 -10.876  10.991  0.00  0.00     0.034 H 
ATOM     27  H9  HCY d   1      47.015 -10.547  10.000  0.00  0.00     0.034 H 
ATOM     28  H10 HCY d   1      47.248 -12.610   8.807  0.00  0.00     0.041 H 
ATOM     29  H11 HCY d   1      49.555 -13.236  10.657  0.00  0.00     0.046 H 
ATOM     30  H12 HCY d   1      50.010 -15.230   9.514  0.00  0.00     0.083 H 
ATOM     31  H13 HCY d   1      50.585 -14.363   7.178  0.00  0.00     0.038 H 
ATOM     32  H14 HCY d   1      51.230 -13.450   8.584  0.00  0.00     0.038 H 
ATOM     33  H15 HCY d   1      49.977 -11.395   9.332  0.00  0.00     0.042 H 
ATOM     34  H16 HCY d   1      48.814  -9.486   8.704  0.00  0.00     0.033 H 
ATOM     35  H17 HCY d   1      47.716 -10.385   7.603  0.00  0.00     0.033 H 
ATOM     36  H18 HCY d   1      50.346  -9.223   7.025  0.00  0.00     0.038 H 
ATOM     37  H19 HCY d   1      49.187  -9.997   5.892  0.00  0.00     0.038 H 
ENDROOT
BRANCH  17  38
ATOM     38  C20 HCY d   1      51.057 -11.614   5.387  0.00  0.00     0.184 C 
ATOM     39  O4  HCY d   1      50.665 -10.940   4.442  0.00  0.00    -0.292 OA
BRANCH  38  40
ATOM     40  C21 HCY d   1      52.067 -12.691   5.159  0.00  0.00     0.074 C 
ATOM     41  H26 HCY d   1      51.675 -13.646   5.540  0.00  0.00     0.086 H 
ATOM     42  H27 HCY d   1      52.997 -12.438   5.689  0.00  0.00     0.086 H 
BRANCH  40  43
ATOM     43  O5  HCY d   1      52.337 -12.814   3.761  0.00  0.00    -0.393 OA
ATOM     44  H30 HCY d   1      51.534 -13.034   3.303  0.00  0.00     0.209 HD
ENDBRANCH  40  43
ENDBRANCH  38  40
ENDBRANCH  17  38
BRANCH  17  45
ATOM     45  O3  HCY d   1      51.750 -11.038   7.605  0.00  0.00    -0.381 OA
ATOM     46  H29 HCY d   1      52.334 -11.787   7.618  0.00  0.00     0.211 HD
ENDBRANCH  17  45
BRANCH  13  47
ATOM     47  C18 HCY d   1      48.583 -12.842   6.525  0.00  0.00    -0.065 C 
ATOM     48  H20 HCY d   1      47.958 -13.610   7.005  0.00  0.00     0.028 H 
ATOM     49  H21 HCY d   1      49.018 -13.248   5.600  0.00  0.00     0.028 H 
ATOM     50  H22 HCY d   1      47.965 -11.964   6.285  0.00  0.00     0.028 H 
ENDBRANCH  13  47
BRANCH  11  51
ATOM     51  O2  HCY d   1      48.447 -15.256   8.184  0.00  0.00    -0.395 OA
ATOM     52  H28 HCY d   1      48.916 -15.859   7.619  0.00  0.00     0.210 HD
ENDBRANCH  11  51
BRANCH  10  53
ATOM     53  C19 HCY d   1      46.521 -14.861  10.327  0.00  0.00    -0.065 C 
ATOM     54  H23 HCY d   1      45.886 -15.373  11.065  0.00  0.00     0.028 H 
ATOM     55  H24 HCY d   1      46.810 -15.570   9.538  0.00  0.00     0.028 H 
ATOM     56  H25 HCY d   1      45.964 -14.024   9.881  0.00  0.00     0.028 H 
ENDBRANCH  10  53
TORSDOF 7
