REMARK  5 active torsions:
REMARK  status: ('A' for Active; 'I' for Inactive)
REMARK    1  A    between atoms: C8_2  and  N9_3 
REMARK    2  A    between atoms: N9_3  and  C10_8 
REMARK    3  A    between atoms: C5_4  and  C6_7 
REMARK    4  A    between atoms: C4_5  and  C3_6 
REMARK    5  A    between atoms: C3_6  and  C2_15 
ROOT
ATOM      1  N7  P4T d   1      41.896  69.686  64.712  0.00  0.00    -0.228 NA
ATOM      2  C8  P4T d   1      40.573  69.904  64.597  0.00  0.00     0.172 A 
ATOM      3  C5  P4T d   1      42.629  70.701  64.177  0.00  0.00     0.054 A 
ATOM      4  C4  P4T d   1      41.721  71.727  63.590  0.00  0.00     0.078 A 
ATOM      5  S4  P4T d   1      40.045  71.336  63.775  0.00  0.00    -0.046 SA
ENDROOT
BRANCH   2   6
ATOM      6  N9  P4T d   1      39.592  69.051  65.034  0.00  0.00    -0.335 N 
ATOM      7  H1  P4T d   1      38.634  69.371  64.833  0.00  0.00     0.168 HD
BRANCH   6   8
ATOM      8  C10 P4T d   1      39.659  67.823  65.705  0.00  0.00     0.034 A 
ATOM      9  C16 P4T d   1      38.505  67.376  66.372  0.00  0.00    -0.057 A 
ATOM     10  C15 P4T d   1      38.507  66.155  67.075  0.00  0.00    -0.081 A 
ATOM     11  H5  P4T d   1      37.604  67.978  66.345  0.00  0.00     0.086 H 
ATOM     12  C14 P4T d   1      39.659  65.373  67.082  0.00  0.00    -0.083 A 
ATOM     13  H6  P4T d   1      37.620  65.828  67.605  0.00  0.00     0.083 H 
ATOM     14  C13 P4T d   1      40.794  65.816  66.403  0.00  0.00    -0.081 A 
ATOM     15  H7  P4T d   1      39.674  64.427  67.611  0.00  0.00     0.083 H 
ATOM     16  C12 P4T d   1      40.807  67.034  65.709  0.00  0.00    -0.057 A 
ATOM     17  H8  P4T d   1      41.688  65.203  66.412  0.00  0.00     0.083 H 
ATOM     18  H9  P4T d   1      41.698  67.357  65.183  0.00  0.00     0.086 H 
ENDBRANCH   6   8
ENDBRANCH   2   6
BRANCH   3  19
ATOM     19  C6  P4T d   1      44.127  70.742  64.183  0.00  0.00    -0.034 C 
ATOM     20  H2  P4T d   1      44.471  71.664  63.691  0.00  0.00     0.035 H 
ATOM     21  H3  P4T d   1      44.520  69.869  63.641  0.00  0.00     0.035 H 
ATOM     22  H4  P4T d   1      44.490  70.723  65.221  0.00  0.00     0.035 H 
ENDBRANCH   3  19
BRANCH   4  23
ATOM     23  C3  P4T d   1      42.022  73.031  62.898  0.00  0.00     0.164 C 
ATOM     24  O8  P4T d   1      41.107  73.735  62.468  0.00  0.00    -0.292 OA
BRANCH  23  25
ATOM     25  C2  P4T d   1      43.448  73.444  62.732  0.00  0.00    -0.016 C 
ATOM     26  H10 P4T d   1      43.491  74.412  62.211  0.00  0.00     0.038 H 
ATOM     27  H11 P4T d   1      43.983  72.686  62.141  0.00  0.00     0.038 H 
ATOM     28  H12 P4T d   1      43.920  73.539  63.721  0.00  0.00     0.038 H 
ENDBRANCH  23  25
ENDBRANCH   4  23
TORSDOF 5
