REMARK  7 active torsions:
REMARK  status: ('A' for Active; 'I' for Inactive)
REMARK       I    between atoms: C27_2  and  N29_3 
REMARK    1  A    between atoms: C27_2  and  C26_5 
REMARK    2  A    between atoms: N29_3  and  O30_4 
REMARK    3  A    between atoms: C26_5  and  C25_6 
REMARK    4  A    between atoms: C26_5  and  N1_17 
REMARK    5  A    between atoms: C25_6  and  C15_7 
REMARK    6  A    between atoms: N1_17  and  S2_18 
REMARK    7  A    between atoms: S2_18  and  C3_21 
ROOT
ATOM      1  C26 GVR d   1      57.209  40.042  17.624  0.00  0.00     0.102 C 
ATOM      2  H3  GVR d   1      57.171  38.995  17.959  0.00  0.00     0.089 H 
ENDROOT
BRANCH   1   3
ATOM      3  C27 GVR d   1      57.270  40.912  18.844  0.00  0.00     0.264 C 
ATOM      4  O28 GVR d   1      56.626  40.632  19.848  0.00  0.00    -0.269 OA
ATOM      5  N29 GVR d   1      58.036  41.994  18.838  0.00  0.00    -0.236 N 
ATOM      6  H1  GVR d   1      58.571  42.250  18.033  0.00  0.00     0.197 HD
BRANCH   5   7
ATOM      7  O30 GVR d   1      58.064  42.764  20.009  0.00  0.00    -0.287 OA
ATOM      8  H2  GVR d   1      58.643  43.507  19.884  0.00  0.00     0.244 HD
ENDBRANCH   5   7
ENDBRANCH   1   3
BRANCH   1   9
ATOM      9  C25 GVR d   1      55.978  40.333  16.784  0.00  0.00    -0.013 C 
ATOM     10  H4  GVR d   1      56.118  41.292  16.264  0.00  0.00     0.043 H 
ATOM     11  H5  GVR d   1      55.101  40.399  17.445  0.00  0.00     0.043 H 
BRANCH   9  12
ATOM     12  C15 GVR d   1      55.739  39.243  15.754  0.00  0.00    -0.055 A 
ATOM     13  C16 GVR d   1      55.790  39.551  14.394  0.00  0.00    -0.076 A 
ATOM     14  C17 GVR d   1      55.554  38.572  13.430  0.00  0.00    -0.072 A 
ATOM     15  H6  GVR d   1      56.016  40.565  14.083  0.00  0.00     0.084 H 
ATOM     16  C20 GVR d   1      55.252  37.272  13.818  0.00  0.00    -0.026 A 
ATOM     17  H7  GVR d   1      55.606  38.825  12.377  0.00  0.00     0.084 H 
ATOM     18  C21 GVR d   1      55.011  36.258  12.888  0.00  0.00    -0.072 A 
ATOM     19  C19 GVR d   1      55.194  36.944  15.258  0.00  0.00    -0.025 A 
ATOM     20  C22 GVR d   1      54.707  34.975  13.338  0.00  0.00    -0.082 A 
ATOM     21  H8  GVR d   1      55.060  36.468  11.826  0.00  0.00     0.084 H 
ATOM     22  C23 GVR d   1      54.662  34.665  14.698  0.00  0.00    -0.082 A 
ATOM     23  H11 GVR d   1      54.500  34.197  12.612  0.00  0.00     0.083 H 
ATOM     24  C24 GVR d   1      54.895  35.649  15.663  0.00  0.00    -0.072 A 
ATOM     25  H10 GVR d   1      54.444  33.650  15.009  0.00  0.00     0.083 H 
ATOM     26  H9  GVR d   1      54.843  35.404  16.718  0.00  0.00     0.084 H 
ATOM     27  C18 GVR d   1      55.434  37.957  16.178  0.00  0.00    -0.066 A 
ATOM     28  H12 GVR d   1      55.383  37.741  17.239  0.00  0.00     0.085 H 
ENDBRANCH   9  12
ENDBRANCH   1   9
BRANCH   1  29
ATOM     29  N1  GVR d   1      58.358  40.214  16.771  0.00  0.00    -0.301 N 
ATOM     30  H13 GVR d   1      58.376  40.944  16.088  0.00  0.00     0.173 HD
BRANCH  29  31
ATOM     31  S2  GVR d   1      59.588  39.237  16.926  0.00  0.00     0.259 S 
ATOM     32  O13 GVR d   1      59.955  39.158  18.310  0.00  0.00    -0.201 OA
ATOM     33  O14 GVR d   1      60.653  39.742  16.107  0.00  0.00    -0.201 OA
BRANCH  31  34
ATOM     34  C3  GVR d   1      59.135  37.791  16.364  0.00  0.00     0.080 A 
ATOM     35  C4  GVR d   1      58.899  37.660  14.987  0.00  0.00    -0.059 A 
ATOM     36  C5  GVR d   1      58.508  36.440  14.422  0.00  0.00    -0.071 A 
ATOM     37  H14 GVR d   1      59.022  38.525  14.345  0.00  0.00     0.085 H 
ATOM     38  C8  GVR d   1      58.347  35.315  15.222  0.00  0.00    -0.026 A 
ATOM     39  H15 GVR d   1      58.330  36.373  13.355  0.00  0.00     0.084 H 
ATOM     40  C9  GVR d   1      57.963  34.086  14.688  0.00  0.00    -0.072 A 
ATOM     41  C7  GVR d   1      58.591  35.438  16.678  0.00  0.00    -0.025 A 
ATOM     42  C10 GVR d   1      57.808  32.979  15.523  0.00  0.00    -0.082 A 
ATOM     43  H16 GVR d   1      57.785  33.990  13.623  0.00  0.00     0.084 H 
ATOM     44  C11 GVR d   1      58.024  33.090  16.896  0.00  0.00    -0.082 A 
ATOM     45  H20 GVR d   1      57.517  32.024  15.101  0.00  0.00     0.083 H 
ATOM     46  C12 GVR d   1      58.425  34.301  17.475  0.00  0.00    -0.072 A 
ATOM     47  H19 GVR d   1      57.879  32.222  17.528  0.00  0.00     0.083 H 
ATOM     48  H18 GVR d   1      58.607  34.357  18.542  0.00  0.00     0.084 H 
ATOM     49  C6  GVR d   1      58.979  36.675  17.205  0.00  0.00    -0.050 A 
ATOM     50  H17 GVR d   1      59.161  36.773  18.269  0.00  0.00     0.087 H 
ENDBRANCH  31  34
ENDBRANCH  29  31
ENDBRANCH   1  29
TORSDOF 7
