REMARK  6 active torsions:
REMARK  status: ('A' for Active; 'I' for Inactive)
REMARK    1  A    between atoms: P_1  and  O5'_5 
REMARK    2  A    between atoms: O5'_5  and  C5'_6 
REMARK    3  A    between atoms: C5'_6  and  C4'_7 
REMARK    4  A    between atoms: C3'_9  and  O3'_10 
REMARK    5  A    between atoms: C2'_11  and  O2'_12 
REMARK    6  A    between atoms: C1'_13  and  N9_14 
ROOT
ATOM      1  C4' AMP d   1     -11.806  -9.119   1.858  0.00  0.00     0.089 C 
ATOM      2  O4' AMP d   1     -10.694  -8.332   1.418  0.00  0.00    -0.353 OA
ATOM      3  C3' AMP d   1     -12.992  -8.172   1.973  0.00  0.00     0.091 C 
ATOM      4  C2' AMP d   1     -12.426  -6.805   1.862  0.00  0.00     0.105 C 
ATOM      5  C1' AMP d   1     -10.931  -7.005   1.921  0.00  0.00     0.139 C 
ATOM      6  H3  AMP d   1     -11.579  -9.574   2.833  0.00  0.00     0.090 H 
ATOM      7  H4  AMP d   1     -13.701  -8.360   1.154  0.00  0.00     0.091 H 
ATOM      8  H6  AMP d   1     -12.710  -6.336   0.909  0.00  0.00     0.093 H 
ATOM      9  H8  AMP d   1     -10.532  -6.886   2.939  0.00  0.00     0.122 H 
ENDROOT
BRANCH   5  10
ATOM     10  N9  AMP d   1     -10.369  -6.002   1.003  0.00  0.00    -0.294 N 
ATOM     11  C8  AMP d   1     -10.797  -5.737  -0.263  0.00  0.00     0.071 A 
ATOM     12  N7  AMP d   1     -10.063  -4.773  -0.844  0.00  0.00    -0.236 NA
ATOM     13  H9  AMP d   1     -11.632  -6.244  -0.745  0.00  0.00     0.144 H 
ATOM     14  C5  AMP d   1      -9.123  -4.425   0.067  0.00  0.00     0.149 A 
ATOM     15  C6  AMP d   1      -8.036  -3.432   0.076  0.00  0.00     0.155 A 
ATOM     16  C4  AMP d   1      -9.329  -5.228   1.276  0.00  0.00     0.167 A 
ATOM     17  N6  AMP d   1      -7.831  -2.656  -1.021  0.00  0.00    -0.382 N 
ATOM     18  N1  AMP d   1      -7.284  -3.368   1.222  0.00  0.00    -0.222 NA
ATOM     19  H10 AMP d   1      -7.073  -1.959  -1.024  0.00  0.00     0.157 HD
ATOM     20  H11 AMP d   1      -8.434  -2.765  -1.849  0.00  0.00     0.157 HD
ATOM     21  C2  AMP d   1      -7.541  -4.132   2.306  0.00  0.00     0.091 A 
ATOM     22  N3  AMP d   1      -8.515  -5.057   2.373  0.00  0.00    -0.222 NA
ATOM     23  H12 AMP d   1      -6.919  -3.990   3.183  0.00  0.00     0.146 H 
ENDBRANCH   5  10
BRANCH   4  24
ATOM     24  O2' AMP d   1     -12.914  -6.017   2.943  0.00  0.00    -0.388 OA
ATOM     25  H7  AMP d   1     -13.862  -5.978   2.902  0.00  0.00     0.210 HD
ENDBRANCH   4  24
BRANCH   1  26
ATOM     26  C5' AMP d   1     -12.158 -10.214   0.853  0.00  0.00     0.059 C 
ATOM     27  H1  AMP d   1     -11.333 -10.939   0.794  0.00  0.00     0.079 H 
ATOM     28  H2  AMP d   1     -13.076 -10.728   1.174  0.00  0.00     0.079 H 
BRANCH  26  29
ATOM     29  O5' AMP d   1     -12.366  -9.617  -0.433  0.00  0.00    -0.280 OA
BRANCH  29  30
ATOM     30  P   AMP d   1     -13.576 -10.195  -1.318  0.00  0.00     0.422 P 
ATOM     31  O1P AMP d   1     -14.853  -9.994  -0.519  0.00  0.00    -0.617 OA
ATOM     32  O2P AMP d   1     -13.263 -11.641  -1.520  0.00  0.00    -0.617 OA
ATOM     33  O3P AMP d   1     -13.529  -9.333  -2.562  0.00  0.00    -0.617 OA
ENDBRANCH  29  30
ENDBRANCH  26  29
ENDBRANCH   1  26
BRANCH   3  34
ATOM     34  O3' AMP d   1     -13.662  -8.313   3.203  0.00  0.00    -0.390 OA
ATOM     35  H5  AMP d   1     -14.393  -7.707   3.236  0.00  0.00     0.210 HD
ENDBRANCH   3  34
TORSDOF 6
