REMARK  10 active torsions:
REMARK  status: ('A' for Active; 'I' for Inactive)
REMARK    1  A    between atoms: C4_6  and  C5_7 
REMARK    2  A    between atoms: C6_8  and  S1_9 
REMARK    3  A    between atoms: S1_9  and  N1_12 
REMARK    4  A    between atoms: N1_12  and  C12_13 
REMARK    5  A    between atoms: N2_18  and  C15_19 
REMARK    6  A    between atoms: C27_22  and  N4_26 
REMARK    7  A    between atoms: C8_30  and  C10_31 
REMARK    8  A    between atoms: C10_31  and  N5_32 
REMARK    9  A    between atoms: N5_32  and  C11_33 
REMARK   10  A    between atoms: N5_32  and  C16_34 
ROOT
ATOM      1  C15 GSI d   1       7.057   4.315  20.345  0.00  0.00     0.076 A 
ATOM      2  C21 GSI d   1       6.965   2.929  20.635  0.00  0.00    -0.052 A 
ATOM      3  C24 GSI d   1       7.661   2.026  19.805  0.00  0.00    -0.054 A 
ATOM      4  C27 GSI d   1       8.411   2.481  18.705  0.00  0.00     0.043 A 
ATOM      5  C26 GSI d   1       8.505   3.865  18.423  0.00  0.00    -0.017 A 
ATOM      6  C22 GSI d   1       7.825   4.756  19.261  0.00  0.00     0.145 A 
ATOM      7  F1  GSI d   1       7.887   6.078  19.015  0.00  0.00    -0.204 F 
ATOM      8  H11 GSI d   1       6.375   2.574  21.472  0.00  0.00     0.087 H 
ATOM      9  H12 GSI d   1       7.617   0.964  20.018  0.00  0.00     0.087 H 
ATOM     10  H13 GSI d   1       9.087   4.224  17.582  0.00  0.00     0.091 H 
ENDROOT
BRANCH   1  11
ATOM     11  N2  GSI d   1       6.393   5.208  21.139  0.00  0.00    -0.313 N 
ATOM     12  C14 GSI d   1       4.973   5.114  21.443  0.00  0.00     0.005 C 
ATOM     13  C13 GSI d   1       4.583   6.459  22.064  0.00  0.00    -0.022 C 
ATOM     14  H9  GSI d   1       4.396   4.936  20.523  0.00  0.00     0.065 H 
ATOM     15  H10 GSI d   1       4.788   4.296  22.155  0.00  0.00     0.065 H 
ATOM     16  C12 GSI d   1       5.927   6.952  22.602  0.00  0.00     0.099 C 
ATOM     17  H7  GSI d   1       4.177   7.147  21.308  0.00  0.00     0.039 H 
ATOM     18  H8  GSI d   1       3.850   6.329  22.874  0.00  0.00     0.039 H 
ATOM     19  C50 GSI d   1       6.965   6.258  21.738  0.00  0.00     0.247 C 
ATOM     20  H6  GSI d   1       6.053   6.669  23.657  0.00  0.00     0.088 H 
ATOM     21  O3  GSI d   1       8.133   6.598  21.595  0.00  0.00    -0.271 OA
BRANCH  16  22
ATOM     22  N1  GSI d   1       6.010   8.386  22.476  0.00  0.00    -0.302 N 
ATOM     23  H5  GSI d   1       5.710   8.815  21.624  0.00  0.00     0.173 HD
BRANCH  22  24
ATOM     24  S1  GSI d   1       6.570   9.320  23.664  0.00  0.00     0.249 S 
ATOM     25  O2  GSI d   1       6.574  10.581  23.002  0.00  0.00    -0.201 OA
ATOM     26  O1  GSI d   1       5.852   9.025  24.849  0.00  0.00    -0.201 OA
BRANCH  24  27
ATOM     27  C6  GSI d   1       8.234   8.908  23.962  0.00  0.00     0.028 C 
ATOM     28  C5  GSI d   1       8.456   8.451  25.212  0.00  0.00    -0.054 C 
ATOM     29  H3  GSI d   1       7.602   8.384  25.884  0.00  0.00     0.086 H 
ATOM     30  H4  GSI d   1       9.019   9.009  23.214  0.00  0.00     0.104 H 
BRANCH  28  31
ATOM     31  C4  GSI d   1       9.759   8.039  25.729  0.00  0.00     0.007 A 
ATOM     32  C3  GSI d   1       9.887   7.357  26.987  0.00  0.00    -0.064 A 
ATOM     33  C2  GSI d   1      11.250   7.032  27.294  0.00  0.00    -0.054 A 
ATOM     34  H2  GSI d   1       9.045   7.114  27.634  0.00  0.00     0.085 H 
ATOM     35  C1  GSI d   1      12.099   7.504  26.229  0.00  0.00     0.075 A 
ATOM     36  H1  GSI d   1      11.589   6.512  28.189  0.00  0.00     0.086 H 
ATOM     37 CL1  GSI d   1      13.822   7.275  26.215  0.00  0.00    -0.076 Cl
ATOM     38  S2  GSI d   1      11.277   8.277  24.955  0.00  0.00    -0.078 SA
ENDBRANCH  28  31
ENDBRANCH  24  27
ENDBRANCH  22  24
ENDBRANCH  16  22
ENDBRANCH   1  11
BRANCH   4  39
ATOM     39  N4  GSI d   1       9.100   1.592  17.868  0.00  0.00    -0.307 N 
ATOM     40  C9  GSI d   1      10.205   0.897  18.284  0.00  0.00     0.004 A 
ATOM     41  C7  GSI d   1      10.652   0.120  17.188  0.00  0.00     0.019 A 
ATOM     42  H14 GSI d   1      10.656   0.935  19.274  0.00  0.00     0.114 H 
ATOM     43  N3  GSI d   1       9.791   0.376  16.167  0.00  0.00    -0.244 NA
ATOM     44  H15 GSI d   1      11.512  -0.548  17.167  0.00  0.00     0.117 H 
ATOM     45  C8  GSI d   1       8.854   1.263  16.575  0.00  0.00     0.136 A 
BRANCH  45  46
ATOM     46  C10 GSI d   1       7.737   1.794  15.687  0.00  0.00     0.137 C 
ATOM     47  H16 GSI d   1       8.154   2.567  15.025  0.00  0.00     0.088 H 
ATOM     48  H17 GSI d   1       6.962   2.240  16.328  0.00  0.00     0.088 H 
BRANCH  46  49
ATOM     49  N5  GSI d   1       7.111   0.745  14.851  0.00  0.00    -0.072 N 
ATOM     50  H18 GSI d   1       7.833   0.277  14.326  0.00  0.00     0.279 HD
BRANCH  49  51
ATOM     51  C11 GSI d   1       6.414  -0.254  15.679  0.00  0.00     0.066 C 
ATOM     52  H19 GSI d   1       5.961  -1.017  15.029  0.00  0.00     0.068 H 
ATOM     53  H20 GSI d   1       5.627   0.241  16.266  0.00  0.00     0.068 H 
ATOM     54  H21 GSI d   1       7.133  -0.732  16.360  0.00  0.00     0.068 H 
ENDBRANCH  49  51
BRANCH  49  55
ATOM     55  C16 GSI d   1       6.170   1.371  13.911  0.00  0.00     0.066 C 
ATOM     56  H22 GSI d   1       6.703   2.114  13.299  0.00  0.00     0.068 H 
ATOM     57  H23 GSI d   1       5.366   1.868  14.473  0.00  0.00     0.068 H 
ATOM     58  H24 GSI d   1       5.738   0.600  13.257  0.00  0.00     0.068 H 
ENDBRANCH  49  55
ENDBRANCH  46  49
ENDBRANCH  45  46
ENDBRANCH   4  39
TORSDOF 10
