REMARK  9 active torsions:
REMARK  status: ('A' for Active; 'I' for Inactive)
REMARK    1  A    between atoms: C35_1  and  S32_2 
REMARK    2  A    between atoms: S32_2  and  C29_5 
REMARK    3  A    between atoms: C28_10  and  C27_11 
REMARK    4  A    between atoms: C15_17  and  N2_18 
REMARK    5  A    between atoms: C12_23  and  N1_24 
REMARK    6  A    between atoms: N1_24  and  S1_25 
REMARK    7  A    between atoms: S1_25  and  C6_28 
REMARK    8  A    between atoms: C6_28  and  C5_29 
REMARK    9  A    between atoms: C5_29  and  C4_30 
ROOT
ATOM      1  N2  GSV d   1       6.161   5.322  20.722  0.00  0.00    -0.313 N 
ATOM      2  C50 GSV d   1       6.754   6.440  21.226  0.00  0.00     0.247 C 
ATOM      3  O3  GSV d   1       7.905   6.807  21.064  0.00  0.00    -0.271 OA
ATOM      4  C14 GSV d   1       4.786   5.148  21.170  0.00  0.00     0.005 C 
ATOM      5  C13 GSV d   1       4.392   6.580  21.533  0.00  0.00    -0.022 C 
ATOM      6  C12 GSV d   1       5.719   7.190  22.022  0.00  0.00     0.099 C 
ATOM      7  H11 GSV d   1       4.731   4.483  22.045  0.00  0.00     0.065 H 
ATOM      8  H12 GSV d   1       4.150   4.749  20.366  0.00  0.00     0.065 H 
ATOM      9  H13 GSV d   1       3.634   6.592  22.330  0.00  0.00     0.039 H 
ATOM     10  H14 GSV d   1       4.009   7.120  20.654  0.00  0.00     0.039 H 
ATOM     11  H15 GSV d   1       5.850   7.019  23.101  0.00  0.00     0.088 H 
ENDROOT
BRANCH   1  12
ATOM     12  C15 GSV d   1       6.811   4.428  19.835  0.00  0.00     0.076 A 
ATOM     13  C22 GSV d   1       7.533   4.889  18.699  0.00  0.00     0.144 A 
ATOM     14  C26 GSV d   1       8.171   4.008  17.810  0.00  0.00    -0.033 A 
ATOM     15  F   GSV d   1       7.603   6.214  18.486  0.00  0.00    -0.204 F 
ATOM     16  C27 GSV d   1       8.086   2.628  18.081  0.00  0.00    -0.021 A 
ATOM     17  H8  GSV d   1       8.710   4.377  16.945  0.00  0.00     0.089 H 
ATOM     18  C24 GSV d   1       7.359   2.155  19.212  0.00  0.00    -0.070 A 
ATOM     19  C21 GSV d   1       6.718   3.038  20.099  0.00  0.00    -0.053 A 
ATOM     20  H9  GSV d   1       7.299   1.088  19.393  0.00  0.00     0.084 H 
ATOM     21  H10 GSV d   1       6.170   2.668  20.958  0.00  0.00     0.087 H 
BRANCH  16  22
ATOM     22  C28 GSV d   1       8.740   1.632  17.175  0.00  0.00    -0.004 A 
ATOM     23  C29 GSV d   1       8.143   1.159  15.991  0.00  0.00     0.070 A 
ATOM     24  C31 GSV d   1       8.837   0.211  15.200  0.00  0.00    -0.061 A 
ATOM     25  C34 GSV d   1      10.115  -0.260  15.585  0.00  0.00    -0.082 A 
ATOM     26  H4  GSV d   1       8.383  -0.159  14.288  0.00  0.00     0.085 H 
ATOM     27  C33 GSV d   1      10.718   0.214  16.769  0.00  0.00    -0.082 A 
ATOM     28  H5  GSV d   1      10.632  -0.987  14.969  0.00  0.00     0.083 H 
ATOM     29  C30 GSV d   1      10.024   1.154  17.557  0.00  0.00    -0.071 A 
ATOM     30  H6  GSV d   1      11.698  -0.139  17.068  0.00  0.00     0.083 H 
ATOM     31  H7  GSV d   1      10.477   1.520  18.471  0.00  0.00     0.084 H 
BRANCH  23  32
ATOM     32  S32 GSV d   1       6.513   1.695  15.448  0.00  0.00     0.172 S 
ATOM     33  O37 GSV d   1       6.546   3.010  14.900  0.00  0.00    -0.223 OA
ATOM     34  O36 GSV d   1       6.105   0.618  14.610  0.00  0.00    -0.223 OA
BRANCH  32  35
ATOM     35  C35 GSV d   1       5.398   1.759  16.825  0.00  0.00     0.020 C 
ATOM     36  H1  GSV d   1       5.688   2.583  17.493  0.00  0.00     0.049 H 
ATOM     37  H2  GSV d   1       5.441   0.808  17.376  0.00  0.00     0.049 H 
ATOM     38  H3  GSV d   1       4.374   1.925  16.460  0.00  0.00     0.049 H 
ENDBRANCH  32  35
ENDBRANCH  23  32
ENDBRANCH  16  22
ENDBRANCH   1  12
BRANCH   6  39
ATOM     39  N1  GSV d   1       5.807   8.615  21.750  0.00  0.00    -0.302 N 
ATOM     40  H16 GSV d   1       5.512   8.946  20.854  0.00  0.00     0.173 HD
BRANCH  39  41
ATOM     41  S1  GSV d   1       6.357   9.693  22.823  0.00  0.00     0.249 S 
ATOM     42  O2  GSV d   1       6.429  10.872  22.008  0.00  0.00    -0.201 OA
ATOM     43  O1  GSV d   1       5.553   9.654  23.999  0.00  0.00    -0.201 OA
BRANCH  41  44
ATOM     44  C6  GSV d   1       7.936   9.170  23.346  0.00  0.00     0.028 C 
ATOM     45  H17 GSV d   1       8.789   9.186  22.669  0.00  0.00     0.104 H 
BRANCH  44  46
ATOM     46  C5  GSV d   1       8.073   8.707  24.732  0.00  0.00    -0.054 C 
ATOM     47  H18 GSV d   1       7.188   8.736  25.366  0.00  0.00     0.086 H 
BRANCH  46  48
ATOM     48  C4  GSV d   1       9.333   8.203  25.328  0.00  0.00     0.007 A 
ATOM     49  S2  GSV d   1      10.828   8.459  24.542  0.00  0.00    -0.078 SA
ATOM     50  C1  GSV d   1      11.606   7.665  25.814  0.00  0.00     0.075 A 
ATOM     51  C2  GSV d   1      10.757   7.218  26.857  0.00  0.00    -0.054 A 
ATOM     52 CL   GSV d   1      13.321   7.458  25.771  0.00  0.00    -0.076 Cl
ATOM     53  C3  GSV d   1       9.402   7.539  26.564  0.00  0.00    -0.064 A 
ATOM     54  H20 GSV d   1      11.094   6.702  27.755  0.00  0.00     0.086 H 
ATOM     55  H19 GSV d   1       8.550   7.306  27.200  0.00  0.00     0.085 H 
ENDBRANCH  46  48
ENDBRANCH  44  46
ENDBRANCH  41  44
ENDBRANCH  39  41
ENDBRANCH   6  39
TORSDOF 9
