REMARK  8 active torsions:
REMARK  status: ('A' for Active; 'I' for Inactive)
REMARK    1  A    between atoms: O3A_8  and  PB_1 
REMARK    2  A    between atoms: PA_5  and  O3A_8 
REMARK    3  A    between atoms: PA_5  and  O5'_9 
REMARK    4  A    between atoms: O5'_9  and  C5'_10 
REMARK    5  A    between atoms: C5'_10  and  C4'_11 
REMARK    6  A    between atoms: C3'_13  and  O3'_14 
REMARK    7  A    between atoms: C2'_15  and  O2'_16 
REMARK    8  A    between atoms: C1'_17  and  N9_18 
ROOT
ATOM      1  C4' ADP d   1      86.289  52.030   3.416  0.00  0.00     0.089 A 
ATOM      2  O4' ADP d   1      87.063  53.071   4.020  0.00  0.00    -0.353 OA
ATOM      3  C3' ADP d   1      86.377  52.207   1.905  0.00  0.00     0.091 A 
ATOM      4  C2' ADP d   1      87.204  53.455   1.655  0.00  0.00     0.105 A 
ATOM      5  C1' ADP d   1      87.548  53.995   3.040  0.00  0.00     0.139 A 
ATOM      6  H3  ADP d   1      85.237  52.153   3.714  0.00  0.00     0.090 H 
ATOM      7  H4  ADP d   1      86.864  51.335   1.444  0.00  0.00     0.091 H 
ATOM      8  H6  ADP d   1      88.127  53.182   1.123  0.00  0.00     0.093 H 
ATOM      9  H8  ADP d   1      87.077  54.979   3.181  0.00  0.00     0.122 H 
ENDROOT
BRANCH   5  10
ATOM     10  N9  ADP d   1      89.011  54.115   3.203  0.00  0.00    -0.294 N 
ATOM     11  C8  ADP d   1      89.870  53.082   3.157  0.00  0.00     0.071 A 
ATOM     12  N7  ADP d   1      91.141  53.519   3.344  0.00  0.00    -0.236 NA
ATOM     13  H9  ADP d   1      89.587  52.043   2.993  0.00  0.00     0.144 H 
ATOM     14  C5  ADP d   1      91.101  54.850   3.524  0.00  0.00     0.149 A 
ATOM     15  C6  ADP d   1      92.093  55.919   3.774  0.00  0.00     0.155 A 
ATOM     16  C4  ADP d   1      89.689  55.246   3.430  0.00  0.00     0.167 A 
ATOM     17  N6  ADP d   1      93.408  55.614   3.869  0.00  0.00    -0.382 N 
ATOM     18  N1  ADP d   1      91.638  57.190   3.900  0.00  0.00    -0.222 NA
ATOM     19  H10 ADP d   1      94.098  56.359   4.043  0.00  0.00     0.157 HD
ATOM     20  H11 ADP d   1      93.719  54.637   3.767  0.00  0.00     0.157 HD
ATOM     21  C2  ADP d   1      90.323  57.491   3.805  0.00  0.00     0.091 A 
ATOM     22  N3  ADP d   1      89.369  56.560   3.578  0.00  0.00    -0.222 NA
ATOM     23  H12 ADP d   1      90.020  58.526   3.916  0.00  0.00     0.146 H 
ENDBRANCH   5  10
BRANCH   4  24
ATOM     24  O2' ADP d   1      86.504  54.436   0.870  0.00  0.00    -0.388 OA
ATOM     25  H7  ADP d   1      85.712  54.697   1.325  0.00  0.00     0.210 HD
ENDBRANCH   4  24
BRANCH   1  26
ATOM     26  C5' ADP d   1      86.746  50.665   3.904  0.00  0.00     0.058 C 
ATOM     27  H1  ADP d   1      87.240  50.126   3.083  0.00  0.00     0.079 H 
ATOM     28  H2  ADP d   1      87.452  50.789   4.739  0.00  0.00     0.079 H 
BRANCH  26  29
ATOM     29  O5' ADP d   1      85.608  49.926   4.345  0.00  0.00    -0.287 OA
BRANCH  29  30
ATOM     30  PA  ADP d   1      84.673  49.135   3.300  0.00  0.00     0.418 P 
ATOM     31  O1A ADP d   1      85.138  49.454   1.896  0.00  0.00    -0.624 OA
ATOM     32  O2A ADP d   1      84.590  47.688   3.709  0.00  0.00    -0.624 OA
BRANCH  30  33
ATOM     33  O3A ADP d   1      83.209  49.779   3.545  0.00  0.00    -0.173 OA
BRANCH  33  34
ATOM     34  PB  ADP d   1      82.395  49.468   4.907  0.00  0.00     0.431 P 
ATOM     35  O1B ADP d   1      81.826  48.080   4.717  0.00  0.00    -0.616 OA
ATOM     36  O2B ADP d   1      83.480  49.564   5.945  0.00  0.00    -0.616 OA
ATOM     37  O3B ADP d   1      81.347  50.554   5.037  0.00  0.00    -0.616 OA
ENDBRANCH  33  34
ENDBRANCH  30  33
ENDBRANCH  29  30
ENDBRANCH  26  29
ENDBRANCH   1  26
BRANCH   3  38
ATOM     38  O3' ADP d   1      85.059  52.350   1.382  0.00  0.00    -0.390 OA
ATOM     39  H5  ADP d   1      84.645  53.111   1.772  0.00  0.00     0.210 HD
ENDBRANCH   3  38
TORSDOF 8
