REMARK  14 active torsions:
REMARK  status: ('A' for Active; 'I' for Inactive)
REMARK    1  A    between atoms: C4_6  and  C7_7 
REMARK    2  A    between atoms: C7_7  and  O1_8 
REMARK    3  A    between atoms: O1_8  and  C8_9 
REMARK    4  A    between atoms: C11_14  and  C14_15 
REMARK    5  A    between atoms: C14_15  and  C15_16 
REMARK    6  A    between atoms: C15_16  and  N2_17 
REMARK    7  A    between atoms: C15_16  and  C16_18 
REMARK    8  A    between atoms: C16_18  and  N3_19 
REMARK    9  A    between atoms: N3_19  and  O2_20 
REMARK       I    between atoms: N3_19  and  C17_21 
REMARK   10  A    between atoms: C17_21  and  C18_23 
REMARK   11  A    between atoms: C18_23  and  C19_24 
REMARK   12  A    between atoms: C19_24  and  C20_25 
REMARK   13  A    between atoms: C20_25  and  C21_26 
REMARK   14  A    between atoms: C21_26  and  C22_27 
ROOT
ATOM      1  C15 HA2 d   1      14.090  42.090  63.717  0.00  0.00     0.121 C 
ATOM      2  H14 HA2 d   1      13.606  42.658  62.909  0.00  0.00     0.087 H 
ENDROOT
BRANCH   1   3
ATOM      3  C14 HA2 d   1      13.793  42.792  65.076  0.00  0.00    -0.013 C 
ATOM      4  H12 HA2 d   1      14.471  42.388  65.842  0.00  0.00     0.043 H 
ATOM      5  H13 HA2 d   1      13.967  43.873  64.965  0.00  0.00     0.043 H 
BRANCH   3   6
ATOM      6  C11 HA2 d   1      12.342  42.564  65.525  0.00  0.00    -0.056 A 
ATOM      7  C12 HA2 d   1      11.292  43.346  65.007  0.00  0.00    -0.074 A 
ATOM      8  C13 HA2 d   1       9.975  43.150  65.475  0.00  0.00    -0.050 A 
ATOM      9  H9  HA2 d   1      11.495  44.096  64.251  0.00  0.00     0.084 H 
ATOM     10  C8  HA2 d   1       9.712  42.170  66.455  0.00  0.00     0.069 A 
ATOM     11  H8  HA2 d   1       9.165  43.753  65.081  0.00  0.00     0.087 H 
ATOM     12  C9  HA2 d   1      10.774  41.375  66.961  0.00  0.00    -0.050 A 
ATOM     13  C10 HA2 d   1      12.085  41.578  66.495  0.00  0.00    -0.074 A 
ATOM     14  H10 HA2 d   1      10.574  40.613  67.705  0.00  0.00     0.087 H 
ATOM     15  H11 HA2 d   1      12.898  40.975  66.883  0.00  0.00     0.084 H 
BRANCH  10  16
ATOM     16  O1  HA2 d   1       8.377  41.964  66.927  0.00  0.00    -0.347 OA
BRANCH  16  17
ATOM     17  C7  HA2 d   1       8.042  41.738  68.296  0.00  0.00     0.050 C 
ATOM     18  H6  HA2 d   1       8.816  42.191  68.933  0.00  0.00     0.082 H 
ATOM     19  H7  HA2 d   1       7.071  42.208  68.509  0.00  0.00     0.082 H 
BRANCH  17  20
ATOM     20  C4  HA2 d   1       7.951  40.251  68.608  0.00  0.00    -0.034 A 
ATOM     21  C3  HA2 d   1       8.101  39.279  67.591  0.00  0.00    -0.075 A 
ATOM     22  C2  HA2 d   1       8.002  37.916  67.926  0.00  0.00    -0.082 A 
ATOM     23  H1  HA2 d   1       8.290  39.580  66.567  0.00  0.00     0.084 H 
ATOM     24  C1  HA2 d   1       7.770  37.500  69.245  0.00  0.00    -0.083 A 
ATOM     25  H2  HA2 d   1       8.107  37.170  67.146  0.00  0.00     0.083 H 
ATOM     26  C6  HA2 d   1       7.632  38.470  70.261  0.00  0.00    -0.082 A 
ATOM     27  H3  HA2 d   1       7.697  36.445  69.482  0.00  0.00     0.083 H 
ATOM     28  C5  HA2 d   1       7.719  39.838  69.930  0.00  0.00    -0.075 A 
ATOM     29  H4  HA2 d   1       7.461  38.166  71.287  0.00  0.00     0.083 H 
ATOM     30  H5  HA2 d   1       7.605  40.583  70.709  0.00  0.00     0.084 H 
ENDBRANCH  17  20
ENDBRANCH  16  17
ENDBRANCH  10  16
ENDBRANCH   3   6
ENDBRANCH   1   3
BRANCH   1  31
ATOM     31  N2  HA2 d   1      13.562  40.725  63.729  0.00  0.00    -0.073 N 
ATOM     32  H15 HA2 d   1      13.759  40.281  62.846  0.00  0.00     0.274 HD
ATOM     33  H16 HA2 d   1      12.565  40.752  63.876  0.00  0.00     0.274 HD
ATOM     34  H17 HA2 d   1      13.998  40.203  64.473  0.00  0.00     0.274 HD
ENDBRANCH   1  31
BRANCH   1  35
ATOM     35  C16 HA2 d   1      15.612  42.038  63.458  0.00  0.00     0.050 C 
ATOM     36  H18 HA2 d   1      15.940  43.010  63.061  0.00  0.00     0.071 H 
ATOM     37  H19 HA2 d   1      15.822  41.251  62.719  0.00  0.00     0.071 H 
BRANCH  35  38
ATOM     38  N3  HA2 d   1      16.370  41.745  64.704  0.00  0.00    -0.227 N 
ATOM     39  C17 HA2 d   1      17.298  42.621  65.148  0.00  0.00     0.243 C 
ATOM     40  O3  HA2 d   1      17.516  43.681  64.539  0.00  0.00    -0.271 OA
BRANCH  38  41
ATOM     41  O2  HA2 d   1      16.112  40.619  65.395  0.00  0.00    -0.285 OA
ATOM     42  H20 HA2 d   1      15.203  40.620  65.671  0.00  0.00     0.245 HD
ENDBRANCH  38  41
BRANCH  39  43
ATOM     43  C18 HA2 d   1      18.054  42.301  66.424  0.00  0.00     0.011 C 
ATOM     44  H21 HA2 d   1      18.666  41.402  66.263  0.00  0.00     0.047 H 
ATOM     45  H22 HA2 d   1      17.331  42.112  67.232  0.00  0.00     0.047 H 
BRANCH  43  46
ATOM     46  C19 HA2 d   1      18.963  43.456  66.829  0.00  0.00    -0.057 C 
ATOM     47  H23 HA2 d   1      18.951  44.223  66.041  0.00  0.00     0.033 H 
ATOM     48  H24 HA2 d   1      19.989  43.083  66.961  0.00  0.00     0.033 H 
BRANCH  46  49
ATOM     49  C20 HA2 d   1      18.475  44.068  68.138  0.00  0.00    -0.056 C 
ATOM     50  H25 HA2 d   1      18.941  43.539  68.982  0.00  0.00     0.033 H 
ATOM     51  H26 HA2 d   1      17.381  43.967  68.201  0.00  0.00     0.033 H 
BRANCH  49  52
ATOM     52  C21 HA2 d   1      18.849  45.548  68.201  0.00  0.00     0.016 C 
ATOM     53  H27 HA2 d   1      19.289  45.850  67.239  0.00  0.00     0.049 H 
ATOM     54  H28 HA2 d   1      19.585  45.700  69.004  0.00  0.00     0.049 H 
BRANCH  52  55
ATOM     55  C22 HA2 d   1      17.625  46.402  68.479  0.00  0.00     0.172 C 
ATOM     56  O5  HA2 d   1      17.779  47.341  69.266  0.00  0.00    -0.648 OA
ATOM     57  O4  HA2 d   1      16.554  46.098  67.891  0.00  0.00    -0.648 OA
ENDBRANCH  52  55
ENDBRANCH  49  52
ENDBRANCH  46  49
ENDBRANCH  43  46
ENDBRANCH  39  43
ENDBRANCH  35  38
ENDBRANCH   1  35
TORSDOF 14
