REMARK  10 active torsions:
REMARK  status: ('A' for Active; 'I' for Inactive)
REMARK    1  A    between atoms: C2_2  and  C1_1 
REMARK    2  A    between atoms: C4_4  and  O4_15 
REMARK    3  A    between atoms: N5_12  and  C5_5 
REMARK    4  A    between atoms: C6_6  and  C7_7 
REMARK    5  A    between atoms: C7_7  and  C8_8 
REMARK    6  A    between atoms: C7_7  and  O7_17 
REMARK    7  A    between atoms: C8_8  and  C9_9 
REMARK    8  A    between atoms: C8_8  and  O8_18 
REMARK    9  A    between atoms: C9_9  and  O9_19 
REMARK   10  A    between atoms: C10_10  and  C11_11 
REMARK       I    between atoms: C10_10  and  N5_12 
ROOT
ATOM      1  C2  DAN d   1       1.700  35.655  20.162  0.00  0.00     0.144 C 
ATOM      2  C3  DAN d   1       1.286  34.493  20.746  0.00  0.00    -0.035 C 
ATOM      3  C4  DAN d   1       2.271  33.348  20.814  0.00  0.00     0.076 C 
ATOM      4  C5  DAN d   1       3.684  33.936  20.882  0.00  0.00     0.068 C 
ATOM      5  C6  DAN d   1       3.898  34.773  19.631  0.00  0.00     0.094 C 
ATOM      6  O6  DAN d   1       2.942  35.829  19.565  0.00  0.00    -0.335 OA
ATOM      7  H1  DAN d   1       0.279  34.394  21.150  0.00  0.00     0.085 H 
ATOM      8  H2  DAN d   1       2.185  32.773  19.880  0.00  0.00     0.092 H 
ATOM      9  H3  DAN d   1       3.801  34.555  21.784  0.00  0.00     0.081 H 
ATOM     10  H4  DAN d   1       3.782  34.114  18.758  0.00  0.00     0.091 H 
ENDROOT
BRANCH   5  11
ATOM     11  C7  DAN d   1       5.271  35.451  19.564  0.00  0.00     0.089 C 
ATOM     12  H5  DAN d   1       6.043  34.671  19.492  0.00  0.00     0.091 H 
BRANCH  11  13
ATOM     13  C8  DAN d   1       5.399  36.400  18.342  0.00  0.00     0.083 C 
ATOM     14  H6  DAN d   1       4.725  37.263  18.444  0.00  0.00     0.090 H 
BRANCH  13  15
ATOM     15  C9  DAN d   1       6.844  36.846  18.309  0.00  0.00     0.043 C 
ATOM     16  H7  DAN d   1       7.492  35.965  18.190  0.00  0.00     0.078 H 
ATOM     17  H8  DAN d   1       7.087  37.355  19.253  0.00  0.00     0.078 H 
BRANCH  15  18
ATOM     18  O9  DAN d   1       7.074  37.771  17.187  0.00  0.00    -0.398 OA
ATOM     19  H16 DAN d   1       6.867  37.333  16.370  0.00  0.00     0.209 HD
ENDBRANCH  15  18
ENDBRANCH  13  15
BRANCH  13  20
ATOM     20  O8  DAN d   1       5.098  35.676  17.141  0.00  0.00    -0.391 OA
ATOM     21  H15 DAN d   1       5.240  36.239  16.389  0.00  0.00     0.210 HD
ENDBRANCH  13  20
ENDBRANCH  11  13
BRANCH  11  22
ATOM     22  O7  DAN d   1       5.490  36.234  20.761  0.00  0.00    -0.390 OA
ATOM     23  H14 DAN d   1       4.839  36.924  20.810  0.00  0.00     0.210 HD
ENDBRANCH  11  22
ENDBRANCH   5  11
BRANCH   4  24
ATOM     24  N5  DAN d   1       4.645  32.846  20.892  0.00  0.00    -0.351 N 
ATOM     25  C10 DAN d   1       5.822  32.900  21.575  0.00  0.00     0.214 C 
ATOM     26  O10 DAN d   1       6.189  33.913  22.239  0.00  0.00    -0.274 OA
ATOM     27  H12 DAN d   1       4.432  32.018  20.373  0.00  0.00     0.163 HD
BRANCH  25  28
ATOM     28  C11 DAN d   1       6.703  31.667  21.532  0.00  0.00    -0.003 C 
ATOM     29  H9  DAN d   1       7.614  31.847  22.121  0.00  0.00     0.040 H 
ATOM     30  H10 DAN d   1       6.977  31.449  20.489  0.00  0.00     0.040 H 
ATOM     31  H11 DAN d   1       6.157  30.811  21.954  0.00  0.00     0.040 H 
ENDBRANCH  25  28
ENDBRANCH   4  24
BRANCH   3  32
ATOM     32  O4  DAN d   1       2.007  32.433  21.901  0.00  0.00    -0.389 OA
ATOM     33  H13 DAN d   1       2.628  31.715  21.867  0.00  0.00     0.210 HD
ENDBRANCH   3  32
BRANCH   1  34
ATOM     34  C1  DAN d   1       0.801  36.777  19.912  0.00  0.00     0.233 C 
ATOM     35  O1A DAN d   1       1.152  37.647  19.016  0.00  0.00    -0.642 OA
ATOM     36  O1B DAN d   1      -0.284  36.820  20.459  0.00  0.00    -0.642 OA
ENDBRANCH   1  34
TORSDOF 10
