REMARK  20 active torsions:
REMARK  status: ('A' for Active; 'I' for Inactive)
REMARK    1  A    between atoms: C16_6  and  C17_7 
REMARK    2  A    between atoms: C17_7  and  C18_8 
REMARK    3  A    between atoms: C17_7  and  N21_9 
REMARK       I    between atoms: N21_9  and  C21_10 
REMARK    4  A    between atoms: C21_10  and  C23_12 
REMARK    5  A    between atoms: C25_14  and  N22_18 
REMARK    6  A    between atoms: C27_16  and  C22_24 
REMARK    7  A    between atoms: N22_18  and  C29_19 
REMARK    8  A    between atoms: N22_18  and  S2_20 
REMARK    9  A    between atoms: S2_20  and  C20_23 
REMARK       I    between atoms: C22_24  and  N3_26 
REMARK   10  A    between atoms: N3_26  and  C31_27 
REMARK   11  A    between atoms: C31_27  and  C32_28 
REMARK   12  A    between atoms: C31_27  and  C39_35 
REMARK   13  A    between atoms: C32_28  and  C33_29 
REMARK   14  A    between atoms: C39_35  and  O3_36 
REMARK   15  A    between atoms: C39_35  and  C30_37 
REMARK   16  A    between atoms: C30_37  and  N4_38 
REMARK   17  A    between atoms: N4_38  and  C41_39 
REMARK   18  A    between atoms: C41_39  and  C42_40 
REMARK   19  A    between atoms: C44_42  and  O4_46 
REMARK   20  A    between atoms: O4_46  and  C48_47 
ROOT
ATOM      1  C22 BSD d   1      -3.683  -3.604  30.733  0.00  0.00     0.252 C 
ATOM      2  O22 BSD d   1      -4.701  -3.616  30.004  0.00  0.00    -0.268 OA
ATOM      3  N3  BSD d   1      -3.751  -3.681  32.104  0.00  0.00    -0.349 N 
ATOM      4  H20 BSD d   1      -2.940  -3.404  32.620  0.00  0.00     0.163 HD
ENDROOT
BRANCH   3   5
ATOM      5  C31 BSD d   1      -4.946  -4.149  32.894  0.00  0.00     0.042 C 
ATOM      6  H21 BSD d   1      -5.790  -4.293  32.203  0.00  0.00     0.077 H 
BRANCH   5   7
ATOM      7  C32 BSD d   1      -4.581  -5.503  33.611  0.00  0.00    -0.020 C 
ATOM      8  H22 BSD d   1      -5.534  -5.968  33.903  0.00  0.00     0.043 H 
ATOM      9  H23 BSD d   1      -4.013  -5.234  34.514  0.00  0.00     0.043 H 
BRANCH   7  10
ATOM     10  C33 BSD d   1      -3.767  -6.594  32.893  0.00  0.00    -0.056 A 
ATOM     11  C34 BSD d   1      -4.052  -6.960  31.549  0.00  0.00    -0.077 A 
ATOM     12  C35 BSD d   1      -3.291  -7.985  30.912  0.00  0.00    -0.082 A 
ATOM     13  H24 BSD d   1      -4.848  -6.460  31.008  0.00  0.00     0.084 H 
ATOM     14  C36 BSD d   1      -2.257  -8.638  31.616  0.00  0.00    -0.083 A 
ATOM     15  H25 BSD d   1      -3.507  -8.262  29.887  0.00  0.00     0.083 H 
ATOM     16  C37 BSD d   1      -1.961  -8.276  32.966  0.00  0.00    -0.082 A 
ATOM     17  H26 BSD d   1      -1.684  -9.419  31.130  0.00  0.00     0.083 H 
ATOM     18  C38 BSD d   1      -2.717  -7.255  33.599  0.00  0.00    -0.077 A 
ATOM     19  H27 BSD d   1      -1.164  -8.778  33.503  0.00  0.00     0.083 H 
ATOM     20  H28 BSD d   1      -2.496  -6.976  34.623  0.00  0.00     0.084 H 
ENDBRANCH   7  10
ENDBRANCH   5   7
BRANCH   5  21
ATOM     21  C39 BSD d   1      -5.379  -3.187  34.045  0.00  0.00     0.078 C 
ATOM     22  H29 BSD d   1      -4.677  -3.385  34.868  0.00  0.00     0.088 H 
BRANCH  21  23
ATOM     23  O3  BSD d   1      -6.681  -3.444  34.529  0.00  0.00    -0.392 OA
ATOM     24  H30 BSD d   1      -6.723  -4.331  34.866  0.00  0.00     0.210 HD
ENDBRANCH  21  23
BRANCH  21  25
ATOM     25  C30 BSD d   1      -5.309  -1.689  33.764  0.00  0.00     0.107 C 
ATOM     26  H31 BSD d   1      -4.250  -1.444  33.598  0.00  0.00     0.079 H 
ATOM     27  H32 BSD d   1      -5.666  -1.177  34.670  0.00  0.00     0.079 H 
BRANCH  25  28
ATOM     28  N4  BSD d   1      -6.057  -1.129  32.636  0.00  0.00    -0.069 N 
ATOM     29  H33 BSD d   1      -6.380  -1.905  32.080  0.00  0.00     0.277 HD
ATOM     30  H34 BSD d   1      -5.410  -0.575  32.096  0.00  0.00     0.277 HD
BRANCH  28  31
ATOM     31  C41 BSD d   1      -7.250  -0.262  32.922  0.00  0.00     0.105 C 
ATOM     32  H35 BSD d   1      -7.112   0.719  32.444  0.00  0.00     0.083 H 
ATOM     33  H36 BSD d   1      -7.354  -0.129  34.009  0.00  0.00     0.083 H 
BRANCH  31  34
ATOM     34  C42 BSD d   1      -8.512  -0.924  32.368  0.00  0.00    -0.030 A 
ATOM     35  C43 BSD d   1      -9.279  -1.751  33.213  0.00  0.00    -0.043 A 
ATOM     36  C44 BSD d   1     -10.418  -2.419  32.741  0.00  0.00     0.068 A 
ATOM     37  H37 BSD d   1      -8.982  -1.873  34.248  0.00  0.00     0.088 H 
ATOM     38  C45 BSD d   1     -10.799  -2.253  31.380  0.00  0.00    -0.051 A 
ATOM     39  C46 BSD d   1     -10.048  -1.426  30.515  0.00  0.00    -0.080 A 
ATOM     40  H38 BSD d   1     -11.676  -2.767  31.003  0.00  0.00     0.087 H 
ATOM     41  C47 BSD d   1      -8.893  -0.757  31.010  0.00  0.00    -0.075 A 
ATOM     42  H39 BSD d   1     -10.349  -1.302  29.481  0.00  0.00     0.083 H 
ATOM     43  H40 BSD d   1      -8.307  -0.123  30.354  0.00  0.00     0.084 H 
BRANCH  36  44
ATOM     44  O4  BSD d   1     -11.212  -3.259  33.501  0.00  0.00    -0.356 OA
BRANCH  44  45
ATOM     45  C48 BSD d   1     -11.902  -2.836  34.688  0.00  0.00     0.010 C 
ATOM     46  H41 BSD d   1     -12.463  -3.684  35.108  0.00  0.00     0.066 H 
ATOM     47  H42 BSD d   1     -12.600  -2.024  34.437  0.00  0.00     0.066 H 
ATOM     48  H43 BSD d   1     -11.172  -2.476  35.428  0.00  0.00     0.066 H 
ENDBRANCH  44  45
ENDBRANCH  36  44
ENDBRANCH  31  34
ENDBRANCH  28  31
ENDBRANCH  25  28
ENDBRANCH  21  25
ENDBRANCH   5  21
ENDBRANCH   3   5
BRANCH   1  49
ATOM     49  C27 BSD d   1      -2.329  -3.525  30.121  0.00  0.00     0.034 A 
ATOM     50  C26 BSD d   1      -2.097  -2.613  29.044  0.00  0.00    -0.046 A 
ATOM     51  C25 BSD d   1      -0.823  -2.498  28.421  0.00  0.00     0.026 A 
ATOM     52  H12 BSD d   1      -2.914  -1.993  28.693  0.00  0.00     0.087 H 
ATOM     53  C24 BSD d   1       0.242  -3.343  28.916  0.00  0.00    -0.046 A 
ATOM     54  C23 BSD d   1       0.027  -4.264  29.999  0.00  0.00     0.034 A 
ATOM     55  H11 BSD d   1       1.224  -3.280  28.460  0.00  0.00     0.087 H 
ATOM     56  C28 BSD d   1      -1.259  -4.325  30.569  0.00  0.00    -0.052 A 
ATOM     57  H13 BSD d   1      -1.433  -5.016  31.386  0.00  0.00     0.086 H 
BRANCH  51  58
ATOM     58  N22 BSD d   1      -0.584  -1.581  27.291  0.00  0.00    -0.181 NA
BRANCH  58  59
ATOM     59  C29 BSD d   1      -1.678  -0.621  26.926  0.00  0.00    -0.015 C 
ATOM     60  H14 BSD d   1      -2.643  -1.150  26.920  0.00  0.00     0.050 H 
ATOM     61  H15 BSD d   1      -1.482  -0.204  25.927  0.00  0.00     0.050 H 
ATOM     62  H16 BSD d   1      -1.712   0.194  27.664  0.00  0.00     0.050 H 
ENDBRANCH  58  59
BRANCH  58  63
ATOM     63  S2  BSD d   1       0.957  -0.719  27.297  0.00  0.00     0.211 S 
ATOM     64  O23 BSD d   1       0.776   0.712  26.708  0.00  0.00    -0.211 OA
ATOM     65  O24 BSD d   1       1.584  -0.590  28.742  0.00  0.00    -0.211 OA
BRANCH  63  66
ATOM     66  C20 BSD d   1       2.088  -1.563  26.176  0.00  0.00     0.029 C 
ATOM     67  H17 BSD d   1       3.055  -1.039  26.167  0.00  0.00     0.050 H 
ATOM     68  H18 BSD d   1       1.664  -1.567  25.161  0.00  0.00     0.050 H 
ATOM     69  H19 BSD d   1       2.236  -2.599  26.515  0.00  0.00     0.050 H 
ENDBRANCH  63  66
ENDBRANCH  58  63
ENDBRANCH  51  58
BRANCH  54  70
ATOM     70  C21 BSD d   1       1.156  -5.118  30.515  0.00  0.00     0.252 C 
ATOM     71  N21 BSD d   1       1.128  -5.432  31.829  0.00  0.00    -0.349 N 
ATOM     72  H10 BSD d   1       0.355  -5.106  32.374  0.00  0.00     0.163 HD
ATOM     73  O21 BSD d   1       2.081  -5.499  29.799  0.00  0.00    -0.268 OA
BRANCH  71  74
ATOM     74  C17 BSD d   1       2.170  -6.227  32.507  0.00  0.00     0.034 C 
ATOM     75  H6  BSD d   1       2.828  -6.676  31.749  0.00  0.00     0.079 H 
BRANCH  74  76
ATOM     76  C16 BSD d   1       3.036  -5.316  33.394  0.00  0.00    -0.036 A 
ATOM     77  C11 BSD d   1       4.413  -5.195  33.100  0.00  0.00    -0.075 A 
ATOM     78  C12 BSD d   1       5.242  -4.360  33.890  0.00  0.00    -0.082 A 
ATOM     79  H1  BSD d   1       4.837  -5.743  32.267  0.00  0.00     0.084 H 
ATOM     80  C13 BSD d   1       4.698  -3.639  34.980  0.00  0.00    -0.083 A 
ATOM     81  H2  BSD d   1       6.297  -4.273  33.658  0.00  0.00     0.083 H 
ATOM     82  C14 BSD d   1       3.321  -3.745  35.288  0.00  0.00    -0.082 A 
ATOM     83  H3  BSD d   1       5.338  -3.003  35.581  0.00  0.00     0.083 H 
ATOM     84  C15 BSD d   1       2.488  -4.580  34.498  0.00  0.00    -0.075 A 
ATOM     85  H4  BSD d   1       2.905  -3.192  36.122  0.00  0.00     0.083 H 
ATOM     86  H5  BSD d   1       1.432  -4.662  34.730  0.00  0.00     0.084 H 
ENDBRANCH  74  76
BRANCH  74  87
ATOM     87  C18 BSD d   1       1.462  -7.367  33.260  0.00  0.00    -0.053 C 
ATOM     88  H7  BSD d   1       0.870  -7.963  32.550  0.00  0.00     0.030 H 
ATOM     89  H8  BSD d   1       0.797  -6.943  34.027  0.00  0.00     0.030 H 
ATOM     90  H9  BSD d   1       2.213  -8.011  33.741  0.00  0.00     0.030 H 
ENDBRANCH  74  87
ENDBRANCH  71  74
ENDBRANCH  54  70
ENDBRANCH   1  49
TORSDOF 20
