REMARK  7 active torsions:
REMARK  status: ('A' for Active; 'I' for Inactive)
REMARK    1  A    between atoms: C1_1  and  O1_2 
REMARK    2  A    between atoms: N2_10  and  C2_3 
REMARK    3  A    between atoms: C3_4  and  O3_11 
REMARK    4  A    between atoms: C4_5  and  O4_12 
REMARK    5  A    between atoms: C5_6  and  C6_7 
REMARK    6  A    between atoms: C6_7  and  O6_14 
REMARK    7  A    between atoms: C7_8  and  C8_9 
REMARK       I    between atoms: C7_8  and  N2_10 
ROOT
ATOM      1  C1  NGA d   1      11.117  10.232 122.942  0.00  0.00     0.151 C 
ATOM      2  C2  NGA d   1      11.317   9.666 121.538  0.00  0.00     0.086 C 
ATOM      3  C3  NGA d   1      10.175  10.133 120.602  0.00  0.00     0.086 C 
ATOM      4  C4  NGA d   1       8.800   9.822 121.207  0.00  0.00     0.089 C 
ATOM      5  C5  NGA d   1       8.769  10.335 122.662  0.00  0.00     0.089 C 
ATOM      6  O5  NGA d   1       9.849   9.833 123.462  0.00  0.00    -0.349 OA
ATOM      7  H1  NGA d   1      11.156  11.330 122.894  0.00  0.00     0.132 H 
ATOM      8  H3  NGA d   1      11.295   8.568 121.600  0.00  0.00     0.084 H 
ATOM      9  H4  NGA d   1      10.260  11.225 120.505  0.00  0.00     0.090 H 
ATOM     10  H5  NGA d   1       8.027  10.347 120.627  0.00  0.00     0.091 H 
ATOM     11  H6  NGA d   1       8.866  11.430 122.620  0.00  0.00     0.090 H 
ENDROOT
BRANCH   2  12
ATOM     12  N2  NGA d   1      12.605  10.074 120.986  0.00  0.00    -0.349 N 
ATOM     13  C7  NGA d   1      13.708   9.339 121.195  0.00  0.00     0.214 C 
ATOM     14  O7  NGA d   1      13.682   8.283 121.835  0.00  0.00    -0.274 OA
ATOM     15  H12 NGA d   1      12.666  10.913 120.445  0.00  0.00     0.163 HD
BRANCH  13  16
ATOM     16  C8  NGA d   1      14.966   9.908 120.591  0.00  0.00    -0.003 C 
ATOM     17  H9  NGA d   1      15.813   9.242 120.812  0.00  0.00     0.040 H 
ATOM     18  H10 NGA d   1      15.161  10.903 121.018  0.00  0.00     0.040 H 
ATOM     19  H11 NGA d   1      14.843   9.995 119.501  0.00  0.00     0.040 H 
ENDBRANCH  13  16
ENDBRANCH   2  12
BRANCH   1  20
ATOM     20  O1  NGA d   1      12.155   9.763 123.807  0.00  0.00    -0.369 OA
ATOM     21  H2  NGA d   1      12.036  10.134 124.673  0.00  0.00     0.212 HD
ENDBRANCH   1  20
BRANCH   3  22
ATOM     22  O3  NGA d   1      10.269   9.575 119.278  0.00  0.00    -0.391 OA
ATOM     23  H13 NGA d   1       9.593   9.952 118.728  0.00  0.00     0.210 HD
ENDBRANCH   3  22
BRANCH   4  24
ATOM     24  O4  NGA d   1       8.532   8.419 121.158  0.00  0.00    -0.390 OA
ATOM     25  H14 NGA d   1       8.556   8.124 120.255  0.00  0.00     0.210 HD
ENDBRANCH   4  24
BRANCH   5  26
ATOM     26  C6  NGA d   1       7.452  10.007 123.354  0.00  0.00     0.043 C 
ATOM     27  H7  NGA d   1       7.389   8.927 123.553  0.00  0.00     0.078 H 
ATOM     28  H8  NGA d   1       6.606  10.313 122.721  0.00  0.00     0.078 H 
BRANCH  26  29
ATOM     29  O6  NGA d   1       7.432  10.742 124.596  0.00  0.00    -0.398 OA
ATOM     30  H15 NGA d   1       6.621  10.561 125.057  0.00  0.00     0.209 HD
ENDBRANCH  26  29
ENDBRANCH   5  26
TORSDOF 7
