REMARK  7 active torsions:
REMARK  status: ('A' for Active; 'I' for Inactive)
REMARK    1  A    between atoms: C1_1  and  O1_8 
REMARK    2  A    between atoms: C2_2  and  O2_9 
REMARK    3  A    between atoms: C3_3  and  O3_10 
REMARK    4  A    between atoms: C4_4  and  O4_11 
REMARK    5  A    between atoms: C5_5  and  C6_6 
REMARK    6  A    between atoms: C6_6  and  O6_13 
REMARK    7  A    between atoms: O1_8  and  C7_7 
ROOT
ATOM      1  C1  MBG d   1       3.311  14.614   7.826  0.00  0.00     0.158 C 
ATOM      2  C2  MBG d   1       2.690  14.445   9.229  0.00  0.00     0.110 C 
ATOM      3  C3  MBG d   1       3.677  13.703  10.120  0.00  0.00     0.092 C 
ATOM      4  C4  MBG d   1       4.087  12.372   9.475  0.00  0.00     0.090 C 
ATOM      5  C5  MBG d   1       4.574  12.639   8.042  0.00  0.00     0.089 C 
ATOM      6  O5  MBG d   1       3.561  13.290   7.269  0.00  0.00    -0.349 OA
ATOM      7  H1  MBG d   1       4.275  15.131   7.945  0.00  0.00     0.133 H 
ATOM      8  H2  MBG d   1       1.769  13.852   9.129  0.00  0.00     0.094 H 
ATOM      9  H3  MBG d   1       4.583  14.319  10.221  0.00  0.00     0.091 H 
ATOM     10  H4  MBG d   1       4.903  11.920  10.058  0.00  0.00     0.091 H 
ATOM     11  H5  MBG d   1       5.462  13.286   8.090  0.00  0.00     0.090 H 
ENDROOT
BRANCH   1  12
ATOM     12  O1  MBG d   1       2.508  15.400   6.917  0.00  0.00    -0.363 OA
BRANCH  12  13
ATOM     13  C7  MBG d   1       1.098  15.395   7.286  0.00  0.00     0.007 C 
ATOM     14  H8  MBG d   1       0.529  16.004   6.568  0.00  0.00     0.066 H 
ATOM     15  H9  MBG d   1       0.982  15.815   8.296  0.00  0.00     0.066 H 
ATOM     16  H10 MBG d   1       0.719  14.362   7.272  0.00  0.00     0.066 H 
ENDBRANCH  12  13
ENDBRANCH   1  12
BRANCH   2  17
ATOM     17  O2  MBG d   1       2.366  15.682   9.874  0.00  0.00    -0.388 OA
ATOM     18  H11 MBG d   1       1.977  15.503  10.722  0.00  0.00     0.210 HD
ENDBRANCH   2  17
BRANCH   3  19
ATOM     19  O3  MBG d   1       3.109  13.536  11.429  0.00  0.00    -0.390 OA
ATOM     20  H12 MBG d   1       3.746  13.121  11.999  0.00  0.00     0.210 HD
ENDBRANCH   3  19
BRANCH   5  21
ATOM     21  C6  MBG d   1       4.942  11.341   7.335  0.00  0.00     0.043 C 
ATOM     22  H6  MBG d   1       4.026  10.786   7.084  0.00  0.00     0.078 H 
ATOM     23  H7  MBG d   1       5.572  10.728   7.996  0.00  0.00     0.078 H 
BRANCH  21  24
ATOM     24  O6  MBG d   1       5.663  11.648   6.132  0.00  0.00    -0.398 OA
ATOM     25  H14 MBG d   1       6.453  12.128   6.351  0.00  0.00     0.209 HD
ENDBRANCH  21  24
ENDBRANCH   5  21
BRANCH   4  26
ATOM     26  O4  MBG d   1       2.964  11.473   9.459  0.00  0.00    -0.390 OA
ATOM     27  H13 MBG d   1       2.673  11.316  10.350  0.00  0.00     0.210 HD
ENDBRANCH   4  26
TORSDOF 7
