REMARK  5 active torsions:
REMARK  status: ('A' for Active; 'I' for Inactive)
REMARK    1  A    between atoms: C3_3  and  O3_10 
REMARK    2  A    between atoms: C4_4  and  O4_12 
REMARK    3  A    between atoms: C5_5  and  C6_6 
REMARK    4  A    between atoms: C6_6  and  O6_14 
REMARK    5  A    between atoms: C2_13  and  O2_11 
ROOT
ATOM      1  C1  MVL d   1      27.310  45.740  -1.839  0.00  0.00     0.138 C 
ATOM      2  N10 MVL d   1      26.868  46.843  -2.416  0.00  0.00    -0.332 N 
ATOM      3  C3  MVL d   1      27.798  46.818   0.306  0.00  0.00     0.093 C 
ATOM      4  C4  MVL d   1      27.520  48.123  -0.496  0.00  0.00     0.085 C 
ATOM      5  C5  MVL d   1      26.445  47.968  -1.569  0.00  0.00     0.065 C 
ATOM      6  C7  MVL d   1      27.612  45.584  -4.000  0.00  0.00     0.019 C 
ATOM      7  C8  MVL d   1      27.156  46.831  -3.752  0.00  0.00    -0.001 C 
ATOM      8  N1  MVL d   1      27.746  44.939  -2.821  0.00  0.00    -0.243 NA
ATOM      9  C2  MVL d   1      27.264  45.536  -0.363  0.00  0.00     0.119 C 
ATOM     10  H1  MVL d   1      27.321  46.918   1.292  0.00  0.00     0.091 H 
ATOM     11  H2  MVL d   1      28.459  48.404  -0.995  0.00  0.00     0.090 H 
ATOM     12  H3  MVL d   1      25.512  47.677  -1.064  0.00  0.00     0.080 H 
ATOM     13  H6  MVL d   1      27.834  45.170  -4.982  0.00  0.00     0.117 H 
ATOM     14  H7  MVL d   1      27.043  47.649  -4.462  0.00  0.00     0.113 H 
ATOM     15  H11 MVL d   1      26.216  45.399  -0.058  0.00  0.00     0.099 H 
ENDROOT
BRANCH   5  16
ATOM     16  C6  MVL d   1      26.124  49.241  -2.354  0.00  0.00     0.038 C 
ATOM     17  H4  MVL d   1      25.952  50.065  -1.646  0.00  0.00     0.077 H 
ATOM     18  H5  MVL d   1      25.215  49.074  -2.950  0.00  0.00     0.077 H 
BRANCH  16  19
ATOM     19  O6  MVL d   1      27.189  49.594  -3.224  0.00  0.00    -0.399 OA
ATOM     20  H12 MVL d   1      27.977  49.743  -2.714  0.00  0.00     0.209 HD
ENDBRANCH  16  19
ENDBRANCH   5  16
BRANCH   4  21
ATOM     21  O4  MVL d   1      27.123  49.202   0.364  0.00  0.00    -0.391 OA
ATOM     22  H10 MVL d   1      27.046  50.000  -0.146  0.00  0.00     0.210 HD
ENDBRANCH   4  21
BRANCH   3  23
ATOM     23  O3  MVL d   1      29.206  46.659   0.477  0.00  0.00    -0.390 OA
ATOM     24  H8  MVL d   1      29.377  45.863   0.966  0.00  0.00     0.210 HD
ENDBRANCH   3  23
BRANCH   9  25
ATOM     25  O2  MVL d   1      27.979  44.363   0.013  0.00  0.00    -0.385 OA
ATOM     26  H9  MVL d   1      27.605  43.610  -0.429  0.00  0.00     0.210 HD
ENDBRANCH   9  25
TORSDOF 5
