REMARK  8 active torsions:
REMARK  status: ('A' for Active; 'I' for Inactive)
REMARK    1  A    between atoms: P4_4  and  O5_5 
REMARK    2  A    between atoms: O5_5  and  P8_8 
REMARK    3  A    between atoms: P8_8  and  O9_9 
REMARK    4  A    between atoms: O9_9  and  C10_10 
REMARK    5  A    between atoms: C10_10  and  C11_11 
REMARK    6  A    between atoms: C11_11  and  N12_12 
REMARK    7  A    between atoms: N12_12  and  C13_13 
REMARK    8  A    between atoms: N12_12  and  C14_14 
ROOT
ATOM      1  C11 DED d   1      -4.404  -4.701  22.653  0.00  0.00     0.102 C 
ATOM      2  H3  DED d   1      -5.190  -4.659  23.421  0.00  0.00     0.079 H 
ATOM      3  H4  DED d   1      -3.420  -4.766  23.139  0.00  0.00     0.079 H 
ENDROOT
BRANCH   1   4
ATOM      4  C10 DED d   1      -4.459  -3.401  21.815  0.00  0.00     0.054 C 
ATOM      5  H1  DED d   1      -5.495  -3.031  21.834  0.00  0.00     0.077 H 
ATOM      6  H2  DED d   1      -3.797  -2.664  22.293  0.00  0.00     0.077 H 
BRANCH   4   7
ATOM      7  O9  DED d   1      -4.054  -3.527  20.416  0.00  0.00    -0.288 OA
BRANCH   7   8
ATOM      8  P8  DED d   1      -3.726  -2.300  19.389  0.00  0.00     0.418 P 
ATOM      9  O6  DED d   1      -5.017  -1.514  19.203  0.00  0.00    -0.624 OA
ATOM     10  O7  DED d   1      -3.050  -2.965  18.266  0.00  0.00    -0.624 OA
BRANCH   8  11
ATOM     11  O5  DED d   1      -2.733  -1.328  20.210  0.00  0.00    -0.173 OA
BRANCH  11  12
ATOM     12  P4  DED d   1      -2.438   0.267  20.093  0.00  0.00     0.431 P 
ATOM     13  O1  DED d   1      -1.672   0.625  21.387  0.00  0.00    -0.616 OA
ATOM     14  O2  DED d   1      -3.721   1.069  19.963  0.00  0.00    -0.616 OA
ATOM     15  O3  DED d   1      -1.547   0.295  18.909  0.00  0.00    -0.616 OA
ENDBRANCH  11  12
ENDBRANCH   8  11
ENDBRANCH   7   8
ENDBRANCH   4   7
ENDBRANCH   1   4
BRANCH   1  16
ATOM     16  N12 DED d   1      -4.610  -5.926  21.822  0.00  0.00    -0.077 N 
ATOM     17  H5  DED d   1      -3.909  -6.558  22.174  0.00  0.00     0.279 HD
BRANCH  16  18
ATOM     18  C13 DED d   1      -5.897  -6.573  22.107  0.00  0.00     0.066 C 
ATOM     19  H6  DED d   1      -6.006  -7.467  21.475  0.00  0.00     0.068 H 
ATOM     20  H7  DED d   1      -6.716  -5.871  21.893  0.00  0.00     0.068 H 
ATOM     21  H8  DED d   1      -5.933  -6.866  23.166  0.00  0.00     0.068 H 
ENDBRANCH  16  18
BRANCH  16  22
ATOM     22  C14 DED d   1      -4.375  -5.928  20.375  0.00  0.00     0.066 C 
ATOM     23  H9  DED d   1      -3.411  -5.444  20.159  0.00  0.00     0.068 H 
ATOM     24  H10 DED d   1      -5.183  -5.377  19.872  0.00  0.00     0.068 H 
ATOM     25  H11 DED d   1      -4.354  -6.965  20.008  0.00  0.00     0.068 H 
ENDBRANCH  16  22
ENDBRANCH   1  16
TORSDOF 8
