REMARK  3 active torsions:
REMARK  status: ('A' for Active; 'I' for Inactive)
REMARK    1  A    between atoms: CAA_1  and  SAH_2 
REMARK    2  A    between atoms: C1_10  and  CAA_1 
REMARK    3  A    between atoms: CAJ_5  and  NAK_6 
ROOT
ATOM      1  CAD 4NM d   1      31.465 -46.409  -9.627  0.00  0.00    -0.074 A 
ATOM      2  CAF 4NM d   1      30.703 -46.727  -8.507  0.00  0.00    -0.051 A 
ATOM      3  CAJ 4NM d   1      31.148 -46.418  -7.215  0.00  0.00     0.102 A 
ATOM      4  CAG 4NM d   1      32.392 -45.791  -7.043  0.00  0.00    -0.051 A 
ATOM      5  C1  4NM d   1      32.697 -45.795  -9.470  0.00  0.00    -0.049 A 
ATOM      6  CAE 4NM d   1      33.161 -45.496  -8.173  0.00  0.00    -0.074 A 
ATOM      7  H4  4NM d   1      31.096 -46.641 -10.619  0.00  0.00     0.084 H 
ATOM      8  H5  4NM d   1      29.748 -47.223  -8.636  0.00  0.00     0.087 H 
ATOM      9  H6  4NM d   1      32.750 -45.540  -6.051  0.00  0.00     0.087 H 
ATOM     10  H7  4NM d   1      34.131 -45.029  -8.049  0.00  0.00     0.084 H 
ENDROOT
BRANCH   5  11
ATOM     11  CAA 4NM d   1      33.491 -45.487 -10.728  0.00  0.00    -0.002 C 
ATOM     12  H1  4NM d   1      32.904 -45.747 -11.621  0.00  0.00     0.055 H 
ATOM     13  H2  4NM d   1      33.753 -44.419 -10.760  0.00  0.00     0.055 H 
BRANCH  11  14
ATOM     14  SAH 4NM d   1      34.988 -46.494 -10.652  0.00  0.00    -0.178 SA
ATOM     15  H3  4NM d   1      35.549 -46.322 -11.471  0.00  0.00     0.101 HD
ENDBRANCH  11  14
ENDBRANCH   5  11
BRANCH   3  16
ATOM     16  NAK 4NM d   1      30.292 -46.728  -6.140  0.00  0.00    -0.116 N 
ATOM     17  OAC 4NM d   1      30.441 -46.241  -5.038  0.00  0.00    -0.532 OA
ATOM     18  OAB 4NM d   1      29.318 -47.434  -6.326  0.00  0.00    -0.532 OA
ENDBRANCH   3  16
TORSDOF 3
