REMARK WARNING: 32 MAX_TORS EXCEEDED!!!
REMARK  36 active torsions:
REMARK  status: ('A' for Active; 'I' for Inactive)
REMARK    1  A    between atoms: N_1  and  CA_2 
REMARK    2  A    between atoms: CA_2  and  C_3 
REMARK    3  A    between atoms: CA_2  and  CB_5 
REMARK       I    between atoms: C_3  and  N_6 
REMARK    4  A    between atoms: N_6  and  CA_7 
REMARK    5  A    between atoms: CA_7  and  C_8 
REMARK    6  A    between atoms: CA_7  and  CB_10 
REMARK       I    between atoms: C_8  and  N_17 
REMARK    7  A    between atoms: CB_10  and  CG_11 
REMARK    8  A    between atoms: CG_11  and  CD_12 
REMARK    9  A    between atoms: CD_12  and  NE_13 
REMARK       I    between atoms: NE_13  and  CZ_14 
REMARK       I    between atoms: CZ_14  and  NH1_15 
REMARK   10  A    between atoms: N_17  and  CA_18 
REMARK   11  A    between atoms: CA_18  and  C_19 
REMARK   12  A    between atoms: CA_18  and  CB_21 
REMARK       I    between atoms: C_19  and  N_24 
REMARK   13  A    between atoms: CB_21  and  OG1_22 
REMARK   14  A    between atoms: CB_21  and  CG2_23 
REMARK   15  A    between atoms: N_24  and  CA_25 
REMARK   16  A    between atoms: CA_25  and  CB_26 
REMARK   17  A    between atoms: CA_25  and  C_33 
REMARK   18  A    between atoms: CB_26  and  CG_27 
REMARK   19  A    between atoms: CG_27  and  CD_28 
REMARK   20  A    between atoms: CD_28  and  CE_29 
REMARK   21  A    between atoms: CE_29  and  NZ_30 
REMARK   22  A    between atoms: NZ_30  and  CH1_31 
REMARK   23  A    between atoms: NZ_30  and  CH2_32 
REMARK       I    between atoms: C_33  and  N_35 
REMARK   24  A    between atoms: N_35  and  CA_36 
REMARK   25  A    between atoms: CA_36  and  C_37 
REMARK   26  A    between atoms: CA_36  and  CB_39 
REMARK       I    between atoms: C_37  and  N_44 
REMARK   27  A    between atoms: CB_39  and  CG_40 
REMARK   28  A    between atoms: CG_40  and  CD_41 
REMARK       I    between atoms: CD_41  and  NE2_43 
REMARK   29  A    between atoms: N_44  and  CA_45 
REMARK   30  A    between atoms: CA_45  and  C_46 
REMARK   31  A    between atoms: CA_45  and  CB_48 
REMARK       I    between atoms: C_46  and  N_51 
REMARK   32  A    between atoms: CB_48  and  OG1_49 
REMARK   33  A    between atoms: CB_48  and  CG2_50 
REMARK   34  A    between atoms: N_51  and  CA_52 
REMARK   35  A    between atoms: CA_52  and  C_53 
REMARK   36  A    between atoms: CA_52  and  CB_55 
ROOT
ATOM      1  CA  MLY d   1     -20.280 -11.265  13.761  0.00  0.00     0.089 C 
ATOM      2  H29 MLY d   1     -20.697 -10.936  14.725  0.00  0.00     0.087 H 
ENDROOT
BRANCH   1   3
ATOM      3  N   MLY d   1     -19.855 -12.643  13.919  0.00  0.00    -0.346 N 
ATOM      4  C   THR d   1     -20.610 -13.535  14.556  0.00  0.00     0.243 C 
ATOM      5  O   THR d   1     -21.645 -13.234  15.128  0.00  0.00    -0.271 OA
ATOM      6  H28 MLY d   1     -18.975 -12.929  13.541  0.00  0.00     0.163 HD
BRANCH   4   7
ATOM      7  CA  THR d   1     -20.165 -14.978  14.498  0.00  0.00     0.113 C 
ATOM      8  H22 THR d   1     -19.177 -15.073  14.972  0.00  0.00     0.091 H 
BRANCH   7   9
ATOM      9  N   THR d   1     -21.128 -15.823  15.229  0.00  0.00    -0.344 N 
ATOM     10  C   ARG d   1     -20.724 -16.672  16.170  0.00  0.00     0.241 C 
ATOM     11  O   ARG d   1     -19.532 -16.850  16.438  0.00  0.00    -0.271 OA
ATOM     12  H21 THR d   1     -22.102 -15.756  15.013  0.00  0.00     0.163 HD
BRANCH  10  13
ATOM     13  CA  ARG d   1     -21.831 -17.423  16.933  0.00  0.00     0.089 C 
ATOM     14  H9  ARG d   1     -22.801 -17.005  16.627  0.00  0.00     0.087 H 
BRANCH  13  15
ATOM     15  N   ARG d   1     -21.827 -18.846  16.629  0.00  0.00    -0.346 N 
ATOM     16  C   ALA d   1     -22.303 -19.334  15.486  0.00  0.00     0.248 C 
ATOM     17  O   ALA d   1     -22.772 -18.630  14.598  0.00  0.00    -0.271 OA
ATOM     18  H8  ARG d   1     -21.452 -19.481  17.304  0.00  0.00     0.163 HD
BRANCH  16  19
ATOM     19  CA  ALA d   1     -22.225 -20.835  15.317  0.00  0.00     0.172 C 
ATOM     20  H4  ALA d   1     -22.252 -21.310  16.309  0.00  0.00     0.098 H 
BRANCH  19  21
ATOM     21  N   ALA d   1     -23.405 -21.311  14.526  0.00  0.00    -0.067 N 
ATOM     22  H1  ALA d   1     -23.353 -22.311  14.414  0.00  0.00     0.275 HD
ATOM     23  H2  ALA d   1     -23.402 -20.870  13.619  0.00  0.00     0.275 HD
ATOM     24  H3  ALA d   1     -24.255 -21.072  15.013  0.00  0.00     0.275 HD
ENDBRANCH  19  21
BRANCH  19  25
ATOM     25  CB  ALA d   1     -20.916 -21.201  14.639  0.00  0.00    -0.042 C 
ATOM     26  H5  ALA d   1     -20.074 -20.837  15.246  0.00  0.00     0.030 H 
ATOM     27  H6  ALA d   1     -20.877 -20.737  13.642  0.00  0.00     0.030 H 
ATOM     28  H7  ALA d   1     -20.849 -22.294  14.537  0.00  0.00     0.030 H 
ENDBRANCH  19  25
ENDBRANCH  16  19
ENDBRANCH  13  15
BRANCH  13  29
ATOM     29  CB  ARG d   1     -21.670 -17.232  18.452  0.00  0.00    -0.036 C 
ATOM     30  H10 ARG d   1     -20.817 -17.842  18.783  0.00  0.00     0.036 H 
ATOM     31  H11 ARG d   1     -22.588 -17.591  18.939  0.00  0.00     0.036 H 
BRANCH  29  32
ATOM     32  CG  ARG d   1     -21.429 -15.807  18.901  0.00  0.00    -0.048 C 
ATOM     33  H12 ARG d   1     -21.257 -15.177  18.016  0.00  0.00     0.035 H 
ATOM     34  H13 ARG d   1     -20.540 -15.781  19.548  0.00  0.00     0.035 H 
BRANCH  32  35
ATOM     35  CD  ARG d   1     -22.618 -15.258  19.674  0.00  0.00     0.009 C 
ATOM     36  H14 ARG d   1     -23.194 -16.094  20.098  0.00  0.00     0.064 H 
ATOM     37  H15 ARG d   1     -23.259 -14.679  18.993  0.00  0.00     0.064 H 
BRANCH  35  38
ATOM     38  NE  ARG d   1     -22.158 -14.394  20.753  0.00  0.00    -0.227 N 
ATOM     39  CZ  ARG d   1     -22.132 -14.727  22.045  0.00  0.00     0.665 C 
ATOM     40  NH1 ARG d   1     -22.569 -15.913  22.478  0.00  0.00    -0.235 N 
ATOM     41  NH2 ARG d   1     -21.670 -13.854  22.909  0.00  0.00    -0.235 N 
ATOM     42  H17 ARG d   1     -22.535 -16.139  23.482  0.00  0.00     0.174 HD
ATOM     43  H18 ARG d   1     -22.940 -16.601  21.808  0.00  0.00     0.174 HD
ATOM     44  H19 ARG d   1     -21.331 -12.937  22.584  0.00  0.00     0.174 HD
ATOM     45  H20 ARG d   1     -21.646 -14.085  23.912  0.00  0.00     0.174 HD
ATOM     46  H16 ARG d   1     -21.827 -13.452  20.499  0.00  0.00     0.177 HD
ENDBRANCH  35  38
ENDBRANCH  32  35
ENDBRANCH  29  32
ENDBRANCH  13  29
ENDBRANCH  10  13
ENDBRANCH   7   9
BRANCH   7  47
ATOM     47  CB  THR d   1     -20.055 -15.412  13.001  0.00  0.00     0.060 C 
ATOM     48  H23 THR d   1     -19.193 -14.904  12.544  0.00  0.00     0.086 H 
BRANCH  47  49
ATOM     49  OG1 THR d   1     -21.245 -15.014  12.308  0.00  0.00    -0.393 OA
ATOM     50  H24 THR d   1     -21.182 -15.276  11.397  0.00  0.00     0.210 HD
ENDBRANCH  47  49
BRANCH  47  51
ATOM     51  CG2 THR d   1     -19.836 -16.920  12.904  0.00  0.00    -0.050 C 
ATOM     52  H25 THR d   1     -19.760 -17.212  11.846  0.00  0.00     0.031 H 
ATOM     53  H26 THR d   1     -20.684 -17.444  13.370  0.00  0.00     0.031 H 
ATOM     54  H27 THR d   1     -18.906 -17.190  13.426  0.00  0.00     0.031 H 
ENDBRANCH  47  51
ENDBRANCH   7  47
ENDBRANCH   4   7
ENDBRANCH   1   3
BRANCH   1  55
ATOM     55  CB  MLY d   1     -19.082 -10.368  13.445  0.00  0.00    -0.038 C 
ATOM     56  H30 MLY d   1     -19.447  -9.351  13.240  0.00  0.00     0.036 H 
ATOM     57  H31 MLY d   1     -18.572 -10.761  12.553  0.00  0.00     0.036 H 
BRANCH  55  58
ATOM     58  CG  MLY d   1     -18.076 -10.306  14.600  0.00  0.00    -0.061 C 
ATOM     59  H32 MLY d   1     -17.244  -9.647  14.310  0.00  0.00     0.033 H 
ATOM     60  H33 MLY d   1     -17.692 -11.319  14.790  0.00  0.00     0.033 H 
BRANCH  58  61
ATOM     61  CD  MLY d   1     -18.709  -9.763  15.901  0.00  0.00    -0.042 C 
ATOM     62  H34 MLY d   1     -19.561 -10.402  16.174  0.00  0.00     0.035 H 
ATOM     63  H35 MLY d   1     -19.063  -8.737  15.722  0.00  0.00     0.035 H 
BRANCH  61  64
ATOM     64  CE  MLY d   1     -17.707  -9.745  17.071  0.00  0.00     0.083 C 
ATOM     65  H36 MLY d   1     -16.773  -9.286  16.716  0.00  0.00     0.075 H 
ATOM     66  H37 MLY d   1     -17.513 -10.785  17.373  0.00  0.00     0.075 H 
BRANCH  64  67
ATOM     67  NZ  MLY d   1     -18.172  -8.989  18.272  0.00  0.00    -0.079 N 
ATOM     68  H38 MLY d   1     -18.454  -8.067  17.978  0.00  0.00     0.278 HD
BRANCH  67  69
ATOM     69  CH1 MLY d   1     -17.053  -8.873  19.220  0.00  0.00     0.066 C 
ATOM     70  H39 MLY d   1     -17.383  -8.317  20.110  0.00  0.00     0.068 H 
ATOM     71  H40 MLY d   1     -16.221  -8.337  18.741  0.00  0.00     0.068 H 
ATOM     72  H41 MLY d   1     -16.719  -9.878  19.518  0.00  0.00     0.068 H 
ENDBRANCH  67  69
BRANCH  67  73
ATOM     73  CH2 MLY d   1     -19.322  -9.633  18.951  0.00  0.00     0.066 C 
ATOM     74  H42 MLY d   1     -20.161  -9.722  18.246  0.00  0.00     0.068 H 
ATOM     75  H43 MLY d   1     -19.630  -9.021  19.812  0.00  0.00     0.068 H 
ATOM     76  H44 MLY d   1     -19.028 -10.634  19.299  0.00  0.00     0.068 H 
ENDBRANCH  67  73
ENDBRANCH  64  67
ENDBRANCH  61  64
ENDBRANCH  58  61
ENDBRANCH  55  58
ENDBRANCH   1  55
BRANCH   1  77
ATOM     77  C   MLY d   1     -21.378 -11.113  12.720  0.00  0.00     0.241 C 
ATOM     78  O   MLY d   1     -21.990 -10.047  12.628  0.00  0.00    -0.271 OA
ATOM     79  N   GLN d   1     -21.634 -12.172  11.948  0.00  0.00    -0.346 N 
ATOM     80  H45 GLN d   1     -21.081 -12.997  12.064  0.00  0.00     0.163 HD
BRANCH  79  81
ATOM     81  CA  GLN d   1     -22.697 -12.170  10.934  0.00  0.00     0.090 C 
ATOM     82  H46 GLN d   1     -22.828 -11.141  10.567  0.00  0.00     0.087 H 
BRANCH  81  83
ATOM     83  C   GLN d   1     -24.032 -12.627  11.573  0.00  0.00     0.241 C 
ATOM     84  O   GLN d   1     -25.097 -12.444  10.988  0.00  0.00    -0.271 OA
ATOM     85  N   THR d   1     -23.956 -13.200  12.778  0.00  0.00    -0.344 N 
ATOM     86  H53 THR d   1     -23.053 -13.296  13.196  0.00  0.00     0.163 HD
BRANCH  85  87
ATOM     87  CA  THR d   1     -25.123 -13.700  13.529  0.00  0.00     0.113 C 
ATOM     88  H54 THR d   1     -25.582 -14.506  12.938  0.00  0.00     0.091 H 
BRANCH  87  89
ATOM     89  C   THR d   1     -26.178 -12.610  13.731  0.00  0.00     0.243 C 
ATOM     90  O   THR d   1     -25.854 -11.517  14.185  0.00  0.00    -0.271 OA
ATOM     91  N   ALA d   1     -27.435 -12.928  13.394  0.00  0.00    -0.345 N 
ATOM     92  H60 ALA d   1     -27.632 -13.864  13.102  0.00  0.00     0.163 HD
BRANCH  91  93
ATOM     93  CA  ALA d   1     -28.534 -11.958  13.437  0.00  0.00     0.093 C 
ATOM     94  H61 ALA d   1     -28.234 -11.085  12.839  0.00  0.00     0.089 H 
BRANCH  93  95
ATOM     95  C   ALA d   1     -28.826 -11.471  14.861  0.00  0.00     0.196 C 
ATOM     96  O   ALA d   1     -28.583 -12.201  15.859  0.00  0.00    -0.646 OA
ATOM     97  O   ALA d   1     -29.316 -10.324  15.036  0.00  0.00    -0.646 OA
ENDBRANCH  93  95
BRANCH  93  98
ATOM     98  CB  ALA d   1     -29.795 -12.555  12.810  0.00  0.00    -0.048 C 
ATOM     99  H62 ALA d   1     -30.609 -11.816  12.850  0.00  0.00     0.030 H 
ATOM    100  H63 ALA d   1     -30.090 -13.456  13.367  0.00  0.00     0.030 H 
ATOM    101  H64 ALA d   1     -29.593 -12.822  11.762  0.00  0.00     0.030 H 
ENDBRANCH  93  98
ENDBRANCH  91  93
ENDBRANCH  87  89
BRANCH  87 102
ATOM    102  CB  THR d   1     -24.688 -14.293  14.885  0.00  0.00     0.060 C 
ATOM    103  H55 THR d   1     -24.093 -13.544  15.429  0.00  0.00     0.086 H 
BRANCH 102 104
ATOM    104  OG1 THR d   1     -23.897 -15.456  14.641  0.00  0.00    -0.393 OA
ATOM    105  H56 THR d   1     -24.412 -16.093  14.159  0.00  0.00     0.210 HD
ENDBRANCH 102 104
BRANCH 102 106
ATOM    106  CG2 THR d   1     -25.900 -14.710  15.757  0.00  0.00    -0.050 C 
ATOM    107  H57 THR d   1     -25.540 -15.125  16.710  0.00  0.00     0.031 H 
ATOM    108  H58 THR d   1     -26.490 -15.471  15.225  0.00  0.00     0.031 H 
ATOM    109  H59 THR d   1     -26.529 -13.830  15.955  0.00  0.00     0.031 H 
ENDBRANCH 102 106
ENDBRANCH  87 102
ENDBRANCH  85  87
ENDBRANCH  81  83
BRANCH  81 110
ATOM    110  CB  GLN d   1     -22.290 -13.059   9.734  0.00  0.00    -0.030 C 
ATOM    111  H47 GLN d   1     -22.382 -14.109  10.050  0.00  0.00     0.037 H 
ATOM    112  H48 GLN d   1     -21.239 -12.838   9.496  0.00  0.00     0.037 H 
BRANCH 110 113
ATOM    113  CG  GLN d   1     -23.121 -12.885   8.418  0.00  0.00     0.011 C 
ATOM    114  H49 GLN d   1     -23.113 -11.821   8.139  0.00  0.00     0.047 H 
ATOM    115  H50 GLN d   1     -24.155 -13.205   8.614  0.00  0.00     0.047 H 
BRANCH 113 116
ATOM    116  CD  GLN d   1     -22.569 -13.710   7.226  0.00  0.00     0.215 C 
ATOM    117  OE1 GLN d   1     -23.195 -14.689   6.775  0.00  0.00    -0.274 OA
ATOM    118  NE2 GLN d   1     -21.395 -13.326   6.732  0.00  0.00    -0.370 N 
ATOM    119  H51 GLN d   1     -20.990 -13.821   5.963  0.00  0.00     0.159 HD
ATOM    120  H52 GLN d   1     -20.917 -12.543   7.130  0.00  0.00     0.159 HD
ENDBRANCH 113 116
ENDBRANCH 110 113
ENDBRANCH  81 110
ENDBRANCH  79  81
ENDBRANCH   1  77
TORSDOF 36
