REMARK  3 active torsions:
REMARK  status: ('A' for Active; 'I' for Inactive)
REMARK    1  A    between atoms: C_2  and  CA_4 
REMARK    2  A    between atoms: CAI_6  and  CAA_7 
REMARK    3  A    between atoms: CB_10  and  OG1_11 
ROOT
ATOM      1  CA  6CS d   1      43.502  32.168  32.905  0.00  0.00     0.144 C 
ATOM      2  N   6CS d   1      42.870  31.764  31.642  0.00  0.00    -0.259 NA
ATOM      3  CAI 6CS d   1      42.184  32.568  30.921  0.00  0.00     0.091 C 
ATOM      4  NAG 6CS d   1      41.984  33.840  31.284  0.00  0.00    -0.376 N 
ATOM      5  CG2 6CS d   1      42.405  34.447  32.545  0.00  0.00     0.020 C 
ATOM      6  CB  6CS d   1      42.650  33.288  33.510  0.00  0.00     0.082 C 
ATOM      7  H1  6CS d   1      44.502  32.568  32.681  0.00  0.00     0.097 H 
ATOM      8  H5  6CS d   1      41.489  34.446  30.614  0.00  0.00     0.160 HD
ATOM      9  H6  6CS d   1      41.616  35.107  32.934  0.00  0.00     0.068 H 
ATOM     10  H7  6CS d   1      43.329  35.026  32.401  0.00  0.00     0.068 H 
ATOM     11  H8  6CS d   1      41.677  32.858  33.791  0.00  0.00     0.089 H 
ENDROOT
BRANCH   1  12
ATOM     12  C   6CS d   1      43.675  31.011  33.878  0.00  0.00     0.201 C 
ATOM     13  O   6CS d   1      43.530  29.850  33.451  0.00  0.00    -0.646 OA
ATOM     14  OXT 6CS d   1      44.007  31.224  35.069  0.00  0.00    -0.646 OA
ENDBRANCH   1  12
BRANCH   6  15
ATOM     15  OG1 6CS d   1      43.281  33.823  34.684  0.00  0.00    -0.391 OA
ATOM     16  H9  6CS d   1      43.445  33.120  35.302  0.00  0.00     0.210 HD
ENDBRANCH   6  15
BRANCH   3  17
ATOM     17  CAA 6CS d   1      41.579  32.084  29.621  0.00  0.00    -0.022 C 
ATOM     18  H2  6CS d   1      41.834  31.025  29.470  0.00  0.00     0.037 H 
ATOM     19  H3  6CS d   1      41.978  32.680  28.787  0.00  0.00     0.037 H 
ATOM     20  H4  6CS d   1      40.485  32.196  29.662  0.00  0.00     0.037 H 
ENDBRANCH   3  17
TORSDOF 3
