REMARK  17 active torsions:
REMARK  status: ('A' for Active; 'I' for Inactive)
REMARK    1  A    between atoms: N_1  and  CM_2 
REMARK    2  A    between atoms: CA_3  and  N_1 
REMARK    3  A    between atoms: CA_3  and  CB_4 
REMARK    4  A    between atoms: C_5  and  CA_3 
REMARK       I    between atoms: C_5  and  N_7 
REMARK    5  A    between atoms: N_7  and  CA_8 
REMARK    6  A    between atoms: CA_8  and  CB_11 
REMARK    7  A    between atoms: CA_8  and  C_9 
REMARK       I    between atoms: C_9  and  N_16 
REMARK    8  A    between atoms: CB_11  and  CG_12 
REMARK    9  A    between atoms: CG_12  and  CD_13 
REMARK   10  A    between atoms: CD_13  and  CE_14 
REMARK   11  A    between atoms: CE_14  and  NZ_15 
REMARK   12  A    between atoms: CA_17  and  C_18 
REMARK       I    between atoms: C_18  and  N_23 
REMARK   13  A    between atoms: N_23  and  CA_24 
REMARK   14  A    between atoms: CA_24  and  CB_27 
REMARK   15  A    between atoms: CA_24  and  C_25 
REMARK   16  A    between atoms: C_25  and  O1_34 
REMARK   17  A    between atoms: CB_27  and  CG_28 
ROOT
ATOM      1  C   LYS d   1       9.809  15.263  29.579  0.00  0.00     0.243 C 
ATOM      2  O   LYS d   1       9.529  14.562  28.602  0.00  0.00    -0.271 OA
ATOM      3  N   PRO d   1      10.951  15.114  30.248  0.00  0.00    -0.337 N 
ATOM      4  CA  PRO d   1      11.909  14.076  29.863  0.00  0.00     0.091 C 
ATOM      5  CB  PRO d   1      13.207  14.581  30.468  0.00  0.00    -0.036 C 
ATOM      6  CG  PRO d   1      12.725  15.204  31.749  0.00  0.00    -0.048 C 
ATOM      7  CD  PRO d   1      11.519  15.995  31.284  0.00  0.00    -0.001 C 
ATOM      8  H23 PRO d   1      11.987  13.984  28.770  0.00  0.00     0.087 H 
ATOM      9  H24 PRO d   1      13.690  15.325  29.817  0.00  0.00     0.036 H 
ATOM     10  H25 PRO d   1      13.907  13.755  30.663  0.00  0.00     0.036 H 
ATOM     11  H26 PRO d   1      12.440  14.436  32.484  0.00  0.00     0.035 H 
ATOM     12  H27 PRO d   1      13.490  15.863  32.185  0.00  0.00     0.035 H 
ATOM     13  H28 PRO d   1      10.806  16.156  32.106  0.00  0.00     0.064 H 
ATOM     14  H29 PRO d   1      11.817  16.966  30.862  0.00  0.00     0.064 H 
ENDROOT
BRANCH   1  15
ATOM     15  CA  LYS d   1       8.868  16.362  30.052  0.00  0.00     0.089 C 
ATOM     16  H11 LYS d   1       9.430  17.099  30.645  0.00  0.00     0.087 H 
BRANCH  15  17
ATOM     17  N   LYS d   1       8.301  17.008  28.884  0.00  0.00    -0.346 N 
ATOM     18  C   MAA d   1       8.628  18.250  28.561  0.00  0.00     0.248 C 
ATOM     19  O   MAA d   1       9.415  18.931  29.222  0.00  0.00    -0.271 OA
ATOM     20  H10 LYS d   1       7.652  16.507  28.312  0.00  0.00     0.163 HD
BRANCH  18  21
ATOM     21  CA  MAA d   1       7.967  18.804  27.314  0.00  0.00     0.174 C 
ATOM     22  H6  MAA d   1       6.985  18.326  27.184  0.00  0.00     0.098 H 
BRANCH  21  23
ATOM     23  N   MAA d   1       7.781  20.241  27.461  0.00  0.00    -0.067 N 
ATOM     24  H1  MAA d   1       8.391  20.641  28.157  0.00  0.00     0.277 HD
ATOM     25  H2  MAA d   1       7.894  20.736  26.590  0.00  0.00     0.277 HD
BRANCH  23  26
ATOM     26  CM  MAA d   1       6.386  20.189  27.901  0.00  0.00     0.066 C 
ATOM     27  H3  MAA d   1       6.020  21.211  28.080  0.00  0.00     0.067 H 
ATOM     28  H4  MAA d   1       6.316  19.606  28.831  0.00  0.00     0.067 H 
ATOM     29  H5  MAA d   1       5.774  19.711  27.122  0.00  0.00     0.067 H 
ENDBRANCH  23  26
ENDBRANCH  21  23
BRANCH  21  30
ATOM     30  CB  MAA d   1       8.831  18.503  26.091  0.00  0.00    -0.041 C 
ATOM     31  H7  MAA d   1       8.962  17.415  25.994  0.00  0.00     0.030 H 
ATOM     32  H8  MAA d   1       9.814  18.982  26.210  0.00  0.00     0.030 H 
ATOM     33  H9  MAA d   1       8.339  18.895  25.189  0.00  0.00     0.030 H 
ENDBRANCH  21  30
ENDBRANCH  18  21
ENDBRANCH  15  17
BRANCH  15  34
ATOM     34  CB  LYS d   1       7.752  15.763  30.916  0.00  0.00    -0.038 C 
ATOM     35  H12 LYS d   1       7.300  14.926  30.363  0.00  0.00     0.036 H 
ATOM     36  H13 LYS d   1       6.994  16.541  31.088  0.00  0.00     0.036 H 
BRANCH  34  37
ATOM     37  CG  LYS d   1       8.216  15.246  32.264  0.00  0.00    -0.061 C 
ATOM     38  H14 LYS d   1       8.689  16.070  32.819  0.00  0.00     0.033 H 
ATOM     39  H15 LYS d   1       8.950  14.442  32.105  0.00  0.00     0.033 H 
BRANCH  37  40
ATOM     40  CD  LYS d   1       7.056  14.701  33.083  0.00  0.00    -0.043 C 
ATOM     41  H16 LYS d   1       6.599  13.856  32.547  0.00  0.00     0.035 H 
ATOM     42  H17 LYS d   1       6.307  15.495  33.223  0.00  0.00     0.035 H 
BRANCH  40  43
ATOM     43  CE  LYS d   1       7.544  14.225  34.446  0.00  0.00     0.080 C 
ATOM     44  H18 LYS d   1       6.697  13.798  35.003  0.00  0.00     0.075 H 
ATOM     45  H19 LYS d   1       7.954  15.081  35.001  0.00  0.00     0.075 H 
BRANCH  43  46
ATOM     46  NZ  LYS d   1       8.600  13.190  34.297  0.00  0.00    -0.079 N 
ATOM     47  H20 LYS d   1       8.908  12.890  35.209  0.00  0.00     0.274 HD
ATOM     48  H21 LYS d   1       9.380  13.577  33.790  0.00  0.00     0.274 HD
ATOM     49  H22 LYS d   1       8.228  12.401  33.791  0.00  0.00     0.274 HD
ENDBRANCH  43  46
ENDBRANCH  40  43
ENDBRANCH  37  40
ENDBRANCH  34  37
ENDBRANCH  15  34
ENDBRANCH   1  15
BRANCH   4  50
ATOM     50  C   PRO d   1      11.499  12.735  30.468  0.00  0.00     0.241 C 
ATOM     51  O   PRO d   1      10.726  12.699  31.423  0.00  0.00    -0.271 OA
ATOM     52  N   PHE d   1      12.013  11.643  29.911  0.00  0.00    -0.345 N 
ATOM     53  H30 PHE d   1      12.605  11.735  29.110  0.00  0.00     0.163 HD
BRANCH  52  54
ATOM     54  CA  PHE d   1      11.732  10.310  30.443  0.00  0.00     0.097 C 
ATOM     55  H31 PHE d   1      11.607  10.372  31.534  0.00  0.00     0.089 H 
BRANCH  54  56
ATOM     56  CB  PHE d   1      10.452   9.722  29.830  0.00  0.00    -0.013 C 
ATOM     57  H32 PHE d   1       9.658  10.480  29.895  0.00  0.00     0.043 H 
ATOM     58  H33 PHE d   1      10.163   8.837  30.416  0.00  0.00     0.043 H 
BRANCH  56  59
ATOM     59  CG  PHE d   1      10.596   9.312  28.396  0.00  0.00    -0.056 A 
ATOM     60  CD1 PHE d   1      11.190   8.102  28.060  0.00  0.00    -0.077 A 
ATOM     61  CE1 PHE d   1      11.341   7.731  26.726  0.00  0.00    -0.082 A 
ATOM     62  H34 PHE d   1      11.540   7.440  28.844  0.00  0.00     0.084 H 
ATOM     63  CZ  PHE d   1      10.893   8.577  25.714  0.00  0.00    -0.083 A 
ATOM     64  H36 PHE d   1      11.807   6.785  26.476  0.00  0.00     0.083 H 
ATOM     65  CE2 PHE d   1      10.300   9.782  26.040  0.00  0.00    -0.082 A 
ATOM     66  H38 PHE d   1      11.009   8.291  24.675  0.00  0.00     0.083 H 
ATOM     67  CD2 PHE d   1      10.153  10.146  27.375  0.00  0.00    -0.077 A 
ATOM     68  H37 PHE d   1       9.950  10.443  25.256  0.00  0.00     0.083 H 
ATOM     69  H35 PHE d   1       9.687  11.093  27.623  0.00  0.00     0.084 H 
ENDBRANCH  56  59
ENDBRANCH  54  56
BRANCH  54  70
ATOM     70  C   PHE d   1      12.926   9.427  30.116  0.00  0.00     0.163 C 
ATOM     71  O   PHE d   1      13.690   9.854  29.219  0.00  0.00    -0.648 OA
BRANCH  70  72
ATOM     72  O1  PHE d   1      13.146   8.274  30.742  0.00  0.00    -0.775 OA
ATOM     73  H39 PHE d   1      13.145   7.566  30.109  0.00  0.00     0.167 HD
ENDBRANCH  70  72
ENDBRANCH  54  70
ENDBRANCH  52  54
ENDBRANCH   4  50
TORSDOF 17
