REMARK  5 active torsions:
REMARK  status: ('A' for Active; 'I' for Inactive)
REMARK    1  A    between atoms: C3_3  and  C31_16 
REMARK    2  A    between atoms: N9_12  and  C91_14 
REMARK    3  A    between atoms: C91_14  and  C92_15 
REMARK    4  A    between atoms: C31_16  and  N32_17 
REMARK    5  A    between atoms: N32_17  and  C33_18 
ROOT
ATOM      1  C1  P83 d   1     125.208 105.194 -40.994  0.00  0.00    -0.056 A 
ATOM      2  C2  P83 d   1     125.067 106.617 -40.924  0.00  0.00    -0.073 A 
ATOM      3  C3  P83 d   1     124.723 107.386 -42.087  0.00  0.00    -0.032 A 
ATOM      4  C4  P83 d   1     124.517 106.729 -43.325  0.00  0.00    -0.062 A 
ATOM      5  C4A P83 d   1     124.653 105.295 -43.427  0.00  0.00     0.004 A 
ATOM      6  C4B P83 d   1     124.515 104.373 -44.511  0.00  0.00     0.003 A 
ATOM      7  C5  P83 d   1     124.184 104.531 -45.902  0.00  0.00    -0.070 A 
ATOM      8  C6  P83 d   1     124.129 103.389 -46.744  0.00  0.00    -0.082 A 
ATOM      9  C7  P83 d   1     124.401 102.095 -46.226  0.00  0.00    -0.081 A 
ATOM     10  C8  P83 d   1     124.732 101.915 -44.855  0.00  0.00    -0.056 A 
ATOM     11  C8A P83 d   1     124.783 103.070 -44.011  0.00  0.00     0.046 A 
ATOM     12  N9  P83 d   1     125.073 103.208 -42.651  0.00  0.00    -0.346 N 
ATOM     13  C9A P83 d   1     125.000 104.546 -42.262  0.00  0.00     0.046 A 
ATOM     14  H1  P83 d   1     125.465 104.618 -40.112  0.00  0.00     0.087 H 
ATOM     15  H2  P83 d   1     125.222 107.122 -39.978  0.00  0.00     0.084 H 
ATOM     16  H3  P83 d   1     124.255 107.308 -44.203  0.00  0.00     0.085 H 
ATOM     17  H4  P83 d   1     123.978 105.516 -46.305  0.00  0.00     0.084 H 
ATOM     18  H5  P83 d   1     123.877 103.506 -47.792  0.00  0.00     0.083 H 
ATOM     19  H6  P83 d   1     124.356 101.234 -46.884  0.00  0.00     0.083 H 
ATOM     20  H7  P83 d   1     124.941 100.928 -44.459  0.00  0.00     0.087 H 
ENDROOT
BRANCH   3  21
ATOM     21  C31 P83 d   1     124.609 108.895 -41.914  0.00  0.00     0.105 C 
ATOM     22  H13 P83 d   1     124.929 109.386 -42.845  0.00  0.00     0.083 H 
ATOM     23  H14 P83 d   1     125.264 109.210 -41.089  0.00  0.00     0.083 H 
BRANCH  21  24
ATOM     24  N32 P83 d   1     123.231 109.301 -41.610  0.00  0.00    -0.075 N 
ATOM     25  H15 P83 d   1     122.912 108.795 -40.799  0.00  0.00     0.277 HD
ATOM     26  H16 P83 d   1     122.643 109.079 -42.398  0.00  0.00     0.277 HD
BRANCH  24  27
ATOM     27  C33 P83 d   1     123.140 110.751 -41.337  0.00  0.00     0.065 C 
ATOM     28  H17 P83 d   1     122.096 111.017 -41.114  0.00  0.00     0.067 H 
ATOM     29  H18 P83 d   1     123.481 111.312 -42.219  0.00  0.00     0.067 H 
ATOM     30  H19 P83 d   1     123.775 111.002 -40.474  0.00  0.00     0.067 H 
ENDBRANCH  24  27
ENDBRANCH  21  24
ENDBRANCH   3  21
BRANCH  12  31
ATOM     31  C91 P83 d   1     125.418 102.086 -41.766  0.00  0.00    -0.003 C 
ATOM     32  H8  P83 d   1     124.993 101.159 -42.178  0.00  0.00     0.064 H 
ATOM     33  H9  P83 d   1     124.994 102.272 -40.768  0.00  0.00     0.064 H 
BRANCH  31  34
ATOM     34  C92 P83 d   1     126.935 101.929 -41.643  0.00  0.00    -0.061 C 
ATOM     35  H10 P83 d   1     127.163 101.084 -40.977  0.00  0.00     0.029 H 
ATOM     36  H11 P83 d   1     127.367 102.851 -41.227  0.00  0.00     0.029 H 
ATOM     37  H12 P83 d   1     127.366 101.739 -42.637  0.00  0.00     0.029 H 
ENDBRANCH  31  34
ENDBRANCH  12  31
TORSDOF 5
