REMARK  8 active torsions:
REMARK  status: ('A' for Active; 'I' for Inactive)
REMARK    1  A    between atoms: C9_4  and  N1_5 
REMARK    2  A    between atoms: C16_14  and  N15_15 
REMARK       I    between atoms: N15_15  and  C14_16 
REMARK    3  A    between atoms: C14_16  and  C22_18 
REMARK    4  A    between atoms: C22_18  and  N4_19 
REMARK    5  A    between atoms: C13_21  and  O33_22 
REMARK    6  A    between atoms: O33_22  and  C34_23 
REMARK    7  A    between atoms: C6_25  and  N7_26 
REMARK       I    between atoms: N7_26  and  C5_27 
REMARK    8  A    between atoms: C5_27  and  C2_29 
ROOT
ATOM      1  N4  LZF d   1      15.440   4.793  25.155  0.00  0.00    -0.058 N 
ATOM      2  C20 LZF d   1      15.575   3.925  23.967  0.00  0.00     0.110 C 
ATOM      3  C13 LZF d   1      14.841   2.647  24.377  0.00  0.00     0.082 C 
ATOM      4  C18 LZF d   1      14.139   4.484  25.800  0.00  0.00     0.105 C 
ATOM      5  C6  LZF d   1      13.714   3.108  25.287  0.00  0.00     0.062 C 
ATOM      6  H11 LZF d   1      16.176   4.554  25.801  0.00  0.00     0.280 HD
ATOM      7  H12 LZF d   1      16.633   3.718  23.748  0.00  0.00     0.080 H 
ATOM      8  H13 LZF d   1      15.102   4.386  23.087  0.00  0.00     0.080 H 
ATOM      9  H14 LZF d   1      15.534   1.988  24.921  0.00  0.00     0.089 H 
ATOM     10  H18 LZF d   1      13.389   5.240  25.524  0.00  0.00     0.079 H 
ATOM     11  H19 LZF d   1      14.253   4.463  26.894  0.00  0.00     0.079 H 
ATOM     12  H20 LZF d   1      12.740   3.142  24.777  0.00  0.00     0.079 H 
ENDROOT
BRANCH   1  13
ATOM     13  C22 LZF d   1      15.585   6.219  24.843  0.00  0.00     0.156 C 
ATOM     14  H9  LZF d   1      16.429   6.360  24.152  0.00  0.00     0.090 H 
ATOM     15  H10 LZF d   1      14.661   6.588  24.373  0.00  0.00     0.090 H 
BRANCH  13  16
ATOM     16  C14 LZF d   1      15.844   6.987  26.121  0.00  0.00     0.248 C 
ATOM     17  N15 LZF d   1      15.910   6.340  27.306  0.00  0.00    -0.323 N 
ATOM     18  H8  LZF d   1      15.759   5.353  27.358  0.00  0.00     0.169 HD
ATOM     19  O27 LZF d   1      15.976   8.193  26.042  0.00  0.00    -0.271 OA
BRANCH  17  20
ATOM     20  C16 LZF d   1      16.186   7.060  28.427  0.00  0.00     0.073 A 
ATOM     21  C17 LZF d   1      17.461   7.066  28.997  0.00  0.00     0.145 A 
ATOM     22  F32 LZF d   1      18.458   6.338  28.485  0.00  0.00    -0.204 F 
ATOM     23  C11 LZF d   1      17.756   7.822  30.129  0.00  0.00    -0.017 A 
ATOM     24  C9  LZF d   1      16.764   8.587  30.719  0.00  0.00     0.045 A 
ATOM     25  H1  LZF d   1      18.757   7.812  30.546  0.00  0.00     0.091 H 
ATOM     26  C26 LZF d   1      15.489   8.595  30.145  0.00  0.00    -0.054 A 
ATOM     27  C28 LZF d   1      15.183   7.836  29.008  0.00  0.00    -0.052 A 
ATOM     28  H6  LZF d   1      14.714   9.207  30.593  0.00  0.00     0.087 H 
ATOM     29  H7  LZF d   1      14.184   7.851  28.587  0.00  0.00     0.087 H 
BRANCH  24  30
ATOM     30  N1  LZF d   1      17.079   9.357  31.863  0.00  0.00    -0.290 N 
ATOM     31  C21 LZF d   1      16.967   8.864  33.180  0.00  0.00    -0.011 A 
ATOM     32  C29 LZF d   1      17.277   9.651  34.242  0.00  0.00    -0.067 A 
ATOM     33  H2  LZF d   1      16.629   7.842  33.346  0.00  0.00     0.112 H 
ATOM     34  C30 LZF d   1      17.736  10.974  34.026  0.00  0.00    -0.076 A 
ATOM     35  H3  LZF d   1      17.173   9.267  35.256  0.00  0.00     0.085 H 
ATOM     36  C23 LZF d   1      17.864  11.467  32.761  0.00  0.00    -0.017 A 
ATOM     37  H4  LZF d   1      17.989  11.603  34.878  0.00  0.00     0.083 H 
ATOM     38  C8  LZF d   1      17.535  10.665  31.640  0.00  0.00     0.252 A 
ATOM     39  H5  LZF d   1      18.222  12.485  32.611  0.00  0.00     0.092 H 
ATOM     40  O25 LZF d   1      17.635  11.064  30.480  0.00  0.00    -0.268 OA
ENDBRANCH  24  30
ENDBRANCH  17  20
ENDBRANCH  13  16
ENDBRANCH   1  13
BRANCH   3  41
ATOM     41  O33 LZF d   1      14.267   1.913  23.290  0.00  0.00    -0.387 OA
BRANCH  41  42
ATOM     42  C34 LZF d   1      15.181   1.565  22.243  0.00  0.00     0.005 C 
ATOM     43  H15 LZF d   1      14.646   1.007  21.460  0.00  0.00     0.066 H 
ATOM     44  H16 LZF d   1      15.988   0.940  22.653  0.00  0.00     0.066 H 
ATOM     45  H17 LZF d   1      15.611   2.481  21.812  0.00  0.00     0.066 H 
ENDBRANCH  41  42
ENDBRANCH   3  41
BRANCH   5  46
ATOM     46  N7  LZF d   1      13.721   2.153  26.403  0.00  0.00    -0.348 N 
ATOM     47  C5  LZF d   1      12.660   1.989  27.191  0.00  0.00     0.259 C 
ATOM     48  O24 LZF d   1      11.677   2.651  27.020  0.00  0.00    -0.267 OA
ATOM     49  H21 LZF d   1      14.544   1.612  26.576  0.00  0.00     0.163 HD
BRANCH  47  50
ATOM     50  C2  LZF d   1      12.641   1.019  28.315  0.00  0.00     0.074 A 
ATOM     51  C12 LZF d   1      13.406  -0.101  28.612  0.00  0.00    -0.059 A 
ATOM     52  C19 LZF d   1      13.009  -0.719  29.785  0.00  0.00    -0.054 A 
ATOM     53  H22 LZF d   1      14.228  -0.454  27.991  0.00  0.00     0.086 H 
ATOM     54  C10 LZF d   1      11.973   0.023  30.302  0.00  0.00     0.075 A 
ATOM     55  H23 LZF d   1      13.437  -1.623  30.217  0.00  0.00     0.086 H 
ATOM     56  S3  LZF d   1      11.377   1.390  29.457  0.00  0.00    -0.072 SA
ATOM     57 CL1  LZF d   1      11.113  -0.343  31.859  0.00  0.00    -0.076 Cl
ENDBRANCH  47  50
ENDBRANCH   5  46
TORSDOF 8
