REMARK  9 active torsions:
REMARK  status: ('A' for Active; 'I' for Inactive)
REMARK    1  A    between atoms: CAH_1  and  CAG_2 
REMARK       I    between atoms: CAG_2  and  NAI_4 
REMARK    2  A    between atoms: NAI_4  and  CAB_5 
REMARK    3  A    between atoms: CAC_6  and  OAJ_7 
REMARK    4  A    between atoms: CAD_8  and  OAK_9 
REMARK    5  A    between atoms: CAE_10  and  CAF_11 
REMARK    6  A    between atoms: CAF_11  and  OAM_12 
REMARK    7  A    between atoms: NAY_15  and  OAQ_16 
REMARK    8  A    between atoms: OAQ_16  and  CAP_17 
REMARK       I    between atoms: CAP_17  and  NAO_19 
REMARK    9  A    between atoms: NAO_19  and  CAS_20 
ROOT
ATOM      1  CAB OAN d   1      -8.491 -11.639   7.805  0.00  0.00     0.105 C 
ATOM      2  CAC OAN d   1      -9.333 -11.355   9.085  0.00  0.00     0.089 C 
ATOM      3  CAD OAN d   1      -8.602 -10.385  10.036  0.00  0.00     0.090 C 
ATOM      4  CAE OAN d   1      -8.257  -9.081   9.302  0.00  0.00     0.094 C 
ATOM      5  OAL OAN d   1      -7.337  -9.363   8.200  0.00  0.00    -0.324 OA
ATOM      6  CAA OAN d   1      -7.293 -10.640   7.675  0.00  0.00     0.194 C 
ATOM      7  NAY OAN d   1      -6.104 -11.015   7.165  0.00  0.00    -0.100 NA
ATOM      8  H5  OAN d   1      -8.049 -12.640   7.915  0.00  0.00     0.090 H 
ATOM      9  H6  OAN d   1     -10.266 -10.870   8.764  0.00  0.00     0.090 H 
ATOM     10  H8  OAN d   1      -7.670 -10.863  10.373  0.00  0.00     0.091 H 
ATOM     11  H10 OAN d   1      -9.187  -8.691   8.862  0.00  0.00     0.091 H 
ENDROOT
BRANCH   1  12
ATOM     12  NAI OAN d   1      -9.390 -11.696   6.629  0.00  0.00    -0.347 N 
ATOM     13  CAG OAN d   1     -10.101 -10.662   6.155  0.00  0.00     0.214 C 
ATOM     14  OAN OAN d   1     -10.028  -9.494   6.556  0.00  0.00    -0.274 OA
ATOM     15  H4  OAN d   1      -9.473 -12.571   6.153  0.00  0.00     0.163 HD
BRANCH  13  16
ATOM     16  CAH OAN d   1     -11.044 -11.048   5.014  0.00  0.00    -0.003 C 
ATOM     17  H1  OAN d   1     -10.956 -12.126   4.814  0.00  0.00     0.040 H 
ATOM     18  H2  OAN d   1     -10.774 -10.484   4.109  0.00  0.00     0.040 H 
ATOM     19  H3  OAN d   1     -12.080 -10.811   5.298  0.00  0.00     0.040 H 
ENDBRANCH  13  16
ENDBRANCH   1  12
BRANCH   7  20
ATOM     20  OAQ OAN d   1      -5.099 -10.050   7.172  0.00  0.00    -0.153 OA
BRANCH  20  21
ATOM     21  CAP OAN d   1      -3.864 -10.469   6.748  0.00  0.00     0.389 C 
ATOM     22  OAR OAN d   1      -3.657 -11.635   6.382  0.00  0.00    -0.236 OA
ATOM     23  NAO OAN d   1      -2.901  -9.533   6.779  0.00  0.00    -0.301 N 
ATOM     24  H14 OAN d   1      -3.137  -8.635   7.150  0.00  0.00     0.171 HD
BRANCH  23  25
ATOM     25  CAS OAN d   1      -1.649  -9.719   6.348  0.00  0.00     0.036 A 
ATOM     26  CAT OAN d   1      -1.097 -10.999   6.197  0.00  0.00    -0.057 A 
ATOM     27  CAU OAN d   1       0.196 -11.149   5.707  0.00  0.00    -0.081 A 
ATOM     28  H15 OAN d   1      -1.679 -11.874   6.463  0.00  0.00     0.086 H 
ATOM     29  CAV OAN d   1       0.938 -10.006   5.376  0.00  0.00    -0.083 A 
ATOM     30  H16 OAN d   1       0.625 -12.137   5.583  0.00  0.00     0.083 H 
ATOM     31  CAW OAN d   1       0.388  -8.722   5.531  0.00  0.00    -0.081 A 
ATOM     32  H17 OAN d   1       1.948 -10.114   4.996  0.00  0.00     0.083 H 
ATOM     33  CAX OAN d   1      -0.914  -8.585   6.004  0.00  0.00    -0.057 A 
ATOM     34  H18 OAN d   1       0.974  -7.844   5.284  0.00  0.00     0.083 H 
ATOM     35  H19 OAN d   1      -1.355  -7.600   6.105  0.00  0.00     0.086 H 
ENDBRANCH  23  25
ENDBRANCH  20  21
ENDBRANCH   7  20
BRANCH   2  36
ATOM     36  OAJ OAN d   1      -9.689 -12.570   9.780  0.00  0.00    -0.390 OA
ATOM     37  H7  OAN d   1     -10.200 -12.354  10.551  0.00  0.00     0.210 HD
ENDBRANCH   2  36
BRANCH   4  38
ATOM     38  CAF OAN d   1      -7.734  -8.011  10.259  0.00  0.00     0.044 C 
ATOM     39  H11 OAN d   1      -8.358  -8.004  11.165  0.00  0.00     0.078 H 
ATOM     40  H12 OAN d   1      -7.792  -7.029   9.766  0.00  0.00     0.078 H 
BRANCH  38  41
ATOM     41  OAM OAN d   1      -6.394  -8.264  10.625  0.00  0.00    -0.398 OA
ATOM     42  H13 OAN d   1      -6.096  -7.585  11.219  0.00  0.00     0.209 HD
ENDBRANCH  38  41
ENDBRANCH   4  38
BRANCH   3  43
ATOM     43  OAK OAN d   1      -9.391 -10.079  11.169  0.00  0.00    -0.390 OA
ATOM     44  H9  OAN d   1      -8.915  -9.482  11.733  0.00  0.00     0.210 HD
ENDBRANCH   3  43
TORSDOF 9
