REMARK  6 active torsions:
REMARK  status: ('A' for Active; 'I' for Inactive)
REMARK    1  A    between atoms: C9_4  and  N1_5 
REMARK    2  A    between atoms: C16_14  and  N15_15 
REMARK       I    between atoms: N15_15  and  C14_16 
REMARK    3  A    between atoms: C14_16  and  C22_18 
REMARK    4  A    between atoms: C22_18  and  N4_19 
REMARK    5  A    between atoms: C24_21  and  N7_24 
REMARK       I    between atoms: N7_24  and  C5_25 
REMARK    6  A    between atoms: C5_25  and  C2_27 
ROOT
ATOM      1  C22 H22 d   1      -5.035  12.976  21.905  0.00  0.00     0.156 C 
ATOM      2  H9  H22 d   1      -5.921  13.622  21.820  0.00  0.00     0.090 H 
ATOM      3  H10 H22 d   1      -4.139  13.544  21.615  0.00  0.00     0.090 H 
ENDROOT
BRANCH   1   4
ATOM      4  C14 H22 d   1      -5.194  11.792  20.974  0.00  0.00     0.248 C 
ATOM      5  N15 H22 d   1      -5.604  10.618  21.483  0.00  0.00    -0.323 N 
ATOM      6  H8  H22 d   1      -5.727  10.523  22.471  0.00  0.00     0.169 HD
ATOM      7  O27 H22 d   1      -4.947  11.965  19.791  0.00  0.00    -0.271 OA
BRANCH   5   8
ATOM      8  C16 H22 d   1      -5.853   9.557  20.669  0.00  0.00     0.073 A 
ATOM      9  C17 H22 d   1      -4.859   9.111  19.808  0.00  0.00     0.145 A 
ATOM     10  F3  H22 d   1      -3.665   9.727  19.784  0.00  0.00    -0.204 F 
ATOM     11  C11 H22 d   1      -5.064   8.037  18.952  0.00  0.00    -0.017 A 
ATOM     12  C9  H22 d   1      -6.282   7.384  18.952  0.00  0.00     0.044 A 
ATOM     13  H1  H22 d   1      -4.272   7.712  18.287  0.00  0.00     0.091 H 
ATOM     14  C26 H22 d   1      -7.294   7.813  19.819  0.00  0.00    -0.054 A 
ATOM     15  C28 H22 d   1      -7.083   8.898  20.687  0.00  0.00    -0.052 A 
ATOM     16  H6  H22 d   1      -8.251   7.303  19.821  0.00  0.00     0.087 H 
ATOM     17  H7  H22 d   1      -7.867   9.219  21.363  0.00  0.00     0.087 H 
BRANCH  12  18
ATOM     18  N1  H22 d   1      -6.458   6.298  18.060  0.00  0.00    -0.301 N 
ATOM     19  C21 H22 d   1      -6.419   5.049  18.512  0.00  0.00    -0.013 A 
ATOM     20  C29 H22 d   1      -6.593   3.961  17.667  0.00  0.00    -0.067 A 
ATOM     21  H2  H22 d   1      -6.246   4.874  19.573  0.00  0.00     0.112 H 
ATOM     22  C30 H22 d   1      -6.821   4.084  16.235  0.00  0.00    -0.077 A 
ATOM     23  H3  H22 d   1      -6.557   2.962  18.099  0.00  0.00     0.085 H 
ATOM     24  C23 H22 d   1      -6.843   5.470  15.793  0.00  0.00    -0.030 A 
ATOM     25  H4  H22 d   1      -6.960   3.234  15.569  0.00  0.00     0.083 H 
ATOM     26  C8  H22 d   1      -6.673   6.522  16.676  0.00  0.00     0.185 A 
ATOM     27  H5  H22 d   1      -6.998   5.686  14.737  0.00  0.00     0.090 H 
ATOM     28  O25 H22 d   1      -6.707   7.777  16.169  0.00  0.00    -0.172 OA
ENDBRANCH  12  18
ENDBRANCH   5   8
ENDBRANCH   1   4
BRANCH   1  29
ATOM     29  N4  H22 d   1      -4.894  12.537  23.297  0.00  0.00    -0.061 N 
ATOM     30  C20 H22 d   1      -3.567  11.932  23.543  0.00  0.00     0.102 C 
ATOM     31  C24 H22 d   1      -3.064  12.428  24.897  0.00  0.00     0.037 C 
ATOM     32  H12 H22 d   1      -2.866  12.235  22.751  0.00  0.00     0.079 H 
ATOM     33  H13 H22 d   1      -3.654  10.835  23.556  0.00  0.00     0.079 H 
ATOM     34  C34 H22 d   1      -4.150  13.373  25.400  0.00  0.00    -0.022 C 
ATOM     35  H14 H22 d   1      -2.086  12.926  24.820  0.00  0.00     0.075 H 
ATOM     36  C31 H22 d   1      -5.030  13.697  24.192  0.00  0.00     0.086 C 
ATOM     37  H15 H22 d   1      -3.699  14.293  25.800  0.00  0.00     0.038 H 
ATOM     38  H16 H22 d   1      -4.746  12.885  26.185  0.00  0.00     0.038 H 
ATOM     39  H17 H22 d   1      -6.078  13.826  24.501  0.00  0.00     0.076 H 
ATOM     40  H18 H22 d   1      -4.679  14.613  23.693  0.00  0.00     0.076 H 
ATOM     41  H11 H22 d   1      -5.613  11.861  23.503  0.00  0.00     0.280 HD
BRANCH  31  42
ATOM     42  N7  H22 d   1      -3.011  11.276  25.800  0.00  0.00    -0.350 N 
ATOM     43  C5  H22 d   1      -2.049  10.365  25.645  0.00  0.00     0.259 C 
ATOM     44  O24 H22 d   1      -1.216  10.472  24.755  0.00  0.00    -0.267 OA
ATOM     45  H19 H22 d   1      -3.690  11.173  26.527  0.00  0.00     0.163 HD
BRANCH  43  46
ATOM     46  C2  H22 d   1      -1.962   9.179  26.543  0.00  0.00     0.074 A 
ATOM     47  C12 H22 d   1      -2.700   8.728  27.648  0.00  0.00    -0.059 A 
ATOM     48  C19 H22 d   1      -2.218   7.525  28.153  0.00  0.00    -0.054 A 
ATOM     49  H20 H22 d   1      -3.554   9.260  28.064  0.00  0.00     0.086 H 
ATOM     50  C10 H22 d   1      -1.128   7.124  27.391  0.00  0.00     0.075 A 
ATOM     51  H21 H22 d   1      -2.628   6.986  29.006  0.00  0.00     0.086 H 
ATOM     52  S3  H22 d   1      -0.654   8.135  26.073  0.00  0.00    -0.072 SA
ATOM     53 CL1  H22 d   1      -0.183   5.574  27.708  0.00  0.00    -0.076 Cl
ENDBRANCH  43  46
ENDBRANCH  31  42
ENDBRANCH   1  29
TORSDOF 6
