REMARK  6 active torsions:
REMARK  status: ('A' for Active; 'I' for Inactive)
REMARK    1  A    between atoms: C9_4  and  N1_5 
REMARK    2  A    between atoms: N15_15  and  C16_14 
REMARK       I    between atoms: C14_16  and  N15_15 
REMARK    3  A    between atoms: C22_18  and  C14_16 
REMARK    4  A    between atoms: N4_19  and  C22_18 
REMARK       I    between atoms: N7_21  and  C5_22 
REMARK    5  A    between atoms: C1_32  and  N7_21 
REMARK    6  A    between atoms: C5_22  and  C2_24 
ROOT
ATOM      1  N15 H21 d   1      -5.505  10.602  21.664  0.00  0.00    -0.323 N 
ATOM      2  C14 H21 d   1      -5.214  11.808  21.143  0.00  0.00     0.242 C 
ATOM      3  O27 H21 d   1      -5.234  11.971  19.940  0.00  0.00    -0.271 OA
ATOM      4  H8  H21 d   1      -5.504  10.473  22.656  0.00  0.00     0.169 HD
ENDROOT
BRANCH   1   5
ATOM      5  C16 H21 d   1      -5.804   9.548  20.834  0.00  0.00     0.073 A 
ATOM      6  C17 H21 d   1      -4.834   9.066  19.959  0.00  0.00     0.145 A 
ATOM      7  F3  H21 d   1      -3.635   9.644  19.952  0.00  0.00    -0.204 F 
ATOM      8  C11 H21 d   1      -5.061   8.009  19.082  0.00  0.00    -0.017 A 
ATOM      9  C9  H21 d   1      -6.298   7.388  19.084  0.00  0.00     0.045 A 
ATOM     10  H1  H21 d   1      -4.280   7.677  18.407  0.00  0.00     0.091 H 
ATOM     11  C26 H21 d   1      -7.285   7.842  19.972  0.00  0.00    -0.054 A 
ATOM     12  C28 H21 d   1      -7.054   8.919  20.841  0.00  0.00    -0.052 A 
ATOM     13  H6  H21 d   1      -8.250   7.348  19.987  0.00  0.00     0.087 H 
ATOM     14  H7  H21 d   1      -7.835   9.260  21.511  0.00  0.00     0.087 H 
BRANCH   9  15
ATOM     15  N1  H21 d   1      -6.538   6.278  18.186  0.00  0.00    -0.290 N 
ATOM     16  C21 H21 d   1      -6.324   4.985  18.565  0.00  0.00    -0.011 A 
ATOM     17  C29 H21 d   1      -6.539   3.930  17.755  0.00  0.00    -0.067 A 
ATOM     18  H2  H21 d   1      -5.961   4.796  19.574  0.00  0.00     0.112 H 
ATOM     19  C30 H21 d   1      -7.015   4.177  16.448  0.00  0.00    -0.076 A 
ATOM     20  H3  H21 d   1      -6.351   2.914  18.099  0.00  0.00     0.085 H 
ATOM     21  C23 H21 d   1      -7.245   5.445  16.046  0.00  0.00    -0.017 A 
ATOM     22  H4  H21 d   1      -7.196   3.347  15.767  0.00  0.00     0.083 H 
ATOM     23  C8  H21 d   1      -7.011   6.564  16.896  0.00  0.00     0.252 A 
ATOM     24  H5  H21 d   1      -7.622   5.618  15.039  0.00  0.00     0.092 H 
ATOM     25  O25 H21 d   1      -7.193   7.725  16.568  0.00  0.00    -0.268 OA
ENDBRANCH   9  15
ENDBRANCH   1   5
BRANCH   2  26
ATOM     26  C22 H21 d   1      -4.865  13.006  22.017  0.00  0.00     0.092 C 
ATOM     27  H9  H21 d   1      -5.633  13.782  21.881  0.00  0.00     0.082 H 
ATOM     28  H10 H21 d   1      -3.886  13.400  21.706  0.00  0.00     0.082 H 
BRANCH  26  29
ATOM     29  N4  H21 d   1      -4.803  12.649  23.418  0.00  0.00    -0.238 N 
ATOM     30  C20 H21 d   1      -5.483  13.157  24.441  0.00  0.00     0.102 A 
ATOM     31  N2  H21 d   1      -5.148  12.546  25.569  0.00  0.00    -0.055 NA
ATOM     32  H11 H21 d   1      -6.213  13.962  24.363  0.00  0.00     0.147 H 
ATOM     33  C1  H21 d   1      -4.204  11.712  25.143  0.00  0.00     0.747 A 
ATOM     34  N5  H21 d   1      -3.976  11.678  23.856  0.00  0.00     0.023 NA
BRANCH  33  35
ATOM     35  N7  H21 d   1      -3.585  10.742  26.021  0.00  0.00    -0.150 N 
ATOM     36  C5  H21 d   1      -2.342  10.153  25.837  0.00  0.00     0.277 C 
ATOM     37  O24 H21 d   1      -1.614  10.394  24.892  0.00  0.00    -0.266 OA
ATOM     38  H12 H21 d   1      -4.100  10.472  26.834  0.00  0.00     0.188 HD
BRANCH  36  39
ATOM     39  C2  H21 d   1      -2.066   9.086  26.798  0.00  0.00     0.075 A 
ATOM     40  C12 H21 d   1      -2.713   8.727  27.943  0.00  0.00    -0.059 A 
ATOM     41  C19 H21 d   1      -2.178   7.559  28.516  0.00  0.00    -0.054 A 
ATOM     42  H13 H21 d   1      -3.549   9.282  28.366  0.00  0.00     0.086 H 
ATOM     43  C10 H21 d   1      -1.178   7.069  27.760  0.00  0.00     0.075 A 
ATOM     44  H14 H21 d   1      -2.526   7.112  29.446  0.00  0.00     0.086 H 
ATOM     45  S3  H21 d   1      -0.819   8.004  26.374  0.00  0.00    -0.072 SA
ATOM     46 CL1  H21 d   1      -0.251   5.657  27.999  0.00  0.00    -0.076 Cl
ENDBRANCH  36  39
ENDBRANCH  33  35
ENDBRANCH  26  29
ENDBRANCH   2  26
TORSDOF 6
