REMARK  10 active torsions:
REMARK  status: ('A' for Active; 'I' for Inactive)
REMARK    1  A    between atoms: C2_2  and  C1_1 
REMARK    2  A    between atoms: C4_4  and  O4_15 
REMARK    3  A    between atoms: N5_12  and  C5_5 
REMARK    4  A    between atoms: C6_6  and  C7_7 
REMARK    5  A    between atoms: C7_7  and  C8_8 
REMARK    6  A    between atoms: C7_7  and  O7_17 
REMARK    7  A    between atoms: C8_8  and  C9_9 
REMARK    8  A    between atoms: C8_8  and  O8_18 
REMARK    9  A    between atoms: C9_9  and  O9_19 
REMARK   10  A    between atoms: C10_10  and  C11_11 
REMARK       I    between atoms: C10_10  and  N5_12 
ROOT
ATOM      1  C2  DAN d   1      -3.348  76.208  24.649  0.00  0.00     0.144 C 
ATOM      2  C3  DAN d   1      -3.163  74.998  24.090  0.00  0.00    -0.035 C 
ATOM      3  C4  DAN d   1      -3.937  74.524  22.855  0.00  0.00     0.076 C 
ATOM      4  C5  DAN d   1      -4.584  75.672  22.067  0.00  0.00     0.068 C 
ATOM      5  C6  DAN d   1      -5.230  76.599  23.110  0.00  0.00     0.094 C 
ATOM      6  O6  DAN d   1      -4.286  77.137  24.045  0.00  0.00    -0.335 OA
ATOM      7  H1  DAN d   1      -2.431  74.326  24.535  0.00  0.00     0.085 H 
ATOM      8  H2  DAN d   1      -4.800  73.981  23.267  0.00  0.00     0.092 H 
ATOM      9  H3  DAN d   1      -3.821  76.212  21.488  0.00  0.00     0.081 H 
ATOM     10  H4  DAN d   1      -5.976  76.011  23.665  0.00  0.00     0.091 H 
ENDROOT
BRANCH   5  11
ATOM     11  C7  DAN d   1      -5.924  77.776  22.446  0.00  0.00     0.089 C 
ATOM     12  H5  DAN d   1      -6.683  77.357  21.769  0.00  0.00     0.091 H 
BRANCH  11  13
ATOM     13  C8  DAN d   1      -6.656  78.728  23.382  0.00  0.00     0.083 C 
ATOM     14  H6  DAN d   1      -7.308  78.146  24.050  0.00  0.00     0.090 H 
BRANCH  13  15
ATOM     15  C9  DAN d   1      -5.754  79.622  24.241  0.00  0.00     0.043 C 
ATOM     16  H7  DAN d   1      -6.245  80.598  24.364  0.00  0.00     0.078 H 
ATOM     17  H8  DAN d   1      -4.796  79.757  23.718  0.00  0.00     0.078 H 
BRANCH  15  18
ATOM     18  O9  DAN d   1      -5.489  79.079  25.542  0.00  0.00    -0.398 OA
ATOM     19  H16 DAN d   1      -5.056  78.238  25.451  0.00  0.00     0.209 HD
ENDBRANCH  15  18
ENDBRANCH  13  15
BRANCH  13  20
ATOM     20  O8  DAN d   1      -7.440  79.568  22.518  0.00  0.00    -0.391 OA
ATOM     21  H15 DAN d   1      -6.861  80.076  21.962  0.00  0.00     0.210 HD
ENDBRANCH  13  20
ENDBRANCH  11  13
BRANCH  11  22
ATOM     22  O7  DAN d   1      -4.974  78.494  21.652  0.00  0.00    -0.390 OA
ATOM     23  H14 DAN d   1      -4.525  77.889  21.073  0.00  0.00     0.210 HD
ENDBRANCH  11  22
ENDBRANCH   5  11
BRANCH   4  24
ATOM     24  N5  DAN d   1      -5.627  75.173  21.163  0.00  0.00    -0.351 N 
ATOM     25  C10 DAN d   1      -5.802  75.499  19.862  0.00  0.00     0.214 C 
ATOM     26  O10 DAN d   1      -5.124  76.300  19.234  0.00  0.00    -0.274 OA
ATOM     27  H12 DAN d   1      -6.279  74.521  21.551  0.00  0.00     0.163 HD
BRANCH  25  28
ATOM     28  C11 DAN d   1      -6.900  74.777  19.142  0.00  0.00    -0.003 C 
ATOM     29  H9  DAN d   1      -6.945  75.124  18.099  0.00  0.00     0.040 H 
ATOM     30  H10 DAN d   1      -7.860  74.981  19.638  0.00  0.00     0.040 H 
ATOM     31  H11 DAN d   1      -6.701  73.695  19.160  0.00  0.00     0.040 H 
ENDBRANCH  25  28
ENDBRANCH   4  24
BRANCH   3  32
ATOM     32  O4  DAN d   1      -3.224  73.503  22.100  0.00  0.00    -0.389 OA
ATOM     33  H13 DAN d   1      -3.823  73.084  21.493  0.00  0.00     0.210 HD
ENDBRANCH   3  32
BRANCH   1  34
ATOM     34  C1  DAN d   1      -2.668  76.676  25.869  0.00  0.00     0.233 C 
ATOM     35  O1A DAN d   1      -1.525  76.320  26.245  0.00  0.00    -0.642 OA
ATOM     36  O1B DAN d   1      -3.297  77.470  26.594  0.00  0.00    -0.642 OA
ENDBRANCH   1  34
TORSDOF 10
