REMARK  4 active torsions:
REMARK  status: ('A' for Active; 'I' for Inactive)
REMARK    1  A    between atoms: C1'_3  and  N_5 
REMARK    2  A    between atoms: N_5  and  C1_6 
REMARK    3  A    between atoms: C1_6  and  C2_7 
REMARK    4  A    between atoms: C2_7  and  S_8 
ROOT
ATOM      1  C3' NHE d   1      -7.831  77.276  20.264  0.00  0.00    -0.063 C 
ATOM      2  C2' NHE d   1      -6.923  77.013  21.471  0.00  0.00    -0.038 C 
ATOM      3  C1' NHE d   1      -5.632  76.243  21.158  0.00  0.00     0.102 C 
ATOM      4  C6' NHE d   1      -5.850  74.993  20.293  0.00  0.00    -0.038 C 
ATOM      5  C5' NHE d   1      -7.083  75.015  19.384  0.00  0.00    -0.063 C 
ATOM      6  C4' NHE d   1      -7.524  76.430  19.028  0.00  0.00    -0.065 C 
ATOM      7  H1  NHE d   1      -7.731  78.335  19.986  0.00  0.00     0.033 H 
ATOM      8  H2  NHE d   1      -8.869  77.073  20.567  0.00  0.00     0.033 H 
ATOM      9  H3  NHE d   1      -7.496  76.432  22.209  0.00  0.00     0.036 H 
ATOM     10  H4  NHE d   1      -6.644  77.984  21.906  0.00  0.00     0.036 H 
ATOM     11  H5  NHE d   1      -4.991  76.929  20.584  0.00  0.00     0.084 H 
ATOM     12  H6  NHE d   1      -5.944  74.129  20.967  0.00  0.00     0.036 H 
ATOM     13  H7  NHE d   1      -4.963  74.866  19.655  0.00  0.00     0.036 H 
ATOM     14  H14 NHE d   1      -7.911  74.508  19.901  0.00  0.00     0.033 H 
ATOM     15  H15 NHE d   1      -6.846  74.476  18.455  0.00  0.00     0.033 H 
ATOM     16  H16 NHE d   1      -6.719  76.917  18.458  0.00  0.00     0.033 H 
ATOM     17  H17 NHE d   1      -8.430  76.371  18.407  0.00  0.00     0.033 H 
ENDROOT
BRANCH   3  18
ATOM     18  N   NHE d   1      -4.897  75.861  22.361  0.00  0.00    -0.070 N 
ATOM     19  H8  NHE d   1      -4.011  75.505  22.037  0.00  0.00     0.277 HD
ATOM     20  H9  NHE d   1      -5.428  75.112  22.777  0.00  0.00     0.277 HD
BRANCH  18  21
ATOM     21  C1  NHE d   1      -4.579  76.768  23.450  0.00  0.00     0.097 C 
ATOM     22  H10 NHE d   1      -5.399  76.750  24.183  0.00  0.00     0.077 H 
ATOM     23  H11 NHE d   1      -4.468  77.786  23.049  0.00  0.00     0.077 H 
BRANCH  21  24
ATOM     24  C2  NHE d   1      -3.282  76.361  24.142  0.00  0.00     0.068 C 
ATOM     25  H12 NHE d   1      -2.494  76.256  23.382  0.00  0.00     0.062 H 
ATOM     26  H13 NHE d   1      -3.438  75.395  24.645  0.00  0.00     0.062 H 
BRANCH  24  27
ATOM     27  S   NHE d   1      -2.787  77.483  25.276  0.00  0.00     0.103 S 
ATOM     28  O1  NHE d   1      -3.840  77.717  26.294  0.00  0.00    -0.595 OA
ATOM     29  O2  NHE d   1      -2.481  78.765  24.609  0.00  0.00    -0.595 OA
ATOM     30  O3  NHE d   1      -1.565  76.958  25.924  0.00  0.00    -0.595 OA
ENDBRANCH  24  27
ENDBRANCH  21  24
ENDBRANCH  18  21
ENDBRANCH   3  18
TORSDOF 4
