REMARK  13 active torsions:
REMARK  status: ('A' for Active; 'I' for Inactive)
REMARK    1  A    between atoms: C20_11  and  C36_12 
REMARK    2  A    between atoms: C16_16  and  C35_17 
REMARK    3  A    between atoms: C7_19  and  O38_20 
REMARK    4  A    between atoms: O38_20  and  C39_21 
REMARK    5  A    between atoms: C8_22  and  C25_23 
REMARK    6  A    between atoms: C10_25  and  O26_26 
REMARK    7  A    between atoms: O26_26  and  C27_27 
REMARK    8  A    between atoms: C11_28  and  O28_29 
REMARK    9  A    between atoms: O28_29  and  C40_30 
REMARK   10  A    between atoms: C12_31  and  C29_32 
REMARK   11  A    between atoms: C14_34  and  C30_35 
REMARK   12  A    between atoms: C15_36  and  O31_37 
REMARK   13  A    between atoms: O31_37  and  C32_38 
REMARK       I    between atoms: C32_38  and  N34_40 
ROOT
ATOM      1  O23 BC2 d   1     -26.446  34.514  -3.463  0.00  0.00    -0.285 OA
ATOM      2  C2  BC2 d   1     -25.893  33.648  -4.177  0.00  0.00     0.207 A 
ATOM      3  C3  BC2 d   1     -25.391  32.366  -3.524  0.00  0.00     0.090 A 
ATOM      4  C4  BC2 d   1     -24.806  31.432  -4.289  0.00  0.00    -0.005 A 
ATOM      5  C5  BC2 d   1     -24.614  31.658  -5.796  0.00  0.00     0.174 A 
ATOM      6  O24 BC2 d   1     -24.052  30.779  -6.501  0.00  0.00    -0.288 OA
ATOM      7  C6  BC2 d   1     -25.102  32.953  -6.435  0.00  0.00    -0.022 A 
ATOM      8  N22 BC2 d   1     -25.561  32.159  -2.190  0.00  0.00    -0.320 N 
ATOM      9  C21 BC2 d   1     -25.055  32.926  -1.195  0.00  0.00     0.251 C 
ATOM     10  O37 BC2 d   1     -25.222  32.599  -0.023  0.00  0.00    -0.268 OA
ATOM     11  C20 BC2 d   1     -24.310  34.179  -1.418  0.00  0.00     0.006 C 
ATOM     12  C19 BC2 d   1     -23.168  34.191  -2.136  0.00  0.00    -0.072 C 
ATOM     13  C18 BC2 d   1     -22.394  35.412  -2.407  0.00  0.00    -0.085 C 
ATOM     14  C17 BC2 d   1     -21.099  35.466  -2.731  0.00  0.00    -0.097 C 
ATOM     15  C16 BC2 d   1     -20.317  34.184  -2.745  0.00  0.00    -0.012 C 
ATOM     16  C1  BC2 d   1     -25.699  33.894  -5.672  0.00  0.00     0.027 A 
ATOM     17  C7  BC2 d   1     -26.181  35.178  -6.256  0.00  0.00     0.070 C 
ATOM     18  C8  BC2 d   1     -25.126  36.295  -6.200  0.00  0.00    -0.026 C 
ATOM     19  C9  BC2 d   1     -24.076  36.192  -7.311  0.00  0.00    -0.033 C 
ATOM     20  C10 BC2 d   1     -22.689  36.702  -6.967  0.00  0.00     0.064 C 
ATOM     21  C11 BC2 d   1     -21.610  36.326  -7.961  0.00  0.00     0.069 C 
ATOM     22  C12 BC2 d   1     -20.925  34.990  -7.579  0.00  0.00    -0.013 C 
ATOM     23  C13 BC2 d   1     -20.223  34.920  -6.230  0.00  0.00    -0.092 C 
ATOM     24  C14 BC2 d   1     -20.422  33.867  -5.407  0.00  0.00    -0.057 C 
ATOM     25  C15 BC2 d   1     -19.743  33.693  -4.086  0.00  0.00     0.077 C 
ATOM     26  H1  BC2 d   1     -24.463  30.503  -3.836  0.00  0.00     0.093 H 
ATOM     27  H2  BC2 d   1     -24.970  33.119  -7.503  0.00  0.00     0.090 H 
ATOM     28  H3  BC2 d   1     -26.110  31.368  -1.919  0.00  0.00     0.169 HD
ATOM     29  H7  BC2 d   1     -22.800  33.247  -2.536  0.00  0.00     0.084 H 
ATOM     30  H8  BC2 d   1     -22.926  36.360  -2.337  0.00  0.00     0.083 H 
ATOM     31  H9  BC2 d   1     -20.623  36.414  -2.978  0.00  0.00     0.077 H 
ATOM     32  H10 BC2 d   1     -21.057  33.416  -2.474  0.00  0.00     0.050 H 
ATOM     33  H14 BC2 d   1     -27.060  35.504  -5.681  0.00  0.00     0.091 H 
ATOM     34  H18 BC2 d   1     -25.695  37.200  -6.458  0.00  0.00     0.043 H 
ATOM     35  H22 BC2 d   1     -24.442  36.768  -8.174  0.00  0.00     0.037 H 
ATOM     36  H23 BC2 d   1     -23.985  35.132  -7.590  0.00  0.00     0.037 H 
ATOM     37  H24 BC2 d   1     -22.401  36.476  -5.930  0.00  0.00     0.087 H 
ATOM     38  H28 BC2 d   1     -20.863  37.131  -8.018  0.00  0.00     0.088 H 
ATOM     39  H32 BC2 d   1     -21.719  34.229  -7.575  0.00  0.00     0.049 H 
ATOM     40  H36 BC2 d   1     -19.555  35.725  -5.926  0.00  0.00     0.078 H 
ATOM     41  H40 BC2 d   1     -19.041  34.529  -4.218  0.00  0.00     0.092 H 
ENDROOT
BRANCH  25  42
ATOM     42  O31 BC2 d   1     -18.763  32.648  -3.990  0.00  0.00    -0.294 OA
BRANCH  42  43
ATOM     43  C32 BC2 d   1     -17.542  32.666  -4.778  0.00  0.00     0.358 C 
ATOM     44  O33 BC2 d   1     -16.825  31.678  -4.651  0.00  0.00    -0.239 OA
ATOM     45  N34 BC2 d   1     -17.209  33.677  -5.573  0.00  0.00    -0.346 N 
ATOM     46  H41 BC2 d   1     -16.357  33.642  -6.096  0.00  0.00     0.161 HD
ATOM     47  H42 BC2 d   1     -17.810  34.472  -5.649  0.00  0.00     0.161 HD
ENDBRANCH  42  43
ENDBRANCH  25  42
BRANCH  15  48
ATOM     48  C35 BC2 d   1     -19.266  34.148  -1.630  0.00  0.00    -0.067 C 
ATOM     49  H11 BC2 d   1     -19.715  34.505  -0.691  0.00  0.00     0.028 H 
ATOM     50  H12 BC2 d   1     -18.420  34.797  -1.902  0.00  0.00     0.028 H 
ATOM     51  H13 BC2 d   1     -18.909  33.116  -1.496  0.00  0.00     0.028 H 
ENDBRANCH  15  48
BRANCH  24  52
ATOM     52  C30 BC2 d   1     -21.338  32.734  -5.782  0.00  0.00    -0.052 C 
ATOM     53  H37 BC2 d   1     -21.794  32.940  -6.761  0.00  0.00     0.033 H 
ATOM     54  H38 BC2 d   1     -22.128  32.635  -5.023  0.00  0.00     0.033 H 
ATOM     55  H39 BC2 d   1     -20.762  31.799  -5.836  0.00  0.00     0.033 H 
ENDBRANCH  24  52
BRANCH  22  56
ATOM     56  C29 BC2 d   1     -19.870  34.587  -8.607  0.00  0.00    -0.067 C 
ATOM     57  H33 BC2 d   1     -19.406  33.637  -8.303  0.00  0.00     0.028 H 
ATOM     58  H34 BC2 d   1     -19.099  35.369  -8.666  0.00  0.00     0.028 H 
ATOM     59  H35 BC2 d   1     -20.345  34.465  -9.592  0.00  0.00     0.028 H 
ENDBRANCH  22  56
BRANCH  21  60
ATOM     60  O28 BC2 d   1     -22.218  36.112  -9.232  0.00  0.00    -0.387 OA
BRANCH  60  61
ATOM     61  C40 BC2 d   1     -21.734  37.037 -10.228  0.00  0.00     0.005 C 
ATOM     62  H29 BC2 d   1     -22.230  36.834 -11.189  0.00  0.00     0.066 H 
ATOM     63  H30 BC2 d   1     -20.647  36.916 -10.344  0.00  0.00     0.066 H 
ATOM     64  H31 BC2 d   1     -21.956  38.067  -9.911  0.00  0.00     0.066 H 
ENDBRANCH  60  61
ENDBRANCH  21  60
BRANCH  11  65
ATOM     65  C36 BC2 d   1     -24.842  35.435  -0.771  0.00  0.00    -0.046 C 
ATOM     66  H4  BC2 d   1     -24.188  36.283  -1.024  0.00  0.00     0.033 H 
ATOM     67  H5  BC2 d   1     -24.866  35.303   0.321  0.00  0.00     0.033 H 
ATOM     68  H6  BC2 d   1     -25.859  35.634  -1.139  0.00  0.00     0.033 H 
ENDBRANCH  11  65
BRANCH  20  69
ATOM     69  O26 BC2 d   1     -22.860  38.101  -7.278  0.00  0.00    -0.388 OA
BRANCH  69  70
ATOM     70  C27 BC2 d   1     -21.871  39.006  -6.771  0.00  0.00     0.005 C 
ATOM     71  H25 BC2 d   1     -22.121  40.032  -7.079  0.00  0.00     0.066 H 
ATOM     72  H26 BC2 d   1     -20.884  38.733  -7.172  0.00  0.00     0.066 H 
ATOM     73  H27 BC2 d   1     -21.849  38.948  -5.673  0.00  0.00     0.066 H 
ENDBRANCH  69  70
ENDBRANCH  20  69
BRANCH  18  74
ATOM     74  C25 BC2 d   1     -24.555  36.620  -4.816  0.00  0.00    -0.070 C 
ATOM     75  H19 BC2 d   1     -23.816  37.429  -4.905  0.00  0.00     0.028 H 
ATOM     76  H20 BC2 d   1     -24.070  35.725  -4.400  0.00  0.00     0.028 H 
ATOM     77  H21 BC2 d   1     -25.369  36.939  -4.149  0.00  0.00     0.028 H 
ENDBRANCH  18  74
BRANCH  17  78
ATOM     78  O38 BC2 d   1     -26.567  34.987  -7.627  0.00  0.00    -0.386 OA
BRANCH  78  79
ATOM     79  C39 BC2 d   1     -27.924  34.537  -7.749  0.00  0.00     0.005 C 
ATOM     80  H15 BC2 d   1     -28.172  34.406  -8.812  0.00  0.00     0.066 H 
ATOM     81  H16 BC2 d   1     -28.599  35.283  -7.304  0.00  0.00     0.066 H 
ATOM     82  H17 BC2 d   1     -28.041  33.578  -7.224  0.00  0.00     0.066 H 
ENDBRANCH  78  79
ENDBRANCH  17  78
TORSDOF 13
