REMARK  8 active torsions:
REMARK  status: ('A' for Active; 'I' for Inactive)
REMARK    1  A    between atoms: C9_4  and  N1_5 
REMARK    2  A    between atoms: N15_15  and  C16_14 
REMARK       I    between atoms: C14_16  and  N15_15 
REMARK    3  A    between atoms: C22_20  and  C14_16 
REMARK    4  A    between atoms: C13_17  and  N7_25 
REMARK    5  A    between atoms: N4_21  and  C22_20 
REMARK    6  A    between atoms: C34_24  and  O33_23 
REMARK    7  A    between atoms: C34_24  and  C15_34 
REMARK       I    between atoms: N7_25  and  C5_26 
REMARK    8  A    between atoms: C5_26  and  C2_28 
ROOT
ATOM      1  C13 LZH d   1      11.513  67.408   3.641  0.00  0.00     0.038 C 
ATOM      2  C24 LZH d   1      10.514  68.364   4.318  0.00  0.00    -0.016 C 
ATOM      3  N4  LZH d   1       9.265  66.810   3.141  0.00  0.00    -0.054 N 
ATOM      4  C20 LZH d   1      10.669  66.409   2.862  0.00  0.00     0.103 C 
ATOM      5  C15 LZH d   1       9.236  68.225   3.510  0.00  0.00     0.126 C 
ATOM      6  H9  LZH d   1      12.223  67.934   2.986  0.00  0.00     0.075 H 
ATOM      7  H10 LZH d   1      10.884  69.399   4.283  0.00  0.00     0.039 H 
ATOM      8  H11 LZH d   1      10.345  68.070   5.364  0.00  0.00     0.039 H 
ATOM      9  H14 LZH d   1       9.000  66.301   3.970  0.00  0.00     0.281 HD
ATOM     10  H15 LZH d   1      10.857  65.384   3.213  0.00  0.00     0.079 H 
ATOM     11  H16 LZH d   1      10.885  66.474   1.785  0.00  0.00     0.079 H 
ATOM     12  H23 LZH d   1       8.345  68.459   4.111  0.00  0.00     0.088 H 
ENDROOT
BRANCH   3  13
ATOM     13  C22 LZH d   1       8.261  66.434   2.143  0.00  0.00     0.157 C 
ATOM     14  H12 LZH d   1       7.331  66.992   2.326  0.00  0.00     0.090 H 
ATOM     15  H13 LZH d   1       8.636  66.666   1.135  0.00  0.00     0.090 H 
BRANCH  13  16
ATOM     16  C14 LZH d   1       7.993  64.948   2.256  0.00  0.00     0.248 C 
ATOM     17  N15 LZH d   1       8.437  64.232   3.317  0.00  0.00    -0.323 N 
ATOM     18  H8  LZH d   1       9.005  64.642   4.030  0.00  0.00     0.169 HD
ATOM     19  O27 LZH d   1       7.369  64.424   1.347  0.00  0.00    -0.271 OA
BRANCH  17  20
ATOM     20  C16 LZH d   1       8.059  62.900   3.358  0.00  0.00     0.073 A 
ATOM     21  C17 LZH d   1       8.489  62.010   2.385  0.00  0.00     0.145 A 
ATOM     22  F32 LZH d   1       9.309  62.446   1.418  0.00  0.00    -0.204 F 
ATOM     23  C11 LZH d   1       8.114  60.654   2.397  0.00  0.00    -0.017 A 
ATOM     24  C9  LZH d   1       7.286  60.182   3.408  0.00  0.00     0.045 A 
ATOM     25  H1  LZH d   1       8.468  59.983   1.623  0.00  0.00     0.091 H 
ATOM     26  C26 LZH d   1       6.853  61.069   4.383  0.00  0.00    -0.054 A 
ATOM     27  C28 LZH d   1       7.238  62.412   4.366  0.00  0.00    -0.052 A 
ATOM     28  H6  LZH d   1       6.203  60.713   5.174  0.00  0.00     0.087 H 
ATOM     29  H7  LZH d   1       6.893  63.079   5.147  0.00  0.00     0.087 H 
BRANCH  24  30
ATOM     30  N1  LZH d   1       6.895  58.815   3.390  0.00  0.00    -0.290 N 
ATOM     31  C21 LZH d   1       7.405  57.915   4.322  0.00  0.00    -0.011 C 
ATOM     32  C29 LZH d   1       6.947  56.632   4.262  0.00  0.00    -0.067 C 
ATOM     33  H2  LZH d   1       8.138  58.222   5.067  0.00  0.00     0.112 H 
ATOM     34  C30 LZH d   1       5.890  56.210   3.409  0.00  0.00    -0.076 C 
ATOM     35  H3  LZH d   1       7.417  55.888   4.904  0.00  0.00     0.085 H 
ATOM     36  C23 LZH d   1       5.331  57.139   2.571  0.00  0.00    -0.017 C 
ATOM     37  H4  LZH d   1       5.536  55.180   3.421  0.00  0.00     0.083 H 
ATOM     38  C8  LZH d   1       5.793  58.478   2.604  0.00  0.00     0.252 C 
ATOM     39  H5  LZH d   1       4.537  56.850   1.884  0.00  0.00     0.092 H 
ATOM     40  O25 LZH d   1       5.317  59.320   1.804  0.00  0.00    -0.268 OA
ENDBRANCH  24  30
ENDBRANCH  17  20
ENDBRANCH  13  16
ENDBRANCH   3  13
BRANCH   5  41
ATOM     41  C34 LZH d   1       9.297  69.160   2.295  0.00  0.00     0.044 C 
ATOM     42  H18 LZH d   1       9.357  70.204   2.635  0.00  0.00     0.077 H 
ATOM     43  H19 LZH d   1      10.183  68.920   1.689  0.00  0.00     0.077 H 
BRANCH  41  44
ATOM     44  O33 LZH d   1       8.106  68.977   1.505  0.00  0.00    -0.399 OA
ATOM     45  H17 LZH d   1       8.136  69.553   0.750  0.00  0.00     0.209 HD
ENDBRANCH  41  44
ENDBRANCH   5  41
BRANCH   1  46
ATOM     46  N7  LZH d   1      12.200  66.729   4.756  0.00  0.00    -0.350 N 
ATOM     47  C5  LZH d   1      13.259  65.962   4.523  0.00  0.00     0.259 C 
ATOM     48  O24 LZH d   1      13.627  65.785   3.373  0.00  0.00    -0.267 OA
ATOM     49  H20 LZH d   1      11.867  66.847   5.691  0.00  0.00     0.163 HD
BRANCH  47  50
ATOM     50  C2  LZH d   1      14.005  65.296   5.653  0.00  0.00     0.074 A 
ATOM     51  C12 LZH d   1      14.026  65.545   7.032  0.00  0.00    -0.059 A 
ATOM     52  C19 LZH d   1      14.873  64.686   7.748  0.00  0.00    -0.054 A 
ATOM     53  H21 LZH d   1      13.440  66.332   7.504  0.00  0.00     0.086 H 
ATOM     54  C10 LZH d   1      15.470  63.893   6.784  0.00  0.00     0.075 A 
ATOM     55  H22 LZH d   1      15.027  64.651   8.825  0.00  0.00     0.086 H 
ATOM     56  S3  LZH d   1      15.060  64.033   5.099  0.00  0.00    -0.072 SA
ATOM     57 CL1  LZH d   1      16.663  62.601   7.205  0.00  0.00    -0.076 Cl
ENDBRANCH  47  50
ENDBRANCH   1  46
TORSDOF 8
