REMARK  9 active torsions:
REMARK  status: ('A' for Active; 'I' for Inactive)
REMARK    1  A    between atoms: N2_7  and  C8_8 
REMARK    2  A    between atoms: C18_14  and  N15_15 
REMARK       I    between atoms: N15_15  and  C12_16 
REMARK    3  A    between atoms: C12_16  and  C16_18 
REMARK    4  A    between atoms: C16_18  and  N1_19 
REMARK    5  A    between atoms: C5_20  and  C10_21 
REMARK       I    between atoms: C10_21  and  N23_22 
REMARK    6  A    between atoms: N23_22  and  C37_36 
REMARK    7  A    between atoms: C17_25  and  N13_27 
REMARK       I    between atoms: N13_27  and  C6_28 
REMARK    8  A    between atoms: C6_28  and  C3_30 
REMARK    9  A    between atoms: C37_36  and  C25_37 
ROOT
ATOM      1  N1  LZI d   1      15.100   4.453  25.231  0.00  0.00    -0.369 N 
ATOM      2  C5  LZI d   1      15.534   3.496  24.187  0.00  0.00     0.091 C 
ATOM      3  C21 LZI d   1      14.063   4.036  25.914  0.00  0.00    -0.022 C 
ATOM      4  C17 LZI d   1      13.653   2.662  25.453  0.00  0.00     0.044 C 
ATOM      5  C20 LZI d   1      14.767   2.268  24.541  0.00  0.00    -0.015 C 
ATOM      6  H11 LZI d   1      16.623   3.344  24.176  0.00  0.00     0.087 H 
ATOM      7  H13 LZI d   1      13.568   4.602  26.702  0.00  0.00     0.107 H 
ATOM      8  H14 LZI d   1      12.690   2.697  24.923  0.00  0.00     0.081 H 
ATOM      9  H15 LZI d   1      15.428   1.550  25.049  0.00  0.00     0.040 H 
ATOM     10  H16 LZI d   1      14.357   1.809  23.629  0.00  0.00     0.040 H 
ENDROOT
BRANCH   1  11
ATOM     11  C16 LZI d   1      15.347   5.896  25.049  0.00  0.00     0.069 C 
ATOM     12  H9  LZI d   1      16.180   6.010  24.339  0.00  0.00     0.078 H 
ATOM     13  H10 LZI d   1      14.438   6.344  24.622  0.00  0.00     0.078 H 
BRANCH  11  14
ATOM     14  C12 LZI d   1      15.694   6.655  26.291  0.00  0.00     0.240 C 
ATOM     15  N15 LZI d   1      16.198   6.012  27.454  0.00  0.00    -0.323 N 
ATOM     16  H8  LZI d   1      16.395   5.032  27.460  0.00  0.00     0.169 HD
ATOM     17  O33 LZI d   1      15.546   7.882  26.320  0.00  0.00    -0.271 OA
BRANCH  15  18
ATOM     18  C18 LZI d   1      16.413   6.823  28.620  0.00  0.00     0.073 A 
ATOM     19  C19 LZI d   1      17.613   6.746  29.324  0.00  0.00     0.145 A 
ATOM     20  C11 LZI d   1      17.851   7.508  30.443  0.00  0.00    -0.017 A 
ATOM     21  F39 LZI d   1      18.584   5.873  28.933  0.00  0.00    -0.204 F 
ATOM     22  C8  LZI d   1      16.849   8.383  30.844  0.00  0.00     0.045 A 
ATOM     23  H5  LZI d   1      18.783   7.429  30.991  0.00  0.00     0.091 H 
ATOM     24  C31 LZI d   1      15.645   8.505  30.156  0.00  0.00    -0.054 A 
ATOM     25  C34 LZI d   1      15.409   7.701  29.031  0.00  0.00    -0.052 A 
ATOM     26  H6  LZI d   1      14.896   9.215  30.487  0.00  0.00     0.087 H 
ATOM     27  H7  LZI d   1      14.469   7.760  28.494  0.00  0.00     0.087 H 
BRANCH  22  28
ATOM     28  N2  LZI d   1      17.138   9.202  32.009  0.00  0.00    -0.290 N 
ATOM     29  C7  LZI d   1      17.541  10.557  31.819  0.00  0.00     0.252 A 
ATOM     30  O30 LZI d   1      17.614  10.980  30.635  0.00  0.00    -0.268 OA
ATOM     31  C28 LZI d   1      17.839  11.332  32.991  0.00  0.00    -0.017 A 
ATOM     32  C36 LZI d   1      17.747  10.789  34.238  0.00  0.00    -0.076 A 
ATOM     33  H1  LZI d   1      18.144  12.372  32.882  0.00  0.00     0.092 H 
ATOM     34  C35 LZI d   1      17.327   9.434  34.402  0.00  0.00    -0.067 A 
ATOM     35  H2  LZI d   1      17.994  11.390  35.112  0.00  0.00     0.083 H 
ATOM     36  C24 LZI d   1      17.058   8.669  33.314  0.00  0.00    -0.011 A 
ATOM     37  H3  LZI d   1      17.223   9.014  35.401  0.00  0.00     0.085 H 
ATOM     38  H4  LZI d   1      16.776   7.626  33.450  0.00  0.00     0.112 H 
ENDBRANCH  22  28
ENDBRANCH  15  18
ENDBRANCH  11  14
ENDBRANCH   1  11
BRANCH   2  39
ATOM     39  C10 LZI d   1      15.020   3.940  22.861  0.00  0.00     0.240 C 
ATOM     40  N23 LZI d   1      15.825   3.722  21.765  0.00  0.00    -0.359 N 
ATOM     41  H12 LZI d   1      16.731   3.332  21.926  0.00  0.00     0.162 HD
ATOM     42  O32 LZI d   1      13.919   4.502  22.768  0.00  0.00    -0.271 OA
BRANCH  40  43
ATOM     43  C37 LZI d   1      15.456   4.016  20.400  0.00  0.00    -0.001 C 
ATOM     44  H20 LZI d   1      15.037   5.032  20.355  0.00  0.00     0.064 H 
ATOM     45  H21 LZI d   1      14.697   3.291  20.072  0.00  0.00     0.064 H 
BRANCH  43  46
ATOM     46  C25 LZI d   1      16.663   3.933  19.458  0.00  0.00    -0.039 A 
ATOM     47  C27 LZI d   1      16.500   3.196  18.158  0.00  0.00    -0.060 A 
ATOM     48  C26 LZI d   1      17.335   2.603  19.256  0.00  0.00    -0.060 A 
ATOM     49  H23 LZI d   1      16.982   3.577  17.246  0.00  0.00     0.033 H 
ATOM     50  H24 LZI d   1      15.531   2.745  17.900  0.00  0.00     0.033 H 
ATOM     51  H25 LZI d   1      16.977   1.718  19.802  0.00  0.00     0.033 H 
ATOM     52  H26 LZI d   1      18.428   2.550  19.148  0.00  0.00     0.033 H 
ATOM     53  H22 LZI d   1      17.255   4.858  19.512  0.00  0.00     0.042 H 
ENDBRANCH  43  46
ENDBRANCH  40  43
ENDBRANCH   2  39
BRANCH   4  54
ATOM     54  N13 LZI d   1      13.574   1.710  26.552  0.00  0.00    -0.347 N 
ATOM     55  C6  LZI d   1      12.570   1.885  27.453  0.00  0.00     0.259 C 
ATOM     56  O29 LZI d   1      11.790   2.833  27.302  0.00  0.00    -0.267 OA
ATOM     57  H17 LZI d   1      14.229   0.960  26.641  0.00  0.00     0.163 HD
BRANCH  55  58
ATOM     58  C3  LZI d   1      12.482   0.951  28.534  0.00  0.00     0.074 A 
ATOM     59  C14 LZI d   1      13.273  -0.131  28.778  0.00  0.00    -0.059 A 
ATOM     60  C22 LZI d   1      12.867  -0.809  29.940  0.00  0.00    -0.054 A 
ATOM     61  H18 LZI d   1      14.112  -0.432  28.153  0.00  0.00     0.086 H 
ATOM     62  C9  LZI d   1      11.811  -0.149  30.514  0.00  0.00     0.075 A 
ATOM     63  H19 LZI d   1      13.322  -1.720  30.326  0.00  0.00     0.086 H 
ATOM     64  S4  LZI d   1      11.228   1.220  29.686  0.00  0.00    -0.072 SA
ATOM     65 CL3  LZI d   1      11.035  -0.507  32.018  0.00  0.00    -0.076 Cl
ENDBRANCH  55  58
ENDBRANCH   4  54
TORSDOF 9
