REMARK  7 active torsions:
REMARK  status: ('A' for Active; 'I' for Inactive)
REMARK    1  A    between atoms: C9_4  and  N1_5 
REMARK    2  A    between atoms: C16_14  and  N15_15 
REMARK       I    between atoms: N15_15  and  C14_16 
REMARK    3  A    between atoms: C14_16  and  C22_18 
REMARK    4  A    between atoms: C22_18  and  N4_19 
REMARK    5  A    between atoms: C34_21  and  O33_22 
REMARK    6  A    between atoms: C6_24  and  N7_25 
REMARK       I    between atoms: N7_25  and  C5_26 
REMARK    7  A    between atoms: C5_26  and  C2_28 
ROOT
ATOM      1  C22 H25 d   1       8.545  66.084   2.228  0.00  0.00     0.156 C 
ATOM      2  H9  H25 d   1       7.636  66.693   2.341  0.00  0.00     0.090 H 
ATOM      3  H10 H25 d   1       9.003  66.287   1.249  0.00  0.00     0.090 H 
ENDROOT
BRANCH   1   4
ATOM      4  C14 H25 d   1       8.186  64.622   2.322  0.00  0.00     0.248 C 
ATOM      5  N15 H25 d   1       8.604  63.885   3.395  0.00  0.00    -0.323 N 
ATOM      6  H8  H25 d   1       9.170  64.287   4.114  0.00  0.00     0.169 HD
ATOM      7  O27 H25 d   1       7.499  64.137   1.405  0.00  0.00    -0.271 OA
BRANCH   5   8
ATOM      8  C16 H25 d   1       8.204  62.539   3.444  0.00  0.00     0.073 A 
ATOM      9  C17 H25 d   1       8.629  61.683   2.462  0.00  0.00     0.145 A 
ATOM     10  F3  H25 d   1       9.466  62.156   1.543  0.00  0.00    -0.204 F 
ATOM     11  C11 H25 d   1       8.222  60.356   2.423  0.00  0.00    -0.017 A 
ATOM     12  C9  H25 d   1       7.374  59.827   3.400  0.00  0.00     0.045 A 
ATOM     13  H1  H25 d   1       8.569  59.718   1.619  0.00  0.00     0.091 H 
ATOM     14  C26 H25 d   1       6.928  60.693   4.408  0.00  0.00    -0.054 A 
ATOM     15  C28 H25 d   1       7.358  62.029   4.431  0.00  0.00    -0.052 A 
ATOM     16  H6  H25 d   1       6.250  60.330   5.171  0.00  0.00     0.087 H 
ATOM     17  H7  H25 d   1       7.026  62.679   5.232  0.00  0.00     0.087 H 
BRANCH  12  18
ATOM     18  N1  H25 d   1       6.912  58.507   3.349  0.00  0.00    -0.290 N 
ATOM     19  C21 H25 d   1       7.380  57.542   4.175  0.00  0.00    -0.011 A 
ATOM     20  C29 H25 d   1       6.899  56.255   4.118  0.00  0.00    -0.067 A 
ATOM     21  H2  H25 d   1       8.154  57.790   4.900  0.00  0.00     0.112 H 
ATOM     22  C30 H25 d   1       5.912  55.917   3.205  0.00  0.00    -0.076 A 
ATOM     23  H3  H25 d   1       7.295  55.498   4.793  0.00  0.00     0.085 H 
ATOM     24  C23 H25 d   1       5.441  56.915   2.361  0.00  0.00    -0.017 A 
ATOM     25  H4  H25 d   1       5.519  54.903   3.151  0.00  0.00     0.083 H 
ATOM     26  C8  H25 d   1       5.961  58.202   2.436  0.00  0.00     0.252 A 
ATOM     27  H5  H25 d   1       4.660  56.688   1.637  0.00  0.00     0.092 H 
ATOM     28  O25 H25 d   1       5.527  59.122   1.669  0.00  0.00    -0.268 OA
ENDBRANCH  12  18
ENDBRANCH   5   8
ENDBRANCH   1   4
BRANCH   1  29
ATOM     29  N4  H25 d   1       9.490  66.422   3.286  0.00  0.00    -0.058 N 
ATOM     30  C31 H25 d   1       9.578  67.877   3.558  0.00  0.00     0.109 C 
ATOM     31  C34 H25 d   1      10.937  67.987   4.249  0.00  0.00     0.080 C 
ATOM     32  H12 H25 d   1       8.765  68.210   4.220  0.00  0.00     0.080 H 
ATOM     33  H13 H25 d   1       9.555  68.460   2.626  0.00  0.00     0.080 H 
ATOM     34  C6  H25 d   1      11.781  66.870   3.642  0.00  0.00     0.062 C 
ATOM     35  H14 H25 d   1      10.834  67.874   5.338  0.00  0.00     0.088 H 
ATOM     36  C20 H25 d   1      10.825  65.964   2.895  0.00  0.00     0.105 C 
ATOM     37  H18 H25 d   1      12.518  67.287   2.940  0.00  0.00     0.079 H 
ATOM     38  H16 H25 d   1      10.966  66.064   1.809  0.00  0.00     0.079 H 
ATOM     39  H17 H25 d   1      10.976  64.915   3.189  0.00  0.00     0.079 H 
ATOM     40  H11 H25 d   1       9.205  65.952   4.131  0.00  0.00     0.280 HD
BRANCH  31  41
ATOM     41  O33 H25 d   1      11.586  69.228   3.932  0.00  0.00    -0.392 OA
ATOM     42  H15 H25 d   1      11.041  69.951   4.219  0.00  0.00     0.210 HD
ENDBRANCH  31  41
BRANCH  34  43
ATOM     43  N7  H25 d   1      12.490  66.169   4.727  0.00  0.00    -0.348 N 
ATOM     44  C5  H25 d   1      13.472  65.316   4.451  0.00  0.00     0.259 C 
ATOM     45  O24 H25 d   1      13.801  65.036   3.291  0.00  0.00    -0.267 OA
ATOM     46  H19 H25 d   1      12.231  66.336   5.678  0.00  0.00     0.163 HD
BRANCH  44  47
ATOM     47  C2  H25 d   1      14.207  64.685   5.592  0.00  0.00     0.074 A 
ATOM     48  C12 H25 d   1      14.163  64.964   6.975  0.00  0.00    -0.059 A 
ATOM     49  C19 H25 d   1      15.034  64.124   7.674  0.00  0.00    -0.054 A 
ATOM     50  H20 H25 d   1      13.537  65.728   7.434  0.00  0.00     0.086 H 
ATOM     51  C10 H25 d   1      15.694  63.296   6.800  0.00  0.00     0.075 A 
ATOM     52  H21 H25 d   1      15.169  64.126   8.755  0.00  0.00     0.086 H 
ATOM     53  S3  H25 d   1      15.307  63.428   5.133  0.00  0.00    -0.072 SA
ATOM     54 CL1  H25 d   1      16.901  62.040   7.264  0.00  0.00    -0.076 Cl
ENDBRANCH  44  47
ENDBRANCH  34  43
ENDBRANCH   1  29
TORSDOF 7
