REMARK  6 active torsions:
REMARK  status: ('A' for Active; 'I' for Inactive)
REMARK    1  A    between atoms: C2_6  and  C5_7 
REMARK       I    between atoms: C5_7  and  N7_9 
REMARK    2  A    between atoms: N7_9  and  C6_10 
REMARK    3  A    between atoms: N4_15  and  C22_16 
REMARK    4  A    between atoms: C22_16  and  C14_17 
REMARK       I    between atoms: C14_17  and  N15_19 
REMARK    5  A    between atoms: N15_19  and  C16_20 
REMARK    6  A    between atoms: C9_25  and  N1_27 
ROOT
ATOM      1  C22 LZG d   1       8.145  65.995   2.358  0.00  0.00     0.156 C 
ATOM      2  H11 LZG d   1       8.588  66.225   1.378  0.00  0.00     0.090 H 
ATOM      3  H12 LZG d   1       7.237  66.599   2.502  0.00  0.00     0.090 H 
ENDROOT
BRANCH   1   4
ATOM      4  N4  LZG d   1       9.105  66.295   3.412  0.00  0.00    -0.058 N 
ATOM      5  C20 LZG d   1       9.133  67.743   3.662  0.00  0.00     0.114 C 
ATOM      6  C12 LZG d   1      10.504  67.974   4.288  0.00  0.00     0.123 C 
ATOM      7  H6  LZG d   1       9.031  68.305   2.722  0.00  0.00     0.080 H 
ATOM      8  H7  LZG d   1       8.331  68.037   4.355  0.00  0.00     0.080 H 
ATOM      9  C6  LZG d   1      11.390  66.873   3.707  0.00  0.00     0.067 C 
ATOM     10  F32 LZG d   1      11.030  69.226   4.011  0.00  0.00    -0.245 F 
ATOM     11  H5  LZG d   1      10.432  67.863   5.380  0.00  0.00     0.097 H 
ATOM     12  C18 LZG d   1      10.464  65.913   2.974  0.00  0.00     0.105 C 
ATOM     13  H4  LZG d   1      12.114  67.299   2.997  0.00  0.00     0.079 H 
ATOM     14  H8  LZG d   1      10.684  64.872   3.254  0.00  0.00     0.079 H 
ATOM     15  H9  LZG d   1      10.568  66.029   1.885  0.00  0.00     0.079 H 
ATOM     16  H10 LZG d   1       8.854  65.798   4.253  0.00  0.00     0.280 HD
BRANCH   9  17
ATOM     17  N7  LZG d   1      12.121  66.229   4.815  0.00  0.00    -0.347 N 
ATOM     18  C5  LZG d   1      13.184  65.411   4.523  0.00  0.00     0.259 C 
ATOM     19  O24 LZG d   1      13.429  65.177   3.326  0.00  0.00    -0.267 OA
ATOM     20  H3  LZG d   1      11.846  66.386   5.764  0.00  0.00     0.163 HD
BRANCH  18  21
ATOM     21  C2  LZG d   1      13.917  64.785   5.612  0.00  0.00     0.074 A 
ATOM     22  C13 LZG d   1      13.894  65.082   6.971  0.00  0.00    -0.059 A 
ATOM     23  C19 LZG d   1      14.786  64.249   7.705  0.00  0.00    -0.054 A 
ATOM     24  H2  LZG d   1      13.271  65.856   7.418  0.00  0.00     0.086 H 
ATOM     25  C10 LZG d   1      15.458  63.366   6.887  0.00  0.00     0.075 A 
ATOM     26  H1  LZG d   1      14.921  64.303   8.784  0.00  0.00     0.086 H 
ATOM     27 CL1  LZG d   1      16.622  62.153   7.330  0.00  0.00    -0.076 Cl
ATOM     28  S3  LZG d   1      15.016  63.514   5.222  0.00  0.00    -0.072 SA
ENDBRANCH  18  21
ENDBRANCH   9  17
ENDBRANCH   1   4
BRANCH   1  29
ATOM     29  C14 LZG d   1       7.798  64.539   2.425  0.00  0.00     0.248 C 
ATOM     30  O27 LZG d   1       7.120  64.005   1.522  0.00  0.00    -0.271 OA
ATOM     31  N15 LZG d   1       8.261  63.776   3.551  0.00  0.00    -0.323 N 
ATOM     32  H13 LZG d   1       8.811  64.198   4.272  0.00  0.00     0.169 HD
BRANCH  31  33
ATOM     33  C16 LZG d   1       7.901  62.373   3.604  0.00  0.00     0.073 A 
ATOM     34  C17 LZG d   1       8.343  61.499   2.609  0.00  0.00     0.145 A 
ATOM     35  F33 LZG d   1       9.146  62.002   1.652  0.00  0.00    -0.204 F 
ATOM     36  C11 LZG d   1       8.004  60.148   2.579  0.00  0.00    -0.017 A 
ATOM     37  C9  LZG d   1       7.185  59.693   3.613  0.00  0.00     0.045 A 
ATOM     38  H16 LZG d   1       8.357  59.487   1.796  0.00  0.00     0.091 H 
ATOM     39  C26 LZG d   1       6.696  60.539   4.631  0.00  0.00    -0.054 A 
ATOM     40  C28 LZG d   1       7.072  61.881   4.609  0.00  0.00    -0.052 A 
ATOM     41  H15 LZG d   1       6.046  60.156   5.409  0.00  0.00     0.087 H 
ATOM     42  H14 LZG d   1       6.715  62.550   5.384  0.00  0.00     0.087 H 
BRANCH  37  43
ATOM     43  N1  LZG d   1       6.750  58.333   3.591  0.00  0.00    -0.290 N 
ATOM     44  C8  LZG d   1       5.743  57.985   2.649  0.00  0.00     0.252 A 
ATOM     45  O25 LZG d   1       5.321  58.929   1.874  0.00  0.00    -0.268 OA
ATOM     46  C23 LZG d   1       5.310  56.626   2.633  0.00  0.00    -0.017 A 
ATOM     47  C30 LZG d   1       5.816  55.678   3.478  0.00  0.00    -0.076 A 
ATOM     48  H17 LZG d   1       4.544  56.331   1.917  0.00  0.00     0.092 H 
ATOM     49  C29 LZG d   1       6.832  56.062   4.410  0.00  0.00    -0.067 A 
ATOM     50  H18 LZG d   1       5.454  54.652   3.443  0.00  0.00     0.083 H 
ATOM     51  C21 LZG d   1       7.272  57.349   4.478  0.00  0.00    -0.011 A 
ATOM     52  H19 LZG d   1       7.260  55.313   5.075  0.00  0.00     0.085 H 
ATOM     53  H20 LZG d   1       8.026  57.627   5.213  0.00  0.00     0.112 H 
ENDBRANCH  37  43
ENDBRANCH  31  33
ENDBRANCH   1  29
TORSDOF 6
