REMARK  4 active torsions:
REMARK  status: ('A' for Active; 'I' for Inactive)
REMARK    1  A    between atoms: C1_1  and  C2_2 
REMARK       I    between atoms: C1_1  and  N2_3 
REMARK    2  A    between atoms: C2_2  and  O1P_6 
REMARK    3  A    between atoms: N2_3  and  O2_4 
REMARK    4  A    between atoms: O1P_6  and  P_10 
ROOT
ATOM      1  C2  PGH d   1      26.292  -2.485   9.805  0.00  0.00     0.107 C 
ATOM      2  H1  PGH d   1      25.643  -1.638   9.538  0.00  0.00     0.090 H 
ATOM      3  H2  PGH d   1      25.857  -3.418   9.417  0.00  0.00     0.090 H 
ENDROOT
BRANCH   1   4
ATOM      4  C1  PGH d   1      26.438  -2.570  11.319  0.00  0.00     0.265 C 
ATOM      5  N2  PGH d   1      25.571  -1.975  12.005  0.00  0.00    -0.236 N 
ATOM      6  H3  PGH d   1      24.909  -1.374  11.558  0.00  0.00     0.197 HD
ATOM      7  O1  PGH d   1      27.386  -3.257  11.750  0.00  0.00    -0.269 OA
BRANCH   5   8
ATOM      8  O2  PGH d   1      25.530  -2.140  13.319  0.00  0.00    -0.287 OA
ATOM      9  H4  PGH d   1      25.387  -3.058  13.518  0.00  0.00     0.244 HD
ENDBRANCH   5   8
ENDBRANCH   1   4
BRANCH   1  10
ATOM     10  O1P PGH d   1      27.616  -2.288   9.248  0.00  0.00    -0.273 OA
BRANCH  10  11
ATOM     11  P   PGH d   1      27.696  -2.030   7.641  0.00  0.00     0.422 P 
ATOM     12  O2P PGH d   1      29.151  -1.558   7.435  0.00  0.00    -0.617 OA
ATOM     13  O3P PGH d   1      27.361  -3.336   6.907  0.00  0.00    -0.617 OA
ATOM     14  O4P PGH d   1      26.686  -0.924   7.347  0.00  0.00    -0.617 OA
ENDBRANCH  10  11
ENDBRANCH   1  10
TORSDOF 4
