REMARK  5 active torsions:
REMARK  status: ('A' for Active; 'I' for Inactive)
REMARK    1  A    between atoms: C1_1  and  O1_7 
REMARK    2  A    between atoms: C2_2  and  O2_8 
REMARK    3  A    between atoms: C3_3  and  O3_9 
REMARK    4  A    between atoms: C4_4  and  O4_10 
REMARK    5  A    between atoms: C5_5  and  C6_6 
ROOT
ATOM      1  C1  GCU d   1      18.123   7.663  54.191  0.00  0.00     0.156 C 
ATOM      2  C2  GCU d   1      18.943   6.672  53.353  0.00  0.00     0.110 C 
ATOM      3  C3  GCU d   1      19.100   7.196  51.929  0.00  0.00     0.092 C 
ATOM      4  C4  GCU d   1      17.728   7.444  51.327  0.00  0.00     0.097 C 
ATOM      5  C5  GCU d   1      16.928   8.434  52.191  0.00  0.00     0.152 C 
ATOM      6  O5  GCU d   1      16.880   7.973  53.548  0.00  0.00    -0.340 OA
ATOM      7  H1  GCU d   1      17.913   7.216  55.174  0.00  0.00     0.133 H 
ATOM      8  H2  GCU d   1      18.401   5.715  53.320  0.00  0.00     0.094 H 
ATOM      9  H3  GCU d   1      19.654   8.146  51.958  0.00  0.00     0.091 H 
ATOM     10  H4  GCU d   1      17.178   6.491  51.308  0.00  0.00     0.091 H 
ATOM     11  H5  GCU d   1      17.437   9.409  52.166  0.00  0.00     0.104 H 
ENDROOT
BRANCH   5  12
ATOM     12  C6  GCU d   1      15.506   8.615  51.654  0.00  0.00     0.206 C 
ATOM     13  O6A GCU d   1      15.314   8.892  50.440  0.00  0.00    -0.646 OA
ATOM     14  O6B GCU d   1      14.558   8.455  52.449  0.00  0.00    -0.646 OA
ENDBRANCH   5  12
BRANCH   4  15
ATOM     15  O4  GCU d   1      17.876   7.894  49.996  0.00  0.00    -0.390 OA
ATOM     16  H9  GCU d   1      18.374   7.255  49.500  0.00  0.00     0.210 HD
ENDBRANCH   4  15
BRANCH   3  17
ATOM     17  O3  GCU d   1      19.824   6.273  51.142  0.00  0.00    -0.390 OA
ATOM     18  H8  GCU d   1      20.678   6.129  51.531  0.00  0.00     0.210 HD
ENDBRANCH   3  17
BRANCH   1  19
ATOM     19  O1  GCU d   1      18.882   8.840  54.366  0.00  0.00    -0.368 OA
ATOM     20  H6  GCU d   1      18.395   9.452  54.905  0.00  0.00     0.212 HD
ENDBRANCH   1  19
BRANCH   2  21
ATOM     21  O2  GCU d   1      20.217   6.444  53.916  0.00  0.00    -0.388 OA
ATOM     22  H7  GCU d   1      20.706   7.258  53.931  0.00  0.00     0.210 HD
ENDBRANCH   2  21
TORSDOF 5
