REMARK  6 active torsions:
REMARK  status: ('A' for Active; 'I' for Inactive)
REMARK    1  A    between atoms: N_1  and  CA_2 
REMARK    2  A    between atoms: CA_2  and  CB_3 
REMARK    3  A    between atoms: CA_2  and  C_10 
REMARK    4  A    between atoms: CB_3  and  CG2_4 
REMARK    5  A    between atoms: CB_3  and  OG1_5 
REMARK    6  A    between atoms: OG1_5  and  P_6 
ROOT
ATOM      1  CB  TPO d   1      17.896  15.161  55.195  0.00  0.00     0.085 C 
ATOM      2  H5  TPO d   1      16.882  15.358  54.817  0.00  0.00     0.087 H 
ENDROOT
BRANCH   1   3
ATOM      3  CA  TPO d   1      18.886  15.325  54.040  0.00  0.00     0.207 C 
ATOM      4  H4  TPO d   1      18.743  14.509  53.316  0.00  0.00     0.105 H 
BRANCH   3   5
ATOM      5  N   TPO d   1      20.260  15.281  54.562  0.00  0.00    -0.063 N 
ATOM      6  H1  TPO d   1      20.418  14.396  55.018  0.00  0.00     0.275 HD
ATOM      7  H2  TPO d   1      20.392  16.029  55.225  0.00  0.00     0.275 HD
ATOM      8  H3  TPO d   1      20.912  15.388  53.801  0.00  0.00     0.275 HD
ENDBRANCH   3   5
BRANCH   3   9
ATOM      9  C   TPO d   1      18.645  16.668  53.348  0.00  0.00     0.207 C 
ATOM     10  O   TPO d   1      19.449  17.591  53.604  0.00  0.00    -0.646 OA
ATOM     11  OXT TPO d   1      17.688  16.750  52.589  0.00  0.00    -0.646 OA
ENDBRANCH   3   9
ENDBRANCH   1   3
BRANCH   1  12
ATOM     12  CG2 TPO d   1      17.931  13.735  55.749  0.00  0.00    -0.049 C 
ATOM     13  H6  TPO d   1      17.212  13.645  56.576  0.00  0.00     0.031 H 
ATOM     14  H7  TPO d   1      18.943  13.509  56.117  0.00  0.00     0.031 H 
ATOM     15  H8  TPO d   1      17.664  13.025  54.952  0.00  0.00     0.031 H 
ENDBRANCH   1  12
BRANCH   1  16
ATOM     16  OG1 TPO d   1      18.193  16.116  56.218  0.00  0.00    -0.275 OA
BRANCH  16  17
ATOM     17  P   TPO d   1      17.029  16.621  57.210  0.00  0.00     0.422 P 
ATOM     18  O1P TPO d   1      16.919  15.526  58.397  0.00  0.00    -0.617 OA
ATOM     19  O2P TPO d   1      15.724  16.844  56.538  0.00  0.00    -0.617 OA
ATOM     20  O3P TPO d   1      17.578  17.965  57.926  0.00  0.00    -0.617 OA
ENDBRANCH  16  17
ENDBRANCH   1  16
TORSDOF 6
