REMARK  9 active torsions:
REMARK  status: ('A' for Active; 'I' for Inactive)
REMARK    1  A    between atoms: O1_7  and  C1_1 
REMARK    2  A    between atoms: C2_2  and  O2_8 
REMARK    3  A    between atoms: C3_3  and  O3_9 
REMARK    4  A    between atoms: C5_5  and  C6_6 
REMARK    5  A    between atoms: C4'_15  and  O1_7 
REMARK    6  A    between atoms: C1'_12  and  O1'_18 
REMARK    7  A    between atoms: C2'_13  and  O2'_19 
REMARK    8  A    between atoms: C3'_14  and  O3'_20 
REMARK    9  A    between atoms: C5'_16  and  C6'_17 
ROOT
ATOM      1  C1' UNF d   1      -3.691  12.066   8.357  0.00  0.00     0.156 C 
ATOM      2  C2' UNF d   1      -2.394  12.541   7.696  0.00  0.00     0.110 C 
ATOM      3  C3' UNF d   1      -1.347  12.905   8.752  0.00  0.00     0.092 C 
ATOM      4  C4' UNF d   1      -1.916  13.899   9.767  0.00  0.00     0.103 C 
ATOM      5  C5' UNF d   1      -3.194  13.309  10.379  0.00  0.00     0.152 C 
ATOM      6  O5' UNF d   1      -4.135  13.021   9.332  0.00  0.00    -0.340 OA
ATOM      7  H7  UNF d   1      -4.466  11.970   7.582  0.00  0.00     0.133 H 
ATOM      8  H8  UNF d   1      -2.613  13.438   7.098  0.00  0.00     0.094 H 
ATOM      9  H9  UNF d   1      -1.068  11.988   9.291  0.00  0.00     0.091 H 
ATOM     10  H10 UNF d   1      -1.178  14.076  10.563  0.00  0.00     0.092 H 
ATOM     11  H11 UNF d   1      -2.934  12.371  10.892  0.00  0.00     0.104 H 
ENDROOT
BRANCH   4  12
ATOM     12  O1  UNF d   1      -2.209  15.136   9.110  0.00  0.00    -0.347 OA
BRANCH  12  13
ATOM     13  C1  UNF d   1      -1.666  16.291   9.756  0.00  0.00     0.165 C 
ATOM     14  C2  UNF d   1      -2.186  17.544   9.059  0.00  0.00     0.111 C 
ATOM     15  C3  UNF d   1      -1.704  17.567   7.614  0.00  0.00     0.084 C 
ATOM     16  H2  UNF d   1      -1.793  18.432   9.576  0.00  0.00     0.095 H 
ATOM     17  C4  UNF d   1      -0.189  17.513   7.632  0.00  0.00    -0.034 C 
ATOM     18  H3  UNF d   1      -2.091  16.684   7.084  0.00  0.00     0.093 H 
ATOM     19  C5  UNF d   1       0.456  16.781   8.570  0.00  0.00     0.147 C 
ATOM     20  H4  UNF d   1       0.382  18.065   6.887  0.00  0.00     0.085 H 
ATOM     21  O5  UNF d   1      -0.235  16.231   9.729  0.00  0.00    -0.311 OA
ATOM     22  H1  UNF d   1      -1.998  16.306  10.805  0.00  0.00     0.134 H 
BRANCH  14  23
ATOM     23  O2  UNF d   1      -3.613  17.568   9.124  0.00  0.00    -0.388 OA
ATOM     24  H5  UNF d   1      -3.962  16.808   8.674  0.00  0.00     0.210 HD
ENDBRANCH  14  23
BRANCH  15  25
ATOM     25  O3  UNF d   1      -2.183  18.747   6.954  0.00  0.00    -0.389 OA
ATOM     26  H6  UNF d   1      -3.133  18.749   6.961  0.00  0.00     0.210 HD
ENDBRANCH  15  25
BRANCH  19  27
ATOM     27  C6  UNF d   1       1.768  16.554   8.492  0.00  0.00     0.233 C 
ATOM     28  O6  UNF d   1       2.323  15.872   9.398  0.00  0.00    -0.642 OA
ATOM     29  OAN UNF d   1       2.409  17.034   7.522  0.00  0.00    -0.642 OA
ENDBRANCH  19  27
ENDBRANCH  12  13
ENDBRANCH   4  12
BRANCH   3  30
ATOM     30  O3' UNF d   1      -0.172  13.431   8.121  0.00  0.00    -0.390 OA
ATOM     31  H14 UNF d   1       0.489  13.606   8.781  0.00  0.00     0.210 HD
ENDBRANCH   3  30
BRANCH   5  32
ATOM     32  C6' UNF d   1      -3.816  14.242  11.383  0.00  0.00     0.206 C 
ATOM     33  O6' UNF d   1      -3.131  14.639  12.352  0.00  0.00    -0.646 OA
ATOM     34  OAC UNF d   1      -5.007  14.595  11.220  0.00  0.00    -0.646 OA
ENDBRANCH   5  32
BRANCH   2  35
ATOM     35  O2' UNF d   1      -1.889  11.522   6.828  0.00  0.00    -0.388 OA
ATOM     36  H13 UNF d   1      -1.680  10.748   7.338  0.00  0.00     0.210 HD
ENDBRANCH   2  35
BRANCH   1  37
ATOM     37  O1' UNF d   1      -3.493  10.782   8.970  0.00  0.00    -0.368 OA
ATOM     38  H12 UNF d   1      -3.200  10.161   8.314  0.00  0.00     0.212 HD
ENDBRANCH   1  37
TORSDOF 9
