REMARK  8 active torsions:
REMARK  status: ('A' for Active; 'I' for Inactive)
REMARK    1  A    between atoms: O3_1  and  C3_2 
REMARK    2  A    between atoms: C4_3  and  O4_4 
REMARK    3  A    between atoms: C5_5  and  C6_6 
REMARK    4  A    between atoms: C6_6  and  O6_7 
REMARK    5  A    between atoms: C1_9  and  O1_10 
REMARK    6  A    between atoms: C2_11  and  N2_12 
REMARK       I    between atoms: N2_12  and  CAM_13 
REMARK       I    between atoms: CAM_13  and  NAN_15 
REMARK    7  A    between atoms: NAN_15  and  CAH_16 
REMARK    8  A    between atoms: NAN_15  and  NAO_17 
ROOT
ATOM      1  C3  STZ d   1      -8.748 -11.016  10.586  0.00  0.00     0.087 C 
ATOM      2  C4  STZ d   1      -7.961 -10.178  11.581  0.00  0.00     0.089 C 
ATOM      3  C5  STZ d   1      -7.212  -9.084  10.825  0.00  0.00     0.089 C 
ATOM      4  O5  STZ d   1      -6.315  -9.668   9.857  0.00  0.00    -0.349 OA
ATOM      5  C1  STZ d   1      -7.048 -10.363   8.864  0.00  0.00     0.151 C 
ATOM      6  C2  STZ d   1      -7.842 -11.502   9.480  0.00  0.00     0.088 C 
ATOM      7  H2  STZ d   1      -9.568 -10.413  10.168  0.00  0.00     0.090 H 
ATOM      8  H3  STZ d   1      -7.219 -10.817  12.082  0.00  0.00     0.091 H 
ATOM      9  H5  STZ d   1      -7.954  -8.478  10.285  0.00  0.00     0.090 H 
ATOM     10  H9  STZ d   1      -7.717  -9.669   8.334  0.00  0.00     0.132 H 
ATOM     11  H11 STZ d   1      -7.143 -12.243   9.895  0.00  0.00     0.084 H 
ENDROOT
BRANCH   6  12
ATOM     12  N2  STZ d   1      -8.635 -12.117   8.438  0.00  0.00    -0.330 N 
ATOM     13  CAM STZ d   1      -9.468 -11.454   7.651  0.00  0.00     0.340 C 
ATOM     14  OAG STZ d   1      -9.655 -10.259   7.729  0.00  0.00    -0.245 OA
ATOM     15  NAN STZ d   1     -10.125 -12.161   6.747  0.00  0.00    -0.200 N 
ATOM     16  H12 STZ d   1      -8.549 -13.104   8.304  0.00  0.00     0.165 HD
BRANCH  15  17
ATOM     17  CAH STZ d   1     -11.095 -11.652   5.797  0.00  0.00     0.009 C 
ATOM     18  H13 STZ d   1     -11.470 -12.479   5.176  0.00  0.00     0.059 H 
ATOM     19  H14 STZ d   1     -10.617 -10.898   5.154  0.00  0.00     0.059 H 
ATOM     20  H15 STZ d   1     -11.934 -11.192   6.340  0.00  0.00     0.059 H 
ENDBRANCH  15  17
BRANCH  15  21
ATOM     21  NAO STZ d   1      -9.871 -13.541   6.717  0.00  0.00    -0.008 NA
ATOM     22  OAP STZ d   1     -10.510 -14.203   5.925  0.00  0.00    -0.041 OA
ENDBRANCH  15  21
ENDBRANCH   6  12
BRANCH   1  23
ATOM     23  O3  STZ d   1      -9.268 -12.181  11.221  0.00  0.00    -0.391 OA
ATOM     24  H1  STZ d   1      -9.842 -11.923  11.932  0.00  0.00     0.210 HD
ENDBRANCH   1  23
BRANCH   5  25
ATOM     25  O1  STZ d   1      -6.134 -10.962   7.973  0.00  0.00    -0.369 OA
ATOM     26  H10 STZ d   1      -6.612 -11.433   7.300  0.00  0.00     0.212 HD
ENDBRANCH   5  25
BRANCH   2  27
ATOM     27  O4  STZ d   1      -8.868  -9.669  12.584  0.00  0.00    -0.390 OA
ATOM     28  H4  STZ d   1      -8.384  -9.144  13.210  0.00  0.00     0.210 HD
ENDBRANCH   2  27
BRANCH   3  29
ATOM     29  C6  STZ d   1      -6.448  -8.160  11.763  0.00  0.00     0.043 C 
ATOM     30  H6  STZ d   1      -7.155  -7.479  12.258  0.00  0.00     0.078 H 
ATOM     31  H7  STZ d   1      -5.719  -7.574  11.183  0.00  0.00     0.078 H 
BRANCH  29  32
ATOM     32  O6  STZ d   1      -5.758  -8.927  12.753  0.00  0.00    -0.398 OA
ATOM     33  H8  STZ d   1      -6.386  -9.432  13.255  0.00  0.00     0.209 HD
ENDBRANCH  29  32
ENDBRANCH   3  29
TORSDOF 8
