REMARK  10 active torsions:
REMARK  status: ('A' for Active; 'I' for Inactive)
REMARK    1  A    between atoms: O3B_8  and  PG_1 
REMARK    2  A    between atoms: PB_5  and  O3B_8 
REMARK    3  A    between atoms: O3A_12  and  PB_5 
REMARK    4  A    between atoms: PA_9  and  O3A_12 
REMARK    5  A    between atoms: PA_9  and  O5'_13 
REMARK    6  A    between atoms: O5'_13  and  C5'_14 
REMARK    7  A    between atoms: C5'_14  and  C4'_15 
REMARK    8  A    between atoms: C3'_17  and  O3'_18 
REMARK    9  A    between atoms: C2'_19  and  O2'_20 
REMARK   10  A    between atoms: C1'_21  and  N9_22 
ROOT
ATOM      1  C4' ATP d   1      40.635  -3.670  19.767  0.00  0.00     0.089 C 
ATOM      2  O4' ATP d   1      39.477  -3.411  18.972  0.00  0.00    -0.353 OA
ATOM      3  C3' ATP d   1      41.542  -4.560  18.944  0.00  0.00     0.091 C 
ATOM      4  C2' ATP d   1      40.915  -4.572  17.562  0.00  0.00     0.105 C 
ATOM      5  C1' ATP d   1      39.437  -4.291  17.849  0.00  0.00     0.139 C 
ATOM      6  H3  ATP d   1      40.336  -4.200  20.684  0.00  0.00     0.090 H 
ATOM      7  H4  ATP d   1      42.577  -4.189  18.913  0.00  0.00     0.091 H 
ATOM      8  H6  ATP d   1      41.338  -3.763  16.948  0.00  0.00     0.093 H 
ATOM      9  H8  ATP d   1      38.908  -5.222  18.099  0.00  0.00     0.122 H 
ENDROOT
BRANCH   1  10
ATOM     10  C5' ATP d   1      41.342  -2.383  20.162  0.00  0.00     0.058 C 
ATOM     11  H1  ATP d   1      42.431  -2.531  20.128  0.00  0.00     0.079 H 
ATOM     12  H2  ATP d   1      41.060  -1.575  19.471  0.00  0.00     0.079 H 
BRANCH  10  13
ATOM     13  O5' ATP d   1      40.942  -2.046  21.486  0.00  0.00    -0.287 OA
BRANCH  13  14
ATOM     14  PA  ATP d   1      41.736  -2.575  22.793  0.00  0.00     0.417 P 
ATOM     15  O1A ATP d   1      42.604  -1.448  23.289  0.00  0.00    -0.624 OA
ATOM     16  O2A ATP d   1      42.390  -3.903  22.485  0.00  0.00    -0.624 OA
BRANCH  14  17
ATOM     17  O3A ATP d   1      40.512  -2.785  23.839  0.00  0.00    -0.180 OA
BRANCH  17  18
ATOM     18  PB  ATP d   1      39.703  -4.174  24.013  0.00  0.00     0.428 P 
ATOM     19  O1B ATP d   1      40.113  -4.719  25.353  0.00  0.00    -0.624 OA
ATOM     20  O2B ATP d   1      39.912  -5.021  22.774  0.00  0.00    -0.624 OA
BRANCH  18  21
ATOM     21  O3B ATP d   1      38.130  -3.759  24.080  0.00  0.00    -0.173 OA
BRANCH  21  22
ATOM     22  PG  ATP d   1      37.421  -2.885  22.932  0.00  0.00     0.431 P 
ATOM     23  O1G ATP d   1      38.070  -1.524  23.040  0.00  0.00    -0.616 OA
ATOM     24  O2G ATP d   1      37.774  -3.674  21.691  0.00  0.00    -0.616 OA
ATOM     25  O3G ATP d   1      35.925  -2.836  23.074  0.00  0.00    -0.616 OA
ENDBRANCH  21  22
ENDBRANCH  18  21
ENDBRANCH  17  18
ENDBRANCH  14  17
ENDBRANCH  13  14
ENDBRANCH  10  13
ENDBRANCH   1  10
BRANCH   3  26
ATOM     26  O3' ATP d   1      41.477  -5.858  19.538  0.00  0.00    -0.390 OA
ATOM     27  H5  ATP d   1      42.034  -6.455  19.053  0.00  0.00     0.210 HD
ENDBRANCH   3  26
BRANCH   5  28
ATOM     28  N9  ATP d   1      38.758  -3.636  16.693  0.00  0.00    -0.294 N 
ATOM     29  C8  ATP d   1      38.949  -2.352  16.314  0.00  0.00     0.071 A 
ATOM     30  N7  ATP d   1      38.195  -2.024  15.251  0.00  0.00    -0.236 NA
ATOM     31  H9  ATP d   1      39.633  -1.665  16.811  0.00  0.00     0.144 H 
ATOM     32  C5  ATP d   1      37.493  -3.137  14.944  0.00  0.00     0.149 A 
ATOM     33  C6  ATP d   1      36.519  -3.492  13.933  0.00  0.00     0.155 A 
ATOM     34  C4  ATP d   1      37.862  -4.195  15.897  0.00  0.00     0.167 A 
ATOM     35  N6  ATP d   1      36.183  -2.558  13.019  0.00  0.00    -0.382 N 
ATOM     36  N1  ATP d   1      36.004  -4.773  13.958  0.00  0.00    -0.222 NA
ATOM     37  H10 ATP d   1      35.493  -2.779  12.287  0.00  0.00     0.157 HD
ATOM     38  H11 ATP d   1      36.616  -1.624  13.054  0.00  0.00     0.157 HD
ATOM     39  C2  ATP d   1      36.376  -5.694  14.865  0.00  0.00     0.091 A 
ATOM     40  N3  ATP d   1      37.278  -5.433  15.832  0.00  0.00    -0.222 NA
ATOM     41  H12 ATP d   1      35.934  -6.683  14.816  0.00  0.00     0.146 H 
ENDBRANCH   5  28
BRANCH   4  42
ATOM     42  O2' ATP d   1      41.131  -5.815  16.873  0.00  0.00    -0.388 OA
ATOM     43  H7  ATP d   1      40.749  -6.525  17.375  0.00  0.00     0.210 HD
ENDBRANCH   4  42
TORSDOF 10
