REMARK  5 active torsions:
REMARK  status: ('A' for Active; 'I' for Inactive)
REMARK    1  A    between atoms: C8_2  and  C9_3 
REMARK       I    between atoms: C8_2  and  N2_4 
REMARK    2  A    between atoms: N2_4  and  C3_5 
REMARK    3  A    between atoms: C4_6  and  O4_7 
REMARK    4  A    between atoms: C5_8  and  O5_9 
REMARK    5  A    between atoms: C6_10  and  O6_11 
ROOT
ATOM      1  C3  F34 d   1     -14.160   3.960  -1.816  0.00  0.00     0.062 C 
ATOM      2  C4  F34 d   1     -14.683   2.922  -0.858  0.00  0.00     0.084 C 
ATOM      3  C5  F34 d   1     -15.327   3.480   0.384  0.00  0.00     0.088 C 
ATOM      4  C6  F34 d   1     -16.587   4.338   0.203  0.00  0.00     0.086 C 
ATOM      5  C7  F34 d   1     -17.102   4.603  -1.218  0.00  0.00     0.107 C 
ATOM      6  N1  F34 d   1     -16.208   5.307  -2.139  0.00  0.00    -0.071 N 
ATOM      7  C2  F34 d   1     -14.830   5.341  -1.668  0.00  0.00     0.102 C 
ATOM      8  H5  F34 d   1     -13.121   4.153  -1.510  0.00  0.00     0.079 H 
ATOM      9  H6  F34 d   1     -15.406   2.281  -1.383  0.00  0.00     0.090 H 
ATOM     10  H8  F34 d   1     -14.588   4.112   0.898  0.00  0.00     0.091 H 
ATOM     11  H10 F34 d   1     -16.416   5.309   0.691  0.00  0.00     0.089 H 
ATOM     12  H12 F34 d   1     -18.021   5.200  -1.130  0.00  0.00     0.079 H 
ATOM     13  H13 F34 d   1     -17.340   3.629  -1.670  0.00  0.00     0.079 H 
ATOM     14  H14 F34 d   1     -16.536   6.254  -2.246  0.00  0.00     0.277 HD
ATOM     15  H15 F34 d   1     -16.232   4.840  -3.032  0.00  0.00     0.277 HD
ATOM     16  H16 F34 d   1     -14.267   6.079  -2.258  0.00  0.00     0.079 H 
ATOM     17  H17 F34 d   1     -14.820   5.634  -0.608  0.00  0.00     0.079 H 
ENDROOT
BRANCH   1  18
ATOM     18  N2  F34 d   1     -14.038   3.318  -3.133  0.00  0.00    -0.353 N 
ATOM     19  C8  F34 d   1     -15.035   2.794  -3.851  0.00  0.00     0.214 C 
ATOM     20  O8  F34 d   1     -16.205   2.862  -3.501  0.00  0.00    -0.274 OA
ATOM     21  H4  F34 d   1     -13.121   3.269  -3.529  0.00  0.00     0.163 HD
BRANCH  19  22
ATOM     22  C9  F34 d   1     -14.637   2.165  -5.169  0.00  0.00    -0.003 C 
ATOM     23  H1  F34 d   1     -13.544   2.210  -5.281  0.00  0.00     0.040 H 
ATOM     24  H2  F34 d   1     -15.113   2.713  -5.995  0.00  0.00     0.040 H 
ATOM     25  H3  F34 d   1     -14.965   1.115  -5.188  0.00  0.00     0.040 H 
ENDBRANCH  19  22
ENDBRANCH   1  18
BRANCH   2  26
ATOM     26  O4  F34 d   1     -13.530   2.141  -0.403  0.00  0.00    -0.391 OA
ATOM     27  H7  F34 d   1     -13.822   1.473   0.206  0.00  0.00     0.210 HD
ENDBRANCH   2  26
BRANCH   3  28
ATOM     28  O5  F34 d   1     -15.590   2.327   1.174  0.00  0.00    -0.390 OA
ATOM     29  H9  F34 d   1     -16.002   2.590   1.988  0.00  0.00     0.210 HD
ENDBRANCH   3  28
BRANCH   4  30
ATOM     30  O6  F34 d   1     -17.618   3.616   0.859  0.00  0.00    -0.391 OA
ATOM     31  H11 F34 d   1     -17.394   3.509   1.776  0.00  0.00     0.210 HD
ENDBRANCH   4  30
TORSDOF 5
