REMARK  10 active torsions:
REMARK  status: ('A' for Active; 'I' for Inactive)
REMARK    1  A    between atoms: N_1  and  CA_2 
REMARK    2  A    between atoms: CA_2  and  CB_3 
REMARK    3  A    between atoms: CA_2  and  C_5 
REMARK    4  A    between atoms: CB_3  and  OG_4 
REMARK    5  A    between atoms: C2_9  and  C2A_10 
REMARK    6  A    between atoms: C3_11  and  O3_12 
REMARK    7  A    between atoms: C4_13  and  C4A_14 
REMARK    8  A    between atoms: C5_15  and  C5A_17 
REMARK    9  A    between atoms: C5A_17  and  O4P_18 
REMARK   10  A    between atoms: O4P_18  and  P_19 
ROOT
ATOM      1  N1  PLS d   1       9.705  13.633  30.476  0.00  0.00    -0.262 NA
ATOM      2  C2  PLS d   1       9.735  13.867  31.797  0.00  0.00     0.064 A 
ATOM      3  C3  PLS d   1       8.674  14.531  32.404  0.00  0.00     0.102 A 
ATOM      4  C4  PLS d   1       7.573  14.943  31.642  0.00  0.00     0.026 A 
ATOM      5  C5  PLS d   1       7.586  14.681  30.272  0.00  0.00    -0.002 A 
ATOM      6  C6  PLS d   1       8.677  14.028  29.716  0.00  0.00     0.012 A 
ATOM      7  H10 PLS d   1       8.697  13.835  28.649  0.00  0.00     0.115 H 
ENDROOT
BRANCH   4   8
ATOM      8  C4A PLS d   1       6.396  15.640  32.236  0.00  0.00     0.011 C 
ATOM      9  N   PLS d   1       6.316  15.923  33.468  0.00  0.00    -0.282 NA
ATOM     10  H9  PLS d   1       5.570  15.918  31.583  0.00  0.00     0.115 H 
BRANCH   9  11
ATOM     11  CA  PLS d   1       5.182  16.549  34.157  0.00  0.00     0.135 C 
ATOM     12  H1  PLS d   1       5.574  17.282  34.878  0.00  0.00     0.096 H 
BRANCH  11  13
ATOM     13  CB  PLS d   1       4.216  17.267  33.211  0.00  0.00     0.047 C 
ATOM     14  H2  PLS d   1       3.356  17.637  33.788  0.00  0.00     0.078 H 
ATOM     15  H3  PLS d   1       3.866  16.557  32.447  0.00  0.00     0.078 H 
BRANCH  13  16
ATOM     16  OG  PLS d   1       4.856  18.371  32.565  0.00  0.00    -0.398 OA
ATOM     17  H4  PLS d   1       5.598  18.056  32.062  0.00  0.00     0.209 HD
ENDBRANCH  13  16
ENDBRANCH  11  13
BRANCH  11  18
ATOM     18  C   PLS d   1       4.412  15.470  34.900  0.00  0.00     0.201 C 
ATOM     19  O   PLS d   1       4.693  14.255  34.773  0.00  0.00    -0.646 OA
ATOM     20  OXT PLS d   1       3.502  15.812  35.690  0.00  0.00    -0.646 OA
ENDBRANCH  11  18
ENDBRANCH   9  11
ENDBRANCH   4   8
BRANCH   3  21
ATOM     21  O3  PLS d   1       8.725  14.753  33.748  0.00  0.00    -0.358 OA
ATOM     22  H8  PLS d   1       7.940  15.212  34.022  0.00  0.00     0.217 HD
ENDBRANCH   3  21
BRANCH   5  23
ATOM     23  C5A PLS d   1       6.452  15.080  29.357  0.00  0.00     0.058 C 
ATOM     24  H11 PLS d   1       5.494  14.922  29.874  0.00  0.00     0.082 H 
ATOM     25  H12 PLS d   1       6.484  14.462  28.447  0.00  0.00     0.082 H 
BRANCH  23  26
ATOM     26  O4P PLS d   1       6.574  16.460  28.997  0.00  0.00    -0.278 OA
BRANCH  26  27
ATOM     27  P   PLS d   1       5.277  17.416  28.825  0.00  0.00     0.422 P 
ATOM     28  O1P PLS d   1       4.704  17.574  30.202  0.00  0.00    -0.617 OA
ATOM     29  O2P PLS d   1       4.387  16.687  27.856  0.00  0.00    -0.617 OA
ATOM     30  O3P PLS d   1       5.879  18.690  28.317  0.00  0.00    -0.617 OA
ENDBRANCH  26  27
ENDBRANCH  23  26
ENDBRANCH   5  23
BRANCH   2  31
ATOM     31  C2A PLS d   1      10.944  13.394  32.576  0.00  0.00    -0.033 C 
ATOM     32  H5  PLS d   1      10.822  13.657  33.637  0.00  0.00     0.035 H 
ATOM     33  H6  PLS d   1      11.848  13.879  32.180  0.00  0.00     0.035 H 
ATOM     34  H7  PLS d   1      11.040  12.303  32.477  0.00  0.00     0.035 H 
ENDBRANCH   2  31
TORSDOF 10
