REMARK  10 active torsions:
REMARK  status: ('A' for Active; 'I' for Inactive)
REMARK    1  A    between atoms: N_1  and  CA_2 
REMARK    2  A    between atoms: CA_2  and  CB_3 
REMARK    3  A    between atoms: CA_2  and  C_5 
REMARK    4  A    between atoms: CB_3  and  OG_4 
REMARK    5  A    between atoms: C2_9  and  C2A_10 
REMARK    6  A    between atoms: C3_11  and  O3_12 
REMARK    7  A    between atoms: C4_13  and  C4A_14 
REMARK    8  A    between atoms: C5_15  and  C5A_17 
REMARK    9  A    between atoms: C5A_17  and  O4P_18 
REMARK   10  A    between atoms: O4P_18  and  P_19 
ROOT
ATOM      1  N1  PLS d   1      27.129  13.464  14.820  0.00  0.00    -0.262 NA
ATOM      2  C2  PLS d   1      27.102  13.701  13.491  0.00  0.00     0.064 A 
ATOM      3  C3  PLS d   1      28.154  14.374  12.894  0.00  0.00     0.102 A 
ATOM      4  C4  PLS d   1      29.244  14.806  13.653  0.00  0.00     0.026 A 
ATOM      5  C5  PLS d   1      29.237  14.536  15.023  0.00  0.00    -0.002 A 
ATOM      6  C6  PLS d   1      28.160  13.857  15.586  0.00  0.00     0.012 A 
ATOM      7  H10 PLS d   1      28.153  13.644  16.649  0.00  0.00     0.115 H 
ENDROOT
BRANCH   4   8
ATOM      8  C4A PLS d   1      30.389  15.529  13.019  0.00  0.00     0.011 C 
ATOM      9  N   PLS d   1      30.401  15.795  11.778  0.00  0.00    -0.282 NA
ATOM     10  H9  PLS d   1      31.232  15.835  13.636  0.00  0.00     0.115 H 
BRANCH   9  11
ATOM     11  CA  PLS d   1      31.467  16.468  11.017  0.00  0.00     0.135 C 
ATOM     12  H1  PLS d   1      31.003  17.187  10.326  0.00  0.00     0.096 H 
BRANCH  11  13
ATOM     13  CB  PLS d   1      32.463  17.211  11.908  0.00  0.00     0.047 C 
ATOM     14  H2  PLS d   1      33.221  17.691  11.271  0.00  0.00     0.078 H 
ATOM     15  H3  PLS d   1      32.951  16.486  12.576  0.00  0.00     0.078 H 
BRANCH  13  16
ATOM     16  OG  PLS d   1      31.826  18.214  12.702  0.00  0.00    -0.398 OA
ATOM     17  H4  PLS d   1      31.174  17.807  13.260  0.00  0.00     0.209 HD
ENDBRANCH  13  16
ENDBRANCH  11  13
BRANCH  11  18
ATOM     18  C   PLS d   1      32.242  15.439  10.232  0.00  0.00     0.201 C 
ATOM     19  O   PLS d   1      32.184  14.243  10.586  0.00  0.00    -0.646 OA
ATOM     20  OXT PLS d   1      32.918  15.798   9.247  0.00  0.00    -0.646 OA
ENDBRANCH  11  18
ENDBRANCH   9  11
ENDBRANCH   4   8
BRANCH   3  21
ATOM     21  O3  PLS d   1      28.090  14.599  11.557  0.00  0.00    -0.358 OA
ATOM     22  H8  PLS d   1      28.869  15.066  11.278  0.00  0.00     0.217 HD
ENDBRANCH   3  21
BRANCH   5  23
ATOM     23  C5A PLS d   1      30.371  14.946  15.938  0.00  0.00     0.058 C 
ATOM     24  H11 PLS d   1      31.329  14.667  15.476  0.00  0.00     0.082 H 
ATOM     25  H12 PLS d   1      30.265  14.428  16.902  0.00  0.00     0.082 H 
BRANCH  23  26
ATOM     26  O4P PLS d   1      30.346  16.345  16.154  0.00  0.00    -0.278 OA
BRANCH  26  27
ATOM     27  P   PLS d   1      31.674  17.200  16.464  0.00  0.00     0.422 P 
ATOM     28  O1P PLS d   1      32.488  16.453  17.480  0.00  0.00    -0.617 OA
ATOM     29  O2P PLS d   1      32.334  17.387  15.127  0.00  0.00    -0.617 OA
ATOM     30  O3P PLS d   1      31.046  18.470  17.006  0.00  0.00    -0.617 OA
ENDBRANCH  26  27
ENDBRANCH  23  26
ENDBRANCH   5  23
BRANCH   2  31
ATOM     31  C2A PLS d   1      25.928  13.239  12.660  0.00  0.00    -0.033 C 
ATOM     32  H5  PLS d   1      26.088  13.522  11.609  0.00  0.00     0.035 H 
ATOM     33  H6  PLS d   1      25.007  13.713  13.031  0.00  0.00     0.035 H 
ATOM     34  H7  PLS d   1      25.834  12.146  12.735  0.00  0.00     0.035 H 
ENDBRANCH   2  31
TORSDOF 10
