REMARK  8 active torsions:
REMARK  status: ('A' for Active; 'I' for Inactive)
REMARK    1  A    between atoms: C14_10  and  C18_11 
REMARK    2  A    between atoms: C24_14  and  N27_15 
REMARK    3  A    between atoms: N27_15  and  C29_16 
REMARK    4  A    between atoms: N27_15  and  C28_17 
REMARK    5  A    between atoms: C12_21  and  C19_22 
REMARK    6  A    between atoms: C17_23  and  C31_24 
REMARK    7  A    between atoms: C17_23  and  O3_27 
REMARK    8  A    between atoms: C30_25  and  C32_26 
ROOT
ATOM      1  O30 486 d   1      13.570   7.399   2.928  0.00  0.00    -0.293 OA
ATOM      2  C2  486 d   1      13.050   6.768   3.826  0.00  0.00     0.150 C 
ATOM      3  C1  486 d   1      11.559   6.840   3.951  0.00  0.00    -0.002 C 
ATOM      4  C3  486 d   1      13.851   6.029   4.712  0.00  0.00    -0.032 C 
ATOM      5  C4  486 d   1      13.327   5.418   5.794  0.00  0.00    -0.048 C 
ATOM      6  C7  486 d   1      14.240   4.548   6.619  0.00  0.00    -0.040 C 
ATOM      7  C5  486 d   1      11.904   5.575   6.181  0.00  0.00    -0.048 C 
ATOM      8  C6  486 d   1      10.990   6.402   5.297  0.00  0.00    -0.034 C 
ATOM      9  C10 486 d   1      11.425   5.062   7.341  0.00  0.00    -0.060 C 
ATOM     10  C14 486 d   1       9.951   5.298   7.736  0.00  0.00    -0.005 C 
ATOM     11  C13 486 d   1       9.735   5.405   9.275  0.00  0.00    -0.044 C 
ATOM     12  C12 486 d   1      10.489   4.330  10.031  0.00  0.00     0.004 C 
ATOM     13  C17 486 d   1      10.503   4.432  11.566  0.00  0.00     0.128 C 
ATOM     14  C16 486 d   1      11.721   3.576  11.963  0.00  0.00    -0.025 C 
ATOM     15  C15 486 d   1      12.658   3.596  10.730  0.00  0.00    -0.057 C 
ATOM     16  C11 486 d   1      11.990   4.541   9.722  0.00  0.00    -0.036 C 
ATOM     17  C9  486 d   1      12.319   4.257   8.255  0.00  0.00    -0.026 C 
ATOM     18  C8  486 d   1      13.788   4.582   8.074  0.00  0.00    -0.054 C 
ATOM     19  H1  486 d   1      11.122   6.196   3.173  0.00  0.00     0.045 H 
ATOM     20  H2  486 d   1      11.255   7.883   3.778  0.00  0.00     0.045 H 
ATOM     21  H3  486 d   1      14.920   5.947   4.521  0.00  0.00     0.089 H 
ATOM     22  H4  486 d   1      15.271   4.924   6.546  0.00  0.00     0.040 H 
ATOM     23  H5  486 d   1      14.199   3.514   6.245  0.00  0.00     0.040 H 
ATOM     24  H6  486 d   1      10.087   5.806   5.100  0.00  0.00     0.040 H 
ATOM     25  H7  486 d   1      10.716   7.309   5.855  0.00  0.00     0.040 H 
ATOM     26  H8  486 d   1       9.691   6.288   7.335  0.00  0.00     0.054 H 
ATOM     27  H19 486 d   1       8.661   5.304   9.491  0.00  0.00     0.035 H 
ATOM     28  H20 486 d   1      10.086   6.391   9.615  0.00  0.00     0.035 H 
ATOM     29  H28 486 d   1      11.409   2.546  12.193  0.00  0.00     0.038 H 
ATOM     30  H29 486 d   1      12.227   4.010  12.838  0.00  0.00     0.038 H 
ATOM     31  H30 486 d   1      12.755   2.586  10.304  0.00  0.00     0.033 H 
ATOM     32  H31 486 d   1      13.653   3.973  11.009  0.00  0.00     0.033 H 
ATOM     33  H32 486 d   1      12.282   5.580   9.937  0.00  0.00     0.042 H 
ATOM     34  H33 486 d   1      12.158   3.190   8.042  0.00  0.00     0.047 H 
ATOM     35  H34 486 d   1      13.974   5.590   8.474  0.00  0.00     0.034 H 
ATOM     36  H35 486 d   1      14.380   3.848   8.640  0.00  0.00     0.034 H 
ENDROOT
BRANCH  10  37
ATOM     37  C18 486 d   1       8.996   4.308   7.047  0.00  0.00    -0.050 A 
ATOM     38  C22 486 d   1       9.415   3.337   6.140  0.00  0.00    -0.074 A 
ATOM     39  C23 486 d   1       8.502   2.492   5.514  0.00  0.00    -0.057 A 
ATOM     40  H9  486 d   1      10.471   3.237   5.917  0.00  0.00     0.084 H 
ATOM     41  C24 486 d   1       7.133   2.581   5.776  0.00  0.00     0.029 A 
ATOM     42  H10 486 d   1       8.861   1.750   4.809  0.00  0.00     0.086 H 
ATOM     43  C25 486 d   1       6.705   3.556   6.666  0.00  0.00    -0.057 A 
ATOM     44  C26 486 d   1       7.630   4.405   7.277  0.00  0.00    -0.074 A 
ATOM     45  H17 486 d   1       5.649   3.659   6.888  0.00  0.00     0.086 H 
ATOM     46  H18 486 d   1       7.268   5.168   7.956  0.00  0.00     0.084 H 
BRANCH  41  47
ATOM     47  N27 486 d   1       6.208   1.733   5.135  0.00  0.00    -0.390 N 
BRANCH  47  48
ATOM     48  C29 486 d   1       6.576   0.434   4.563  0.00  0.00    -0.019 C 
ATOM     49  H11 486 d   1       5.686  -0.037   4.120  0.00  0.00     0.056 H 
ATOM     50  H12 486 d   1       6.979  -0.215   5.355  0.00  0.00     0.056 H 
ATOM     51  H13 486 d   1       7.339   0.579   3.784  0.00  0.00     0.056 H 
ENDBRANCH  47  48
BRANCH  47  52
ATOM     52  C28 486 d   1       4.906   2.284   4.737  0.00  0.00    -0.019 C 
ATOM     53  H14 486 d   1       4.752   3.254   5.232  0.00  0.00     0.056 H 
ATOM     54  H15 486 d   1       4.107   1.589   5.035  0.00  0.00     0.056 H 
ATOM     55  H16 486 d   1       4.884   2.421   3.646  0.00  0.00     0.056 H 
ENDBRANCH  47  52
ENDBRANCH  41  47
ENDBRANCH  10  37
BRANCH  12  56
ATOM     56  C19 486 d   1      10.006   2.941   9.591  0.00  0.00    -0.065 C 
ATOM     57  H21 486 d   1      10.002   2.885   8.492  0.00  0.00     0.028 H 
ATOM     58  H22 486 d   1       8.988   2.770   9.970  0.00  0.00     0.028 H 
ATOM     59  H23 486 d   1      10.682   2.173   9.995  0.00  0.00     0.028 H 
ENDBRANCH  12  56
BRANCH  13  60
ATOM     60  C31 486 d   1      10.717   5.796  12.084  0.00  0.00    -0.068 C 
ATOM     61  C30 486 d   1      10.942   6.857  12.516  0.00  0.00    -0.108 C 
BRANCH  61  62
ATOM     62  C32 486 d   1      11.249   8.166  13.115  0.00  0.00    -0.021 C 
ATOM     63  H24 486 d   1      10.962   8.965  12.416  0.00  0.00     0.044 H 
ATOM     64  H25 486 d   1      12.327   8.230  13.323  0.00  0.00     0.044 H 
ATOM     65  H26 486 d   1      10.687   8.281  14.054  0.00  0.00     0.044 H 
ENDBRANCH  61  62
ENDBRANCH  13  60
BRANCH  13  66
ATOM     66  O3  486 d   1       9.338   3.899  12.163  0.00  0.00    -0.377 OA
ATOM     67  H27 486 d   1       8.593   4.448  11.947  0.00  0.00     0.211 HD
ENDBRANCH  13  66
TORSDOF 8
