REMARK  10 active torsions:
REMARK  status: ('A' for Active; 'I' for Inactive)
REMARK    1  A    between atoms: CBA_1  and  CAN_2 
REMARK    2  A    between atoms: CAN_2  and  CAL_3 
REMARK       I    between atoms: CAL_3  and  NAK_5 
REMARK    3  A    between atoms: NAK_5  and  CAC_6 
REMARK    4  A    between atoms: CAB_7  and  OAG_8 
REMARK    5  A    between atoms: CAA_9  and  OAH_10 
REMARK    6  A    between atoms: CAF_11  and  CAI_12 
REMARK    7  A    between atoms: CAI_12  and  OAJ_13 
REMARK    8  A    between atoms: CAP_18  and  CAR_19 
REMARK    9  A    between atoms: CAR_19  and  CAS_20 
REMARK   10  A    between atoms: CAS_20  and  CAT_21 
ROOT
ATOM      1  CAC VGB d   1      32.794  43.021  21.111  0.00  0.00     0.097 C 
ATOM      2  CAB VGB d   1      32.155  43.190  22.471  0.00  0.00     0.088 C 
ATOM      3  CAA VGB d   1      30.717  42.668  22.477  0.00  0.00     0.084 C 
ATOM      4  CAF VGB d   1      30.773  41.164  22.249  0.00  0.00     0.065 C 
ATOM      5  NAE VGB d   1      31.181  41.025  20.851  0.00  0.00    -0.332 N 
ATOM      6  CAQ VGB d   1      30.810  40.208  19.890  0.00  0.00     0.005 A 
ATOM      7  CAD VGB d   1      32.157  41.878  20.313  0.00  0.00     0.132 A 
ATOM      8  NAO VGB d   1      32.298  41.558  19.052  0.00  0.00    -0.236 NA
ATOM      9  CAP VGB d   1      31.499  40.541  18.787  0.00  0.00     0.052 A 
ATOM     10  H7  VGB d   1      32.601  43.944  20.544  0.00  0.00     0.089 H 
ATOM     11  H8  VGB d   1      32.734  42.644  23.230  0.00  0.00     0.090 H 
ATOM     12  H10 VGB d   1      30.128  43.143  21.679  0.00  0.00     0.090 H 
ATOM     13  H12 VGB d   1      31.544  40.742  22.910  0.00  0.00     0.080 H 
ATOM     14  H16 VGB d   1      30.077  39.407  19.974  0.00  0.00     0.114 H 
ENDROOT
BRANCH   9  15
ATOM     15  CAR VGB d   1      31.428  39.844  17.418  0.00  0.00    -0.020 C 
ATOM     16  H17 VGB d   1      30.557  39.173  17.395  0.00  0.00     0.042 H 
ATOM     17  H18 VGB d   1      32.346  39.259  17.258  0.00  0.00     0.042 H 
BRANCH  15  18
ATOM     18  CAS VGB d   1      31.293  40.888  16.313  0.00  0.00    -0.036 C 
ATOM     19  H19 VGB d   1      31.570  40.423  15.355  0.00  0.00     0.040 H 
ATOM     20  H20 VGB d   1      31.981  41.719  16.529  0.00  0.00     0.040 H 
BRANCH  18  21
ATOM     21  CAT VGB d   1      29.864  41.453  16.190  0.00  0.00    -0.058 A 
ATOM     22  CAU VGB d   1      28.839  40.637  15.704  0.00  0.00    -0.077 A 
ATOM     23  CAV VGB d   1      27.553  41.144  15.549  0.00  0.00    -0.082 A 
ATOM     24  H21 VGB d   1      29.047  39.605  15.447  0.00  0.00     0.084 H 
ATOM     25  CAW VGB d   1      27.313  42.469  15.898  0.00  0.00    -0.083 A 
ATOM     26  H22 VGB d   1      26.755  40.520  15.164  0.00  0.00     0.083 H 
ATOM     27  CAX VGB d   1      28.324  43.295  16.392  0.00  0.00    -0.082 A 
ATOM     28  H23 VGB d   1      26.313  42.871  15.783  0.00  0.00     0.083 H 
ATOM     29  CAY VGB d   1      29.605  42.784  16.542  0.00  0.00    -0.077 A 
ATOM     30  H24 VGB d   1      28.110  44.325  16.656  0.00  0.00     0.083 H 
ATOM     31  H25 VGB d   1      30.400  43.411  16.929  0.00  0.00     0.084 H 
ENDBRANCH  18  21
ENDBRANCH  15  18
ENDBRANCH   9  15
BRANCH   4  32
ATOM     32  CAI VGB d   1      29.477  40.364  22.484  0.00  0.00     0.038 C 
ATOM     33  H13 VGB d   1      29.257  40.325  23.561  0.00  0.00     0.077 H 
ATOM     34  H14 VGB d   1      29.599  39.341  22.098  0.00  0.00     0.077 H 
BRANCH  32  35
ATOM     35  OAJ VGB d   1      28.416  41.002  21.807  0.00  0.00    -0.399 OA
ATOM     36  H15 VGB d   1      28.314  41.885  22.142  0.00  0.00     0.209 HD
ENDBRANCH  32  35
ENDBRANCH   4  32
BRANCH   1  37
ATOM     37  NAK VGB d   1      34.257  42.902  21.250  0.00  0.00    -0.347 N 
ATOM     38  CAL VGB d   1      34.830  41.855  21.819  0.00  0.00     0.217 C 
ATOM     39  OAM VGB d   1      34.194  40.889  22.262  0.00  0.00    -0.274 OA
ATOM     40  H6  VGB d   1      34.836  43.639  20.902  0.00  0.00     0.163 HD
BRANCH  38  41
ATOM     41  CAN VGB d   1      36.373  41.984  21.853  0.00  0.00     0.006 C 
ATOM     42  H4  VGB d   1      36.723  42.144  20.822  0.00  0.00     0.046 H 
ATOM     43  H5  VGB d   1      36.626  42.861  22.467  0.00  0.00     0.046 H 
BRANCH  41  44
ATOM     44  CBA VGB d   1      37.118  40.783  22.420  0.00  0.00    -0.068 C 
ATOM     45  H1  VGB d   1      38.200  40.979  22.398  0.00  0.00     0.028 H 
ATOM     46  H2  VGB d   1      36.894  39.893  21.814  0.00  0.00     0.028 H 
ATOM     47  H3  VGB d   1      36.798  40.610  23.458  0.00  0.00     0.028 H 
ENDBRANCH  41  44
ENDBRANCH  38  41
ENDBRANCH   1  37
BRANCH   3  48
ATOM     48  OAH VGB d   1      30.157  42.994  23.754  0.00  0.00    -0.391 OA
ATOM     49  H11 VGB d   1      29.260  42.683  23.794  0.00  0.00     0.210 HD
ENDBRANCH   3  48
BRANCH   2  50
ATOM     50  OAG VGB d   1      32.203  44.576  22.732  0.00  0.00    -0.390 OA
ATOM     51  H9  VGB d   1      31.813  44.751  23.580  0.00  0.00     0.210 HD
ENDBRANCH   2  50
TORSDOF 10
