REMARK  12 active torsions:
REMARK  status: ('A' for Active; 'I' for Inactive)
REMARK    1  A    between atoms: O4_1  and  C4_2 
REMARK    2  A    between atoms: C3_6  and  O3_7 
REMARK    3  A    between atoms: C2_8  and  O2_9 
REMARK    4  A    between atoms: C1_10  and  O1_11 
REMARK    5  A    between atoms: N2_14  and  C8_15 
REMARK    6  A    between atoms: C8_15  and  C9_16 
REMARK    7  A    between atoms: C9_16  and  C10_17 
REMARK    8  A    between atoms: C10_17  and  C11_18 
REMARK    9  A    between atoms: C11_18  and  C12_19 
REMARK   10  A    between atoms: C12_19  and  C13_20 
REMARK   11  A    between atoms: C13_20  and  C14_21 
REMARK   12  A    between atoms: C14_21  and  C15_22 
ROOT
ATOM      1  C4  AM3 d   1       1.689   0.338  11.244  0.00  0.00     0.084 C 
ATOM      2  C5  AM3 d   1       1.820   1.874  11.139  0.00  0.00     0.066 C 
ATOM      3  C6  AM3 d   1       0.676   2.594  10.381  0.00  0.00     0.050 C 
ATOM      4  O6  AM3 d   1       0.307   3.643  11.314  0.00  0.00    -0.319 OA
ATOM      5  C3  AM3 d   1       2.874  -0.149  12.098  0.00  0.00     0.091 C 
ATOM      6  C2  AM3 d   1       2.918   0.413  13.528  0.00  0.00     0.104 C 
ATOM      7  C1  AM3 d   1       2.631   1.925  13.588  0.00  0.00     0.133 C 
ATOM      8  N1  AM3 d   1       1.816   2.444  12.492  0.00  0.00    -0.307 N 
ATOM      9  C7  AM3 d   1       0.916   3.526  12.514  0.00  0.00     0.241 C 
ATOM     10  N2  AM3 d   1       0.612   4.324  13.552  0.00  0.00    -0.251 NA
ATOM     11  H2  AM3 d   1       1.782  -0.098  10.239  0.00  0.00     0.090 H 
ATOM     12  H3  AM3 d   1       2.772   2.101  10.637  0.00  0.00     0.080 H 
ATOM     13  H4  AM3 d   1      -0.167   1.914  10.191  0.00  0.00     0.078 H 
ATOM     14  H5  AM3 d   1       1.030   3.014   9.428  0.00  0.00     0.078 H 
ATOM     15  H6  AM3 d   1       3.789   0.183  11.586  0.00  0.00     0.091 H 
ATOM     16  H8  AM3 d   1       2.177  -0.116  14.145  0.00  0.00     0.093 H 
ATOM     17  H10 AM3 d   1       3.582   2.474  13.662  0.00  0.00     0.122 H 
ENDROOT
BRANCH  10  18
ATOM     18  C8  AM3 d   1      -0.707   4.702  14.131  0.00  0.00     0.019 C 
ATOM     19  H12 AM3 d   1      -0.647   4.646  15.228  0.00  0.00     0.067 H 
ATOM     20  H13 AM3 d   1      -1.473   4.000  13.770  0.00  0.00     0.067 H 
BRANCH  18  21
ATOM     21  C9  AM3 d   1      -1.096   6.110  13.727  0.00  0.00    -0.048 C 
ATOM     22  H14 AM3 d   1      -1.842   6.036  12.922  0.00  0.00     0.035 H 
ATOM     23  H15 AM3 d   1      -0.195   6.613  13.347  0.00  0.00     0.035 H 
BRANCH  21  24
ATOM     24  C10 AM3 d   1      -1.684   6.977  14.829  0.00  0.00    -0.064 C 
ATOM     25  H16 AM3 d   1      -1.605   8.030  14.520  0.00  0.00     0.033 H 
ATOM     26  H17 AM3 d   1      -1.096   6.819  15.745  0.00  0.00     0.033 H 
BRANCH  24  27
ATOM     27  C11 AM3 d   1      -3.145   6.677  15.140  0.00  0.00    -0.065 C 
ATOM     28  H18 AM3 d   1      -3.206   5.969  15.979  0.00  0.00     0.033 H 
ATOM     29  H19 AM3 d   1      -3.629   6.239  14.255  0.00  0.00     0.033 H 
BRANCH  27  30
ATOM     30  C12 AM3 d   1      -3.848   7.979  15.516  0.00  0.00    -0.065 C 
ATOM     31  H20 AM3 d   1      -4.004   8.587  14.613  0.00  0.00     0.033 H 
ATOM     32  H21 AM3 d   1      -3.228   8.538  16.232  0.00  0.00     0.033 H 
BRANCH  30  33
ATOM     33  C13 AM3 d   1      -5.196   7.656  16.152  0.00  0.00    -0.065 C 
ATOM     34  H22 AM3 d   1      -5.035   7.003  17.023  0.00  0.00     0.033 H 
ATOM     35  H23 AM3 d   1      -5.825   7.136  15.415  0.00  0.00     0.033 H 
BRANCH  33  36
ATOM     36  C14 AM3 d   1      -5.904   8.920  16.604  0.00  0.00    -0.069 C 
ATOM     37  H24 AM3 d   1      -5.155   9.681  16.867  0.00  0.00     0.032 H 
ATOM     38  H25 AM3 d   1      -6.522   8.694  17.485  0.00  0.00     0.032 H 
BRANCH  36  39
ATOM     39  C15 AM3 d   1      -6.789   9.453  15.497  0.00  0.00    -0.077 C 
ATOM     40  H26 AM3 d   1      -7.294  10.368  15.840  0.00  0.00     0.027 H 
ATOM     41  H27 AM3 d   1      -7.542   8.696  15.232  0.00  0.00     0.027 H 
ATOM     42  H28 AM3 d   1      -6.174   9.683  14.614  0.00  0.00     0.027 H 
ENDBRANCH  36  39
ENDBRANCH  33  36
ENDBRANCH  30  33
ENDBRANCH  27  30
ENDBRANCH  24  27
ENDBRANCH  21  24
ENDBRANCH  18  21
ENDBRANCH  10  18
BRANCH   7  43
ATOM     43  O1  AM3 d   1       1.781   2.177  14.690  0.00  0.00    -0.374 OA
ATOM     44  H11 AM3 d   1       1.610   3.110  14.750  0.00  0.00     0.212 HD
ENDBRANCH   7  43
BRANCH   1  45
ATOM     45  O4  AM3 d   1       0.408  -0.041  11.763  0.00  0.00    -0.391 OA
ATOM     46  H1  AM3 d   1      -0.274   0.282  11.187  0.00  0.00     0.210 HD
ENDBRANCH   1  45
BRANCH   6  47
ATOM     47  O2  AM3 d   1       4.251   0.186  14.048  0.00  0.00    -0.389 OA
ATOM     48  H9  AM3 d   1       4.885   0.631  13.497  0.00  0.00     0.210 HD
ENDBRANCH   6  47
BRANCH   5  49
ATOM     49  O3  AM3 d   1       2.907  -1.558  12.186  0.00  0.00    -0.390 OA
ATOM     50  H7  AM3 d   1       2.993  -1.927  11.315  0.00  0.00     0.210 HD
ENDBRANCH   5  49
TORSDOF 12
