REMARK  12 active torsions:
REMARK  status: ('A' for Active; 'I' for Inactive)
REMARK    1  A    between atoms: O4_1  and  C4_2 
REMARK    2  A    between atoms: C3_6  and  O3_7 
REMARK    3  A    between atoms: C2_8  and  O2_9 
REMARK    4  A    between atoms: C1_10  and  O1_11 
REMARK    5  A    between atoms: N2_14  and  C8_15 
REMARK    6  A    between atoms: C8_15  and  C9_16 
REMARK    7  A    between atoms: C9_16  and  C10_17 
REMARK    8  A    between atoms: C10_17  and  C11_18 
REMARK    9  A    between atoms: C11_18  and  C12_19 
REMARK   10  A    between atoms: C12_19  and  C13_20 
REMARK   11  A    between atoms: C13_20  and  C14_21 
REMARK   12  A    between atoms: C14_21  and  C15_22 
ROOT
ATOM      1  C4  AMF d   1       1.620   6.639  13.632  0.00  0.00     0.083 C 
ATOM      2  C5  AMF d   1       0.980   6.296  12.280  0.00  0.00     0.052 C 
ATOM      3  C6  AMF d   1       0.554   7.496  11.416  0.00  0.00     0.005 C 
ATOM      4  S1  AMF d   1       0.660   6.987   9.715  0.00  0.00    -0.090 SA
ATOM      5  C3  AMF d   1       1.811   5.329  14.385  0.00  0.00     0.091 C 
ATOM      6  C2  AMF d   1       2.866   4.470  13.687  0.00  0.00     0.104 C 
ATOM      7  C1  AMF d   1       2.705   4.420  12.160  0.00  0.00     0.132 C 
ATOM      8  N1  AMF d   1       1.924   5.452  11.504  0.00  0.00    -0.323 N 
ATOM      9  C7  AMF d   1       1.795   5.717  10.119  0.00  0.00     0.162 C 
ATOM     10  N2  AMF d   1       2.493   5.080   9.153  0.00  0.00    -0.267 NA
ATOM     11  H2  AMF d   1       2.594   7.130  13.486  0.00  0.00     0.090 H 
ATOM     12  H3  AMF d   1       0.074   5.708  12.489  0.00  0.00     0.078 H 
ATOM     13  H4  AMF d   1       1.226   8.348  11.597  0.00  0.00     0.052 H 
ATOM     14  H5  AMF d   1      -0.479   7.787  11.658  0.00  0.00     0.052 H 
ATOM     15  H6  AMF d   1       0.848   4.802  14.452  0.00  0.00     0.091 H 
ATOM     16  H8  AMF d   1       3.860   4.876  13.927  0.00  0.00     0.093 H 
ATOM     17  H10 AMF d   1       2.204   3.467  11.938  0.00  0.00     0.122 H 
ENDROOT
BRANCH  10  18
ATOM     18  C8  AMF d   1       2.384   5.360   7.701  0.00  0.00     0.018 C 
ATOM     19  H12 AMF d   1       1.520   6.019   7.529  0.00  0.00     0.067 H 
ATOM     20  H13 AMF d   1       2.233   4.411   7.166  0.00  0.00     0.067 H 
BRANCH  18  21
ATOM     21  C9  AMF d   1       3.633   6.035   7.161  0.00  0.00    -0.048 C 
ATOM     22  H14 AMF d   1       4.519   5.473   7.490  0.00  0.00     0.035 H 
ATOM     23  H15 AMF d   1       3.686   7.063   7.549  0.00  0.00     0.035 H 
BRANCH  21  24
ATOM     24  C10 AMF d   1       3.600   6.075   5.630  0.00  0.00    -0.064 C 
ATOM     25  H16 AMF d   1       2.706   6.617   5.290  0.00  0.00     0.033 H 
ATOM     26  H17 AMF d   1       3.582   5.051   5.230  0.00  0.00     0.033 H 
BRANCH  24  27
ATOM     27  C11 AMF d   1       4.860   6.798   5.150  0.00  0.00    -0.065 C 
ATOM     28  H18 AMF d   1       5.748   6.275   5.534  0.00  0.00     0.033 H 
ATOM     29  H19 AMF d   1       4.852   7.832   5.526  0.00  0.00     0.033 H 
BRANCH  27  30
ATOM     30  C12 AMF d   1       4.905   6.816   3.627  0.00  0.00    -0.065 C 
ATOM     31  H20 AMF d   1       4.314   7.665   3.254  0.00  0.00     0.033 H 
ATOM     32  H21 AMF d   1       4.484   5.877   3.238  0.00  0.00     0.033 H 
BRANCH  30  33
ATOM     33  C13 AMF d   1       6.355   6.958   3.152  0.00  0.00    -0.065 C 
ATOM     34  H22 AMF d   1       6.748   5.971   2.869  0.00  0.00     0.033 H 
ATOM     35  H23 AMF d   1       6.969   7.379   3.962  0.00  0.00     0.033 H 
BRANCH  33  36
ATOM     36  C14 AMF d   1       6.394   7.886   1.949  0.00  0.00    -0.069 C 
ATOM     37  H24 AMF d   1       5.707   8.729   2.111  0.00  0.00     0.032 H 
ATOM     38  H25 AMF d   1       6.091   7.334   1.047  0.00  0.00     0.032 H 
BRANCH  36  39
ATOM     39  C15 AMF d   1       7.809   8.408   1.775  0.00  0.00    -0.077 C 
ATOM     40  H26 AMF d   1       7.847   9.081   0.906  0.00  0.00     0.027 H 
ATOM     41  H27 AMF d   1       8.495   7.563   1.615  0.00  0.00     0.027 H 
ATOM     42  H28 AMF d   1       8.111   8.958   2.679  0.00  0.00     0.027 H 
ENDBRANCH  36  39
ENDBRANCH  33  36
ENDBRANCH  30  33
ENDBRANCH  27  30
ENDBRANCH  24  27
ENDBRANCH  21  24
ENDBRANCH  18  21
ENDBRANCH  10  18
BRANCH   7  43
ATOM     43  O1  AMF d   1       4.016   4.395  11.550  0.00  0.00    -0.374 OA
ATOM     44  H11 AMF d   1       4.545   3.724  11.966  0.00  0.00     0.212 HD
ENDBRANCH   7  43
BRANCH   1  45
ATOM     45  O4  AMF d   1       0.728   7.529  14.327  0.00  0.00    -0.391 OA
ATOM     46  H1  AMF d   1       0.603   8.317  13.811  0.00  0.00     0.210 HD
ENDBRANCH   1  45
BRANCH   6  47
ATOM     47  O2  AMF d   1       2.765   3.116  14.163  0.00  0.00    -0.389 OA
ATOM     48  H9  AMF d   1       1.899   2.777  13.970  0.00  0.00     0.210 HD
ENDBRANCH   6  47
BRANCH   5  49
ATOM     49  O3  AMF d   1       2.366   5.529  15.672  0.00  0.00    -0.390 OA
ATOM     50  H7  AMF d   1       2.468   4.690  16.105  0.00  0.00     0.210 HD
ENDBRANCH   5  49
TORSDOF 12
