REMARK  9 active torsions:
REMARK  status: ('A' for Active; 'I' for Inactive)
REMARK    1  A    between atoms: N1_1  and  C1'_9 
REMARK    2  A    between atoms: C3'_11  and  O3'_14 
REMARK    3  A    between atoms: C4'_12  and  C5'_15 
REMARK    4  A    between atoms: C5'_15  and  O5'_16 
REMARK    5  A    between atoms: O5'_16  and  PA_17 
REMARK    6  A    between atoms: PA_17  and  O3A_20 
REMARK    7  A    between atoms: O3A_20  and  PB_21 
REMARK    8  A    between atoms: PB_21  and  O3B_24 
REMARK    9  A    between atoms: O3B_24  and  PG_25 
ROOT
ATOM      1  C1' DUT d   1      25.514  16.995   5.797  0.00  0.00     0.116 C 
ATOM      2  C2' DUT d   1      25.635  15.670   6.556  0.00  0.00     0.002 C 
ATOM      3  C3' DUT d   1      26.800  15.879   7.528  0.00  0.00     0.066 C 
ATOM      4  C4' DUT d   1      26.782  17.390   7.766  0.00  0.00     0.087 C 
ATOM      5  O4' DUT d   1      26.247  17.972   6.570  0.00  0.00    -0.356 OA
ATOM      6  H4  DUT d   1      24.454  17.285   5.749  0.00  0.00     0.118 H 
ATOM      7  H5  DUT d   1      25.853  14.845   5.862  0.00  0.00     0.043 H 
ATOM      8  H6  DUT d   1      24.707  15.452   7.105  0.00  0.00     0.043 H 
ATOM      9  H7  DUT d   1      27.748  15.586   7.053  0.00  0.00     0.087 H 
ATOM     10  H8  DUT d   1      26.120  17.608   8.617  0.00  0.00     0.090 H 
ENDROOT
BRANCH   4  11
ATOM     11  C5' DUT d   1      28.160  18.007   8.059  0.00  0.00     0.058 C 
ATOM     12  H10 DUT d   1      28.602  17.536   8.949  0.00  0.00     0.079 H 
ATOM     13  H11 DUT d   1      28.060  19.089   8.228  0.00  0.00     0.079 H 
BRANCH  11  14
ATOM     14  O5' DUT d   1      28.983  17.764   6.916  0.00  0.00    -0.287 OA
BRANCH  14  15
ATOM     15  PA  DUT d   1      30.557  17.953   7.014  0.00  0.00     0.417 P 
ATOM     16  O1A DUT d   1      31.160  17.674   5.666  0.00  0.00    -0.624 OA
ATOM     17  O2A DUT d   1      30.986  17.213   8.228  0.00  0.00    -0.624 OA
BRANCH  15  18
ATOM     18  O3A DUT d   1      30.561  19.562   7.329  0.00  0.00    -0.180 OA
BRANCH  18  19
ATOM     19  PB  DUT d   1      31.700  20.401   8.179  0.00  0.00     0.428 P 
ATOM     20  O1B DUT d   1      32.194  21.502   7.318  0.00  0.00    -0.624 OA
ATOM     21  O2B DUT d   1      32.701  19.446   8.732  0.00  0.00    -0.624 OA
BRANCH  19  22
ATOM     22  O3B DUT d   1      30.767  21.011   9.338  0.00  0.00    -0.173 OA
BRANCH  22  23
ATOM     23  PG  DUT d   1      30.596  20.341  10.798  0.00  0.00     0.431 P 
ATOM     24  O1G DUT d   1      31.748  20.927  11.569  0.00  0.00    -0.616 OA
ATOM     25  O2G DUT d   1      30.630  18.816  10.654  0.00  0.00    -0.616 OA
ATOM     26  O3G DUT d   1      29.250  20.747  11.305  0.00  0.00    -0.616 OA
ENDBRANCH  22  23
ENDBRANCH  19  22
ENDBRANCH  18  19
ENDBRANCH  15  18
ENDBRANCH  14  15
ENDBRANCH  11  14
ENDBRANCH   4  11
BRANCH   3  27
ATOM     27  O3' DUT d   1      26.644  15.102   8.737  0.00  0.00    -0.393 OA
ATOM     28  H9  DUT d   1      27.353  15.304   9.336  0.00  0.00     0.210 HD
ENDBRANCH   3  27
BRANCH   1  29
ATOM     29  N1  DUT d   1      26.037  16.922   4.407  0.00  0.00    -0.282 N 
ATOM     30  C2  DUT d   1      25.221  17.154   3.273  0.00  0.00     0.330 A 
ATOM     31  N3  DUT d   1      25.737  17.096   2.012  0.00  0.00    -0.286 N 
ATOM     32  O2  DUT d   1      24.029  17.426   3.409  0.00  0.00    -0.246 OA
ATOM     33  C4  DUT d   1      27.036  16.777   1.829  0.00  0.00     0.184 A 
ATOM     34  H1  DUT d   1      25.154  17.290   1.223  0.00  0.00     0.172 HD
ATOM     35  C5  DUT d   1      27.872  16.558   2.928  0.00  0.00    -0.016 A 
ATOM     36  O4  DUT d   1      27.560  16.742   0.589  0.00  0.00    -0.172 OA
ATOM     37  C6  DUT d   1      27.333  16.637   4.198  0.00  0.00    -0.009 A 
ATOM     38  H2  DUT d   1      28.927  16.330   2.786  0.00  0.00     0.092 H 
ATOM     39  H3  DUT d   1      27.980  16.463   5.057  0.00  0.00     0.112 H 
ENDBRANCH   1  29
TORSDOF 9
