REMARK  16 active torsions:
REMARK  status: ('A' for Active; 'I' for Inactive)
REMARK    1  A    between atoms: C13_13  and  C8_9 
REMARK       I    between atoms: NV_15  and  C12_12 
REMARK    2  A    between atoms: C13_13  and  C14_14 
REMARK    3  A    between atoms: C14_14  and  NL_22 
REMARK    4  A    between atoms: C14_14  and  P_23 
REMARK    5  A    between atoms: CAV_16  and  NV_15 
REMARK    6  A    between atoms: CV_17  and  CAV_16 
REMARK    7  A    between atoms: CAV_16  and  CBV_19 
REMARK       I    between atoms: NL_22  and  CV_17 
REMARK    8  A    between atoms: CBV_19  and  CV1_20 
REMARK    9  A    between atoms: CBV_19  and  CV2_21 
REMARK   10  A    between atoms: P_23  and  OP_36 
REMARK   11  A    between atoms: CA_26  and  CB_27 
REMARK   12  A    between atoms: CA_26  and  C_34 
REMARK   13  A    between atoms: OP_36  and  CA_26 
REMARK   14  A    between atoms: CB_27  and  CG_28 
REMARK   15  A    between atoms: C_34  and  OS_37 
REMARK   16  A    between atoms: OS_37  and  CS_35 
ROOT
ATOM      1  C14 PP4 d   1      23.318   9.948  21.143  0.00  0.00     0.116 C 
ATOM      2  H11 PP4 d   1      23.774   9.537  22.055  0.00  0.00     0.093 H 
ENDROOT
BRANCH   1   3
ATOM      3  C13 PP4 d   1      24.131   9.452  19.938  0.00  0.00    -0.011 C 
ATOM      4  H9  PP4 d   1      25.183   9.730  20.102  0.00  0.00     0.044 H 
ATOM      5  H10 PP4 d   1      23.752   9.963  19.041  0.00  0.00     0.044 H 
BRANCH   3   6
ATOM      6  C8  PP4 d   1      24.078   7.968  19.684  0.00  0.00    -0.055 A 
ATOM      7  C7  PP4 d   1      23.975   7.495  18.391  0.00  0.00    -0.066 A 
ATOM      8  C6  PP4 d   1      24.017   6.106  18.091  0.00  0.00    -0.025 A 
ATOM      9  H5  PP4 d   1      23.858   8.204  17.580  0.00  0.00     0.085 H 
ATOM     10  C1  PP4 d   1      23.911   5.637  16.720  0.00  0.00    -0.072 A 
ATOM     11  C5  PP4 d   1      24.078   5.175  19.169  0.00  0.00    -0.026 A 
ATOM     12  C2  PP4 d   1      23.916   4.266  16.503  0.00  0.00    -0.082 A 
ATOM     13  H1  PP4 d   1      23.831   6.335  15.894  0.00  0.00     0.084 H 
ATOM     14  C3  PP4 d   1      23.952   3.342  17.573  0.00  0.00    -0.082 A 
ATOM     15  H2  PP4 d   1      23.892   3.893  15.485  0.00  0.00     0.083 H 
ATOM     16  C4  PP4 d   1      24.019   3.749  18.889  0.00  0.00    -0.072 A 
ATOM     17  H3  PP4 d   1      23.926   2.281  17.352  0.00  0.00     0.083 H 
ATOM     18  H4  PP4 d   1      24.027   3.024  19.695  0.00  0.00     0.084 H 
ATOM     19  C10 PP4 d   1      24.143   5.696  20.493  0.00  0.00    -0.072 A 
ATOM     20  C9  PP4 d   1      24.139   7.052  20.760  0.00  0.00    -0.076 A 
ATOM     21  H7  PP4 d   1      24.198   5.002  21.324  0.00  0.00     0.084 H 
ATOM     22  H6  PP4 d   1      24.182   7.410  21.782  0.00  0.00     0.084 H 
ENDBRANCH   3   6
ENDBRANCH   1   3
BRANCH   1  23
ATOM     23  NL  PP4 d   1      21.933   9.489  21.087  0.00  0.00    -0.343 N 
ATOM     24  CV  PP4 d   1      21.412   8.717  22.039  0.00  0.00     0.241 C 
ATOM     25  OV  PP4 d   1      21.994   8.371  23.064  0.00  0.00    -0.271 OA
ATOM     26  H21 PP4 d   1      21.361   9.761  20.314  0.00  0.00     0.163 HD
BRANCH  24  27
ATOM     27  CAV PP4 d   1      19.999   8.117  22.024  0.00  0.00     0.091 C 
ATOM     28  H13 PP4 d   1      19.378   8.912  21.586  0.00  0.00     0.088 H 
BRANCH  27  29
ATOM     29  NV  PP4 d   1      20.012   7.090  20.968  0.00  0.00    -0.355 N 
ATOM     30  C12 PP4 d   1      19.154   7.155  19.950  0.00  0.00     0.169 C 
ATOM     31  OI  PP4 d   1      18.201   7.827  19.505  0.00  0.00    -0.284 OA
ATOM     32  H8  PP4 d   1      19.355   6.332  19.266  0.00  0.00     0.180 H 
ATOM     33  H12 PP4 d   1      20.670   6.338  21.015  0.00  0.00     0.162 HD
ENDBRANCH  27  29
BRANCH  27  34
ATOM     34  CBV PP4 d   1      19.291   7.915  23.382  0.00  0.00    -0.033 C 
ATOM     35  H14 PP4 d   1      19.804   7.253  24.095  0.00  0.00     0.042 H 
BRANCH  34  36
ATOM     36  CV1 PP4 d   1      18.763   9.245  23.898  0.00  0.00    -0.071 C 
ATOM     37  H15 PP4 d   1      18.261   9.090  24.864  0.00  0.00     0.028 H 
ATOM     38  H16 PP4 d   1      18.046   9.660  23.175  0.00  0.00     0.028 H 
ATOM     39  H17 PP4 d   1      19.600   9.946  24.028  0.00  0.00     0.028 H 
ENDBRANCH  34  36
BRANCH  34  40
ATOM     40  CV2 PP4 d   1      17.867   7.580  22.892  0.00  0.00    -0.071 C 
ATOM     41  H18 PP4 d   1      17.867   6.588  22.416  0.00  0.00     0.028 H 
ATOM     42  H19 PP4 d   1      17.543   8.337  22.163  0.00  0.00     0.028 H 
ATOM     43  H20 PP4 d   1      17.176   7.576  23.748  0.00  0.00     0.028 H 
ENDBRANCH  34  40
ENDBRANCH  27  34
ENDBRANCH  24  27
ENDBRANCH   1  23
BRANCH   1  44
ATOM     44  P   PP4 d   1      23.394  11.767  21.236  0.00  0.00     0.274 P 
ATOM     45  O   PP4 d   1      24.778  12.198  21.185  0.00  0.00    -0.645 OA
ATOM     46  OH  PP4 d   1      22.524  12.370  20.239  0.00  0.00    -0.645 OA
BRANCH  44  47
ATOM     47  OP  PP4 d   1      22.956  12.028  22.699  0.00  0.00    -0.295 OA
BRANCH  47  48
ATOM     48  CA  PP4 d   1      23.556  13.006  23.494  0.00  0.00     0.136 C 
ATOM     49  H22 PP4 d   1      24.252  13.598  22.882  0.00  0.00     0.100 H 
BRANCH  48  50
ATOM     50  CB  PP4 d   1      22.491  13.930  24.069  0.00  0.00    -0.007 C 
ATOM     51  H23 PP4 d   1      21.945  14.394  23.234  0.00  0.00     0.044 H 
ATOM     52  H24 PP4 d   1      22.991  14.711  24.660  0.00  0.00     0.044 H 
BRANCH  50  53
ATOM     53  CG  PP4 d   1      21.505  13.230  24.947  0.00  0.00    -0.055 A 
ATOM     54  CD1 PP4 d   1      20.495  12.460  24.398  0.00  0.00    -0.077 A 
ATOM     55  CE1 PP4 d   1      19.575  11.820  25.212  0.00  0.00    -0.082 A 
ATOM     56  H25 PP4 d   1      20.423  12.357  23.321  0.00  0.00     0.084 H 
ATOM     57  CZ  PP4 d   1      19.681  11.929  26.595  0.00  0.00    -0.083 A 
ATOM     58  H27 PP4 d   1      18.774  11.236  24.773  0.00  0.00     0.083 H 
ATOM     59  CE2 PP4 d   1      20.704  12.668  27.150  0.00  0.00    -0.082 A 
ATOM     60  H29 PP4 d   1      18.960  11.434  27.235  0.00  0.00     0.083 H 
ATOM     61  CD2 PP4 d   1      21.613  13.305  26.325  0.00  0.00    -0.077 A 
ATOM     62  H28 PP4 d   1      20.795  12.749  28.227  0.00  0.00     0.083 H 
ATOM     63  H26 PP4 d   1      22.424  13.873  26.765  0.00  0.00     0.084 H 
ENDBRANCH  50  53
ENDBRANCH  48  50
BRANCH  48  64
ATOM     64  C   PP4 d   1      24.328  12.320  24.610  0.00  0.00     0.288 C 
ATOM     65  OE  PP4 d   1      24.580  11.149  24.634  0.00  0.00    -0.262 OA
BRANCH  64  66
ATOM     66  OS  PP4 d   1      24.723  13.157  25.566  0.00  0.00    -0.324 OA
BRANCH  66  67
ATOM     67  CS  PP4 d   1      25.828  12.691  26.418  0.00  0.00     0.013 C 
ATOM     68  H30 PP4 d   1      26.065  13.462  27.166  0.00  0.00     0.067 H 
ATOM     69  H31 PP4 d   1      26.715  12.499  25.796  0.00  0.00     0.067 H 
ATOM     70  H32 PP4 d   1      25.531  11.764  26.929  0.00  0.00     0.067 H 
ENDBRANCH  66  67
ENDBRANCH  64  66
ENDBRANCH  48  64
ENDBRANCH  47  48
ENDBRANCH  44  47
ENDBRANCH   1  44
TORSDOF 16
