REMARK  16 active torsions:
REMARK  status: ('A' for Active; 'I' for Inactive)
REMARK    1  A    between atoms: C11_12  and  C1_2 
REMARK    2  A    between atoms: C12_13  and  C11_12 
REMARK       I    between atoms: NV_15  and  C12_13 
REMARK    3  A    between atoms: C14_14  and  P_23 
REMARK    4  A    between atoms: NL_22  and  C14_14 
REMARK    5  A    between atoms: CAV_16  and  NV_15 
REMARK    6  A    between atoms: CV_17  and  CAV_16 
REMARK    7  A    between atoms: CAV_16  and  CBV_19 
REMARK       I    between atoms: NL_22  and  CV_17 
REMARK    8  A    between atoms: CBV_19  and  CV1_20 
REMARK    9  A    between atoms: CBV_19  and  CV2_21 
REMARK   10  A    between atoms: P_23  and  OP_36 
REMARK   11  A    between atoms: CA_26  and  CB_27 
REMARK   12  A    between atoms: CA_26  and  C_34 
REMARK   13  A    between atoms: OP_36  and  CA_26 
REMARK   14  A    between atoms: CB_27  and  CG_28 
REMARK   15  A    between atoms: C_34  and  OS_37 
REMARK   16  A    between atoms: OS_37  and  CS_35 
ROOT
ATOM      1  CAV PP5 d   1      19.346   5.810  19.005  0.00  0.00     0.092 C 
ATOM      2  H13 PP5 d   1      19.592   5.054  19.765  0.00  0.00     0.088 H 
ENDROOT
BRANCH   1   3
ATOM      3  NV  PP5 d   1      18.010   5.559  18.458  0.00  0.00    -0.347 N 
ATOM      4  C12 PP5 d   1      16.945   4.781  18.633  0.00  0.00     0.222 C 
ATOM      5  OI  PP5 d   1      17.310   4.038  19.545  0.00  0.00    -0.273 OA
ATOM      6  H12 PP5 d   1      17.842   6.184  17.695  0.00  0.00     0.163 HD
BRANCH   4   7
ATOM      7  C11 PP5 d   1      15.551   4.563  18.078  0.00  0.00     0.034 C 
ATOM      8  H8  PP5 d   1      15.254   5.467  17.526  0.00  0.00     0.054 H 
ATOM      9  H9  PP5 d   1      15.584   3.707  17.389  0.00  0.00     0.054 H 
BRANCH   7  10
ATOM     10  C1  PP5 d   1      14.491   4.281  19.143  0.00  0.00    -0.038 A 
ATOM     11  C2  PP5 d   1      13.666   3.182  18.968  0.00  0.00    -0.076 A 
ATOM     12  C3  PP5 d   1      12.662   2.858  19.912  0.00  0.00    -0.082 A 
ATOM     13  H1  PP5 d   1      13.792   2.558  18.091  0.00  0.00     0.084 H 
ATOM     14  C4  PP5 d   1      12.447   3.617  21.062  0.00  0.00    -0.072 A 
ATOM     15  H2  PP5 d   1      12.038   1.989  19.735  0.00  0.00     0.083 H 
ATOM     16  C5  PP5 d   1      13.287   4.783  21.283  0.00  0.00    -0.025 A 
ATOM     17  H3  PP5 d   1      11.674   3.345  21.772  0.00  0.00     0.084 H 
ATOM     18  C6  PP5 d   1      14.299   5.110  20.331  0.00  0.00    -0.019 A 
ATOM     19  C10 PP5 d   1      13.142   5.632  22.420  0.00  0.00    -0.072 A 
ATOM     20  C7  PP5 d   1      15.110   6.254  20.570  0.00  0.00    -0.072 A 
ATOM     21  C8  PP5 d   1      14.947   7.055  21.694  0.00  0.00    -0.082 A 
ATOM     22  H4  PP5 d   1      15.881   6.509  19.852  0.00  0.00     0.084 H 
ATOM     23  C9  PP5 d   1      13.945   6.740  22.632  0.00  0.00    -0.082 A 
ATOM     24  H5  PP5 d   1      15.587   7.916  21.848  0.00  0.00     0.083 H 
ATOM     25  H6  PP5 d   1      13.804   7.359  23.511  0.00  0.00     0.083 H 
ATOM     26  H7  PP5 d   1      12.372   5.401  23.147  0.00  0.00     0.084 H 
ENDBRANCH   7  10
ENDBRANCH   4   7
ENDBRANCH   1   3
BRANCH   1  27
ATOM     27  CV  PP5 d   1      19.260   7.247  19.572  0.00  0.00     0.241 C 
ATOM     28  OV  PP5 d   1      18.394   8.088  19.209  0.00  0.00    -0.271 OA
ATOM     29  NL  PP5 d   1      20.208   7.474  20.485  0.00  0.00    -0.347 N 
ATOM     30  H21 PP5 d   1      20.877   6.780  20.750  0.00  0.00     0.163 HD
BRANCH  29  31
ATOM     31  C14 PP5 d   1      20.192   8.823  21.070  0.00  0.00     0.091 C 
ATOM     32  H10 PP5 d   1      20.162   9.563  20.257  0.00  0.00     0.083 H 
ATOM     33  H11 PP5 d   1      19.294   8.929  21.696  0.00  0.00     0.083 H 
BRANCH  31  34
ATOM     34  P   PP5 d   1      21.666   9.136  22.097  0.00  0.00     0.268 P 
ATOM     35  O   PP5 d   1      22.581  10.071  21.455  0.00  0.00    -0.645 OA
ATOM     36  OH  PP5 d   1      22.252   7.894  22.571  0.00  0.00    -0.645 OA
BRANCH  34  37
ATOM     37  OP  PP5 d   1      21.020   9.718  23.398  0.00  0.00    -0.295 OA
BRANCH  37  38
ATOM     38  CA  PP5 d   1      20.755  11.111  23.431  0.00  0.00     0.135 C 
ATOM     39  H22 PP5 d   1      20.730  11.478  22.395  0.00  0.00     0.100 H 
BRANCH  38  40
ATOM     40  CB  PP5 d   1      19.388  11.395  24.066  0.00  0.00    -0.007 C 
ATOM     41  H23 PP5 d   1      18.624  10.836  23.506  0.00  0.00     0.044 H 
ATOM     42  H24 PP5 d   1      19.186  12.473  23.985  0.00  0.00     0.044 H 
BRANCH  40  43
ATOM     43  CG  PP5 d   1      19.292  11.005  25.513  0.00  0.00    -0.055 A 
ATOM     44  CD1 PP5 d   1      20.032  11.679  26.490  0.00  0.00    -0.077 A 
ATOM     45  CE1 PP5 d   1      19.943  11.316  27.827  0.00  0.00    -0.082 A 
ATOM     46  H25 PP5 d   1      20.683  12.495  26.200  0.00  0.00     0.084 H 
ATOM     47  CZ  PP5 d   1      19.100  10.277  28.208  0.00  0.00    -0.083 A 
ATOM     48  H27 PP5 d   1      20.529  11.841  28.573  0.00  0.00     0.083 H 
ATOM     49  CE2 PP5 d   1      18.354   9.604  27.248  0.00  0.00    -0.082 A 
ATOM     50  H29 PP5 d   1      19.025   9.993  29.252  0.00  0.00     0.083 H 
ATOM     51  CD2 PP5 d   1      18.453   9.969  25.906  0.00  0.00    -0.077 A 
ATOM     52  H28 PP5 d   1      17.695   8.795  27.543  0.00  0.00     0.083 H 
ATOM     53  H26 PP5 d   1      17.870   9.439  25.162  0.00  0.00     0.084 H 
ENDBRANCH  40  43
ENDBRANCH  38  40
BRANCH  38  54
ATOM     54  C   PP5 d   1      21.867  11.846  24.164  0.00  0.00     0.288 C 
ATOM     55  OE  PP5 d   1      22.946  11.390  24.487  0.00  0.00    -0.262 OA
BRANCH  54  56
ATOM     56  OS  PP5 d   1      21.539  13.165  24.074  0.00  0.00    -0.324 OA
BRANCH  56  57
ATOM     57  CS  PP5 d   1      22.570  14.130  24.397  0.00  0.00     0.013 C 
ATOM     58  H30 PP5 d   1      22.169  15.148  24.282  0.00  0.00     0.067 H 
ATOM     59  H31 PP5 d   1      23.425  13.994  23.718  0.00  0.00     0.067 H 
ATOM     60  H32 PP5 d   1      22.899  13.981  25.436  0.00  0.00     0.067 H 
ENDBRANCH  56  57
ENDBRANCH  54  56
ENDBRANCH  38  54
ENDBRANCH  37  38
ENDBRANCH  34  37
ENDBRANCH  31  34
ENDBRANCH  29  31
ENDBRANCH   1  27
BRANCH   1  61
ATOM     61  CBV PP5 d   1      20.493   5.958  17.997  0.00  0.00    -0.033 C 
ATOM     62  H14 PP5 d   1      21.446   6.197  18.491  0.00  0.00     0.042 H 
BRANCH  61  63
ATOM     63  CV1 PP5 d   1      20.444   4.583  17.332  0.00  0.00    -0.071 C 
ATOM     64  H15 PP5 d   1      21.226   4.521  16.561  0.00  0.00     0.028 H 
ATOM     65  H16 PP5 d   1      19.458   4.435  16.867  0.00  0.00     0.028 H 
ATOM     66  H17 PP5 d   1      20.613   3.803  18.089  0.00  0.00     0.028 H 
ENDBRANCH  61  63
BRANCH  61  67
ATOM     67  CV2 PP5 d   1      20.219   6.897  16.824  0.00  0.00    -0.071 C 
ATOM     68  H18 PP5 d   1      20.228   7.938  17.178  0.00  0.00     0.028 H 
ATOM     69  H19 PP5 d   1      19.235   6.665  16.391  0.00  0.00     0.028 H 
ATOM     70  H20 PP5 d   1      20.997   6.764  16.058  0.00  0.00     0.028 H 
ENDBRANCH  61  67
ENDBRANCH   1  61
TORSDOF 16
