REMARK  11 active torsions:
REMARK  status: ('A' for Active; 'I' for Inactive)
REMARK    1  A    between atoms: P_24  and  C14_15 
REMARK    2  A    between atoms: CAV_17  and  CBV_20 
REMARK    3  A    between atoms: CBV_20  and  CV1_21 
REMARK    4  A    between atoms: CBV_20  and  CV2_22 
REMARK    5  A    between atoms: OP_37  and  P_24 
REMARK    6  A    between atoms: CA_27  and  CB_28 
REMARK    7  A    between atoms: CA_27  and  C_35 
REMARK    8  A    between atoms: OP_37  and  CA_27 
REMARK    9  A    between atoms: CB_28  and  CG_29 
REMARK   10  A    between atoms: C_35  and  OS_38 
REMARK   11  A    between atoms: OS_38  and  CS_36 
ROOT
ATOM      1  OI  PP6 d   1      18.565   8.155  19.663  0.00  0.00    -0.273 OA
ATOM      2  C1  PP6 d   1      21.044   5.474  19.163  0.00  0.00    -0.038 A 
ATOM      3  C2  PP6 d   1      20.940   4.100  19.149  0.00  0.00    -0.076 A 
ATOM      4  C3  PP6 d   1      22.021   3.263  19.505  0.00  0.00    -0.082 A 
ATOM      5  C4  PP6 d   1      23.273   3.770  19.770  0.00  0.00    -0.072 A 
ATOM      6  C5  PP6 d   1      23.441   5.206  19.778  0.00  0.00    -0.025 A 
ATOM      7  C6  PP6 d   1      22.339   6.053  19.453  0.00  0.00    -0.019 A 
ATOM      8  C7  PP6 d   1      22.508   7.460  19.546  0.00  0.00    -0.066 A 
ATOM      9  C8  PP6 d   1      23.719   8.017  19.897  0.00  0.00    -0.055 A 
ATOM     10  C9  PP6 d   1      24.811   7.171  20.200  0.00  0.00    -0.076 A 
ATOM     11  C10 PP6 d   1      24.654   5.813  20.169  0.00  0.00    -0.072 A 
ATOM     12  C11 PP6 d   1      19.796   6.315  18.899  0.00  0.00     0.034 C 
ATOM     13  C12 PP6 d   1      19.447   7.308  19.993  0.00  0.00     0.222 C 
ATOM     14  C13 PP6 d   1      23.875   9.510  19.976  0.00  0.00    -0.011 C 
ATOM     15  C14 PP6 d   1      23.340   9.986  21.335  0.00  0.00     0.116 C 
ATOM     16  NV  PP6 d   1      20.015   7.334  21.198  0.00  0.00    -0.347 N 
ATOM     17  CAV PP6 d   1      19.870   8.339  22.250  0.00  0.00     0.092 C 
ATOM     18  CV  PP6 d   1      21.375   8.687  22.223  0.00  0.00     0.241 C 
ATOM     19  OV  PP6 d   1      22.180   8.078  22.948  0.00  0.00    -0.271 OA
ATOM     20  NL  PP6 d   1      21.927   9.665  21.494  0.00  0.00    -0.343 N 
ATOM     21  H1  PP6 d   1      20.000   3.647  18.856  0.00  0.00     0.084 H 
ATOM     22  H2  PP6 d   1      21.860   2.193  19.571  0.00  0.00     0.083 H 
ATOM     23  H3  PP6 d   1      24.110   3.111  19.967  0.00  0.00     0.084 H 
ATOM     24  H4  PP6 d   1      21.666   8.110  19.336  0.00  0.00     0.085 H 
ATOM     25  H5  PP6 d   1      25.773   7.599  20.457  0.00  0.00     0.084 H 
ATOM     26  H6  PP6 d   1      25.488   5.182  20.454  0.00  0.00     0.084 H 
ATOM     27  H7  PP6 d   1      18.944   5.631  18.775  0.00  0.00     0.054 H 
ATOM     28  H8  PP6 d   1      19.954   6.877  17.966  0.00  0.00     0.054 H 
ATOM     29  H9  PP6 d   1      23.304   9.986  19.165  0.00  0.00     0.044 H 
ATOM     30  H10 PP6 d   1      24.938   9.777  19.882  0.00  0.00     0.044 H 
ATOM     31  H11 PP6 d   1      23.916   9.501  22.137  0.00  0.00     0.093 H 
ATOM     32  H12 PP6 d   1      20.619   6.566  21.411  0.00  0.00     0.163 HD
ATOM     33  H13 PP6 d   1      19.244   9.181  21.919  0.00  0.00     0.088 H 
ATOM     34  H21 PP6 d   1      21.288  10.250  20.995  0.00  0.00     0.163 HD
ENDROOT
BRANCH  15  35
ATOM     35  P   PP6 d   1      23.516  11.772  21.455  0.00  0.00     0.274 P 
ATOM     36  O   PP6 d   1      24.929  12.126  21.295  0.00  0.00    -0.645 OA
ATOM     37  OH  PP6 d   1      22.613  12.442  20.523  0.00  0.00    -0.645 OA
BRANCH  35  38
ATOM     38  OP  PP6 d   1      23.251  12.170  22.960  0.00  0.00    -0.295 OA
BRANCH  38  39
ATOM     39  CA  PP6 d   1      24.046  12.973  23.776  0.00  0.00     0.136 C 
ATOM     40  H22 PP6 d   1      24.669  13.657  23.182  0.00  0.00     0.100 H 
BRANCH  39  41
ATOM     41  CB  PP6 d   1      23.247  13.789  24.826  0.00  0.00    -0.007 C 
ATOM     42  H23 PP6 d   1      22.981  14.757  24.376  0.00  0.00     0.044 H 
ATOM     43  H24 PP6 d   1      23.898  13.956  25.697  0.00  0.00     0.044 H 
BRANCH  41  44
ATOM     44  CG  PP6 d   1      21.977  13.133  25.310  0.00  0.00    -0.055 A 
ATOM     45  CD1 PP6 d   1      20.987  12.752  24.427  0.00  0.00    -0.077 A 
ATOM     46  CE1 PP6 d   1      19.870  12.110  24.868  0.00  0.00    -0.082 A 
ATOM     47  H25 PP6 d   1      21.100  12.966  23.370  0.00  0.00     0.084 H 
ATOM     48  CZ  PP6 d   1      19.638  11.961  26.211  0.00  0.00    -0.083 A 
ATOM     49  H27 PP6 d   1      19.159  11.714  24.152  0.00  0.00     0.083 H 
ATOM     50  CE2 PP6 d   1      20.579  12.382  27.115  0.00  0.00    -0.082 A 
ATOM     51  H29 PP6 d   1      18.714  11.512  26.557  0.00  0.00     0.083 H 
ATOM     52  CD2 PP6 d   1      21.741  12.982  26.664  0.00  0.00    -0.077 A 
ATOM     53  H28 PP6 d   1      20.413  12.245  28.177  0.00  0.00     0.083 H 
ATOM     54  H26 PP6 d   1      22.474  13.337  27.379  0.00  0.00     0.084 H 
ENDBRANCH  41  44
ENDBRANCH  39  41
BRANCH  39  55
ATOM     55  C   PP6 d   1      24.872  11.890  24.461  0.00  0.00     0.288 C 
ATOM     56  OE  PP6 d   1      24.623  10.724  24.565  0.00  0.00    -0.262 OA
BRANCH  55  57
ATOM     57  OS  PP6 d   1      25.743  12.497  25.260  0.00  0.00    -0.324 OA
BRANCH  57  58
ATOM     58  CS  PP6 d   1      27.035  11.771  25.469  0.00  0.00     0.013 C 
ATOM     59  H30 PP6 d   1      27.680  12.356  26.142  0.00  0.00     0.067 H 
ATOM     60  H31 PP6 d   1      27.541  11.637  24.502  0.00  0.00     0.067 H 
ATOM     61  H32 PP6 d   1      26.834  10.787  25.918  0.00  0.00     0.067 H 
ENDBRANCH  57  58
ENDBRANCH  55  57
ENDBRANCH  39  55
ENDBRANCH  38  39
ENDBRANCH  35  38
ENDBRANCH  15  35
BRANCH  17  62
ATOM     62  CBV PP6 d   1      19.330   7.877  23.622  0.00  0.00    -0.033 C 
ATOM     63  H14 PP6 d   1      19.860   7.144  24.247  0.00  0.00     0.042 H 
BRANCH  62  64
ATOM     64  CV1 PP6 d   1      19.178   9.322  24.099  0.00  0.00    -0.071 C 
ATOM     65  H15 PP6 d   1      18.782   9.330  25.125  0.00  0.00     0.028 H 
ATOM     66  H16 PP6 d   1      18.484   9.857  23.434  0.00  0.00     0.028 H 
ATOM     67  H17 PP6 d   1      20.159   9.819  24.081  0.00  0.00     0.028 H 
ENDBRANCH  62  64
BRANCH  62  68
ATOM     68  CV2 PP6 d   1      17.943   7.537  23.064  0.00  0.00    -0.071 C 
ATOM     69  H18 PP6 d   1      17.942   6.503  22.688  0.00  0.00     0.028 H 
ATOM     70  H19 PP6 d   1      17.700   8.226  22.242  0.00  0.00     0.028 H 
ATOM     71  H20 PP6 d   1      17.192   7.638  23.861  0.00  0.00     0.028 H 
ENDBRANCH  62  68
ENDBRANCH  17  62
TORSDOF 11
