REMARK  2 active torsions:
REMARK  status: ('A' for Active; 'I' for Inactive)
REMARK    1  A    between atoms: C04_4  and  S07_7 
REMARK    2  A    between atoms: S07_7  and  NP0_10 
ROOT
ATOM      1  C01 FB2 d   1      16.966   6.198  14.564  0.00  0.00    -0.083 A 
ATOM      2  C02 FB2 d   1      15.626   6.137  14.965  0.00  0.00    -0.082 A 
ATOM      3  C03 FB2 d   1      15.120   5.045  15.705  0.00  0.00    -0.060 A 
ATOM      4  C04 FB2 d   1      15.946   3.951  16.072  0.00  0.00     0.079 A 
ATOM      5  C05 FB2 d   1      17.291   4.042  15.650  0.00  0.00    -0.060 A 
ATOM      6  C06 FB2 d   1      17.809   5.136  14.909  0.00  0.00    -0.082 A 
ATOM      7  H1  FB2 d   1      17.340   7.045  14.001  0.00  0.00     0.083 H 
ATOM      8  H2  FB2 d   1      14.959   6.949  14.701  0.00  0.00     0.083 H 
ATOM      9  H3  FB2 d   1      14.077   5.043  15.999  0.00  0.00     0.085 H 
ATOM     10  H4  FB2 d   1      17.964   3.232  15.906  0.00  0.00     0.085 H 
ATOM     11  H5  FB2 d   1      18.852   5.149  14.612  0.00  0.00     0.083 H 
ENDROOT
BRANCH   4  12
ATOM     12  S07 FB2 d   1      15.372   2.677  16.935  0.00  0.00     0.256 S 
ATOM     13  O09 FB2 d   1      13.922   2.746  16.888  0.00  0.00    -0.201 OA
ATOM     14  O08 FB2 d   1      15.957   2.835  18.230  0.00  0.00    -0.201 OA
BRANCH  12  15
ATOM     15  NP0 FB2 d   1      15.861   1.298  16.311  0.00  0.00    -0.324 N 
ATOM     16  H6  FB2 d   1      15.588   0.433  16.733  0.00  0.00     0.169 HD
ATOM     17  H7  FB2 d   1      16.441   1.296  15.497  0.00  0.00     0.169 HD
ENDBRANCH  12  15
ENDBRANCH   4  12
TORSDOF 2
