REMARK  2 active torsions:
REMARK  status: ('A' for Active; 'I' for Inactive)
REMARK    1  A    between atoms: C4_4  and  S_7 
REMARK    2  A    between atoms: S_7  and  N2_8 
ROOT
ATOM      1  C1  FBW d   1       4.098  -6.142  14.440  0.00  0.00    -0.046 A 
ATOM      2  C2  FBW d   1       5.449  -6.139  14.774  0.00  0.00     0.117 A 
ATOM      3  C3  FBW d   1       6.013  -5.062  15.478  0.00  0.00    -0.023 A 
ATOM      4  C4  FBW d   1       5.244  -3.949  15.865  0.00  0.00     0.082 A 
ATOM      5  C5  FBW d   1       3.875  -3.982  15.505  0.00  0.00    -0.060 A 
ATOM      6  C6  FBW d   1       3.317  -5.057  14.797  0.00  0.00    -0.079 A 
ATOM      7  F   FBW d   1       6.238  -7.195  14.432  0.00  0.00    -0.206 F 
ATOM      8  H1  FBW d   1       3.664  -6.981  13.908  0.00  0.00     0.088 H 
ATOM      9  H2  FBW d   1       7.067  -5.089  15.729  0.00  0.00     0.090 H 
ATOM     10  H3  FBW d   1       3.238  -3.151  15.785  0.00  0.00     0.085 H 
ATOM     11  H4  FBW d   1       2.267  -5.037  14.528  0.00  0.00     0.083 H 
ENDROOT
BRANCH   4  12
ATOM     12  S   FBW d   1       5.915  -2.688  16.720  0.00  0.00     0.256 S 
ATOM     13  O1  FBW d   1       5.389  -2.842  18.040  0.00  0.00    -0.201 OA
ATOM     14  O2  FBW d   1       7.349  -2.807  16.585  0.00  0.00    -0.201 OA
BRANCH  12  15
ATOM     15  N2  FBW d   1       5.385  -1.309  16.096  0.00  0.00    -0.324 N 
ATOM     16  H5  FBW d   1       5.684  -0.437  16.484  0.00  0.00     0.169 HD
ATOM     17  H6  FBW d   1       4.755  -1.321  15.319  0.00  0.00     0.169 HD
ENDBRANCH  12  15
ENDBRANCH   4  12
TORSDOF 2
