REMARK  16 active torsions:
REMARK  status: ('A' for Active; 'I' for Inactive)
REMARK    1  A    between atoms: C2_2  and  O23_23 
REMARK    2  A    between atoms: C5_5  and  O24_24 
REMARK    3  A    between atoms: C6_6  and  O25_25 
REMARK    4  A    between atoms: C8_8  and  C27_27 
REMARK    5  A    between atoms: C10_10  and  O28_28 
REMARK    6  A    between atoms: C11_11  and  O30_30 
REMARK    7  A    between atoms: C12_12  and  C31_31 
REMARK    8  A    between atoms: C14_14  and  C32_32 
REMARK    9  A    between atoms: C15_15  and  O33_33 
REMARK   10  A    between atoms: C16_16  and  O37_37 
REMARK   11  A    between atoms: C20_20  and  C39_39 
REMARK   12  A    between atoms: C21_21  and  O40_40 
REMARK   13  A    between atoms: O25_25  and  C26_26 
REMARK   14  A    between atoms: O28_28  and  C29_29 
REMARK   15  A    between atoms: O33_33  and  C34_34 
REMARK       I    between atoms: C34_34  and  N36_36 
REMARK   16  A    between atoms: O37_37  and  C38_38 
ROOT
ATOM      1  C1  GDM d   1     -25.834  34.500  -5.565  0.00  0.00     0.014 A 
ATOM      2  C2  GDM d   1     -26.065  34.258  -4.086  0.00  0.00     0.101 A 
ATOM      3  C3  GDM d   1     -25.640  32.955  -3.405  0.00  0.00     0.067 A 
ATOM      4  C4  GDM d   1     -24.903  31.852  -4.153  0.00  0.00    -0.020 A 
ATOM      5  C5  GDM d   1     -24.680  32.052  -5.661  0.00  0.00     0.101 A 
ATOM      6  C6  GDM d   1     -25.139  33.351  -6.345  0.00  0.00     0.110 A 
ATOM      7  C7  GDM d   1     -26.286  35.837  -6.196  0.00  0.00    -0.032 C 
ATOM      8  C8  GDM d   1     -25.180  36.905  -6.277  0.00  0.00    -0.051 C 
ATOM      9  C9  GDM d   1     -24.035  36.472  -7.214  0.00  0.00    -0.035 C 
ATOM     10  C10 GDM d   1     -22.669  37.200  -7.093  0.00  0.00     0.063 C 
ATOM     11  C11 GDM d   1     -21.652  36.655  -8.148  0.00  0.00     0.063 C 
ATOM     12  C12 GDM d   1     -21.101  35.251  -7.835  0.00  0.00    -0.030 C 
ATOM     13  C13 GDM d   1     -20.556  35.224  -6.403  0.00  0.00    -0.054 C 
ATOM     14  C14 GDM d   1     -20.935  34.069  -5.478  0.00  0.00    -0.029 C 
ATOM     15  C15 GDM d   1     -19.893  34.085  -4.355  0.00  0.00     0.077 C 
ATOM     16  C16 GDM d   1     -20.374  34.135  -2.889  0.00  0.00     0.064 C 
ATOM     17  C17 GDM d   1     -21.306  35.295  -2.669  0.00  0.00    -0.038 C 
ATOM     18  C18 GDM d   1     -22.698  35.537  -2.179  0.00  0.00    -0.062 C 
ATOM     19  C19 GDM d   1     -23.828  34.663  -1.764  0.00  0.00    -0.058 C 
ATOM     20  C20 GDM d   1     -25.034  35.251  -1.024  0.00  0.00    -0.015 C 
ATOM     21  C21 GDM d   1     -25.804  33.903  -0.923  0.00  0.00     0.104 C 
ATOM     22  N22 GDM d   1     -25.899  32.951  -1.992  0.00  0.00    -0.361 N 
ATOM     23  H1  GDM d   1     -24.550  30.963  -3.643  0.00  0.00     0.091 H 
ATOM     24  H2  GDM d   1     -27.112  36.241  -5.592  0.00  0.00     0.041 H 
ATOM     25  H3  GDM d   1     -26.643  35.633  -7.216  0.00  0.00     0.041 H 
ATOM     26  H4  GDM d   1     -25.626  37.822  -6.690  0.00  0.00     0.040 H 
ATOM     27  H5  GDM d   1     -24.388  36.612  -8.246  0.00  0.00     0.037 H 
ATOM     28  H6  GDM d   1     -23.851  35.403  -7.031  0.00  0.00     0.037 H 
ATOM     29  H7  GDM d   1     -22.274  37.130  -6.069  0.00  0.00     0.087 H 
ATOM     30  H8  GDM d   1     -20.817  37.367  -8.232  0.00  0.00     0.087 H 
ATOM     31  H9  GDM d   1     -21.887  34.491  -7.955  0.00  0.00     0.043 H 
ATOM     32  H10 GDM d   1     -20.893  36.150  -5.914  0.00  0.00     0.034 H 
ATOM     33  H11 GDM d   1     -19.459  35.228  -6.478  0.00  0.00     0.034 H 
ATOM     34  H12 GDM d   1     -21.893  34.346  -5.013  0.00  0.00     0.043 H 
ATOM     35  H13 GDM d   1     -19.312  35.004  -4.522  0.00  0.00     0.088 H 
ATOM     36  H14 GDM d   1     -20.823  33.183  -2.570  0.00  0.00     0.087 H 
ATOM     37  H15 GDM d   1     -21.337  35.751  -3.670  0.00  0.00     0.036 H 
ATOM     38  H16 GDM d   1     -20.716  35.932  -1.994  0.00  0.00     0.036 H 
ATOM     39  H17 GDM d   1     -23.140  36.141  -2.985  0.00  0.00     0.033 H 
ATOM     40  H18 GDM d   1     -22.539  36.169  -1.292  0.00  0.00     0.033 H 
ATOM     41  H19 GDM d   1     -23.403  33.888  -1.109  0.00  0.00     0.033 H 
ATOM     42  H20 GDM d   1     -24.218  34.195  -2.680  0.00  0.00     0.033 H 
ATOM     43  H21 GDM d   1     -25.586  35.981  -1.633  0.00  0.00     0.046 H 
ATOM     44  H22 GDM d   1     -26.840  34.233  -0.758  0.00  0.00     0.118 H 
ATOM     45  H23 GDM d   1     -26.238  32.035  -1.664  0.00  0.00     0.162 HD
ENDROOT
BRANCH  15  46
ATOM     46  O33 GDM d   1     -19.015  33.021  -4.415  0.00  0.00    -0.296 OA
BRANCH  46  47
ATOM     47  C34 GDM d   1     -17.699  33.107  -4.815  0.00  0.00     0.358 C 
ATOM     48  O35 GDM d   1     -17.392  33.976  -5.570  0.00  0.00    -0.239 OA
ATOM     49  N36 GDM d   1     -16.978  31.853  -4.746  0.00  0.00    -0.346 N 
ATOM     50  H42 GDM d   1     -16.016  31.814  -5.016  0.00  0.00     0.161 HD
ATOM     51  H43 GDM d   1     -17.442  31.026  -4.428  0.00  0.00     0.161 HD
ENDBRANCH  46  47
ENDBRANCH  15  46
BRANCH  14  52
ATOM     52  C32 GDM d   1     -21.223  32.706  -6.153  0.00  0.00    -0.070 C 
ATOM     53  H39 GDM d   1     -21.985  32.838  -6.935  0.00  0.00     0.028 H 
ATOM     54  H40 GDM d   1     -21.591  31.994  -5.399  0.00  0.00     0.028 H 
ATOM     55  H41 GDM d   1     -20.298  32.317  -6.604  0.00  0.00     0.028 H 
ENDBRANCH  14  52
BRANCH  16  56
ATOM     56  O37 GDM d   1     -19.212  34.476  -2.163  0.00  0.00    -0.388 OA
BRANCH  56  57
ATOM     57  C38 GDM d   1     -19.240  34.678  -0.786  0.00  0.00     0.005 C 
ATOM     58  H44 GDM d   1     -18.230  34.933  -0.432  0.00  0.00     0.066 H 
ATOM     59  H45 GDM d   1     -19.582  33.759  -0.287  0.00  0.00     0.066 H 
ATOM     60  H46 GDM d   1     -19.930  35.502  -0.550  0.00  0.00     0.066 H 
ENDBRANCH  56  57
ENDBRANCH  16  56
BRANCH  12  61
ATOM     61  C31 GDM d   1     -19.932  34.997  -8.838  0.00  0.00    -0.070 C 
ATOM     62  H36 GDM d   1     -20.321  35.016  -9.867  0.00  0.00     0.028 H 
ATOM     63  H37 GDM d   1     -19.481  34.014  -8.634  0.00  0.00     0.028 H 
ATOM     64  H38 GDM d   1     -19.170  35.782  -8.720  0.00  0.00     0.028 H 
ENDBRANCH  12  61
BRANCH  11  65
ATOM     65  O30 GDM d   1     -22.307  36.510  -9.387  0.00  0.00    -0.393 OA
ATOM     66  H35 GDM d   1     -22.677  37.345  -9.648  0.00  0.00     0.210 HD
ENDBRANCH  11  65
BRANCH  10  67
ATOM     67  O28 GDM d   1     -22.871  38.538  -7.510  0.00  0.00    -0.388 OA
BRANCH  67  68
ATOM     68  C29 GDM d   1     -21.981  39.591  -7.152  0.00  0.00     0.005 C 
ATOM     69  H32 GDM d   1     -22.338  40.536  -7.587  0.00  0.00     0.066 H 
ATOM     70  H33 GDM d   1     -20.975  39.367  -7.536  0.00  0.00     0.066 H 
ATOM     71  H34 GDM d   1     -21.943  39.682  -6.056  0.00  0.00     0.066 H 
ENDBRANCH  67  68
ENDBRANCH  10  67
BRANCH  20  72
ATOM     72  C39 GDM d   1     -24.626  35.939   0.296  0.00  0.00    -0.069 C 
ATOM     73  H47 GDM d   1     -24.093  36.875   0.072  0.00  0.00     0.028 H 
ATOM     74  H48 GDM d   1     -23.968  35.270   0.870  0.00  0.00     0.028 H 
ATOM     75  H49 GDM d   1     -25.527  36.162   0.887  0.00  0.00     0.028 H 
ENDBRANCH  20  72
BRANCH  21  76
ATOM     76  O40 GDM d   1     -25.506  33.239   0.027  0.00  0.00    -0.377 OA
ATOM     77  H50 GDM d   1     -25.421  33.799   0.790  0.00  0.00     0.212 HD
ENDBRANCH  21  76
BRANCH   8  78
ATOM     78  C27 GDM d   1     -24.633  37.229  -4.876  0.00  0.00    -0.073 C 
ATOM     79  H29 GDM d   1     -25.462  37.536  -4.221  0.00  0.00     0.028 H 
ATOM     80  H30 GDM d   1     -23.901  38.047  -4.948  0.00  0.00     0.028 H 
ATOM     81  H31 GDM d   1     -24.146  36.336  -4.457  0.00  0.00     0.028 H 
ENDBRANCH   8  78
BRANCH   2  82
ATOM     82  O23 GDM d   1     -26.684  35.242  -3.322  0.00  0.00    -0.358 OA
ATOM     83  H24 GDM d   1     -26.889  35.987  -3.874  0.00  0.00     0.217 HD
ENDBRANCH   2  82
BRANCH   6  84
ATOM     84  O25 GDM d   1     -24.920  33.505  -7.695  0.00  0.00    -0.352 OA
BRANCH  84  85
ATOM     85  C26 GDM d   1     -26.086  33.600  -8.504  0.00  0.00     0.011 C 
ATOM     86  H26 GDM d   1     -25.793  33.720  -9.557  0.00  0.00     0.067 H 
ATOM     87  H27 GDM d   1     -26.682  34.469  -8.188  0.00  0.00     0.067 H 
ATOM     88  H28 GDM d   1     -26.685  32.684  -8.392  0.00  0.00     0.067 H 
ENDBRANCH  84  85
ENDBRANCH   6  84
BRANCH   5  89
ATOM     89  O24 GDM d   1     -24.049  31.036  -6.388  0.00  0.00    -0.358 OA
ATOM     90  H25 GDM d   1     -23.838  30.316  -5.806  0.00  0.00     0.217 HD
ENDBRANCH   5  89
TORSDOF 16
