REMARK  3 active torsions:
REMARK  status: ('A' for Active; 'I' for Inactive)
REMARK    1  A    between atoms: C3_3  and  O3_21 
REMARK    2  A    between atoms: C5_5  and  O4_22 
REMARK    3  A    between atoms: C17_17  and  C18_18 
ROOT
ATOM      1  C1  RDC d   1       2.467  55.629  -5.818  0.00  0.00     0.297 C 
ATOM      2  C2  RDC d   1       3.340  55.754  -4.635  0.00  0.00     0.081 A 
ATOM      3  C3  RDC d   1       4.493  56.703  -4.724  0.00  0.00     0.085 A 
ATOM      4  C4  RDC d   1       5.354  56.779  -3.609  0.00  0.00    -0.016 A 
ATOM      5  C5  RDC d   1       5.201  55.986  -2.451  0.00  0.00     0.090 A 
ATOM      6  C6  RDC d   1       4.087  55.030  -2.355  0.00  0.00     0.075 A 
ATOM      7  C7  RDC d   1       3.155  54.883  -3.473  0.00  0.00    -0.007 A 
ATOM      8  C8  RDC d   1       1.982  53.918  -3.333  0.00  0.00     0.021 C 
ATOM      9  C9  RDC d   1       2.276  52.517  -2.875  0.00  0.00     0.153 C 
ATOM     10  C10 RDC d   1       3.301  51.660  -3.513  0.00  0.00    -0.038 C 
ATOM     11  C11 RDC d   1       3.745  51.954  -4.736  0.00  0.00    -0.080 C 
ATOM     12  C12 RDC d   1       4.719  51.094  -5.425  0.00  0.00    -0.084 C 
ATOM     13  C13 RDC d   1       5.080  51.333  -6.698  0.00  0.00    -0.073 C 
ATOM     14  C14 RDC d   1       4.600  52.525  -7.491  0.00  0.00     0.080 A 
ATOM     15  C15 RDC d   1       3.205  52.350  -8.107  0.00  0.00     0.070 A 
ATOM     16  C16 RDC d   1       2.472  53.630  -8.525  0.00  0.00    -0.014 C 
ATOM     17  C17 RDC d   1       1.529  54.146  -7.417  0.00  0.00     0.047 C 
ATOM     18  O1  RDC d   1       2.315  54.261  -6.236  0.00  0.00    -0.312 OA
ATOM     19  O2  RDC d   1       2.010  56.537  -6.431  0.00  0.00    -0.259 OA
ATOM     20 CL1  RDC d   1       3.802  54.121  -0.903  0.00  0.00    -0.081 Cl
ATOM     21  O5  RDC d   1       1.572  52.072  -1.990  0.00  0.00    -0.293 OA
ATOM     22  O6  RDC d   1       4.429  52.231  -8.879  0.00  0.00    -0.371 OA
ATOM     23  H1  RDC d   1       6.177  57.484  -3.643  0.00  0.00     0.092 H 
ATOM     24  H2  RDC d   1       1.498  53.846  -4.318  0.00  0.00     0.052 H 
ATOM     25  H3  RDC d   1       1.280  54.358  -2.610  0.00  0.00     0.052 H 
ATOM     26  H4  RDC d   1       3.692  50.791  -2.985  0.00  0.00     0.089 H 
ATOM     27  H5  RDC d   1       3.378  52.850  -5.235  0.00  0.00     0.083 H 
ATOM     28  H6  RDC d   1       5.155  50.249  -4.895  0.00  0.00     0.083 H 
ATOM     29  H7  RDC d   1       5.755  50.629  -7.183  0.00  0.00     0.081 H 
ATOM     30  H8  RDC d   1       4.976  53.486  -7.111  0.00  0.00     0.093 H 
ATOM     31  H9  RDC d   1       2.535  51.519  -7.841  0.00  0.00     0.087 H 
ATOM     32  H10 RDC d   1       1.878  53.421  -9.427  0.00  0.00     0.040 H 
ATOM     33  H11 RDC d   1       3.216  54.408  -8.748  0.00  0.00     0.040 H 
ATOM     34  H12 RDC d   1       1.087  55.109  -7.711  0.00  0.00     0.083 H 
ENDROOT
BRANCH  17  35
ATOM     35  C18 RDC d   1       0.448  53.152  -7.060  0.00  0.00    -0.051 C 
ATOM     36  H13 RDC d   1      -0.190  53.573  -6.269  0.00  0.00     0.030 H 
ATOM     37  H14 RDC d   1       0.910  52.221  -6.701  0.00  0.00     0.030 H 
ATOM     38  H15 RDC d   1      -0.163  52.939  -7.950  0.00  0.00     0.030 H 
ENDBRANCH  17  35
BRANCH   3  39
ATOM     39  O3  RDC d   1       4.585  57.471  -5.840  0.00  0.00    -0.360 OA
ATOM     40  H16 RDC d   1       3.893  57.232  -6.446  0.00  0.00     0.217 HD
ENDBRANCH   3  39
BRANCH   5  41
ATOM     41  O4  RDC d   1       6.038  56.047  -1.398  0.00  0.00    -0.359 OA
ATOM     42  H17 RDC d   1       6.714  56.693  -1.569  0.00  0.00     0.217 HD
ENDBRANCH   5  41
TORSDOF 3
