REMARK  7 active torsions:
REMARK  status: ('A' for Active; 'I' for Inactive)
REMARK    1  A    between atoms: C1_1  and  O1_3 
REMARK    2  A    between atoms: C2_2  and  O2_6 
REMARK    3  A    between atoms: C3_5  and  O3_8 
REMARK    4  A    between atoms: C4_7  and  O4_10 
REMARK    5  A    between atoms: C5_9  and  C6_11 
REMARK    6  A    between atoms: C6_11  and  O6_12 
REMARK    7  A    between atoms: O6_12  and  P_13 
ROOT
ATOM      1  C1  BG6 d   1      12.659  -5.703  12.591  0.00  0.00     0.156 C 
ATOM      2  C2  BG6 d   1      11.539  -6.536  12.053  0.00  0.00     0.110 C 
ATOM      3  O5  BG6 d   1      13.861  -6.449  12.554  0.00  0.00    -0.349 OA
ATOM      4  C3  BG6 d   1      11.400  -7.888  12.762  0.00  0.00     0.092 C 
ATOM      5  C4  BG6 d   1      12.780  -8.585  12.770  0.00  0.00     0.090 C 
ATOM      6  C5  BG6 d   1      13.833  -7.629  13.325  0.00  0.00     0.090 C 
ATOM      7  H1  BG6 d   1      12.431  -5.378  13.617  0.00  0.00     0.133 H 
ATOM      8  H2  BG6 d   1      11.742  -6.728  10.989  0.00  0.00     0.094 H 
ATOM      9  H4  BG6 d   1      11.087  -7.718  13.803  0.00  0.00     0.091 H 
ATOM     10  H6  BG6 d   1      13.051  -8.867  11.742  0.00  0.00     0.091 H 
ATOM     11  H8  BG6 d   1      13.549  -7.368  14.355  0.00  0.00     0.090 H 
ENDROOT
BRANCH   6  12
ATOM     12  C6  BG6 d   1      15.253  -8.271  13.362  0.00  0.00     0.059 C 
ATOM     13  H10 BG6 d   1      15.216  -9.249  13.865  0.00  0.00     0.079 H 
ATOM     14  H11 BG6 d   1      15.955  -7.612  13.894  0.00  0.00     0.079 H 
BRANCH  12  15
ATOM     15  O6  BG6 d   1      15.648  -8.426  12.038  0.00  0.00    -0.280 OA
BRANCH  15  16
ATOM     16  P   BG6 d   1      16.978  -9.260  11.654  0.00  0.00     0.422 P 
ATOM     17  O1P BG6 d   1      17.164  -8.882  10.192  0.00  0.00    -0.617 OA
ATOM     18  O2P BG6 d   1      18.074  -8.734  12.533  0.00  0.00    -0.617 OA
ATOM     19  O3P BG6 d   1      16.713 -10.715  11.890  0.00  0.00    -0.617 OA
ENDBRANCH  15  16
ENDBRANCH  12  15
ENDBRANCH   6  12
BRANCH   5  20
ATOM     20  O4  BG6 d   1      12.723  -9.757  13.580  0.00  0.00    -0.390 OA
ATOM     21  H9  BG6 d   1      12.493  -9.515  14.469  0.00  0.00     0.210 HD
ENDBRANCH   5  20
BRANCH   1  22
ATOM     22  O1  BG6 d   1      12.867  -4.576  11.734  0.00  0.00    -0.369 OA
ATOM     23  H3  BG6 d   1      13.056  -4.880  10.854  0.00  0.00     0.212 HD
ENDBRANCH   1  22
BRANCH   4  24
ATOM     24  O3  BG6 d   1      10.413  -8.666  12.124  0.00  0.00    -0.390 OA
ATOM     25  H7  BG6 d   1      10.322  -9.495  12.579  0.00  0.00     0.210 HD
ENDBRANCH   4  24
BRANCH   2  26
ATOM     26  O2  BG6 d   1      10.318  -5.830  12.162  0.00  0.00    -0.388 OA
ATOM     27  H5  BG6 d   1       9.624  -6.335  11.755  0.00  0.00     0.210 HD
ENDBRANCH   2  26
TORSDOF 7
