REMARK  7 active torsions:
REMARK  status: ('A' for Active; 'I' for Inactive)
REMARK    1  A    between atoms: C17_7  and  C21_10 
REMARK    2  A    between atoms: C21_10  and  C1_11 
REMARK    3  A    between atoms: C21_10  and  O27_12 
REMARK    4  A    between atoms: O27_12  and  C15_13 
REMARK    5  A    between atoms: C19_15  and  N22_16 
REMARK    6  A    between atoms: C14_19  and  C16_20 
REMARK    7  A    between atoms: N26_23  and  C20_25 
ROOT
ATOM      1  C15 VGH d   1      21.527  85.138   6.508  0.00  0.00     0.116 A 
ATOM      2  C4  VGH d   1      21.744  84.762   5.164  0.00  0.00    -0.035 A 
ATOM      3  C19 VGH d   1      22.666  85.220   7.324  0.00  0.00     0.154 A 
ATOM      4  N23 VGH d   1      23.923  84.975   6.878  0.00  0.00    -0.240 NA
ATOM      5  C5  VGH d   1      24.084  84.625   5.584  0.00  0.00     0.015 A 
ATOM      6  C14 VGH d   1      23.044  84.501   4.671  0.00  0.00    -0.003 A 
ATOM      7  H7  VGH d   1      20.896  84.671   4.495  0.00  0.00     0.089 H 
ATOM      8  H10 VGH d   1      25.091  84.428   5.234  0.00  0.00     0.116 H 
ENDROOT
BRANCH   6   9
ATOM      9  C16 VGH d   1      23.335  84.087   3.302  0.00  0.00     0.012 A 
ATOM     10  C6  VGH d   1      22.520  83.628   2.237  0.00  0.00     0.034 A 
ATOM     11  N24 VGH d   1      23.213  83.319   1.137  0.00  0.00    -0.184 NA
ATOM     12  H11 VGH d   1      21.437  83.536   2.308  0.00  0.00     0.118 H 
ATOM     13  N26 VGH d   1      24.497  83.561   1.484  0.00  0.00    -0.276 N 
ATOM     14  C7  VGH d   1      24.606  84.007   2.765  0.00  0.00     0.011 A 
ATOM     15  H12 VGH d   1      25.534  84.257   3.278  0.00  0.00     0.115 H 
BRANCH  13  16
ATOM     16  C20 VGH d   1      25.595  83.351   0.536  0.00  0.00     0.037 C 
ATOM     17  C8  VGH d   1      26.030  81.893   0.292  0.00  0.00    -0.022 C 
ATOM     18  C10 VGH d   1      25.528  81.215  -0.984  0.00  0.00     0.084 C 
ATOM     19  H14 VGH d   1      25.676  81.295   1.145  0.00  0.00     0.038 H 
ATOM     20  H15 VGH d   1      27.130  81.876   0.264  0.00  0.00     0.038 H 
ATOM     21  N25 VGH d   1      25.502  82.151  -2.159  0.00  0.00    -0.075 N 
ATOM     22  H16 VGH d   1      24.509  80.841  -0.808  0.00  0.00     0.075 H 
ATOM     23  H17 VGH d   1      26.192  80.371  -1.220  0.00  0.00     0.075 H 
ATOM     24  C11 VGH d   1      24.840  83.475  -1.928  0.00  0.00     0.084 C 
ATOM     25  H18 VGH d   1      25.014  81.689  -2.911  0.00  0.00     0.277 HD
ATOM     26  H19 VGH d   1      26.456  82.327  -2.435  0.00  0.00     0.277 HD
ATOM     27  C9  VGH d   1      25.500  84.191  -0.751  0.00  0.00    -0.022 C 
ATOM     28  H20 VGH d   1      23.774  83.316  -1.706  0.00  0.00     0.075 H 
ATOM     29  H21 VGH d   1      24.938  84.094  -2.832  0.00  0.00     0.075 H 
ATOM     30  H22 VGH d   1      26.519  84.477  -1.051  0.00  0.00     0.038 H 
ATOM     31  H23 VGH d   1      24.916  85.096  -0.528  0.00  0.00     0.038 H 
ATOM     32  H13 VGH d   1      26.459  83.784   1.061  0.00  0.00     0.076 H 
ENDBRANCH  13  16
ENDBRANCH   6   9
BRANCH   1  33
ATOM     33  O27 VGH d   1      20.342  85.442   7.151  0.00  0.00    -0.338 OA
BRANCH  33  34
ATOM     34  C21 VGH d   1      19.033  85.449   6.539  0.00  0.00     0.070 C 
ATOM     35  H3  VGH d   1      19.098  85.965   5.570  0.00  0.00     0.091 H 
BRANCH  34  36
ATOM     36  C17 VGH d   1      18.506  84.032   6.279  0.00  0.00     0.017 A 
ATOM     37  C13 VGH d   1      18.188  83.586   4.968  0.00  0.00     0.044 A 
ATOM     38 CL   VGH d   1      18.319  84.569   3.546  0.00  0.00    -0.084 Cl
ATOM     39  C3  VGH d   1      17.719  82.288   4.714  0.00  0.00    -0.058 A 
ATOM     40  C2  VGH d   1      17.535  81.381   5.741  0.00  0.00    -0.042 A 
ATOM     41  H1  VGH d   1      17.497  81.992   3.695  0.00  0.00     0.086 H 
ATOM     42  C12 VGH d   1      17.835  81.794   7.021  0.00  0.00     0.138 A 
ATOM     43  H2  VGH d   1      17.168  80.380   5.546  0.00  0.00     0.088 H 
ATOM     44  F   VGH d   1      17.661  80.919   8.002  0.00  0.00    -0.204 F 
ATOM     45  C18 VGH d   1      18.316  83.079   7.308  0.00  0.00     0.083 A 
ATOM     46 CL2  VGH d   1      18.618  83.397   8.986  0.00  0.00    -0.080 Cl
ENDBRANCH  34  36
BRANCH  34  47
ATOM     47  C1  VGH d   1      18.117  86.249   7.461  0.00  0.00    -0.048 C 
ATOM     48  H4  VGH d   1      18.538  87.253   7.615  0.00  0.00     0.031 H 
ATOM     49  H5  VGH d   1      18.032  85.735   8.430  0.00  0.00     0.031 H 
ATOM     50  H6  VGH d   1      17.121  86.335   7.003  0.00  0.00     0.031 H 
ENDBRANCH  34  47
ENDBRANCH  33  34
ENDBRANCH   1  33
BRANCH   3  51
ATOM     51  N22 VGH d   1      22.541  85.576   8.672  0.00  0.00    -0.382 N 
ATOM     52  H8  VGH d   1      23.378  85.635   9.269  0.00  0.00     0.157 HD
ATOM     53  H9  VGH d   1      21.612  85.778   9.067  0.00  0.00     0.157 HD
ENDBRANCH   3  51
TORSDOF 7
