REMARK  5 active torsions:
REMARK  status: ('A' for Active; 'I' for Inactive)
REMARK       I    between atoms: C14_2  and  N4_3 
REMARK    1  A    between atoms: C14_2  and  C11_4 
REMARK    2  A    between atoms: N3_7  and  C8_10 
REMARK    3  A    between atoms: C8_10  and  O2_11 
REMARK    4  A    between atoms: O2_11  and  C7_12 
REMARK    5  A    between atoms: C7_12  and  N2_13 
ROOT
ATOM      1  C8  HI6 d   1      34.140  23.767   9.462  0.00  0.00     0.084 C 
ATOM      2  H7  HI6 d   1      34.403  24.487   8.673  0.00  0.00     0.107 H 
ATOM      3  H8  HI6 d   1      33.989  24.302  10.411  0.00  0.00     0.107 H 
ENDROOT
BRANCH   1   4
ATOM      4  N3  HI6 d   1      35.177  22.743   9.600  0.00  0.00    -0.345 N 
ATOM      5  C9  HI6 d   1      36.152  22.916  10.497  0.00  0.00    -0.018 A 
ATOM      6  C10 HI6 d   1      37.148  21.965  10.654  0.00  0.00    -0.053 A 
ATOM      7  H4  HI6 d   1      36.164  23.811  11.109  0.00  0.00     0.111 H 
ATOM      8  C11 HI6 d   1      37.142  20.818   9.865  0.00  0.00     0.034 A 
ATOM      9  H3  HI6 d   1      37.930  22.114  11.390  0.00  0.00     0.087 H 
ATOM     10  C12 HI6 d   1      36.118  20.648   8.929  0.00  0.00    -0.053 A 
ATOM     11  C13 HI6 d   1      35.136  21.639   8.826  0.00  0.00    -0.018 A 
ATOM     12  H6  HI6 d   1      36.086  19.768   8.297  0.00  0.00     0.087 H 
ATOM     13  H5  HI6 d   1      34.329  21.518   8.113  0.00  0.00     0.111 H 
BRANCH   8  14
ATOM     14  C14 HI6 d   1      38.231  19.789  10.072  0.00  0.00     0.249 C 
ATOM     15  O3  HI6 d   1      38.214  18.718   9.485  0.00  0.00    -0.268 OA
ATOM     16  N4  HI6 d   1      39.191  20.070  10.953  0.00  0.00    -0.366 N 
ATOM     17  H1  HI6 d   1      39.193  20.951  11.427  0.00  0.00     0.159 HD
ATOM     18  H2  HI6 d   1      39.909  19.400  11.140  0.00  0.00     0.159 HD
ENDBRANCH   8  14
ENDBRANCH   1   4
BRANCH   1  19
ATOM     19  O2  HI6 d   1      32.978  23.028   9.106  0.00  0.00    -0.352 OA
BRANCH  19  20
ATOM     20  C7  HI6 d   1      31.783  23.795   9.081  0.00  0.00     0.084 C 
ATOM     21  H9  HI6 d   1      31.273  23.671   8.114  0.00  0.00     0.107 H 
ATOM     22  H10 HI6 d   1      32.012  24.859   9.241  0.00  0.00     0.107 H 
BRANCH  20  23
ATOM     23  N2  HI6 d   1      30.941  23.294  10.161  0.00  0.00    -0.345 N 
ATOM     24  C2  HI6 d   1      30.201  22.204   9.954  0.00  0.00    -0.019 A 
ATOM     25  C3  HI6 d   1      29.405  21.724  10.985  0.00  0.00    -0.068 A 
ATOM     26  H11 HI6 d   1      30.221  21.700   8.994  0.00  0.00     0.111 H 
ATOM     27  C4  HI6 d   1      29.370  22.375  12.219  0.00  0.00    -0.080 A 
ATOM     28  H12 HI6 d   1      28.805  20.835  10.830  0.00  0.00     0.085 H 
ATOM     29  C5  HI6 d   1      30.142  23.508  12.397  0.00  0.00    -0.068 A 
ATOM     30  H13 HI6 d   1      28.748  21.999  13.024  0.00  0.00     0.083 H 
ATOM     31  C6  HI6 d   1      30.926  23.940  11.334  0.00  0.00    -0.019 A 
ATOM     32  H14 HI6 d   1      30.136  24.044  13.339  0.00  0.00     0.085 H 
ATOM     33  H15 HI6 d   1      31.542  24.823  11.458  0.00  0.00     0.111 H 
ENDBRANCH  20  23
ENDBRANCH  19  20
ENDBRANCH   1  19
TORSDOF 5
