REMARK  9 active torsions:
REMARK  status: ('A' for Active; 'I' for Inactive)
REMARK    1  A    between atoms: PB_1  and  O3A_5 
REMARK    2  A    between atoms: O3A_5  and  PA_6 
REMARK    3  A    between atoms: PA_6  and  O5'_9 
REMARK    4  A    between atoms: O5'_9  and  C5'_10 
REMARK    5  A    between atoms: C5'_10  and  C4'_11 
REMARK    6  A    between atoms: C3'_13  and  O3'_14 
REMARK    7  A    between atoms: C2'_15  and  O2'_16 
REMARK    8  A    between atoms: C1'_17  and  N9_18 
REMARK    9  A    between atoms: C2_25  and  N2_26 
ROOT
ATOM      1  C4' GDP d   1      -3.654  24.975 -23.281  0.00  0.00     0.089 C 
ATOM      2  O4' GDP d   1      -4.245  23.881 -23.993  0.00  0.00    -0.353 OA
ATOM      3  C3' GDP d   1      -3.581  26.139 -24.249  0.00  0.00     0.091 C 
ATOM      4  C2' GDP d   1      -4.535  25.758 -25.358  0.00  0.00     0.105 C 
ATOM      5  C1' GDP d   1      -4.393  24.257 -25.358  0.00  0.00     0.139 C 
ATOM      6  H3  GDP d   1      -2.649  24.703 -22.926  0.00  0.00     0.090 H 
ATOM      7  H4  GDP d   1      -3.864  27.094 -23.782  0.00  0.00     0.091 H 
ATOM      8  H6  GDP d   1      -5.561  26.072 -25.118  0.00  0.00     0.093 H 
ATOM      9  H8  GDP d   1      -3.514  23.949 -25.943  0.00  0.00     0.122 H 
ENDROOT
BRANCH   5  10
ATOM     10  N9  GDP d   1      -5.604  23.647 -25.917  0.00  0.00    -0.295 N 
ATOM     11  C8  GDP d   1      -6.876  23.966 -25.640  0.00  0.00     0.071 A 
ATOM     12  N7  GDP d   1      -7.722  23.174 -26.345  0.00  0.00    -0.234 NA
ATOM     13  H9  GDP d   1      -7.186  24.748 -24.949  0.00  0.00     0.144 H 
ATOM     14  C5  GDP d   1      -6.974  22.325 -27.084  0.00  0.00     0.171 A 
ATOM     15  C6  GDP d   1      -7.230  21.232 -28.060  0.00  0.00     0.292 A 
ATOM     16  C4  GDP d   1      -5.578  22.648 -26.784  0.00  0.00     0.161 A 
ATOM     17  O6  GDP d   1      -8.412  20.894 -28.362  0.00  0.00    -0.265 OA
ATOM     18  N1  GDP d   1      -6.156  20.620 -28.596  0.00  0.00    -0.154 N 
ATOM     19  C2  GDP d   1      -4.890  20.976 -28.273  0.00  0.00     0.680 A 
ATOM     20  H10 GDP d   1      -6.298  19.880 -29.253  0.00  0.00     0.187 HD
ATOM     21  N3  GDP d   1      -4.584  21.971 -27.399  0.00  0.00    -0.174 N 
ATOM     22  H13 GDP d   1      -3.600  22.207 -27.207  0.00  0.00     0.186 HD
BRANCH  19  23
ATOM     23  N2  GDP d   1      -3.857  20.321 -28.834  0.00  0.00    -0.234 N 
ATOM     24  H11 GDP d   1      -2.890  20.584 -28.595  0.00  0.00     0.174 HD
ATOM     25  H12 GDP d   1      -4.033  19.557 -29.502  0.00  0.00     0.174 HD
ENDBRANCH  19  23
ENDBRANCH   5  10
BRANCH   4  26
ATOM     26  O2' GDP d   1      -4.171  26.273 -26.641  0.00  0.00    -0.388 OA
ATOM     27  H7  GDP d   1      -3.314  25.942 -26.882  0.00  0.00     0.210 HD
ENDBRANCH   4  26
BRANCH   1  28
ATOM     28  C5' GDP d   1      -4.532  25.364 -22.104  0.00  0.00     0.058 C 
ATOM     29  H1  GDP d   1      -4.657  24.501 -21.434  0.00  0.00     0.079 H 
ATOM     30  H2  GDP d   1      -4.066  26.193 -21.551  0.00  0.00     0.079 H 
BRANCH  28  31
ATOM     31  O5' GDP d   1      -5.806  25.775 -22.604  0.00  0.00    -0.287 OA
BRANCH  31  32
ATOM     32  PA  GDP d   1      -6.723  26.688 -21.638  0.00  0.00     0.418 P 
ATOM     33  O1A GDP d   1      -5.968  27.935 -21.268  0.00  0.00    -0.624 OA
ATOM     34  O2A GDP d   1      -8.069  27.033 -22.239  0.00  0.00    -0.624 OA
BRANCH  32  35
ATOM     35  O3A GDP d   1      -6.922  25.613 -20.457  0.00  0.00    -0.173 OA
BRANCH  35  36
ATOM     36  PB  GDP d   1      -7.563  25.910 -19.017  0.00  0.00     0.431 P 
ATOM     37  O1B GDP d   1      -8.476  27.121 -18.960  0.00  0.00    -0.616 OA
ATOM     38  O2B GDP d   1      -8.369  24.679 -18.665  0.00  0.00    -0.616 OA
ATOM     39  O3B GDP d   1      -6.433  26.108 -18.020  0.00  0.00    -0.616 OA
ENDBRANCH  35  36
ENDBRANCH  32  35
ENDBRANCH  31  32
ENDBRANCH  28  31
ENDBRANCH   1  28
BRANCH   3  40
ATOM     40  O3' GDP d   1      -2.235  26.176 -24.727  0.00  0.00    -0.390 OA
ATOM     41  H5  GDP d   1      -2.138  26.894 -25.341  0.00  0.00     0.210 HD
ENDBRANCH   3  40
TORSDOF 9
