REMARK  0 active torsions:
REMARK  status: ('A' for Active; 'I' for Inactive)
ROOT
ATOM      1  N1  IUR d   1      16.658  16.118  45.618  0.00  0.00    -0.209 NA
ATOM      2  C2  IUR d   1      15.490  16.715  46.171  0.00  0.00     0.348 A 
ATOM      3  O2  IUR d   1      14.844  17.611  45.688  0.00  0.00    -0.245 OA
ATOM      4  N3  IUR d   1      15.090  16.156  47.415  0.00  0.00    -0.276 N 
ATOM      5  C4  IUR d   1      15.707  15.110  48.151  0.00  0.00     0.244 A 
ATOM      6  O4  IUR d   1      15.239  14.737  49.224  0.00  0.00    -0.271 OA
ATOM      7  C5  IUR d   1      16.913  14.555  47.507  0.00  0.00     0.106 A 
ATOM      8  C6  IUR d   1      17.338  15.078  46.274  0.00  0.00     0.009 A 
ATOM      9  I5  IUR d   1      17.968  13.008  48.470  0.00  0.00    -0.069 I 
ATOM     10  H1  IUR d   1      14.268  16.550  47.825  0.00  0.00     0.173 HD
ATOM     11  H2  IUR d   1      16.300  13.810  46.979  0.00  0.00     0.079 H 
ATOM     12  H3  IUR d   1      18.230  14.661  45.808  0.00  0.00     0.110 H 
ENDROOT
TORSDOF 0
