REMARK  4 active torsions:
REMARK  status: ('A' for Active; 'I' for Inactive)
REMARK    1  A    between atoms: C11_2  and  C10_4 
REMARK    2  A    between atoms: C10_4  and  N2_5 
REMARK    3  A    between atoms: C10_4  and  C9_6 
REMARK    4  A    between atoms: C9_6  and  C4_7 
ROOT
ATOM      1  C4  IBC d   1      33.357   0.082  77.699  0.00  0.00    -0.042 C 
ATOM      2  C1  IBC d   1      33.138  -1.262  77.423  0.00  0.00     0.049 A 
ATOM      3  C5  IBC d   1      34.601   0.645  77.975  0.00  0.00    -0.080 C 
ATOM      4  C6  IBC d   1      35.843   0.029  78.089  0.00  0.00    -0.102 C 
ATOM      5  C7  IBC d   1      36.201  -1.311  77.968  0.00  0.00    -0.047 C 
ATOM      6  C8  IBC d   1      35.565  -2.012  76.765  0.00  0.00    -0.032 C 
ATOM      7  C3  IBC d   1      34.061  -2.199  76.981  0.00  0.00     0.097 A 
ATOM      8  O1  IBC d   1      33.414  -3.386  76.786  0.00  0.00    -0.267 OA
ATOM      9  N1  IBC d   1      32.046  -3.181  77.122  0.00  0.00    -0.230 N 
ATOM     10  C2  IBC d   1      31.911  -1.911  77.499  0.00  0.00     0.274 A 
ATOM     11  O2  IBC d   1      30.855  -1.403  77.868  0.00  0.00    -0.266 OA
ATOM     12  H7  IBC d   1      34.601   1.724  78.123  0.00  0.00     0.083 H 
ATOM     13  H8  IBC d   1      36.669   0.704  78.308  0.00  0.00     0.076 H 
ATOM     14  H9  IBC d   1      35.889  -1.838  78.882  0.00  0.00     0.038 H 
ATOM     15  H10 IBC d   1      37.295  -1.370  77.866  0.00  0.00     0.038 H 
ATOM     16  H11 IBC d   1      36.036  -2.997  76.631  0.00  0.00     0.037 H 
ATOM     17  H12 IBC d   1      35.727  -1.402  75.864  0.00  0.00     0.037 H 
ATOM     18  H13 IBC d   1      33.906  -1.894  75.936  0.00  0.00     0.095 H 
ATOM     19  H14 IBC d   1      31.319  -3.866  77.082  0.00  0.00     0.197 HD
ENDROOT
BRANCH   1  20
ATOM     20  C9  IBC d   1      32.141   1.008  77.644  0.00  0.00    -0.004 C 
ATOM     21  H5  IBC d   1      31.320   0.557  78.220  0.00  0.00     0.044 H 
ATOM     22  H6  IBC d   1      32.409   1.979  78.086  0.00  0.00     0.044 H 
BRANCH  20  23
ATOM     23  C10 IBC d   1      31.677   1.227  76.201  0.00  0.00     0.186 C 
ATOM     24  H1  IBC d   1      31.230   0.299  75.815  0.00  0.00     0.101 H 
BRANCH  23  25
ATOM     25  C11 IBC d   1      30.644   2.356  76.151  0.00  0.00     0.204 C 
ATOM     26  O4  IBC d   1      29.639   2.244  76.885  0.00  0.00    -0.646 OA
ATOM     27  O3  IBC d   1      30.878   3.304  75.374  0.00  0.00    -0.646 OA
ENDBRANCH  23  25
BRANCH  23  28
ATOM     28  N2  IBC d   1      32.827   1.607  75.369  0.00  0.00    -0.065 N 
ATOM     29  H2  IBC d   1      33.516   0.872  75.392  0.00  0.00     0.275 HD
ATOM     30  H3  IBC d   1      33.232   2.459  75.725  0.00  0.00     0.275 HD
ATOM     31  H4  IBC d   1      32.522   1.751  74.419  0.00  0.00     0.275 HD
ENDBRANCH  23  28
ENDBRANCH  20  23
ENDBRANCH   1  20
TORSDOF 4
