REMARK  21 active torsions:
REMARK  status: ('A' for Active; 'I' for Inactive)
REMARK    1  A    between atoms: C47_48  and  C1_1 
REMARK    2  A    between atoms: C37_37  and  C4_4 
REMARK    3  A    between atoms: C9_9  and  C8_8 
REMARK    4  A    between atoms: C8_8  and  O11_11 
REMARK    5  A    between atoms: C8_8  and  C12_12 
REMARK    6  A    between atoms: C8_8  and  C19_19 
REMARK    7  A    between atoms: C10_10  and  C9_9 
REMARK    8  A    between atoms: N32_32  and  C10_10 
REMARK    9  A    between atoms: C12_12  and  C13_13 
REMARK       I    between atoms: C19_19  and  N20_20 
REMARK   10  A    between atoms: N20_20  and  C21_21 
REMARK   11  A    between atoms: C22_22  and  O23_23 
REMARK   12  A    between atoms: N32_32  and  C33_33 
REMARK   13  A    between atoms: N40_40  and  N32_32 
REMARK   14  A    between atoms: C33_33  and  C34_34 
REMARK       I    between atoms: C41_41  and  N40_40 
REMARK   15  A    between atoms: C42_42  and  C41_41 
REMARK   16  A    between atoms: C42_42  and  N51_43 
REMARK   17  A    between atoms: C42_42  and  C47_48 
REMARK       I    between atoms: N51_43  and  C43_44 
REMARK   18  A    between atoms: C43_44  and  O44_45 
REMARK   19  A    between atoms: O44_45  and  C45_46 
REMARK   20  A    between atoms: C47_48  and  C48_49 
REMARK   21  A    between atoms: C47_48  and  C49_50 
ROOT
ATOM      1  N32 5AH d   1      14.684  22.679   6.501  0.00  0.00     0.015 N 
ATOM      2  H30 5AH d   1      13.937  22.077   6.810  0.00  0.00     0.309 HD
ENDROOT
BRANCH   1   3
ATOM      3  C10 5AH d   1      14.008  23.717   5.682  0.00  0.00     0.108 C 
ATOM      4  H10 5AH d   1      13.402  24.352   6.345  0.00  0.00     0.079 H 
ATOM      5  H11 5AH d   1      14.774  24.331   5.186  0.00  0.00     0.079 H 
BRANCH   3   6
ATOM      6  C9  5AH d   1      13.083  23.099   4.597  0.00  0.00    -0.003 C 
ATOM      7  H8  5AH d   1      13.692  22.893   3.704  0.00  0.00     0.040 H 
ATOM      8  H9  5AH d   1      12.678  22.155   4.990  0.00  0.00     0.040 H 
BRANCH   6   9
ATOM      9  C8  5AH d   1      11.882  24.004   4.169  0.00  0.00     0.143 C 
BRANCH   9  10
ATOM     10  O11 5AH d   1      12.399  25.312   3.794  0.00  0.00    -0.380 OA
ATOM     11  H12 5AH d   1      13.007  25.215   3.070  0.00  0.00     0.211 HD
ENDBRANCH   9  10
BRANCH   9  12
ATOM     12  C12 5AH d   1      11.160  23.393   2.901  0.00  0.00    -0.004 C 
ATOM     13  H13 5AH d   1      11.171  22.298   3.006  0.00  0.00     0.045 H 
ATOM     14  H14 5AH d   1      11.742  23.682   2.014  0.00  0.00     0.045 H 
BRANCH  12  15
ATOM     15  C13 5AH d   1       9.681  23.832   2.661  0.00  0.00    -0.055 A 
ATOM     16  C14 5AH d   1       9.386  25.138   2.144  0.00  0.00    -0.077 A 
ATOM     17  C15 5AH d   1       8.041  25.545   1.931  0.00  0.00    -0.082 A 
ATOM     18  H15 5AH d   1      10.196  25.820   1.914  0.00  0.00     0.084 H 
ATOM     19  C16 5AH d   1       6.971  24.657   2.230  0.00  0.00    -0.083 A 
ATOM     20  H16 5AH d   1       7.830  26.534   1.540  0.00  0.00     0.083 H 
ATOM     21  C17 5AH d   1       7.251  23.357   2.743  0.00  0.00    -0.082 A 
ATOM     22  H17 5AH d   1       5.945  24.968   2.068  0.00  0.00     0.083 H 
ATOM     23  C18 5AH d   1       8.595  22.943   2.957  0.00  0.00    -0.077 A 
ATOM     24  H18 5AH d   1       6.436  22.680   2.971  0.00  0.00     0.083 H 
ATOM     25  H19 5AH d   1       8.799  21.952   3.345  0.00  0.00     0.084 H 
ENDBRANCH  12  15
ENDBRANCH   9  12
BRANCH   9  26
ATOM     26  C19 5AH d   1      10.818  24.158   5.273  0.00  0.00     0.253 C 
ATOM     27  N20 5AH d   1      10.197  25.362   5.382  0.00  0.00    -0.347 N 
ATOM     28  H20 5AH d   1      10.475  26.112   4.782  0.00  0.00     0.163 HD
ATOM     29  O31 5AH d   1      10.521  23.211   5.989  0.00  0.00    -0.270 OA
BRANCH  27  30
ATOM     30  C21 5AH d   1       9.124  25.585   6.364  0.00  0.00     0.063 C 
ATOM     31  C22 5AH d   1       7.967  26.546   5.926  0.00  0.00     0.063 C 
ATOM     32  C24 5AH d   1       7.368  27.151   7.218  0.00  0.00    -0.014 C 
ATOM     33  H22 5AH d   1       7.201  25.963   5.394  0.00  0.00     0.087 H 
ATOM     34  C25 5AH d   1       8.554  27.089   8.172  0.00  0.00    -0.047 A 
ATOM     35  H24 5AH d   1       6.525  26.549   7.588  0.00  0.00     0.044 H 
ATOM     36  H25 5AH d   1       7.037  28.188   7.058  0.00  0.00     0.044 H 
ATOM     37  C26 5AH d   1       8.717  27.789   9.395  0.00  0.00    -0.076 A 
ATOM     38  C30 5AH d   1       9.552  26.204   7.689  0.00  0.00    -0.027 A 
ATOM     39  C27 5AH d   1       9.915  27.582  10.136  0.00  0.00    -0.082 A 
ATOM     40  H26 5AH d   1       7.949  28.464   9.756  0.00  0.00     0.084 H 
ATOM     41  C28 5AH d   1      10.925  26.689   9.655  0.00  0.00    -0.082 A 
ATOM     42  H27 5AH d   1      10.064  28.106  11.073  0.00  0.00     0.083 H 
ATOM     43  C29 5AH d   1      10.753  25.991   8.427  0.00  0.00    -0.074 A 
ATOM     44  H28 5AH d   1      11.831  26.543  10.232  0.00  0.00     0.083 H 
ATOM     45  H29 5AH d   1      11.517  25.314   8.062  0.00  0.00     0.084 H 
ATOM     46  H21 5AH d   1       8.694  24.593   6.565  0.00  0.00     0.084 H 
BRANCH  31  47
ATOM     47  O23 5AH d   1       8.403  27.638   5.065  0.00  0.00    -0.393 OA
ATOM     48  H23 5AH d   1       8.789  27.281   4.274  0.00  0.00     0.210 HD
ENDBRANCH  31  47
ENDBRANCH  27  30
ENDBRANCH   9  26
ENDBRANCH   6   9
ENDBRANCH   3   6
ENDBRANCH   1   3
BRANCH   1  49
ATOM     49  C33 5AH d   1      15.403  23.068   7.744  0.00  0.00     0.128 C 
ATOM     50  H31 5AH d   1      14.736  23.667   8.382  0.00  0.00     0.086 H 
ATOM     51  H32 5AH d   1      16.292  23.661   7.484  0.00  0.00     0.086 H 
BRANCH  49  52
ATOM     52  C34 5AH d   1      15.834  21.800   8.499  0.00  0.00    -0.030 A 
ATOM     53  C35 5AH d   1      14.851  20.984   9.125  0.00  0.00    -0.074 A 
ATOM     54  C36 5AH d   1      15.236  19.801   9.814  0.00  0.00    -0.070 A 
ATOM     55  H33 5AH d   1      13.805  21.265   9.077  0.00  0.00     0.084 H 
ATOM     56  C37 5AH d   1      16.612  19.416   9.890  0.00  0.00    -0.007 A 
ATOM     57  H34 5AH d   1      14.479  19.185  10.286  0.00  0.00     0.084 H 
ATOM     58  C38 5AH d   1      17.594  20.246   9.265  0.00  0.00    -0.070 A 
ATOM     59  C39 5AH d   1      17.207  21.427   8.570  0.00  0.00    -0.074 A 
ATOM     60  H35 5AH d   1      18.642  19.974   9.321  0.00  0.00     0.084 H 
ATOM     61  H36 5AH d   1      17.960  22.044   8.093  0.00  0.00     0.084 H 
BRANCH  56  62
ATOM     62  C4  5AH d   1      17.030  18.169  10.614  0.00  0.00     0.066 A 
ATOM     63  N3  5AH d   1      18.321  18.109  11.218  0.00  0.00    -0.260 NA
ATOM     64  C2  5AH d   1      18.752  16.994  11.896  0.00  0.00     0.003 A 
ATOM     65  C7  5AH d   1      17.953  15.891  12.017  0.00  0.00    -0.066 A 
ATOM     66  H4  5AH d   1      19.740  16.989  12.341  0.00  0.00     0.114 H 
ATOM     67  C6  5AH d   1      16.656  15.887  11.436  0.00  0.00    -0.079 A 
ATOM     68  H7  5AH d   1      18.309  15.020  12.556  0.00  0.00     0.085 H 
ATOM     69  C5  5AH d   1      16.186  17.020  10.733  0.00  0.00    -0.054 A 
ATOM     70  H6  5AH d   1      16.024  15.011  11.532  0.00  0.00     0.083 H 
ATOM     71  H5  5AH d   1      15.197  17.018  10.289  0.00  0.00     0.087 H 
ENDBRANCH  56  62
ENDBRANCH  49  52
ENDBRANCH   1  49
BRANCH   1  72
ATOM     72  N40 5AH d   1      15.622  21.814   5.646  0.00  0.00    -0.185 N 
ATOM     73  C41 5AH d   1      15.284  20.534   5.321  0.00  0.00     0.265 C 
ATOM     74  O50 5AH d   1      14.212  20.055   5.712  0.00  0.00    -0.269 OA
ATOM     75  H37 5AH d   1      16.489  22.194   5.324  0.00  0.00     0.197 HD
BRANCH  73  76
ATOM     76  C42 5AH d   1      16.244  19.678   4.486  0.00  0.00     0.099 C 
ATOM     77  H38 5AH d   1      16.974  20.339   3.997  0.00  0.00     0.088 H 
BRANCH  76  78
ATOM     78  N51 5AH d   1      16.911  18.860   5.493  0.00  0.00    -0.323 N 
ATOM     79  C43 5AH d   1      18.220  19.000   5.760  0.00  0.00     0.360 C 
ATOM     80  O46 5AH d   1      18.958  19.811   5.201  0.00  0.00    -0.239 OA
ATOM     81  H39 5AH d   1      16.381  18.178   5.997  0.00  0.00     0.165 HD
BRANCH  79  82
ATOM     82  O44 5AH d   1      18.609  18.129   6.722  0.00  0.00    -0.309 OA
BRANCH  82  83
ATOM     83  C45 5AH d   1      20.000  18.178   7.099  0.00  0.00     0.015 C 
ATOM     84  H40 5AH d   1      20.194  17.430   7.882  0.00  0.00     0.067 H 
ATOM     85  H41 5AH d   1      20.241  19.181   7.482  0.00  0.00     0.067 H 
ATOM     86  H42 5AH d   1      20.626  17.960   6.221  0.00  0.00     0.067 H 
ENDBRANCH  82  83
ENDBRANCH  79  82
ENDBRANCH  76  78
BRANCH  76  87
ATOM     87  C47 5AH d   1      15.591  18.778   3.349  0.00  0.00    -0.022 C 
BRANCH  87  88
ATOM     88  C1  5AH d   1      14.713  17.603   3.900  0.00  0.00    -0.067 C 
ATOM     89  H1  5AH d   1      14.298  17.029   3.058  0.00  0.00     0.028 H 
ATOM     90  H2  5AH d   1      13.891  18.012   4.505  0.00  0.00     0.028 H 
ATOM     91  H3  5AH d   1      15.334  16.942   4.523  0.00  0.00     0.028 H 
ENDBRANCH  87  88
BRANCH  87  92
ATOM     92  C48 5AH d   1      14.704  19.645   2.407  0.00  0.00    -0.067 C 
ATOM     93  H43 5AH d   1      14.262  19.006   1.629  0.00  0.00     0.028 H 
ATOM     94  H44 5AH d   1      15.322  20.423   1.935  0.00  0.00     0.028 H 
ATOM     95  H45 5AH d   1      13.902  20.118   2.992  0.00  0.00     0.028 H 
ENDBRANCH  87  92
BRANCH  87  96
ATOM     96  C49 5AH d   1      16.743  18.136   2.505  0.00  0.00    -0.067 C 
ATOM     97  H46 5AH d   1      17.378  17.520   3.159  0.00  0.00     0.028 H 
ATOM     98  H47 5AH d   1      17.350  18.931   2.048  0.00  0.00     0.028 H 
ATOM     99  H48 5AH d   1      16.311  17.505   1.714  0.00  0.00     0.028 H 
ENDBRANCH  87  96
ENDBRANCH  76  87
ENDBRANCH  73  76
ENDBRANCH   1  72
TORSDOF 21
