REMARK  21 active torsions:
REMARK  status: ('A' for Active; 'I' for Inactive)
REMARK    1  A    between atoms: C47_48  and  C1_1 
REMARK    2  A    between atoms: C37_37  and  C4_4 
REMARK    3  A    between atoms: C9_9  and  C8_8 
REMARK    4  A    between atoms: C8_8  and  O11_11 
REMARK    5  A    between atoms: C8_8  and  C12_12 
REMARK    6  A    between atoms: C8_8  and  C19_19 
REMARK    7  A    between atoms: C10_10  and  C9_9 
REMARK    8  A    between atoms: N32_32  and  C10_10 
REMARK    9  A    between atoms: C12_12  and  C13_13 
REMARK       I    between atoms: C19_19  and  N20_20 
REMARK   10  A    between atoms: N20_20  and  C21_21 
REMARK   11  A    between atoms: C22_22  and  O23_23 
REMARK   12  A    between atoms: N32_32  and  C33_33 
REMARK   13  A    between atoms: N40_40  and  N32_32 
REMARK   14  A    between atoms: C33_33  and  C34_34 
REMARK       I    between atoms: C41_41  and  N40_40 
REMARK   15  A    between atoms: C42_42  and  C41_41 
REMARK   16  A    between atoms: C42_42  and  N51_43 
REMARK   17  A    between atoms: C42_42  and  C47_48 
REMARK       I    between atoms: N51_43  and  C43_44 
REMARK   18  A    between atoms: C43_44  and  O44_45 
REMARK   19  A    between atoms: O44_45  and  C45_46 
REMARK   20  A    between atoms: C47_48  and  C48_49 
REMARK   21  A    between atoms: C47_48  and  C49_50 
ROOT
ATOM      1  N32 5AH d   1      14.776  22.674   6.339  0.00  0.00     0.015 N 
ATOM      2  H30 5AH d   1      14.063  22.055   6.693  0.00  0.00     0.309 HD
ENDROOT
BRANCH   1   3
ATOM      3  C10 5AH d   1      14.034  23.645   5.498  0.00  0.00     0.108 C 
ATOM      4  H10 5AH d   1      13.538  24.379   6.150  0.00  0.00     0.079 H 
ATOM      5  H11 5AH d   1      14.744  24.163   4.837  0.00  0.00     0.079 H 
BRANCH   3   6
ATOM      6  C9  5AH d   1      12.956  22.929   4.626  0.00  0.00    -0.003 C 
ATOM      7  H8  5AH d   1      13.449  22.548   3.720  0.00  0.00     0.040 H 
ATOM      8  H9  5AH d   1      12.553  22.086   5.207  0.00  0.00     0.040 H 
BRANCH   6   9
ATOM      9  C8  5AH d   1      11.755  23.830   4.182  0.00  0.00     0.143 C 
BRANCH   9  10
ATOM     10  O11 5AH d   1      12.280  25.106   3.738  0.00  0.00    -0.380 OA
ATOM     11  H12 5AH d   1      12.870  24.967   3.007  0.00  0.00     0.211 HD
ENDBRANCH   9  10
BRANCH   9  12
ATOM     12  C12 5AH d   1      10.985  23.163   2.967  0.00  0.00    -0.004 C 
ATOM     13  H13 5AH d   1      10.839  22.099   3.205  0.00  0.00     0.045 H 
ATOM     14  H14 5AH d   1      11.622  23.255   2.075  0.00  0.00     0.045 H 
BRANCH  12  15
ATOM     15  C13 5AH d   1       9.590  23.768   2.620  0.00  0.00    -0.055 A 
ATOM     16  C14 5AH d   1       9.493  25.053   2.003  0.00  0.00    -0.077 A 
ATOM     17  C15 5AH d   1       8.224  25.613   1.690  0.00  0.00    -0.082 A 
ATOM     18  H15 5AH d   1      10.396  25.607   1.771  0.00  0.00     0.084 H 
ATOM     19  C16 5AH d   1       7.031  24.897   1.989  0.00  0.00    -0.083 A 
ATOM     20  H16 5AH d   1       8.165  26.589   1.222  0.00  0.00     0.083 H 
ATOM     21  C17 5AH d   1       7.113  23.613   2.604  0.00  0.00    -0.082 A 
ATOM     22  H17 5AH d   1       6.064  25.326   1.750  0.00  0.00     0.083 H 
ATOM     23  C18 5AH d   1       8.383  23.051   2.916  0.00  0.00    -0.077 A 
ATOM     24  H18 5AH d   1       6.207  23.064   2.834  0.00  0.00     0.083 H 
ATOM     25  H19 5AH d   1       8.439  22.073   3.381  0.00  0.00     0.084 H 
ENDBRANCH  12  15
ENDBRANCH   9  12
BRANCH   9  26
ATOM     26  C19 5AH d   1      10.731  24.049   5.313  0.00  0.00     0.253 C 
ATOM     27  N20 5AH d   1      10.109  25.259   5.376  0.00  0.00    -0.347 N 
ATOM     28  H20 5AH d   1      10.351  25.966   4.712  0.00  0.00     0.163 HD
ATOM     29  O31 5AH d   1      10.479  23.152   6.102  0.00  0.00    -0.270 OA
BRANCH  27  30
ATOM     30  C21 5AH d   1       9.090  25.553   6.396  0.00  0.00     0.063 C 
ATOM     31  C22 5AH d   1       7.947  26.547   5.980  0.00  0.00     0.063 C 
ATOM     32  C24 5AH d   1       7.512  27.316   7.255  0.00  0.00    -0.014 C 
ATOM     33  H22 5AH d   1       7.100  25.968   5.584  0.00  0.00     0.087 H 
ATOM     34  C25 5AH d   1       8.739  27.187   8.151  0.00  0.00    -0.047 A 
ATOM     35  H24 5AH d   1       6.630  26.850   7.719  0.00  0.00     0.044 H 
ATOM     36  H25 5AH d   1       7.294  28.370   7.029  0.00  0.00     0.044 H 
ATOM     37  C26 5AH d   1       9.030  27.922   9.330  0.00  0.00    -0.076 A 
ATOM     38  C30 5AH d   1       9.627  26.198   7.667  0.00  0.00    -0.027 A 
ATOM     39  C27 5AH d   1      10.243  27.639  10.021  0.00  0.00    -0.082 A 
ATOM     40  H26 5AH d   1       8.346  28.680   9.695  0.00  0.00     0.084 H 
ATOM     41  C28 5AH d   1      11.143  26.641   9.535  0.00  0.00    -0.082 A 
ATOM     42  H27 5AH d   1      10.486  28.186  10.925  0.00  0.00     0.083 H 
ATOM     43  C29 5AH d   1      10.843  25.912   8.359  0.00  0.00    -0.074 A 
ATOM     44  H28 5AH d   1      12.063  26.440  10.071  0.00  0.00     0.083 H 
ATOM     45  H29 5AH d   1      11.523  25.152   7.991  0.00  0.00     0.084 H 
ATOM     46  H21 5AH d   1       8.633  24.587   6.655  0.00  0.00     0.084 H 
BRANCH  31  47
ATOM     47  O23 5AH d   1       8.353  27.519   4.980  0.00  0.00    -0.393 OA
ATOM     48  H23 5AH d   1       8.633  27.065   4.194  0.00  0.00     0.210 HD
ENDBRANCH  31  47
ENDBRANCH  27  30
ENDBRANCH   9  26
ENDBRANCH   6   9
ENDBRANCH   3   6
ENDBRANCH   1   3
BRANCH   1  49
ATOM     49  C33 5AH d   1      15.514  23.124   7.542  0.00  0.00     0.128 C 
ATOM     50  H31 5AH d   1      14.872  23.780   8.148  0.00  0.00     0.086 H 
ATOM     51  H32 5AH d   1      16.418  23.673   7.240  0.00  0.00     0.086 H 
BRANCH  49  52
ATOM     52  C34 5AH d   1      15.907  21.888   8.357  0.00  0.00    -0.030 A 
ATOM     53  C35 5AH d   1      14.900  21.122   8.998  0.00  0.00    -0.074 A 
ATOM     54  C36 5AH d   1      15.242  19.967   9.746  0.00  0.00    -0.070 A 
ATOM     55  H33 5AH d   1      13.861  21.422   8.915  0.00  0.00     0.084 H 
ATOM     56  C37 5AH d   1      16.606  19.551   9.871  0.00  0.00    -0.007 A 
ATOM     57  H34 5AH d   1      14.461  19.392  10.229  0.00  0.00     0.084 H 
ATOM     58  C38 5AH d   1      17.618  20.329   9.228  0.00  0.00    -0.070 A 
ATOM     59  C39 5AH d   1      17.271  21.488   8.472  0.00  0.00    -0.074 A 
ATOM     60  H35 5AH d   1      18.658  20.036   9.316  0.00  0.00     0.084 H 
ATOM     61  H36 5AH d   1      18.047  22.067   7.983  0.00  0.00     0.084 H 
BRANCH  56  62
ATOM     62  C4  5AH d   1      16.977  18.327  10.666  0.00  0.00     0.066 A 
ATOM     63  N3  5AH d   1      18.106  18.377  11.542  0.00  0.00    -0.260 NA
ATOM     64  C2  5AH d   1      18.489  17.291  12.296  0.00  0.00     0.003 A 
ATOM     65  C7  5AH d   1      17.797  16.113  12.235  0.00  0.00    -0.066 A 
ATOM     66  H4  5AH d   1      19.352  17.371  12.948  0.00  0.00     0.114 H 
ATOM     67  C6  5AH d   1      16.663  16.000  11.383  0.00  0.00    -0.079 A 
ATOM     68  H7  5AH d   1      18.112  15.267  12.835  0.00  0.00     0.085 H 
ATOM     69  C5  5AH d   1      16.247  17.103  10.594  0.00  0.00    -0.054 A 
ATOM     70  H6  5AH d   1      16.114  15.066  11.337  0.00  0.00     0.083 H 
ATOM     71  H5  5AH d   1      15.384  17.017   9.944  0.00  0.00     0.087 H 
ENDBRANCH  56  62
ENDBRANCH  49  52
ENDBRANCH   1  49
BRANCH   1  72
ATOM     72  N40 5AH d   1      15.712  21.821   5.481  0.00  0.00    -0.185 N 
ATOM     73  C41 5AH d   1      15.391  20.526   5.183  0.00  0.00     0.265 C 
ATOM     74  O50 5AH d   1      14.349  20.037   5.604  0.00  0.00    -0.269 OA
ATOM     75  H37 5AH d   1      16.565  22.213   5.136  0.00  0.00     0.197 HD
BRANCH  73  76
ATOM     76  C42 5AH d   1      16.341  19.666   4.334  0.00  0.00     0.099 C 
ATOM     77  H38 5AH d   1      17.077  20.324   3.849  0.00  0.00     0.088 H 
BRANCH  76  78
ATOM     78  N51 5AH d   1      17.005  18.837   5.335  0.00  0.00    -0.323 N 
ATOM     79  C43 5AH d   1      18.301  19.026   5.644  0.00  0.00     0.360 C 
ATOM     80  O46 5AH d   1      19.013  19.885   5.127  0.00  0.00    -0.239 OA
ATOM     81  H39 5AH d   1      16.489  18.117   5.799  0.00  0.00     0.165 HD
BRANCH  79  82
ATOM     82  O44 5AH d   1      18.709  18.150   6.593  0.00  0.00    -0.309 OA
BRANCH  82  83
ATOM     83  C45 5AH d   1      20.089  18.262   7.002  0.00  0.00     0.015 C 
ATOM     84  H40 5AH d   1      20.306  17.506   7.771  0.00  0.00     0.067 H 
ATOM     85  H41 5AH d   1      20.269  19.266   7.414  0.00  0.00     0.067 H 
ATOM     86  H42 5AH d   1      20.743  18.099   6.133  0.00  0.00     0.067 H 
ENDBRANCH  82  83
ENDBRANCH  79  82
ENDBRANCH  76  78
BRANCH  76  87
ATOM     87  C47 5AH d   1      15.671  18.788   3.186  0.00  0.00    -0.022 C 
BRANCH  87  88
ATOM     88  C1  5AH d   1      16.806  18.156   2.317  0.00  0.00    -0.067 C 
ATOM     89  H1  5AH d   1      16.359  17.546   1.518  0.00  0.00     0.028 H 
ATOM     90  H2  5AH d   1      17.443  17.521   2.951  0.00  0.00     0.028 H 
ATOM     91  H3  5AH d   1      17.414  18.956   1.870  0.00  0.00     0.028 H 
ENDBRANCH  87  88
BRANCH  87  92
ATOM     92  C48 5AH d   1      14.796  17.607   3.722  0.00  0.00    -0.067 C 
ATOM     93  H43 5AH d   1      14.370  17.051   2.873  0.00  0.00     0.028 H 
ATOM     94  H44 5AH d   1      13.982  18.007   4.344  0.00  0.00     0.028 H 
ATOM     95  H45 5AH d   1      15.421  16.932   4.326  0.00  0.00     0.028 H 
ENDBRANCH  87  92
BRANCH  87  96
ATOM     96  C49 5AH d   1      14.779  19.685   2.269  0.00  0.00    -0.067 C 
ATOM     97  H46 5AH d   1      15.377  20.523   1.882  0.00  0.00     0.028 H 
ATOM     98  H47 5AH d   1      13.933  20.078   2.852  0.00  0.00     0.028 H 
ATOM     99  H48 5AH d   1      14.399  19.086   1.428  0.00  0.00     0.028 H 
ENDBRANCH  87  96
ENDBRANCH  76  87
ENDBRANCH  73  76
ENDBRANCH   1  72
TORSDOF 21
