REMARK  13 active torsions:
REMARK  status: ('A' for Active; 'I' for Inactive)
REMARK    1  A    between atoms: O4_26  and  C1_1 
REMARK    2  A    between atoms: C2_3  and  N2_10 
REMARK    3  A    between atoms: C3_4  and  O3_11 
REMARK    4  A    between atoms: C4_5  and  O4_12 
REMARK    5  A    between atoms: C5_6  and  C6_7 
REMARK    6  A    between atoms: C6_7  and  O6_14 
REMARK    7  A    between atoms: C7_8  and  C8_9 
REMARK    8  A    between atoms: N2_10  and  C7_8 
REMARK    9  A    between atoms: C3_17  and  O3_25 
REMARK   10  A    between atoms: C4_18  and  O4_26 
REMARK   11  A    between atoms: C5_19  and  C6_20 
REMARK   12  A    between atoms: C6_20  and  O6_28 
REMARK   13  A    between atoms: C7_21  and  C8_22 
ROOT
ATOM      1  C1  SN5 d   1      28.114  73.557  -4.223  0.00  0.00     0.154 C 
ATOM      2  C2  SN5 d   1      28.370  74.342  -5.530  0.00  0.00     0.085 C 
ATOM      3  C3  SN5 d   1      28.292  73.382  -6.747  0.00  0.00     0.086 C 
ATOM      4  C4  SN5 d   1      29.139  72.123  -6.491  0.00  0.00     0.089 C 
ATOM      5  C5  SN5 d   1      28.902  71.469  -5.125  0.00  0.00     0.089 C 
ATOM      6  O5  SN5 d   1      29.028  72.444  -4.096  0.00  0.00    -0.349 OA
ATOM      7  H1  SN5 d   1      27.051  73.284  -4.149  0.00  0.00     0.132 H 
ATOM      8  H2  SN5 d   1      29.363  74.813  -5.499  0.00  0.00     0.084 H 
ATOM      9  H3  SN5 d   1      27.245  73.152  -6.995  0.00  0.00     0.090 H 
ATOM     10  H4  SN5 d   1      30.206  72.374  -6.585  0.00  0.00     0.091 H 
ATOM     11  H5  SN5 d   1      27.875  71.075  -5.107  0.00  0.00     0.090 H 
ENDROOT
BRANCH   1  12
ATOM     12  O4  NGT d   1      28.597  74.148  -3.120  0.00  0.00    -0.348 OA
BRANCH  12  13
ATOM     13  C4  NGT d   1      27.850  74.039  -1.892  0.00  0.00     0.095 C 
ATOM     14  C3  NGT d   1      28.503  73.064  -0.847  0.00  0.00     0.087 C 
ATOM     15  C2  NGT d   1      27.862  73.101   0.568  0.00  0.00     0.094 C 
ATOM     16  H17 SN5 d   1      29.546  73.386  -0.714  0.00  0.00     0.090 H 
ATOM     17  C1  NGT d   1      27.858  74.607   0.884  0.00  0.00     0.112 C 
ATOM     18  N2  NGT d   1      28.921  72.539   1.398  0.00  0.00    -0.276 NA
ATOM     19  H16 SN5 d   1      26.885  72.604   0.661  0.00  0.00     0.085 H 
ATOM     20  S1  NGT d   1      29.377  74.973   1.737  0.00  0.00    -0.081 SA
ATOM     21  O5  NGT d   1      27.289  75.514  -0.089  0.00  0.00    -0.363 OA
ATOM     22  H15 SN5 d   1      27.112  74.689   1.688  0.00  0.00     0.104 H 
ATOM     23  C7  NGT d   1      29.715  73.352   1.980  0.00  0.00     0.064 C 
ATOM     24  C5  NGT d   1      27.818  75.469  -1.402  0.00  0.00     0.087 C 
ATOM     25  H19 SN5 d   1      28.865  75.803  -1.353  0.00  0.00     0.090 H 
ATOM     26  H18 SN5 d   1      26.830  73.684  -2.101  0.00  0.00     0.091 H 
BRANCH  14  27
ATOM     27  O3  NGT d   1      28.534  71.743  -1.436  0.00  0.00    -0.391 OA
ATOM     28  H25 SN5 d   1      29.049  71.765  -2.234  0.00  0.00     0.210 HD
ENDBRANCH  14  27
BRANCH  23  29
ATOM     29  C8  NGT d   1      30.872  72.857   2.808  0.00  0.00    -0.030 C 
ATOM     30  H22 SN5 d   1      30.876  71.757   2.812  0.00  0.00     0.036 H 
ATOM     31  H23 SN5 d   1      30.770  73.227   3.839  0.00  0.00     0.036 H 
ATOM     32  H24 SN5 d   1      31.815  73.226   2.378  0.00  0.00     0.036 H 
ENDBRANCH  23  29
BRANCH  24  33
ATOM     33  C6  NGT d   1      27.086  76.474  -2.283  0.00  0.00     0.043 C 
ATOM     34  H20 SN5 d   1      27.245  76.227  -3.343  0.00  0.00     0.078 H 
ATOM     35  H21 SN5 d   1      27.460  77.489  -2.083  0.00  0.00     0.078 H 
BRANCH  33  36
ATOM     36  O6  NGT d   1      25.712  76.400  -1.974  0.00  0.00    -0.398 OA
ATOM     37  H26 SN5 d   1      25.583  76.611  -1.057  0.00  0.00     0.209 HD
ENDBRANCH  33  36
ENDBRANCH  24  33
ENDBRANCH  12  13
ENDBRANCH   1  12
BRANCH   2  38
ATOM     38  N2  SN5 d   1      27.335  75.366  -5.622  0.00  0.00    -0.373 N 
ATOM     39  H11 SN5 d   1      26.378  75.077  -5.624  0.00  0.00     0.160 HD
BRANCH  38  40
ATOM     40  C7  SN5 d   1      27.613  76.702  -5.706  0.00  0.00     0.070 C 
ATOM     41  S7  SN5 d   1      29.208  77.273  -5.719  0.00  0.00    -0.066 SA
BRANCH  40  42
ATOM     42  C8  SN5 d   1      26.455  77.675  -5.825  0.00  0.00    -0.028 C 
ATOM     43  H8  SN5 d   1      25.506  77.120  -5.797  0.00  0.00     0.036 H 
ATOM     44  H9  SN5 d   1      26.532  78.222  -6.776  0.00  0.00     0.036 H 
ATOM     45  H10 SN5 d   1      26.488  78.388  -4.988  0.00  0.00     0.036 H 
ENDBRANCH  40  42
ENDBRANCH  38  40
ENDBRANCH   2  38
BRANCH   3  46
ATOM     46  O3  SN5 d   1      29.015  73.920  -7.842  0.00  0.00    -0.391 OA
ATOM     47  H12 SN5 d   1      28.603  74.728  -8.126  0.00  0.00     0.210 HD
ENDBRANCH   3  46
BRANCH   5  48
ATOM     48  C6  SN5 d   1      29.865  70.298  -4.873  0.00  0.00     0.043 C 
ATOM     49  H6  SN5 d   1      30.873  70.701  -4.695  0.00  0.00     0.078 H 
ATOM     50  H7  SN5 d   1      29.880  69.654  -5.765  0.00  0.00     0.078 H 
BRANCH  48  51
ATOM     51  O6  SN5 d   1      29.478  69.506  -3.738  0.00  0.00    -0.398 OA
ATOM     52  H14 SN5 d   1      30.099  68.797  -3.621  0.00  0.00     0.209 HD
ENDBRANCH  48  51
ENDBRANCH   5  48
BRANCH   4  53
ATOM     53  O4  SN5 d   1      28.756  71.222  -7.481  0.00  0.00    -0.390 OA
ATOM     54  H13 SN5 d   1      27.836  71.010  -7.376  0.00  0.00     0.210 HD
ENDBRANCH   4  53
TORSDOF 13
