REMARK  12 active torsions:
REMARK  status: ('A' for Active; 'I' for Inactive)
REMARK    1  A    between atoms: C3_3  and  O3_11 
REMARK    2  A    between atoms: O4_12  and  C4_4 
REMARK    3  A    between atoms: C5_5  and  C6_6 
REMARK    4  A    between atoms: C6_6  and  O6_14 
REMARK    5  A    between atoms: C7_7  and  C8_8 
REMARK    6  A    between atoms: C1_15  and  O4_12 
REMARK    7  A    between atoms: N2_23  and  C2_16 
REMARK    8  A    between atoms: C3_17  and  O3_24 
REMARK    9  A    between atoms: C4_18  and  O4_25 
REMARK   10  A    between atoms: C5_19  and  C6_20 
REMARK   11  A    between atoms: C6_20  and  O6_27 
REMARK   12  A    between atoms: C7_21  and  C8_22 
REMARK       I    between atoms: C7_21  and  N2_23 
ROOT
ATOM      1  H13 NGT d   1      27.746  72.953  -4.009  0.00  0.00     0.132 H 
ATOM      2  H14 NGT d   1      30.023  74.564  -5.273  0.00  0.00     0.084 H 
ATOM      3  H15 NGT d   1      27.902  73.150  -6.894  0.00  0.00     0.090 H 
ATOM      4  H16 NGT d   1      30.726  72.054  -6.593  0.00  0.00     0.091 H 
ATOM      5  H17 NGT d   1      28.336  71.019  -5.036  0.00  0.00     0.090 H 
ATOM      6  C1  NAG d   1      28.781  73.323  -4.057  0.00  0.00     0.154 C 
ATOM      7  C2  NAG d   1      28.996  74.174  -5.329  0.00  0.00     0.087 C 
ATOM      8  C3  NAG d   1      28.951  73.296  -6.597  0.00  0.00     0.086 C 
ATOM      9  C4  NAG d   1      29.642  71.919  -6.463  0.00  0.00     0.089 C 
ATOM     10  C5  NAG d   1      29.406  71.272  -5.080  0.00  0.00     0.089 C 
ATOM     11  O5  NAG d   1      29.674  72.211  -4.050  0.00  0.00    -0.349 OA
ENDROOT
BRANCH   6  12
ATOM     12  O4  NGT d   1      29.035  74.234  -2.969  0.00  0.00    -0.348 OA
BRANCH  12  13
ATOM     13  C4  NGT d   1      28.280  73.985  -1.774  0.00  0.00     0.095 C 
ATOM     14  C3  NGT d   1      28.956  72.930  -0.828  0.00  0.00     0.087 C 
ATOM     15  C2  NGT d   1      28.397  72.949   0.614  0.00  0.00     0.094 C 
ATOM     16  H3  NGT d   1      29.997  73.271  -0.730  0.00  0.00     0.090 H 
ATOM     17  C1  NGT d   1      28.289  74.435   1.054  0.00  0.00     0.112 C 
ATOM     18  N2  NGT d   1      29.489  72.409   1.418  0.00  0.00    -0.276 NA
ATOM     19  H2  NGT d   1      27.451  72.398   0.720  0.00  0.00     0.085 H 
ATOM     20  S1  NGT d   1      29.693  74.843   2.074  0.00  0.00    -0.081 SA
ATOM     21  O5  NGT d   1      27.751  75.424   0.144  0.00  0.00    -0.363 OA
ATOM     22  H1  NGT d   1      27.474  74.395   1.792  0.00  0.00     0.104 H 
ATOM     23  C7  NGT d   1      30.139  73.231   2.135  0.00  0.00     0.064 C 
ATOM     24  C5  NGT d   1      28.289  75.420  -1.174  0.00  0.00     0.087 C 
ATOM     25  H5  NGT d   1      29.346  75.720  -1.113  0.00  0.00     0.090 H 
ATOM     26  H4  NGT d   1      27.258  73.650  -2.006  0.00  0.00     0.091 H 
BRANCH  14  27
ATOM     27  O3  NGT d   1      29.059  71.587  -1.397  0.00  0.00    -0.391 OA
ATOM     28  H11 NGT d   1      29.578  71.620  -2.192  0.00  0.00     0.210 HD
ENDBRANCH  14  27
BRANCH  23  29
ATOM     29  C8  NGT d   1      31.291  72.761   2.930  0.00  0.00    -0.030 C 
ATOM     30  H8  NGT d   1      31.393  71.671   2.819  0.00  0.00     0.036 H 
ATOM     31  H9  NGT d   1      31.131  73.008   3.990  0.00  0.00     0.036 H 
ATOM     32  H10 NGT d   1      32.208  73.253   2.573  0.00  0.00     0.036 H 
ENDBRANCH  23  29
BRANCH  24  33
ATOM     33  C6  NGT d   1      27.555  76.521  -1.973  0.00  0.00     0.043 C 
ATOM     34  H6  NGT d   1      27.850  76.462  -3.031  0.00  0.00     0.078 H 
ATOM     35  H7  NGT d   1      27.828  77.507  -1.570  0.00  0.00     0.078 H 
BRANCH  33  36
ATOM     36  O6  NGT d   1      26.142  76.340  -1.865  0.00  0.00    -0.398 OA
ATOM     37  H12 NGT d   1      25.886  76.392  -0.952  0.00  0.00     0.209 HD
ENDBRANCH  33  36
ENDBRANCH  24  33
ENDBRANCH  12  13
ENDBRANCH   6  12
BRANCH   7  38
ATOM     38  N2  NAG d   1      28.116  75.369  -5.345  0.00  0.00    -0.349 N 
ATOM     39  C7  NAG d   1      28.557  76.661  -5.231  0.00  0.00     0.214 C 
ATOM     40  O7  NAG d   1      29.722  77.013  -5.131  0.00  0.00    -0.274 OA
ATOM     41  H23 NGT d   1      27.132  75.221  -5.446  0.00  0.00     0.163 HD
BRANCH  39  42
ATOM     42  C8  NAG d   1      27.553  77.784  -5.235  0.00  0.00    -0.003 C 
ATOM     43  H20 NGT d   1      28.078  78.746  -5.136  0.00  0.00     0.040 H 
ATOM     44  H21 NGT d   1      26.858  77.657  -4.392  0.00  0.00     0.040 H 
ATOM     45  H22 NGT d   1      26.990  77.769  -6.180  0.00  0.00     0.040 H 
ENDBRANCH  39  42
ENDBRANCH   7  38
BRANCH   8  46
ATOM     46  O3  NAG d   1      29.663  73.968  -7.592  0.00  0.00    -0.391 OA
ATOM     47  H24 NGT d   1      29.617  73.474  -8.402  0.00  0.00     0.210 HD
ENDBRANCH   8  46
BRANCH  10  48
ATOM     48  C6  NAG d   1      30.173  69.978  -4.783  0.00  0.00     0.043 C 
ATOM     49  H18 NGT d   1      31.258  70.156  -4.809  0.00  0.00     0.078 H 
ATOM     50  H19 NGT d   1      29.912  69.196  -5.511  0.00  0.00     0.078 H 
BRANCH  48  51
ATOM     51  O6  NAG d   1      29.760  69.608  -3.487  0.00  0.00    -0.398 OA
ATOM     52  H26 NGT d   1      30.200  68.805  -3.233  0.00  0.00     0.209 HD
ENDBRANCH  48  51
ENDBRANCH  10  48
BRANCH   9  53
ATOM     53  O4  NAG d   1      29.154  71.102  -7.504  0.00  0.00    -0.390 OA
ATOM     54  H25 NGT d   1      28.221  70.968  -7.389  0.00  0.00     0.210 HD
ENDBRANCH   9  53
TORSDOF 12
