REMARK  19 active torsions:
REMARK  status: ('A' for Active; 'I' for Inactive)
REMARK    1  A    between atoms: O4_25  and  C1_1 
REMARK    2  A    between atoms: C2_2  and  N2_9 
REMARK    3  A    between atoms: C3_3  and  O3_10 
REMARK    4  A    between atoms: C4_4  and  O4_11 
REMARK    5  A    between atoms: C5_5  and  C6_6 
REMARK    6  A    between atoms: C6_6  and  O6_13 
REMARK    7  A    between atoms: C7_7  and  C8_8 
REMARK       I    between atoms: N2_9  and  C7_7 
REMARK    8  A    between atoms: O4_40  and  C1_15 
REMARK    9  A    between atoms: C2_16  and  N2_23 
REMARK   10  A    between atoms: C3_17  and  O3_24 
REMARK   11  A    between atoms: C4_18  and  O4_25 
REMARK   12  A    between atoms: C5_19  and  C6_20 
REMARK   13  A    between atoms: C6_20  and  O6_27 
REMARK   14  A    between atoms: C7_21  and  C8_22 
REMARK       I    between atoms: N2_23  and  C7_21 
REMARK   15  A    between atoms: C3_31  and  O3_39 
REMARK   16  A    between atoms: C4_32  and  O4_40 
REMARK   17  A    between atoms: C5_33  and  C6_34 
REMARK   18  A    between atoms: C6_34  and  O6_42 
REMARK   19  A    between atoms: C7_35  and  C8_36 
ROOT
ATOM      1  C1  NAG d   1      28.704  73.264  -4.050  0.00  0.00     0.154 C 
ATOM      2  C2  NAG d   1      29.204  74.181  -5.190  0.00  0.00     0.087 C 
ATOM      3  C3  NAG d   1      29.342  73.331  -6.457  0.00  0.00     0.087 C 
ATOM      4  C4  NAG d   1      30.076  71.993  -6.179  0.00  0.00     0.095 C 
ATOM      5  C5  NAG d   1      29.486  71.260  -4.971  0.00  0.00     0.089 C 
ATOM      6  O5  NAG d   1      29.620  72.175  -3.905  0.00  0.00    -0.349 OA
ATOM      7  H15 NAG d   1      27.652  72.955  -4.135  0.00  0.00     0.132 H 
ATOM      8  H16 NAG d   1      30.191  74.589  -4.924  0.00  0.00     0.084 H 
ATOM      9  H17 NAG d   1      28.351  73.127  -6.889  0.00  0.00     0.090 H 
ATOM     10  H18 NAG d   1      31.116  72.255  -5.936  0.00  0.00     0.091 H 
ATOM     11  H19 NAG d   1      28.434  71.001  -5.159  0.00  0.00     0.090 H 
ENDROOT
BRANCH   4  12
ATOM     12  O4  NAG d   1      30.119  71.097  -7.257  0.00  0.00    -0.348 OA
BRANCH  12  13
ATOM     13  C1  NAG d   1      31.154  71.307  -8.224  0.00  0.00     0.154 C 
ATOM     14  C2  NAG d   1      31.729  69.954  -8.628  0.00  0.00     0.087 C 
ATOM     15  C3  NAG d   1      32.749  70.167  -9.744  0.00  0.00     0.086 C 
ATOM     16  H2  NAG d   1      30.909  69.310  -8.978  0.00  0.00     0.084 H 
ATOM     17  C4  NAG d   1      32.177  70.938 -10.932  0.00  0.00     0.089 C 
ATOM     18  H3  NAG d   1      33.600  70.732  -9.335  0.00  0.00     0.090 H 
ATOM     19  C5  NAG d   1      31.496  72.193 -10.463  0.00  0.00     0.089 C 
ATOM     20  H4  NAG d   1      31.416  70.297 -11.400  0.00  0.00     0.091 H 
ATOM     21  O5  NAG d   1      30.604  71.921  -9.390  0.00  0.00    -0.349 OA
ATOM     22  H5  NAG d   1      32.245  72.930 -10.138  0.00  0.00     0.090 H 
ATOM     23  H1  NAG d   1      31.943  71.944  -7.798  0.00  0.00     0.132 H 
BRANCH  14  24
ATOM     24  N2  NAG d   1      32.446  69.281  -7.546  0.00  0.00    -0.349 N 
ATOM     25  C7  NAG d   1      31.981  68.148  -6.963  0.00  0.00     0.214 C 
ATOM     26  O7  NAG d   1      30.871  67.655  -7.244  0.00  0.00    -0.274 OA
ATOM     27  H11 NAG d   1      33.309  69.670  -7.224  0.00  0.00     0.163 HD
BRANCH  25  28
ATOM     28  C8  NAG d   1      32.855  67.504  -5.894  0.00  0.00    -0.003 C 
ATOM     29  H8  NAG d   1      32.359  66.600  -5.510  0.00  0.00     0.040 H 
ATOM     30  H9  NAG d   1      33.010  68.215  -5.069  0.00  0.00     0.040 H 
ATOM     31  H10 NAG d   1      33.827  67.231  -6.330  0.00  0.00     0.040 H 
ENDBRANCH  25  28
ENDBRANCH  14  24
BRANCH  15  32
ATOM     32  O3  NAG d   1      33.193  68.927 -10.200  0.00  0.00    -0.391 OA
ATOM     33  H12 NAG d   1      33.553  68.433  -9.472  0.00  0.00     0.210 HD
ENDBRANCH  15  32
BRANCH  17  34
ATOM     34  O4  NAG d   1      33.147  71.238 -11.930  0.00  0.00    -0.390 OA
ATOM     35  H13 NAG d   1      32.720  71.653 -12.671  0.00  0.00     0.210 HD
ENDBRANCH  17  34
BRANCH  19  36
ATOM     36  C6  NAG d   1      30.714  72.722 -11.657  0.00  0.00     0.043 C 
ATOM     37  H6  NAG d   1      30.111  71.911 -12.090  0.00  0.00     0.078 H 
ATOM     38  H7  NAG d   1      31.414  73.104 -12.415  0.00  0.00     0.078 H 
BRANCH  36  39
ATOM     39  O6  NAG d   1      29.862  73.769 -11.229  0.00  0.00    -0.398 OA
ATOM     40  H14 NAG d   1      29.259  73.437 -10.574  0.00  0.00     0.209 HD
ENDBRANCH  36  39
ENDBRANCH  19  36
ENDBRANCH  12  13
ENDBRANCH   4  12
BRANCH   3  41
ATOM     41  O3  NAG d   1      30.120  74.090  -7.329  0.00  0.00    -0.391 OA
ATOM     42  H26 NAG d   1      30.966  74.260  -6.931  0.00  0.00     0.210 HD
ENDBRANCH   3  41
BRANCH   5  43
ATOM     43  C6  NAG d   1      30.263  70.014  -4.561  0.00  0.00     0.043 C 
ATOM     44  H20 NAG d   1      31.310  70.272  -4.345  0.00  0.00     0.078 H 
ATOM     45  H21 NAG d   1      30.229  69.262  -5.363  0.00  0.00     0.078 H 
BRANCH  43  46
ATOM     46  O6  NAG d   1      29.633  69.521  -3.403  0.00  0.00    -0.398 OA
ATOM     47  H27 NAG d   1      29.663  70.182  -2.722  0.00  0.00     0.209 HD
ENDBRANCH  43  46
ENDBRANCH   5  43
BRANCH   2  48
ATOM     48  N2  NAG d   1      28.278  75.290  -5.375  0.00  0.00    -0.349 N 
ATOM     49  C7  NAG d   1      28.613  76.603  -5.276  0.00  0.00     0.214 C 
ATOM     50  O7  NAG d   1      29.738  77.018  -5.027  0.00  0.00    -0.274 OA
ATOM     51  H25 NAG d   1      27.327  75.069  -5.590  0.00  0.00     0.163 HD
BRANCH  49  52
ATOM     52  C8  NAG d   1      27.497  77.603  -5.494  0.00  0.00    -0.003 C 
ATOM     53  H22 NAG d   1      27.893  78.624  -5.388  0.00  0.00     0.040 H 
ATOM     54  H23 NAG d   1      26.706  77.438  -4.748  0.00  0.00     0.040 H 
ATOM     55  H24 NAG d   1      27.081  77.474  -6.504  0.00  0.00     0.040 H 
ENDBRANCH  49  52
ENDBRANCH   2  48
BRANCH   1  56
ATOM     56  O4  NGT d   1      29.029  74.108  -2.920  0.00  0.00    -0.348 OA
BRANCH  56  57
ATOM     57  C4  NGT d   1      28.316  73.890  -1.686  0.00  0.00     0.095 C 
ATOM     58  C3  NGT d   1      28.959  72.834  -0.715  0.00  0.00     0.087 C 
ATOM     59  C2  NGT d   1      28.402  72.882   0.747  0.00  0.00     0.094 C 
ATOM     60  H30 NAG d   1      30.001  73.168  -0.604  0.00  0.00     0.090 H 
ATOM     61  C1  NGT d   1      28.281  74.390   1.104  0.00  0.00     0.112 C 
ATOM     62  N2  NGT d   1      29.525  72.399   1.554  0.00  0.00    -0.276 NA
ATOM     63  H29 NAG d   1      27.469  72.317   0.889  0.00  0.00     0.085 H 
ATOM     64  S1  NGT d   1      29.732  74.878   2.014  0.00  0.00    -0.081 SA
ATOM     65  O5  NGT d   1      27.737  75.314   0.181  0.00  0.00    -0.363 OA
ATOM     66  H28 NAG d   1      27.496  74.387   1.875  0.00  0.00     0.104 H 
ATOM     67  C7  NGT d   1      30.218  73.259   2.176  0.00  0.00     0.064 C 
ATOM     68  C5  NGT d   1      28.343  75.305  -1.085  0.00  0.00     0.087 C 
ATOM     69  H32 NAG d   1      29.397  75.604  -0.990  0.00  0.00     0.090 H 
ATOM     70  H31 NAG d   1      27.284  73.574  -1.897  0.00  0.00     0.091 H 
BRANCH  58  71
ATOM     71  O3  NGT d   1      29.080  71.508  -1.321  0.00  0.00    -0.391 OA
ATOM     72  H38 NAG d   1      29.628  71.564  -2.095  0.00  0.00     0.210 HD
ENDBRANCH  58  71
BRANCH  67  73
ATOM     73  C8  NGT d   1      31.418  72.825   2.967  0.00  0.00    -0.030 C 
ATOM     74  H35 NAG d   1      31.515  71.731   2.915  0.00  0.00     0.036 H 
ATOM     75  H36 NAG d   1      31.297  73.133   4.016  0.00  0.00     0.036 H 
ATOM     76  H37 NAG d   1      32.321  73.294   2.550  0.00  0.00     0.036 H 
ENDBRANCH  67  73
BRANCH  68  77
ATOM     77  C6  NGT d   1      27.603  76.380  -1.897  0.00  0.00     0.043 C 
ATOM     78  H33 NAG d   1      27.905  76.324  -2.953  0.00  0.00     0.078 H 
ATOM     79  H34 NAG d   1      27.841  77.378  -1.500  0.00  0.00     0.078 H 
BRANCH  77  80
ATOM     80  O6  NGT d   1      26.201  76.134  -1.780  0.00  0.00    -0.398 OA
ATOM     81  H39 NAG d   1      25.948  76.180  -0.866  0.00  0.00     0.209 HD
ENDBRANCH  77  80
ENDBRANCH  68  77
ENDBRANCH  56  57
ENDBRANCH   1  56
TORSDOF 19
