REMARK  5 active torsions:
REMARK  status: ('A' for Active; 'I' for Inactive)
REMARK    1  A    between atoms: C7_1  and  C4_2 
REMARK    2  A    between atoms: C3_3  and  O21_4 
REMARK    3  A    between atoms: O21_4  and  C22_5 
REMARK    4  A    between atoms: C1_9  and  O20_10 
REMARK    5  A    between atoms: C9_16  and  C14_17 
ROOT
ATOM      1  C7  ZY5 d   1      30.228  -6.592  62.645  0.00  0.00    -0.062 C 
ATOM      2  C8  ZY5 d   1      29.934  -5.296  62.402  0.00  0.00    -0.028 C 
ATOM      3  C13 ZY5 d   1      30.299  -4.167  63.345  0.00  0.00    -0.037 C 
ATOM      4  C12 ZY5 d   1      29.473  -2.914  63.108  0.00  0.00    -0.045 C 
ATOM      5  C11 ZY5 d   1      29.550  -2.509  61.651  0.00  0.00     0.016 C 
ATOM      6  N10 ZY5 d   1      29.078  -3.686  60.932  0.00  0.00    -0.288 NA
ATOM      7  C9  ZY5 d   1      29.295  -4.926  61.141  0.00  0.00     0.069 C 
ATOM      8  H1  ZY5 d   1      29.937  -7.329  61.898  0.00  0.00     0.085 H 
ATOM      9  H9  ZY5 d   1      31.361  -3.920  63.203  0.00  0.00     0.040 H 
ATOM     10  H10 ZY5 d   1      30.136  -4.505  64.379  0.00  0.00     0.040 H 
ATOM     11  H11 ZY5 d   1      29.863  -2.098  63.734  0.00  0.00     0.035 H 
ATOM     12  H12 ZY5 d   1      28.425  -3.113  63.376  0.00  0.00     0.035 H 
ATOM     13  H13 ZY5 d   1      30.584  -2.266  61.367  0.00  0.00     0.067 H 
ATOM     14  H14 ZY5 d   1      28.902  -1.643  61.451  0.00  0.00     0.067 H 
ENDROOT
BRANCH   1  15
ATOM     15  C4  ZY5 d   1      30.934  -7.084  63.886  0.00  0.00    -0.002 A 
ATOM     16  C3  ZY5 d   1      30.600  -8.324  64.391  0.00  0.00     0.081 A 
ATOM     17  C2  ZY5 d   1      31.234  -8.818  65.545  0.00  0.00    -0.018 A 
ATOM     18  C1  ZY5 d   1      32.213  -8.057  66.180  0.00  0.00     0.068 A 
ATOM     19  H5  ZY5 d   1      30.961  -9.790  65.940  0.00  0.00     0.092 H 
ATOM     20  C6  ZY5 d   1      32.538  -6.819  65.669  0.00  0.00    -0.050 A 
ATOM     21  C5  ZY5 d   1      31.923  -6.342  64.523  0.00  0.00    -0.068 A 
ATOM     22  H7  ZY5 d   1      33.283  -6.212  66.169  0.00  0.00     0.087 H 
ATOM     23  H6  ZY5 d   1      32.216  -5.380  64.118  0.00  0.00     0.085 H 
BRANCH  16  24
ATOM     24  O21 ZY5 d   1      29.633  -8.990  63.695  0.00  0.00    -0.355 OA
BRANCH  24  25
ATOM     25  C22 ZY5 d   1      29.165 -10.331  63.966  0.00  0.00     0.010 C 
ATOM     26  H2  ZY5 d   1      28.382 -10.600  63.241  0.00  0.00     0.066 H 
ATOM     27  H3  ZY5 d   1      28.753 -10.377  64.985  0.00  0.00     0.066 H 
ATOM     28  H4  ZY5 d   1      30.004 -11.037  63.878  0.00  0.00     0.066 H 
ENDBRANCH  24  25
ENDBRANCH  16  24
BRANCH  18  29
ATOM     29  O20 ZY5 d   1      32.839  -8.506  67.331  0.00  0.00    -0.361 OA
ATOM     30  H8  ZY5 d   1      32.510  -9.369  67.553  0.00  0.00     0.217 HD
ENDBRANCH  18  29
ENDBRANCH   1  15
BRANCH   7  31
ATOM     31  C14 ZY5 d   1      28.918  -5.884  60.042  0.00  0.00     0.010 A 
ATOM     32  C19 ZY5 d   1      27.592  -6.049  59.670  0.00  0.00     0.014 A 
ATOM     33  N18 ZY5 d   1      27.242  -6.853  58.661  0.00  0.00    -0.272 NA
ATOM     34  H15 ZY5 d   1      26.821  -5.513  60.211  0.00  0.00     0.116 H 
ATOM     35  C17 ZY5 d   1      28.170  -7.536  57.976  0.00  0.00     0.002 A 
ATOM     36  C16 ZY5 d   1      29.537  -7.399  58.300  0.00  0.00    -0.065 A 
ATOM     37  H16 ZY5 d   1      27.869  -8.196  57.170  0.00  0.00     0.114 H 
ATOM     38  C15 ZY5 d   1      29.911  -6.571  59.345  0.00  0.00    -0.068 A 
ATOM     39  H17 ZY5 d   1      30.289  -7.938  57.735  0.00  0.00     0.085 H 
ATOM     40  H18 ZY5 d   1      30.955  -6.459  59.616  0.00  0.00     0.085 H 
ENDBRANCH   7  31
TORSDOF 5
