REMARK  4 active torsions:
REMARK  status: ('A' for Active; 'I' for Inactive)
REMARK    1  A    between atoms: C12_1  and  C9_4 
REMARK    2  A    between atoms: N1_9  and  C8_3 
REMARK    3  A    between atoms: C9_4  and  O3_6 
REMARK    4  A    between atoms: O3_6  and  C3_14 
ROOT
ATOM      1  C7  TKT d   1     -69.978 -47.765 -73.335  0.00  0.00    -0.036 C 
ATOM      2  C6  TKT d   1     -70.818 -47.339 -72.103  0.00  0.00    -0.036 C 
ATOM      3  N1  TKT d   1     -71.126 -45.907 -73.741  0.00  0.00    -0.066 N 
ATOM      4  C5  TKT d   1     -71.914 -46.363 -72.614  0.00  0.00     0.106 C 
ATOM      5  C4  TKT d   1     -73.177 -47.053 -73.135  0.00  0.00    -0.013 C 
ATOM      6  C1  TKT d   1     -70.593 -47.015 -74.539  0.00  0.00     0.106 C 
ATOM      7  C2  TKT d   1     -71.737 -47.792 -75.182  0.00  0.00    -0.013 C 
ATOM      8  C3  TKT d   1     -72.862 -48.136 -74.182  0.00  0.00     0.052 C 
ATOM      9  H5  TKT d   1     -70.043 -48.853 -73.487  0.00  0.00     0.036 H 
ATOM     10  H6  TKT d   1     -68.925 -47.476 -73.200  0.00  0.00     0.036 H 
ATOM     11  H7  TKT d   1     -70.177 -46.834 -71.365  0.00  0.00     0.036 H 
ATOM     12  H8  TKT d   1     -71.284 -48.221 -71.641  0.00  0.00     0.036 H 
ATOM     13  H9  TKT d   1     -71.916 -45.742 -74.345  0.00  0.00     0.280 HD
ATOM     14  H10 TKT d   1     -72.174 -45.578 -71.889  0.00  0.00     0.084 H 
ATOM     15  H11 TKT d   1     -73.829 -46.296 -73.595  0.00  0.00     0.039 H 
ATOM     16  H12 TKT d   1     -73.699 -47.522 -72.288  0.00  0.00     0.039 H 
ATOM     17  H13 TKT d   1     -69.854 -46.712 -75.295  0.00  0.00     0.084 H 
ATOM     18  H14 TKT d   1     -71.337 -48.729 -75.597  0.00  0.00     0.039 H 
ATOM     19  H15 TKT d   1     -72.162 -47.184 -75.994  0.00  0.00     0.039 H 
ATOM     20  H16 TKT d   1     -73.775 -48.372 -74.749  0.00  0.00     0.084 H 
ENDROOT
BRANCH   8  21
ATOM     21  O3  TKT d   1     -72.446 -49.239 -73.418  0.00  0.00    -0.312 OA
BRANCH  21  22
ATOM     22  C9  TKT d   1     -72.655 -50.578 -73.923  0.00  0.00     0.296 C 
ATOM     23  O4  TKT d   1     -73.154 -50.769 -75.026  0.00  0.00    -0.259 OA
BRANCH  22  24
ATOM     24  C12 TKT d   1     -72.218 -51.600 -72.927  0.00  0.00     0.067 A 
ATOM     25  C11 TKT d   1     -71.563 -51.431 -71.728  0.00  0.00    -0.006 A 
ATOM     26  N10 TKT d   1     -71.383 -52.658 -71.142  0.00  0.00    -0.364 N 
ATOM     27  H4  TKT d   1     -71.240 -50.478 -71.312  0.00  0.00     0.112 H 
ATOM     28  C15 TKT d   1     -71.877 -53.668 -71.907  0.00  0.00     0.043 A 
ATOM     29  H20 TKT d   1     -70.927 -52.798 -70.229  0.00  0.00     0.165 HD
ATOM     30  C16 TKT d   1     -72.453 -53.064 -73.115  0.00  0.00     0.008 A 
ATOM     31  C21 TKT d   1     -71.912 -55.057 -71.766  0.00  0.00    -0.056 A 
ATOM     32  C17 TKT d   1     -73.020 -53.848 -74.095  0.00  0.00    -0.070 A 
ATOM     33  C18 TKT d   1     -73.056 -55.247 -73.901  0.00  0.00    -0.082 A 
ATOM     34  H18 TKT d   1     -73.429 -53.402 -74.994  0.00  0.00     0.084 H 
ATOM     35  C13 TKT d   1     -72.508 -55.851 -72.762  0.00  0.00    -0.081 A 
ATOM     36  H19 TKT d   1     -73.521 -55.871 -74.655  0.00  0.00     0.083 H 
ATOM     37  H17 TKT d   1     -72.543 -56.928 -72.649  0.00  0.00     0.083 H 
ATOM     38  H21 TKT d   1     -71.480 -55.523 -70.888  0.00  0.00     0.086 H 
ENDBRANCH  22  24
ENDBRANCH  21  22
ENDBRANCH   8  21
BRANCH   3  39
ATOM     39  C8  TKT d   1     -70.670 -44.553 -73.842  0.00  0.00     0.067 C 
ATOM     40  H1  TKT d   1     -71.232 -43.923 -73.137  0.00  0.00     0.068 H 
ATOM     41  H2  TKT d   1     -70.830 -44.188 -74.867  0.00  0.00     0.068 H 
ATOM     42  H3  TKT d   1     -69.598 -44.508 -73.600  0.00  0.00     0.068 H 
ENDBRANCH   3  39
TORSDOF 4
