REMARK  6 active torsions:
REMARK  status: ('A' for Active; 'I' for Inactive)
REMARK    1  A    between atoms: C7_1  and  C4_2 
REMARK    2  A    between atoms: C3_3  and  O21_4 
REMARK    3  A    between atoms: O21_4  and  C22_5 
REMARK    4  A    between atoms: C1_9  and  O20_10 
REMARK    5  A    between atoms: O20_10  and  C23_23 
REMARK    6  A    between atoms: C9_16  and  C14_17 
ROOT
ATOM      1  C7  ZY7 d   1      30.302  -6.710  62.711  0.00  0.00    -0.062 C 
ATOM      2  C8  ZY7 d   1      30.270  -5.424  62.290  0.00  0.00    -0.028 C 
ATOM      3  C13 ZY7 d   1      31.043  -4.286  62.896  0.00  0.00    -0.037 C 
ATOM      4  C12 ZY7 d   1      30.017  -3.179  63.127  0.00  0.00    -0.045 C 
ATOM      5  C11 ZY7 d   1      29.534  -2.671  61.777  0.00  0.00     0.016 C 
ATOM      6  N10 ZY7 d   1      29.069  -3.850  61.052  0.00  0.00    -0.288 NA
ATOM      7  C9  ZY7 d   1      29.428  -5.057  61.147  0.00  0.00     0.069 C 
ATOM      8  H1  ZY7 d   1      29.714  -7.423  62.135  0.00  0.00     0.085 H 
ATOM      9  H8  ZY7 d   1      31.829  -3.945  62.207  0.00  0.00     0.040 H 
ATOM     10  H9  ZY7 d   1      31.498  -4.594  63.849  0.00  0.00     0.040 H 
ATOM     11  H10 ZY7 d   1      30.482  -2.355  63.688  0.00  0.00     0.035 H 
ATOM     12  H11 ZY7 d   1      29.166  -3.577  63.699  0.00  0.00     0.035 H 
ATOM     13  H12 ZY7 d   1      30.358  -2.187  61.233  0.00  0.00     0.067 H 
ATOM     14  H13 ZY7 d   1      28.711  -1.954  61.910  0.00  0.00     0.067 H 
ENDROOT
BRANCH   1  15
ATOM     15  C4  ZY7 d   1      31.057  -7.261  63.882  0.00  0.00    -0.002 A 
ATOM     16  C3  ZY7 d   1      30.647  -8.595  64.384  0.00  0.00     0.081 A 
ATOM     17  C2  ZY7 d   1      31.319  -9.136  65.488  0.00  0.00    -0.018 A 
ATOM     18  C1  ZY7 d   1      32.354  -8.432  66.105  0.00  0.00     0.070 A 
ATOM     19  H5  ZY7 d   1      31.032 -10.111  65.866  0.00  0.00     0.092 H 
ATOM     20  C6  ZY7 d   1      32.741  -7.175  65.636  0.00  0.00    -0.050 A 
ATOM     21  C5  ZY7 d   1      32.105  -6.611  64.540  0.00  0.00    -0.068 A 
ATOM     22  H7  ZY7 d   1      33.542  -6.638  66.131  0.00  0.00     0.087 H 
ATOM     23  H6  ZY7 d   1      32.429  -5.640  64.184  0.00  0.00     0.085 H 
BRANCH  16  24
ATOM     24  O21 ZY7 d   1      29.621  -9.244  63.741  0.00  0.00    -0.355 OA
BRANCH  24  25
ATOM     25  C22 ZY7 d   1      29.190 -10.561  64.111  0.00  0.00     0.010 C 
ATOM     26  H2  ZY7 d   1      28.360 -10.872  63.459  0.00  0.00     0.066 H 
ATOM     27  H3  ZY7 d   1      28.852 -10.556  65.158  0.00  0.00     0.066 H 
ATOM     28  H4  ZY7 d   1      30.027 -11.266  63.999  0.00  0.00     0.066 H 
ENDBRANCH  24  25
ENDBRANCH  16  24
BRANCH  18  29
ATOM     29  O20 ZY7 d   1      32.982  -8.972  67.195  0.00  0.00    -0.356 OA
BRANCH  29  30
ATOM     30  C23 ZY7 d   1      33.553  -8.135  68.202  0.00  0.00     0.010 C 
ATOM     31  H18 ZY7 d   1      34.006  -8.761  68.985  0.00  0.00     0.066 H 
ATOM     32  H19 ZY7 d   1      32.767  -7.505  68.644  0.00  0.00     0.066 H 
ATOM     33  H20 ZY7 d   1      34.326  -7.495  67.752  0.00  0.00     0.066 H 
ENDBRANCH  29  30
ENDBRANCH  18  29
ENDBRANCH   1  15
BRANCH   7  34
ATOM     34  C14 ZY7 d   1      28.998  -5.984  60.043  0.00  0.00     0.010 A 
ATOM     35  C19 ZY7 d   1      27.653  -6.119  59.762  0.00  0.00     0.014 A 
ATOM     36  N18 ZY7 d   1      27.181  -6.887  58.776  0.00  0.00    -0.272 NA
ATOM     37  H14 ZY7 d   1      26.943  -5.574  60.373  0.00  0.00     0.116 H 
ATOM     38  C17 ZY7 d   1      28.028  -7.560  57.996  0.00  0.00     0.002 A 
ATOM     39  C16 ZY7 d   1      29.404  -7.449  58.209  0.00  0.00    -0.065 A 
ATOM     40  H15 ZY7 d   1      27.650  -8.191  57.200  0.00  0.00     0.114 H 
ATOM     41  C15 ZY7 d   1      29.894  -6.655  59.240  0.00  0.00    -0.068 A 
ATOM     42  H16 ZY7 d   1      30.094  -7.985  57.567  0.00  0.00     0.085 H 
ATOM     43  H17 ZY7 d   1      30.961  -6.566  59.409  0.00  0.00     0.085 H 
ENDBRANCH   7  34
TORSDOF 6
