REMARK  3 active torsions:
REMARK  status: ('A' for Active; 'I' for Inactive)
REMARK    1  A    between atoms: C1_1  and  N_9 
REMARK    2  A    between atoms: N_9  and  C11_13 
REMARK    3  A    between atoms: C9_11  and  S_10 
ROOT
ATOM      1  C1  2AN d   1       2.742   5.473   7.017  0.00  0.00     0.045 A 
ATOM      2  C2  2AN d   1       4.079   5.685   7.437  0.00  0.00    -0.056 A 
ATOM      3  C3  2AN d   1       5.189   5.866   6.531  0.00  0.00    -0.080 A 
ATOM      4  C4  2AN d   1       4.882   5.811   5.189  0.00  0.00    -0.072 A 
ATOM      5  C5  2AN d   1       3.589   5.629   4.696  0.00  0.00    -0.022 A 
ATOM      6  C6  2AN d   1       3.339   5.616   3.295  0.00  0.00    -0.072 A 
ATOM      7  C7  2AN d   1       2.038   5.409   2.808  0.00  0.00    -0.081 A 
ATOM      8  C8  2AN d   1       0.844   5.263   3.622  0.00  0.00    -0.058 A 
ATOM      9  C9  2AN d   1       1.005   5.326   5.009  0.00  0.00     0.094 A 
ATOM     10  C10 2AN d   1       2.397   5.445   5.591  0.00  0.00     0.025 A 
ATOM     11  H1  2AN d   1       4.280   5.713   8.502  0.00  0.00     0.086 H 
ATOM     12  H2  2AN d   1       6.200   6.035   6.885  0.00  0.00     0.083 H 
ATOM     13  H3  2AN d   1       5.691   5.915   4.475  0.00  0.00     0.084 H 
ATOM     14  H4  2AN d   1       4.157   5.767   2.600  0.00  0.00     0.084 H 
ATOM     15  H5  2AN d   1       1.914   5.353   1.732  0.00  0.00     0.083 H 
ATOM     16  H6  2AN d   1      -0.131   5.112   3.173  0.00  0.00     0.086 H 
ENDROOT
BRANCH   1  17
ATOM     17  N   2AN d   1       1.735   5.192   7.983  0.00  0.00    -0.355 N 
ATOM     18  H7  2AN d   1       1.194   4.327   7.840  0.00  0.00     0.166 HD
BRANCH  17  19
ATOM     19  C11 2AN d   1       1.410   5.929   9.063  0.00  0.00     0.032 A 
ATOM     20  C12 2AN d   1       0.546   5.247   9.996  0.00  0.00    -0.057 A 
ATOM     21  C13 2AN d   1       0.229   6.001  11.200  0.00  0.00    -0.081 A 
ATOM     22  H8  2AN d   1       0.162   4.250   9.814  0.00  0.00     0.086 H 
ATOM     23  C14 2AN d   1       0.659   7.302  11.302  0.00  0.00    -0.083 A 
ATOM     24  H9  2AN d   1      -0.337   5.543  12.003  0.00  0.00     0.083 H 
ATOM     25  C15 2AN d   1       1.498   7.974  10.341  0.00  0.00    -0.081 A 
ATOM     26  H10 2AN d   1       0.343   7.867  12.172  0.00  0.00     0.083 H 
ATOM     27  C16 2AN d   1       1.887   7.227   9.194  0.00  0.00    -0.057 A 
ATOM     28  H11 2AN d   1       1.817   9.000  10.485  0.00  0.00     0.083 H 
ATOM     29  H12 2AN d   1       2.538   7.659   8.443  0.00  0.00     0.086 H 
ENDBRANCH  17  19
ENDBRANCH   1  17
BRANCH   9  30
ATOM     30  S   2AN d   1      -0.446   5.338   5.899  0.00  0.00     0.138 S 
ATOM     31  O1  2AN d   1      -1.595   5.445   4.936  0.00  0.00    -0.591 OA
ATOM     32  O2  2AN d   1      -0.424   6.594   6.602  0.00  0.00    -0.591 OA
ATOM     33  O3  2AN d   1      -0.604   4.170   6.798  0.00  0.00    -0.591 OA
ENDBRANCH   9  30
TORSDOF 3
