REMARK  3 active torsions:
REMARK  status: ('A' for Active; 'I' for Inactive)
REMARK    1  A    between atoms: C14_5  and  S_6 
REMARK    2  A    between atoms: C9_14  and  N_15 
REMARK    3  A    between atoms: N_15  and  C6_16 
ROOT
ATOM      1  C7  6AN d   1      21.743  20.051   3.632  0.00  0.00    -0.046 A 
ATOM      2  C8  6AN d   1      23.101  20.428   3.397  0.00  0.00    -0.024 A 
ATOM      3  C16 6AN d   1      23.642  20.816   2.097  0.00  0.00    -0.071 A 
ATOM      4  C15 6AN d   1      24.978  21.109   1.909  0.00  0.00    -0.059 A 
ATOM      5  C14 6AN d   1      25.792  21.055   3.094  0.00  0.00     0.081 A 
ATOM      6  C13 6AN d   1      25.269  20.754   4.378  0.00  0.00    -0.049 A 
ATOM      7  C12 6AN d   1      23.931  20.417   4.525  0.00  0.00    -0.024 A 
ATOM      8  C11 6AN d   1      23.388  20.124   5.814  0.00  0.00    -0.070 A 
ATOM      9  C10 6AN d   1      22.053  19.814   6.062  0.00  0.00    -0.056 A 
ATOM     10  C9  6AN d   1      21.209  19.734   4.933  0.00  0.00     0.033 A 
ATOM     11  H1  6AN d   1      21.074  20.000   2.781  0.00  0.00     0.088 H 
ATOM     12  H2  6AN d   1      22.970  20.876   1.249  0.00  0.00     0.084 H 
ATOM     13  H3  6AN d   1      25.385  21.362   0.937  0.00  0.00     0.086 H 
ATOM     14  H4  6AN d   1      25.916  20.787   5.247  0.00  0.00     0.087 H 
ATOM     15  H5  6AN d   1      24.065  20.145   6.661  0.00  0.00     0.084 H 
ATOM     16  H6  6AN d   1      21.682  19.644   7.066  0.00  0.00     0.086 H 
ENDROOT
BRANCH  10  17
ATOM     17  N   6AN d   1      19.975  19.448   5.192  0.00  0.00    -0.356 N 
ATOM     18  H7  6AN d   1      19.657  19.538   6.168  0.00  0.00     0.166 HD
BRANCH  17  19
ATOM     19  C6  6AN d   1      19.014  19.012   4.212  0.00  0.00     0.032 A 
ATOM     20  C1  6AN d   1      17.608  19.171   4.366  0.00  0.00    -0.057 A 
ATOM     21  C2  6AN d   1      16.598  18.775   3.493  0.00  0.00    -0.081 A 
ATOM     22  H8  6AN d   1      17.283  19.662   5.276  0.00  0.00     0.086 H 
ATOM     23  C3  6AN d   1      16.946  18.128   2.320  0.00  0.00    -0.083 A 
ATOM     24  H9  6AN d   1      15.558  18.970   3.728  0.00  0.00     0.083 H 
ATOM     25  C4  6AN d   1      18.338  17.936   2.072  0.00  0.00    -0.081 A 
ATOM     26  H10 6AN d   1      16.194  17.782   1.620  0.00  0.00     0.083 H 
ATOM     27  C5  6AN d   1      19.352  18.327   3.021  0.00  0.00    -0.057 A 
ATOM     28  H11 6AN d   1      18.645  17.480   1.137  0.00  0.00     0.083 H 
ATOM     29  H12 6AN d   1      20.391  18.092   2.818  0.00  0.00     0.086 H 
ENDBRANCH  17  19
ENDBRANCH  10  17
BRANCH   5  30
ATOM     30  S   6AN d   1      27.497  21.409   2.934  0.00  0.00     0.137 S 
ATOM     31  O3  6AN d   1      27.705  22.481   1.849  0.00  0.00    -0.591 OA
ATOM     32  O1  6AN d   1      28.141  20.161   2.317  0.00  0.00    -0.591 OA
ATOM     33  O2  6AN d   1      28.147  21.715   4.293  0.00  0.00    -0.591 OA
ENDBRANCH   5  30
TORSDOF 3
