REMARK  11 active torsions:
REMARK  status: ('A' for Active; 'I' for Inactive)
REMARK       I    between atoms: C21_2  and  N2_3 
REMARK    1  A    between atoms: C21_2  and  C2_4 
REMARK    2  A    between atoms: C3_7  and  O2_8 
REMARK    3  A    between atoms: C4_9  and  N1_10 
REMARK    4  A    between atoms: N1_10  and  C20_11 
REMARK    5  A    between atoms: N1_10  and  C19_12 
REMARK    6  A    between atoms: C18_14  and  O7_15 
REMARK    7  A    between atoms: C17_16  and  O6_17 
REMARK    8  A    between atoms: C13_26  and  O4_27 
REMARK    9  A    between atoms: C10_30  and  N7_31 
REMARK   10  A    between atoms: N7_31  and  CN7_32 
REMARK   11  A    between atoms: N7_31  and  C71_33 
ROOT
ATOM      1  C2  MIY d   1     -13.604  15.254  15.825  0.00  0.00     0.111 C 
ATOM      2  C1  MIY d   1     -14.817  14.963  16.564  0.00  0.00     0.183 C 
ATOM      3  O1  MIY d   1     -15.711  15.774  16.712  0.00  0.00    -0.293 OA
ATOM      4  C3  MIY d   1     -13.232  14.345  14.944  0.00  0.00     0.082 C 
ATOM      5  C4  MIY d   1     -13.482  12.869  15.185  0.00  0.00     0.135 C 
ATOM      6  C5  MIY d   1     -14.758  12.584  15.982  0.00  0.00     0.020 C 
ATOM      7  C18 MIY d   1     -14.931  13.576  17.112  0.00  0.00     0.173 C 
ATOM      8  C17 MIY d   1     -16.248  13.422  17.817  0.00  0.00     0.096 C 
ATOM      9  C16 MIY d   1     -17.265  12.743  17.274  0.00  0.00     0.030 C 
ATOM     10  C7  MIY d   1     -17.176  12.049  15.934  0.00  0.00    -0.018 C 
ATOM     11  C6  MIY d   1     -15.999  12.549  15.099  0.00  0.00    -0.049 C 
ATOM     12  C15 MIY d   1     -18.513  12.637  18.016  0.00  0.00     0.194 C 
ATOM     13  O5  MIY d   1     -18.612  13.184  19.161  0.00  0.00    -0.287 OA
ATOM     14  C14 MIY d   1     -19.662  11.933  17.364  0.00  0.00     0.056 A 
ATOM     15  C9  MIY d   1     -19.644  11.715  15.988  0.00  0.00    -0.019 A 
ATOM     16  C8  MIY d   1     -18.473  12.227  15.165  0.00  0.00    -0.031 C 
ATOM     17  C13 MIY d   1     -20.722  11.466  18.131  0.00  0.00     0.080 A 
ATOM     18  C12 MIY d   1     -21.779  10.795  17.509  0.00  0.00    -0.048 A 
ATOM     19  C11 MIY d   1     -21.772  10.591  16.133  0.00  0.00    -0.059 A 
ATOM     20  C10 MIY d   1     -20.695  11.047  15.360  0.00  0.00     0.017 A 
ATOM     21  H3  MIY d   1     -12.919  14.931  16.622  0.00  0.00     0.070 H 
ATOM     22  H4  MIY d   1     -12.176  14.317  15.250  0.00  0.00     0.088 H 
ATOM     23  H6  MIY d   1     -13.635  12.386  14.209  0.00  0.00     0.089 H 
ATOM     24  H14 MIY d   1     -14.646  11.586  16.430  0.00  0.00     0.049 H 
ATOM     25  H17 MIY d   1     -17.028  10.975  16.119  0.00  0.00     0.048 H 
ATOM     26  H18 MIY d   1     -15.831  11.869  14.251  0.00  0.00     0.034 H 
ATOM     27  H19 MIY d   1     -16.215  13.560  14.722  0.00  0.00     0.034 H 
ATOM     28  H20 MIY d   1     -18.417  11.663  14.222  0.00  0.00     0.041 H 
ATOM     29  H21 MIY d   1     -18.622  13.294  14.945  0.00  0.00     0.041 H 
ATOM     30  H23 MIY d   1     -22.610  10.431  18.103  0.00  0.00     0.087 H 
ATOM     31  H24 MIY d   1     -22.601  10.079  15.658  0.00  0.00     0.086 H 
ENDROOT
BRANCH   5  32
ATOM     32  N1  MIY d   1     -12.188  12.360  15.729  0.00  0.00    -0.072 N 
ATOM     33  H7  MIY d   1     -11.466  12.634  15.081  0.00  0.00     0.279 HD
BRANCH  32  34
ATOM     34  C20 MIY d   1     -12.250  10.889  15.792  0.00  0.00     0.066 C 
ATOM     35  H8  MIY d   1     -11.302  10.499  16.192  0.00  0.00     0.068 H 
ATOM     36  H9  MIY d   1     -12.416  10.485  14.782  0.00  0.00     0.068 H 
ATOM     37  H10 MIY d   1     -13.078  10.585  16.449  0.00  0.00     0.068 H 
ENDBRANCH  32  34
BRANCH  32  38
ATOM     38  C19 MIY d   1     -11.783  12.830  17.064  0.00  0.00     0.066 C 
ATOM     39  H11 MIY d   1     -11.723  13.928  17.064  0.00  0.00     0.068 H 
ATOM     40  H12 MIY d   1     -10.799  12.410  17.318  0.00  0.00     0.068 H 
ATOM     41  H13 MIY d   1     -12.524  12.503  17.808  0.00  0.00     0.068 H 
ENDBRANCH  32  38
ENDBRANCH   5  32
BRANCH   4  42
ATOM     42  O2  MIY d   1     -13.012  14.787  13.714  0.00  0.00    -0.392 OA
ATOM     43  H5  MIY d   1     -12.751  14.061  13.160  0.00  0.00     0.210 HD
ENDBRANCH   4  42
BRANCH   1  44
ATOM     44  C21 MIY d   1     -13.047  16.600  15.724  0.00  0.00     0.229 C 
ATOM     45  O8  MIY d   1     -13.709  17.504  15.170  0.00  0.00    -0.273 OA
ATOM     46  N2  MIY d   1     -11.829  16.856  16.209  0.00  0.00    -0.369 N 
ATOM     47  H1  MIY d   1     -11.304  16.129  16.651  0.00  0.00     0.159 HD
ATOM     48  H2  MIY d   1     -11.442  17.775  16.130  0.00  0.00     0.159 HD
ENDBRANCH   1  44
BRANCH   7  49
ATOM     49  O7  MIY d   1     -13.871  13.347  18.032  0.00  0.00    -0.375 OA
ATOM     50  H15 MIY d   1     -13.947  13.954  18.759  0.00  0.00     0.211 HD
ENDBRANCH   7  49
BRANCH   8  51
ATOM     51  O6  MIY d   1     -16.357  14.015  19.004  0.00  0.00    -0.361 OA
ATOM     52  H16 MIY d   1     -17.224  13.855  19.358  0.00  0.00     0.217 HD
ENDBRANCH   8  51
BRANCH  20  53
ATOM     53  N7  MIY d   1     -20.656  10.858  13.962  0.00  0.00    -0.291 NA
BRANCH  53  54
ATOM     54  CN7 MIY d   1     -20.982  12.114  13.292  0.00  0.00    -0.029 C 
ATOM     55  H25 MIY d   1     -20.952  11.967  12.202  0.00  0.00     0.048 H 
ATOM     56  H26 MIY d   1     -20.250  12.883  13.579  0.00  0.00     0.048 H 
ATOM     57  H27 MIY d   1     -21.990  12.438  13.590  0.00  0.00     0.048 H 
ENDBRANCH  53  54
BRANCH  53  58
ATOM     58  C71 MIY d   1     -21.586   9.845  13.476  0.00  0.00    -0.029 C 
ATOM     59  H28 MIY d   1     -21.367   8.883  13.963  0.00  0.00     0.048 H 
ATOM     60  H29 MIY d   1     -21.476   9.738  12.387  0.00  0.00     0.048 H 
ATOM     61  H30 MIY d   1     -22.616  10.149  13.712  0.00  0.00     0.048 H 
ENDBRANCH  53  58
ENDBRANCH  20  53
BRANCH  17  62
ATOM     62  O4  MIY d   1     -20.744  11.673  19.446  0.00  0.00    -0.360 OA
ATOM     63  H22 MIY d   1     -20.733  12.607  19.619  0.00  0.00     0.217 HD
ENDBRANCH  17  62
TORSDOF 11
