REMARK  11 active torsions:
REMARK  status: ('A' for Active; 'I' for Inactive)
REMARK    1  A    between atoms: N_1  and  CA_2 
REMARK    2  A    between atoms: CA_2  and  CB_3 
REMARK    3  A    between atoms: CA_2  and  C_6 
REMARK    4  A    between atoms: CB_3  and  CG_4 
REMARK    5  A    between atoms: CG_4  and  SD_5 
REMARK    6  A    between atoms: SD_5  and  C5'_9 
REMARK    7  A    between atoms: C5'_9  and  C4'_10 
REMARK    8  A    between atoms: C3'_12  and  O3'_13 
REMARK    9  A    between atoms: C2'_14  and  O2'_15 
REMARK   10  A    between atoms: C1'_16  and  N9_17 
REMARK   11  A    between atoms: C6_21  and  N6_22 
ROOT
ATOM      1  C4' SAH d   1      14.419 -48.251   5.261  0.00  0.00     0.076 C 
ATOM      2  O4' SAH d   1      15.173 -47.875   6.433  0.00  0.00    -0.355 OA
ATOM      3  C3' SAH d   1      12.950 -48.105   5.699  0.00  0.00     0.090 C 
ATOM      4  C2' SAH d   1      13.022 -48.330   7.232  0.00  0.00     0.105 C 
ATOM      5  C1' SAH d   1      14.537 -48.489   7.543  0.00  0.00     0.139 C 
ATOM      6  H11 SAH d   1      14.635 -49.286   4.958  0.00  0.00     0.088 H 
ATOM      7  H12 SAH d   1      12.575 -47.094   5.481  0.00  0.00     0.091 H 
ATOM      8  H14 SAH d   1      12.613 -47.462   7.770  0.00  0.00     0.093 H 
ATOM      9  H16 SAH d   1      14.837 -49.536   7.698  0.00  0.00     0.122 H 
ENDROOT
BRANCH   1  10
ATOM     10  C5' SAH d   1      14.766 -47.307   4.141  0.00  0.00     0.003 C 
ATOM     11  H9  SAH d   1      15.823 -47.476   3.886  0.00  0.00     0.052 H 
ATOM     12  H10 SAH d   1      14.134 -47.573   3.281  0.00  0.00     0.052 H 
BRANCH  10  13
ATOM     13  SD  SAH d   1      14.558 -45.519   4.434  0.00  0.00    -0.166 SA
BRANCH  13  14
ATOM     14  CG  SAH d   1      16.290 -45.038   4.919  0.00  0.00    -0.021 C 
ATOM     15  H7  SAH d   1      16.678 -45.759   5.654  0.00  0.00     0.049 H 
ATOM     16  H8  SAH d   1      16.934 -45.040   4.027  0.00  0.00     0.049 H 
BRANCH  14  17
ATOM     17  CB  SAH d   1      16.279 -43.640   5.535  0.00  0.00    -0.021 C 
ATOM     18  H5  SAH d   1      15.936 -42.928   4.770  0.00  0.00     0.037 H 
ATOM     19  H6  SAH d   1      15.573 -43.640   6.379  0.00  0.00     0.037 H 
BRANCH  17  20
ATOM     20  CA  SAH d   1      17.673 -43.164   6.060  0.00  0.00     0.183 C 
ATOM     21  H4  SAH d   1      18.193 -44.012   6.529  0.00  0.00     0.101 H 
BRANCH  20  22
ATOM     22  N   SAH d   1      17.503 -42.096   7.068  0.00  0.00    -0.065 N 
ATOM     23  H1  SAH d   1      16.959 -42.447   7.841  0.00  0.00     0.275 HD
ATOM     24  H2  SAH d   1      17.027 -41.312   6.650  0.00  0.00     0.275 HD
ATOM     25  H3  SAH d   1      18.408 -41.801   7.401  0.00  0.00     0.275 HD
ENDBRANCH  20  22
BRANCH  20  26
ATOM     26  C   SAH d   1      18.489 -42.676   4.877  0.00  0.00     0.204 C 
ATOM     27  O   SAH d   1      18.571 -41.445   4.654  0.00  0.00    -0.646 OA
ATOM     28  OXT SAH d   1      19.041 -43.562   4.193  0.00  0.00    -0.646 OA
ENDBRANCH  20  26
ENDBRANCH  17  20
ENDBRANCH  14  17
ENDBRANCH  13  14
ENDBRANCH  10  13
ENDBRANCH   1  10
BRANCH   3  29
ATOM     29  O3' SAH d   1      12.132 -49.051   5.020  0.00  0.00    -0.390 OA
ATOM     30  H13 SAH d   1      11.230 -48.948   5.301  0.00  0.00     0.210 HD
ENDBRANCH   3  29
BRANCH   5  31
ATOM     31  N9  SAH d   1      14.858 -47.620   8.712  0.00  0.00    -0.294 N 
ATOM     32  C8  SAH d   1      14.821 -46.261   8.753  0.00  0.00     0.071 A 
ATOM     33  N7  SAH d   1      15.172 -45.833   9.988  0.00  0.00    -0.236 NA
ATOM     34  H17 SAH d   1      14.550 -45.615   7.919  0.00  0.00     0.144 H 
ATOM     35  C5  SAH d   1      15.450 -46.932  10.712  0.00  0.00     0.149 A 
ATOM     36  C6  SAH d   1      15.861 -47.098  12.041  0.00  0.00     0.155 A 
ATOM     37  C4  SAH d   1      15.281 -48.054   9.894  0.00  0.00     0.167 A 
ATOM     38  N1  SAH d   1      16.082 -48.350  12.482  0.00  0.00    -0.222 NA
ATOM     39  C2  SAH d   1      15.906 -49.419  11.679  0.00  0.00     0.091 A 
ATOM     40  N3  SAH d   1      15.538 -49.308  10.386  0.00  0.00    -0.222 NA
ATOM     41  H20 SAH d   1      16.067 -50.409  12.090  0.00  0.00     0.146 H 
BRANCH  36  42
ATOM     42  N6  SAH d   1      16.019 -46.027  12.876  0.00  0.00    -0.382 N 
ATOM     43  H18 SAH d   1      16.322 -46.173  13.850  0.00  0.00     0.157 HD
ATOM     44  H19 SAH d   1      15.835 -45.074  12.532  0.00  0.00     0.157 HD
ENDBRANCH  36  42
ENDBRANCH   5  31
BRANCH   4  45
ATOM     45  O2' SAH d   1      12.276 -49.502   7.592  0.00  0.00    -0.388 OA
ATOM     46  H15 SAH d   1      11.368 -49.390   7.334  0.00  0.00     0.210 HD
ENDBRANCH   4  45
TORSDOF 11
