REMARK  9 active torsions:
REMARK  status: ('A' for Active; 'I' for Inactive)
REMARK    1  A    between atoms: C01_1  and  C02_2 
REMARK    2  A    between atoms: C02_2  and  C03_3 
REMARK    3  A    between atoms: C02_2  and  C10_10 
REMARK    4  A    between atoms: C04_4  and  C05_5 
REMARK    5  A    between atoms: C05_5  and  C07_7 
REMARK    6  A    between atoms: C10_10  and  C12_12 
REMARK    7  A    between atoms: C12_12  and  C13_13 
REMARK    8  A    between atoms: C13_13  and  C14_14 
REMARK    9  A    between atoms: C20_20  and  C21_21 
ROOT
ATOM      1  C14 KEM d   1      13.188 -40.760   6.671  0.00  0.00     0.009 C 
ATOM      2  C15 KEM d   1      13.178 -40.556   5.086  0.00  0.00    -0.030 C 
ATOM      3  C16 KEM d   1      13.617 -39.135   4.685  0.00  0.00    -0.054 C 
ATOM      4  C17 KEM d   1      14.208 -39.217   3.268  0.00  0.00    -0.009 C 
ATOM      5  C18 KEM d   1      14.877 -40.589   3.190  0.00  0.00     0.135 C 
ATOM      6  O19 KEM d   1      15.342 -41.098   2.226  0.00  0.00    -0.297 OA
ATOM      7  C20 KEM d   1      14.269 -41.408   4.318  0.00  0.00     0.021 C 
ATOM      8  C22 KEM d   1      15.383 -41.821   5.251  0.00  0.00    -0.045 C 
ATOM      9  C23 KEM d   1      14.672 -42.843   6.111  0.00  0.00    -0.008 C 
ATOM     10  C24 KEM d   1      13.843 -42.053   7.081  0.00  0.00     0.131 C 
ATOM     11  O25 KEM d   1      13.543 -42.540   8.088  0.00  0.00    -0.298 OA
ATOM     12  H11 KEM d   1      13.795 -39.923   7.047  0.00  0.00     0.052 H 
ATOM     13  H12 KEM d   1      12.169 -40.783   4.711  0.00  0.00     0.043 H 
ATOM     14  H13 KEM d   1      14.377 -38.764   5.388  0.00  0.00     0.034 H 
ATOM     15  H14 KEM d   1      12.750 -38.458   4.692  0.00  0.00     0.034 H 
ATOM     16  H15 KEM d   1      14.948 -38.418   3.112  0.00  0.00     0.044 H 
ATOM     17  H16 KEM d   1      13.412 -39.133   2.513  0.00  0.00     0.044 H 
ATOM     18  H20 KEM d   1      15.746 -40.972   5.849  0.00  0.00     0.035 H 
ATOM     19  H21 KEM d   1      16.224 -42.269   4.702  0.00  0.00     0.035 H 
ATOM     20  H22 KEM d   1      15.402 -43.466   6.649  0.00  0.00     0.044 H 
ATOM     21  H23 KEM d   1      14.029 -43.485   5.491  0.00  0.00     0.044 H 
ENDROOT
BRANCH   1  22
ATOM     22  C13 KEM d   1      11.886 -40.793   7.555  0.00  0.00    -0.049 C 
ATOM     23  H9  KEM d   1      11.284 -39.890   7.375  0.00  0.00     0.034 H 
ATOM     24  H10 KEM d   1      11.289 -41.686   7.316  0.00  0.00     0.034 H 
BRANCH  22  25
ATOM     25  C12 KEM d   1      12.353 -40.841   9.059  0.00  0.00    -0.008 C 
ATOM     26  H7  KEM d   1      13.277 -41.438   9.082  0.00  0.00     0.044 H 
ATOM     27  H8  KEM d   1      12.579 -39.805   9.351  0.00  0.00     0.044 H 
BRANCH  25  28
ATOM     28  C10 KEM d   1      11.411 -41.427  10.172  0.00  0.00     0.134 C 
ATOM     29  O11 KEM d   1      11.795 -41.822  11.199  0.00  0.00    -0.297 OA
BRANCH  28  30
ATOM     30  C02 KEM d   1      10.002 -40.872  10.210  0.00  0.00     0.017 C 
ATOM     31  H4  KEM d   1       9.423 -41.579   9.598  0.00  0.00     0.057 H 
BRANCH  30  32
ATOM     32  C01 KEM d   1       9.852 -39.536   9.471  0.00  0.00    -0.063 C 
ATOM     33  H1  KEM d   1       8.809 -39.194   9.539  0.00  0.00     0.028 H 
ATOM     34  H2  KEM d   1      10.126 -39.669   8.414  0.00  0.00     0.028 H 
ATOM     35  H3  KEM d   1      10.514 -38.787   9.930  0.00  0.00     0.028 H 
ENDBRANCH  30  32
BRANCH  30  36
ATOM     36  C03 KEM d   1       9.317 -40.938  11.583  0.00  0.00    -0.088 C 
ATOM     37  C04 KEM d   1       9.358 -39.841  12.342  0.00  0.00    -0.030 C 
ATOM     38  H6  KEM d   1       9.793 -38.938  11.916  0.00  0.00     0.089 H 
ATOM     39  H5  KEM d   1       8.818 -41.844  11.924  0.00  0.00     0.078 H 
BRANCH  37  40
ATOM     40  C05 KEM d   1       8.829 -39.780  13.777  0.00  0.00     0.247 C 
ATOM     41  O06 KEM d   1       8.771 -40.794  14.367  0.00  0.00    -0.281 OA
BRANCH  40  42
ATOM     42  C07 KEM d   1       8.436 -38.438  14.435  0.00  0.00     0.251 C 
ATOM     43  O08 KEM d   1       8.116 -37.291  13.720  0.00  0.00    -0.642 OA
ATOM     44  O09 KEM d   1       8.825 -38.185  15.508  0.00  0.00    -0.642 OA
ENDBRANCH  40  42
ENDBRANCH  37  40
ENDBRANCH  30  36
ENDBRANCH  28  30
ENDBRANCH  25  28
ENDBRANCH  22  25
ENDBRANCH   1  22
BRANCH   7  45
ATOM     45  C21 KEM d   1      13.793 -42.762   3.723  0.00  0.00    -0.062 C 
ATOM     46  H17 KEM d   1      14.636 -43.257   3.218  0.00  0.00     0.029 H 
ATOM     47  H18 KEM d   1      12.986 -42.580   2.998  0.00  0.00     0.029 H 
ATOM     48  H19 KEM d   1      13.420 -43.407   4.532  0.00  0.00     0.029 H 
ENDBRANCH   7  45
TORSDOF 9
