REMARK  5 active torsions:
REMARK  status: ('A' for Active; 'I' for Inactive)
REMARK    1  A    between atoms: C4_1  and  O4_2 
REMARK    2  A    between atoms: C3_3  and  O3_4 
REMARK    3  A    between atoms: C2_5  and  O2_6 
REMARK    4  A    between atoms: C5_14  and  C6_15 
REMARK    5  A    between atoms: C6_15  and  O6_16 
ROOT
ATOM      1  C4  KIF d   1     -15.162 -21.794  47.185  0.00  0.00     0.084 C 
ATOM      2  C3  KIF d   1     -15.379 -20.273  47.429  0.00  0.00     0.090 C 
ATOM      3  C2  KIF d   1     -14.038 -19.543  47.707  0.00  0.00     0.099 C 
ATOM      4  C1  KIF d   1     -12.871 -20.276  47.048  0.00  0.00     0.111 A 
ATOM      5  N9  KIF d   1     -11.584 -19.546  47.308  0.00  0.00    -0.329 N 
ATOM      6  C8  KIF d   1     -10.919 -20.201  48.288  0.00  0.00     0.311 A 
ATOM      7  O8  KIF d   1      -9.829 -19.892  48.791  0.00  0.00    -0.262 OA
ATOM      8  C7  KIF d   1     -11.640 -21.341  48.672  0.00  0.00     0.313 A 
ATOM      9  O7  KIF d   1     -11.280 -22.110  49.561  0.00  0.00    -0.262 OA
ATOM     10  N   KIF d   1     -12.805 -21.479  47.883  0.00  0.00    -0.311 N 
ATOM     11  C5  KIF d   1     -13.965 -22.384  47.964  0.00  0.00     0.064 C 
ATOM     12  H1  KIF d   1     -14.999 -21.955  46.109  0.00  0.00     0.090 H 
ATOM     13  H3  KIF d   1     -16.016 -20.160  48.319  0.00  0.00     0.091 H 
ATOM     14  H5  KIF d   1     -13.868 -19.552  48.794  0.00  0.00     0.093 H 
ATOM     15  H7  KIF d   1     -13.031 -20.474  45.978  0.00  0.00     0.111 H 
ATOM     16  H8  KIF d   1     -11.273 -18.720  46.839  0.00  0.00     0.165 HD
ATOM     17  H9  KIF d   1     -14.262 -22.450  49.021  0.00  0.00     0.080 H 
ENDROOT
BRANCH  11  18
ATOM     18  C6  KIF d   1     -13.604 -23.794  47.510  0.00  0.00     0.038 C 
ATOM     19  H10 KIF d   1     -14.479 -24.456  47.596  0.00  0.00     0.077 H 
ATOM     20  H11 KIF d   1     -12.782 -24.191  48.124  0.00  0.00     0.077 H 
BRANCH  18  21
ATOM     21  O6  KIF d   1     -13.198 -23.694  46.155  0.00  0.00    -0.399 OA
ATOM     22  H12 KIF d   1     -13.913 -23.344  45.636  0.00  0.00     0.209 HD
ENDBRANCH  18  21
ENDBRANCH  11  18
BRANCH   1  23
ATOM     23  O4  KIF d   1     -16.311 -22.488  47.602  0.00  0.00    -0.391 OA
ATOM     24  H2  KIF d   1     -17.061 -22.185  47.103  0.00  0.00     0.210 HD
ENDBRANCH   1  23
BRANCH   2  25
ATOM     25  O3  KIF d   1     -16.068 -19.668  46.300  0.00  0.00    -0.390 OA
ATOM     26  H4  KIF d   1     -16.913 -20.086  46.185  0.00  0.00     0.210 HD
ENDBRANCH   2  25
BRANCH   3  27
ATOM     27  O2  KIF d   1     -14.107 -18.182  47.290  0.00  0.00    -0.389 OA
ATOM     28  H6  KIF d   1     -13.277 -17.755  47.469  0.00  0.00     0.210 HD
ENDBRANCH   3  27
TORSDOF 5
