REMARK  13 active torsions:
REMARK  status: ('A' for Active; 'I' for Inactive)
REMARK    1  A    between atoms: O2_20  and  C1_1 
REMARK    2  A    between atoms: C2_2  and  O2_7 
REMARK    3  A    between atoms: C3_3  and  O3_8 
REMARK    4  A    between atoms: C4_4  and  O4_9 
REMARK    5  A    between atoms: C5_5  and  C6_6 
REMARK    6  A    between atoms: C6_6  and  O6_11 
REMARK    7  A    between atoms: C1_12  and  O1_19 
REMARK    8  A    between atoms: C2_13  and  O2_20 
REMARK    9  A    between atoms: C3_14  and  O3_21 
REMARK   10  A    between atoms: C4_15  and  O4_22 
REMARK   11  A    between atoms: C5_16  and  C6_17 
REMARK   12  A    between atoms: C6_17  and  O6_24 
REMARK   13  A    between atoms: O1_19  and  C7_18 
ROOT
ATOM      1  H12 GLA d   1      13.873  18.099  79.696  0.00  0.00     0.133 H 
ATOM      2  H13 GLA d   1      13.904  15.990  77.494  0.00  0.00     0.095 H 
ATOM      3  H14 GLA d   1      11.447  16.758  79.102  0.00  0.00     0.091 H 
ATOM      4  H15 GLA d   1      11.605  14.871  80.519  0.00  0.00     0.091 H 
ATOM      5  H16 GLA d   1      12.977  16.770  81.265  0.00  0.00     0.090 H 
ATOM      6  C1  MBG d   1      14.358  17.260  79.175  0.00  0.00     0.158 C 
ATOM      7  C2  MBG d   1      13.361  16.700  78.135  0.00  0.00     0.116 C 
ATOM      8  C3  MBG d   1      12.157  15.991  78.760  0.00  0.00     0.092 C 
ATOM      9  C4  MBG d   1      12.520  15.122  79.963  0.00  0.00     0.090 C 
ATOM     10  C5  MBG d   1      13.479  15.863  80.897  0.00  0.00     0.089 C 
ATOM     11  O5  MBG d   1      14.641  16.237  80.144  0.00  0.00    -0.349 OA
ENDROOT
BRANCH   7  12
ATOM     12  O2  MBG d   1      12.805  17.739  77.333  0.00  0.00    -0.346 OA
BRANCH  12  13
ATOM     13  C1  GLA d   1      13.633  18.110  76.182  0.00  0.00     0.159 C 
ATOM     14  C2  GLA d   1      13.000  19.373  75.630  0.00  0.00     0.110 C 
ATOM     15  C3  GLA d   1      11.717  19.037  74.880  0.00  0.00     0.092 C 
ATOM     16  H2  GLA d   1      13.701  19.853  74.931  0.00  0.00     0.094 H 
ATOM     17  C4  GLA d   1      12.030  18.027  73.782  0.00  0.00     0.090 C 
ATOM     18  H3  GLA d   1      10.985  18.606  75.579  0.00  0.00     0.091 H 
ATOM     19  C5  GLA d   1      12.706  16.773  74.350  0.00  0.00     0.089 C 
ATOM     20  H4  GLA d   1      11.092  17.721  73.297  0.00  0.00     0.091 H 
ATOM     21  O5  GLA d   1      13.793  17.074  75.218  0.00  0.00    -0.348 OA
ATOM     22  H5  GLA d   1      11.948  16.208  74.911  0.00  0.00     0.090 H 
ATOM     23  H1  GLA d   1      14.641  18.358  76.547  0.00  0.00     0.133 H 
BRANCH  14  24
ATOM     24  O2  GLA d   1      12.745  20.252  76.699  0.00  0.00    -0.388 OA
ATOM     25  H8  GLA d   1      13.559  20.445  77.149  0.00  0.00     0.210 HD
ENDBRANCH  14  24
BRANCH  15  26
ATOM     26  O3  GLA d   1      11.180  20.217  74.300  0.00  0.00    -0.390 OA
ATOM     27  H9  GLA d   1      11.814  20.589  73.698  0.00  0.00     0.210 HD
ENDBRANCH  15  26
BRANCH  17  28
ATOM     28  O4  GLA d   1      12.847  18.684  72.831  0.00  0.00    -0.390 OA
ATOM     29  H10 GLA d   1      13.030  18.093  72.110  0.00  0.00     0.210 HD
ENDBRANCH  17  28
BRANCH  19  30
ATOM     30  C6  GLA d   1      13.273  15.892  73.257  0.00  0.00     0.043 C 
ATOM     31  H6  GLA d   1      14.181  16.352  72.840  0.00  0.00     0.078 H 
ATOM     32  H7  GLA d   1      12.528  15.762  72.458  0.00  0.00     0.078 H 
BRANCH  30  33
ATOM     33  O6  GLA d   1      13.587  14.645  73.824  0.00  0.00    -0.398 OA
ATOM     34  H11 GLA d   1      14.228  14.765  74.515  0.00  0.00     0.209 HD
ENDBRANCH  30  33
ENDBRANCH  19  30
ENDBRANCH  12  13
ENDBRANCH   7  12
BRANCH   6  35
ATOM     35  O1  MBG d   1      15.559  17.773  78.552  0.00  0.00    -0.363 OA
BRANCH  35  36
ATOM     36  C7  MBG d   1      16.756  17.015  78.772  0.00  0.00     0.007 C 
ATOM     37  H19 GLA d   1      17.597  17.499  78.253  0.00  0.00     0.066 H 
ATOM     38  H20 GLA d   1      16.622  15.996  78.381  0.00  0.00     0.066 H 
ATOM     39  H21 GLA d   1      16.968  16.969  79.850  0.00  0.00     0.066 H 
ENDBRANCH  35  36
ENDBRANCH   6  35
BRANCH   8  40
ATOM     40  O3  MBG d   1      11.525  15.196  77.741  0.00  0.00    -0.390 OA
ATOM     41  H22 GLA d   1      12.120  14.511  77.461  0.00  0.00     0.210 HD
ENDBRANCH   8  40
BRANCH   9  42
ATOM     42  O4  MBG d   1      13.126  13.917  79.478  0.00  0.00    -0.390 OA
ATOM     43  H23 GLA d   1      13.919  14.132  79.001  0.00  0.00     0.210 HD
ENDBRANCH   9  42
BRANCH  10  44
ATOM     44  C6  MBG d   1      13.907  15.027  82.105  0.00  0.00     0.043 C 
ATOM     45  H17 GLA d   1      14.902  14.597  81.918  0.00  0.00     0.078 H 
ATOM     46  H18 GLA d   1      13.181  14.216  82.264  0.00  0.00     0.078 H 
BRANCH  44  47
ATOM     47  O6  MBG d   1      13.959  15.854  83.271  0.00  0.00    -0.398 OA
ATOM     48  H24 GLA d   1      13.100  16.225  83.433  0.00  0.00     0.209 HD
ENDBRANCH  44  47
ENDBRANCH  10  44
TORSDOF 13
