REMARK  10 active torsions:
REMARK  status: ('A' for Active; 'I' for Inactive)
REMARK    1  A    between atoms: C4_6  and  C5_7 
REMARK    2  A    between atoms: C6_8  and  S1_9 
REMARK    3  A    between atoms: S1_9  and  N1_12 
REMARK    4  A    between atoms: N1_12  and  C12_13 
REMARK    5  A    between atoms: N2_18  and  C15_19 
REMARK    6  A    between atoms: C27_24  and  C28_26 
REMARK    7  A    between atoms: C28_26  and  C7_27 
REMARK    8  A    between atoms: C28_26  and  N3_28 
REMARK    9  A    between atoms: N3_28  and  C11_29 
REMARK   10  A    between atoms: N3_28  and  C10_30 
ROOT
ATOM      1  C12 461 d   1       5.959   6.970  23.163  0.00  0.00     0.099 C 
ATOM      2  C13 461 d   1       4.640   6.216  22.936  0.00  0.00    -0.022 C 
ATOM      3  C14 461 d   1       4.949   5.076  21.949  0.00  0.00     0.005 C 
ATOM      4  C50 461 d   1       6.888   6.416  22.098  0.00  0.00     0.247 C 
ATOM      5  O3  461 d   1       7.994   6.856  21.805  0.00  0.00    -0.271 OA
ATOM      6  N2  461 d   1       6.314   5.338  21.509  0.00  0.00    -0.313 N 
ATOM      7  H6  461 d   1       6.346   6.780  24.175  0.00  0.00     0.088 H 
ATOM      8  H7  461 d   1       3.885   6.893  22.510  0.00  0.00     0.039 H 
ATOM      9  H8  461 d   1       4.269   5.805  23.887  0.00  0.00     0.039 H 
ATOM     10  H9  461 d   1       4.254   5.100  21.097  0.00  0.00     0.065 H 
ATOM     11  H10 461 d   1       4.882   4.099  22.450  0.00  0.00     0.065 H 
ENDROOT
BRANCH   6  12
ATOM     12  C15 461 d   1       7.005   4.544  20.553  0.00  0.00     0.076 A 
ATOM     13  C21 461 d   1       7.552   5.155  19.443  0.00  0.00     0.143 A 
ATOM     14  F1  461 d   1       7.400   6.475  19.290  0.00  0.00    -0.204 F 
ATOM     15  C24 461 d   1       8.251   4.456  18.480  0.00  0.00    -0.035 A 
ATOM     16  C27 461 d   1       8.421   3.082  18.632  0.00  0.00    -0.025 A 
ATOM     17  H13 461 d   1       8.662   4.969  17.618  0.00  0.00     0.089 H 
ATOM     18  C26 461 d   1       7.869   2.453  19.759  0.00  0.00    -0.072 A 
ATOM     19  C22 461 d   1       7.168   3.174  20.727  0.00  0.00    -0.053 A 
ATOM     20  H12 461 d   1       7.990   1.383  19.880  0.00  0.00     0.084 H 
ATOM     21  H11 461 d   1       6.758   2.675  21.598  0.00  0.00     0.087 H 
BRANCH  16  22
ATOM     22  C28 461 d   1       9.168   2.328  17.547  0.00  0.00     0.125 C 
ATOM     23  H14 461 d   1       9.843   3.053  17.069  0.00  0.00     0.091 H 
BRANCH  22  24
ATOM     24  C7  461 d   1      10.060   1.185  18.063  0.00  0.00    -0.045 C 
ATOM     25  H15 461 d   1      10.745   1.573  18.832  0.00  0.00     0.030 H 
ATOM     26  H16 461 d   1      10.643   0.770  17.228  0.00  0.00     0.030 H 
ATOM     27  H17 461 d   1       9.430   0.396  18.498  0.00  0.00     0.030 H 
ENDBRANCH  22  24
BRANCH  22  28
ATOM     28  N3  461 d   1       8.220   1.863  16.504  0.00  0.00    -0.071 N 
ATOM     29  H18 461 d   1       8.810   1.351  15.867  0.00  0.00     0.279 HD
BRANCH  28  30
ATOM     30  C11 461 d   1       7.212   0.878  16.933  0.00  0.00     0.067 C 
ATOM     31  H19 461 d   1       6.572   0.612  16.079  0.00  0.00     0.068 H 
ATOM     32  H20 461 d   1       6.594   1.311  17.733  0.00  0.00     0.068 H 
ATOM     33  H21 461 d   1       7.717  -0.025  17.307  0.00  0.00     0.068 H 
ENDBRANCH  28  30
BRANCH  28  34
ATOM     34  C10 461 d   1       7.610   2.915  15.669  0.00  0.00     0.067 C 
ATOM     35  H22 461 d   1       8.383   3.635  15.364  0.00  0.00     0.068 H 
ATOM     36  H23 461 d   1       6.832   3.436  16.246  0.00  0.00     0.068 H 
ATOM     37  H24 461 d   1       7.160   2.459  14.775  0.00  0.00     0.068 H 
ENDBRANCH  28  34
ENDBRANCH  22  28
ENDBRANCH  16  22
ENDBRANCH   6  12
BRANCH   1  38
ATOM     38  N1  461 d   1       5.820   8.389  22.949  0.00  0.00    -0.302 N 
ATOM     39  H5  461 d   1       5.363   8.733  22.129  0.00  0.00     0.173 HD
BRANCH  38  40
ATOM     40  S1  461 d   1       6.410   9.418  24.047  0.00  0.00     0.249 S 
ATOM     41  O2  461 d   1       6.368  10.659  23.332  0.00  0.00    -0.201 OA
ATOM     42  O1  461 d   1       5.702   9.201  25.263  0.00  0.00    -0.201 OA
BRANCH  40  43
ATOM     43  C6  461 d   1       8.076   8.963  24.306  0.00  0.00     0.028 C 
ATOM     44  C5  461 d   1       8.419   8.529  25.531  0.00  0.00    -0.054 C 
ATOM     45  H3  461 d   1       7.624   8.495  26.274  0.00  0.00     0.086 H 
ATOM     46  H4  461 d   1       8.810   9.028  23.504  0.00  0.00     0.104 H 
BRANCH  44  47
ATOM     47  C4  461 d   1       9.745   8.098  25.973  0.00  0.00     0.007 A 
ATOM     48  C3  461 d   1      10.003   7.406  27.151  0.00  0.00    -0.064 A 
ATOM     49  C2  461 d   1      11.353   7.117  27.352  0.00  0.00    -0.054 A 
ATOM     50  H2  461 d   1       9.222   7.116  27.853  0.00  0.00     0.085 H 
ATOM     51  C1  461 d   1      12.109   7.582  26.326  0.00  0.00     0.075 A 
ATOM     52  H1  461 d   1      11.748   6.588  28.218  0.00  0.00     0.086 H 
ATOM     53 CL1  461 d   1      13.836   7.420  26.202  0.00  0.00    -0.076 Cl
ATOM     54  S2  461 d   1      11.219   8.399  25.102  0.00  0.00    -0.078 SA
ENDBRANCH  44  47
ENDBRANCH  40  43
ENDBRANCH  38  40
ENDBRANCH   1  38
TORSDOF 10
