REMARK  10 active torsions:
REMARK  status: ('A' for Active; 'I' for Inactive)
REMARK    1  A    between atoms: C4_6  and  C5_7 
REMARK    2  A    between atoms: C6_8  and  S1_9 
REMARK    3  A    between atoms: S1_9  and  N1_12 
REMARK    4  A    between atoms: N1_12  and  C12_13 
REMARK    5  A    between atoms: N2_18  and  C15_19 
REMARK    6  A    between atoms: C27_24  and  C28_26 
REMARK    7  A    between atoms: C28_26  and  C8_27 
REMARK    8  A    between atoms: C28_26  and  N3_28 
REMARK    9  A    between atoms: N3_28  and  C9_29 
REMARK   10  A    between atoms: N3_28  and  C7_30 
ROOT
ATOM      1  C12 898 d   1       5.852   6.683  22.850  0.00  0.00     0.099 C 
ATOM      2  C13 898 d   1       4.502   6.054  22.521  0.00  0.00    -0.022 C 
ATOM      3  C14 898 d   1       4.859   4.708  21.869  0.00  0.00     0.005 C 
ATOM      4  C50 898 d   1       6.783   6.051  21.828  0.00  0.00     0.247 C 
ATOM      5  O3  898 d   1       7.860   6.472  21.443  0.00  0.00    -0.271 OA
ATOM      6  N2  898 d   1       6.228   4.907  21.394  0.00  0.00    -0.313 N 
ATOM      7  H6  898 d   1       6.160   6.404  23.869  0.00  0.00     0.088 H 
ATOM      8  H7  898 d   1       3.937   6.688  21.822  0.00  0.00     0.039 H 
ATOM      9  H8  898 d   1       3.911   5.899  23.436  0.00  0.00     0.039 H 
ATOM     10  H9  898 d   1       4.181   4.486  21.032  0.00  0.00     0.065 H 
ATOM     11  H10 898 d   1       4.814   3.891  22.604  0.00  0.00     0.065 H 
ENDROOT
BRANCH   6  12
ATOM     12  C15 898 d   1       6.913   3.968  20.573  0.00  0.00     0.076 A 
ATOM     13  C21 898 d   1       7.600   4.367  19.418  0.00  0.00     0.143 A 
ATOM     14  F1  898 d   1       7.632   5.650  19.066  0.00  0.00    -0.204 F 
ATOM     15  C24 898 d   1       8.259   3.463  18.607  0.00  0.00    -0.035 A 
ATOM     16  C27 898 d   1       8.231   2.109  18.973  0.00  0.00    -0.025 A 
ATOM     17  H13 898 d   1       8.782   3.790  17.715  0.00  0.00     0.089 H 
ATOM     18  C26 898 d   1       7.552   1.688  20.140  0.00  0.00    -0.072 A 
ATOM     19  C22 898 d   1       6.877   2.612  20.952  0.00  0.00    -0.053 A 
ATOM     20  H12 898 d   1       7.553   0.638  20.410  0.00  0.00     0.084 H 
ATOM     21  H11 898 d   1       6.346   2.293  21.841  0.00  0.00     0.087 H 
BRANCH  16  22
ATOM     22  C28 898 d   1       8.935   1.118  18.100  0.00  0.00     0.125 C 
ATOM     23  H14 898 d   1       8.963   0.162  18.642  0.00  0.00     0.091 H 
BRANCH  22  24
ATOM     24  C8  898 d   1      10.390   1.545  17.844  0.00  0.00    -0.045 C 
ATOM     25  H15 898 d   1      10.899   1.707  18.805  0.00  0.00     0.030 H 
ATOM     26  H16 898 d   1      10.401   2.478  17.261  0.00  0.00     0.030 H 
ATOM     27  H17 898 d   1      10.910   0.755  17.282  0.00  0.00     0.030 H 
ENDBRANCH  22  24
BRANCH  22  28
ATOM     28  N3  898 d   1       8.189   0.882  16.814  0.00  0.00    -0.071 N 
ATOM     29  H18 898 d   1       8.692   0.131  16.369  0.00  0.00     0.279 HD
BRANCH  28  30
ATOM     30  C9  898 d   1       6.816   0.380  17.015  0.00  0.00     0.067 C 
ATOM     31  H19 898 d   1       6.333   0.231  16.038  0.00  0.00     0.068 H 
ATOM     32  H20 898 d   1       6.240   1.112  17.601  0.00  0.00     0.068 H 
ATOM     33  H21 898 d   1       6.851  -0.577  17.556  0.00  0.00     0.068 H 
ENDBRANCH  28  30
BRANCH  28  34
ATOM     34  C7  898 d   1       8.185   1.986  15.816  0.00  0.00     0.067 C 
ATOM     35  H22 898 d   1       9.212   2.354  15.672  0.00  0.00     0.068 H 
ATOM     36  H23 898 d   1       7.549   2.807  16.179  0.00  0.00     0.068 H 
ATOM     37  H24 898 d   1       7.792   1.613  14.859  0.00  0.00     0.068 H 
ENDBRANCH  28  34
ENDBRANCH  22  28
ENDBRANCH  16  22
ENDBRANCH   6  12
BRANCH   1  38
ATOM     38  N1  898 d   1       5.839   8.132  22.758  0.00  0.00    -0.302 N 
ATOM     39  H5  898 d   1       5.352   8.542  21.986  0.00  0.00     0.173 HD
BRANCH  38  40
ATOM     40  S1  898 d   1       6.555   9.138  23.813  0.00  0.00     0.249 S 
ATOM     41  O2  898 d   1       6.621  10.344  23.056  0.00  0.00    -0.201 OA
ATOM     42  O1  898 d   1       5.850   9.108  25.074  0.00  0.00    -0.201 OA
BRANCH  40  43
ATOM     43  C6  898 d   1       8.181   8.658  24.180  0.00  0.00     0.028 C 
ATOM     44  C5  898 d   1       8.448   8.226  25.422  0.00  0.00    -0.054 C 
ATOM     45  H3  898 d   1       7.610   8.187  26.116  0.00  0.00     0.086 H 
ATOM     46  H4  898 d   1       8.963   8.706  23.424  0.00  0.00     0.104 H 
BRANCH  44  47
ATOM     47  C4  898 d   1       9.740   7.805  25.936  0.00  0.00     0.007 A 
ATOM     48  C3  898 d   1       9.957   7.149  27.193  0.00  0.00    -0.064 A 
ATOM     49  C2  898 d   1      11.346   6.889  27.404  0.00  0.00    -0.054 A 
ATOM     50  H2  898 d   1       9.167   6.884  27.894  0.00  0.00     0.085 H 
ATOM     51  C1  898 d   1      12.114   7.322  26.370  0.00  0.00     0.075 A 
ATOM     52  H1  898 d   1      11.744   6.400  28.292  0.00  0.00     0.086 H 
ATOM     53 CL1  898 d   1      13.846   7.203  26.206  0.00  0.00    -0.076 Cl
ATOM     54  S2  898 d   1      11.221   8.053  25.121  0.00  0.00    -0.078 SA
ENDBRANCH  44  47
ENDBRANCH  40  43
ENDBRANCH  38  40
ENDBRANCH   1  38
TORSDOF 10
