REMARK  15 active torsions:
REMARK  status: ('A' for Active; 'I' for Inactive)
REMARK    1  A    between atoms: PA_1  and  O5B_4 
REMARK    2  A    between atoms: PA_1  and  O3_23 
REMARK    3  A    between atoms: O5B_4  and  C5B_5 
REMARK    4  A    between atoms: C5B_5  and  C4B_6 
REMARK    5  A    between atoms: C3B_8  and  O3B_9 
REMARK    6  A    between atoms: C2B_10  and  O2B_11 
REMARK    7  A    between atoms: O2B_11  and  P2B_36 
REMARK    8  A    between atoms: C1B_12  and  N9A_13 
REMARK    9  A    between atoms: C6A_17  and  N6A_18 
REMARK   10  A    between atoms: O3_23  and  PN_24 
REMARK   11  A    between atoms: PN_24  and  O5D_27 
REMARK   12  A    between atoms: O5D_27  and  C5D_28 
REMARK   13  A    between atoms: C5D_28  and  C4D_29 
REMARK   14  A    between atoms: C3D_31  and  O3D_32 
REMARK   15  A    between atoms: C2D_33  and  O2D_34 
ROOT
ATOM      1  C4B NA7 d   1       8.787  42.787  -6.423  0.00  0.00     0.089 C 
ATOM      2  O4B NA7 d   1       8.695  43.646  -7.573  0.00  0.00    -0.353 OA
ATOM      3  C3B NA7 d   1      10.188  42.199  -6.414  0.00  0.00     0.092 C 
ATOM      4  C2B NA7 d   1      10.976  43.074  -7.390  0.00  0.00     0.121 C 
ATOM      5  C1B NA7 d   1       9.891  43.571  -8.341  0.00  0.00     0.140 C 
ATOM      6  H3  NA7 d   1       8.066  41.963  -6.528  0.00  0.00     0.090 H 
ATOM      7  H4  NA7 d   1      10.638  42.231  -5.411  0.00  0.00     0.091 H 
ATOM      8  H6  NA7 d   1      11.472  43.907  -6.870  0.00  0.00     0.095 H 
ATOM      9  H7  NA7 d   1       9.767  42.823  -9.138  0.00  0.00     0.123 H 
ENDROOT
BRANCH   1  10
ATOM     10  C5B NA7 d   1       8.428  43.565  -5.157  0.00  0.00     0.058 C 
ATOM     11  H1  NA7 d   1       7.769  44.405  -5.423  0.00  0.00     0.079 H 
ATOM     12  H2  NA7 d   1       7.905  42.896  -4.457  0.00  0.00     0.079 H 
BRANCH  10  13
ATOM     13  O5B NA7 d   1       9.590  44.065  -4.539  0.00  0.00    -0.287 OA
BRANCH  13  14
ATOM     14  PA  NA7 d   1       9.584  44.901  -3.155  0.00  0.00     0.417 P 
ATOM     15  O1A NA7 d   1       8.974  44.149  -1.976  0.00  0.00    -0.624 OA
ATOM     16  O2A NA7 d   1      11.032  45.299  -3.032  0.00  0.00    -0.624 OA
BRANCH  14  17
ATOM     17  O3  NA7 d   1       8.664  46.154  -3.615  0.00  0.00    -0.180 OA
BRANCH  17  18
ATOM     18  PN  NA7 d   1       7.538  46.963  -2.778  0.00  0.00     0.417 P 
ATOM     19  O1N NA7 d   1       6.468  46.034  -2.224  0.00  0.00    -0.624 OA
ATOM     20  O2N NA7 d   1       7.203  48.137  -3.625  0.00  0.00    -0.624 OA
BRANCH  18  21
ATOM     21  O5D NA7 d   1       8.263  47.424  -1.455  0.00  0.00    -0.287 OA
BRANCH  21  22
ATOM     22  C5D NA7 d   1       9.505  48.068  -1.536  0.00  0.00     0.058 C 
ATOM     23  H12 NA7 d   1       9.448  49.014  -2.094  0.00  0.00     0.079 H 
ATOM     24  H13 NA7 d   1      10.279  47.426  -1.982  0.00  0.00     0.079 H 
BRANCH  22  25
ATOM     25  C4D NA7 d   1       9.724  48.286  -0.069  0.00  0.00     0.086 C 
ATOM     26  O4D NA7 d   1      10.729  47.427   0.466  0.00  0.00    -0.378 OA
ATOM     27  C1D NA7 d   1      11.360  48.144   1.553  0.00  0.00     0.046 C 
ATOM     28  C2D NA7 d   1      11.008  49.625   1.381  0.00  0.00     0.083 C 
ATOM     29  H19 NA7 d   1      12.451  48.008   1.511  0.00  0.00     0.078 H 
ATOM     30  H20 NA7 d   1      10.981  47.776   2.518  0.00  0.00     0.078 H 
ATOM     31  C3D NA7 d   1      10.252  49.689   0.049  0.00  0.00     0.089 C 
ATOM     32  H17 NA7 d   1      11.919  50.239   1.330  0.00  0.00     0.090 H 
ATOM     33  H15 NA7 d   1      10.964  49.918  -0.757  0.00  0.00     0.091 H 
ATOM     34  H14 NA7 d   1       8.781  48.159   0.484  0.00  0.00     0.090 H 
BRANCH  28  35
ATOM     35  O2D NA7 d   1      10.204  50.063   2.493  0.00  0.00    -0.391 OA
ATOM     36  H18 NA7 d   1       9.934  50.963   2.352  0.00  0.00     0.210 HD
ENDBRANCH  28  35
BRANCH  31  37
ATOM     37  O3D NA7 d   1       9.135  50.597  -0.075  0.00  0.00    -0.390 OA
ATOM     38  H16 NA7 d   1       9.446  51.492  -0.003  0.00  0.00     0.210 HD
ENDBRANCH  31  37
ENDBRANCH  22  25
ENDBRANCH  21  22
ENDBRANCH  18  21
ENDBRANCH  17  18
ENDBRANCH  14  17
ENDBRANCH  13  14
ENDBRANCH  10  13
ENDBRANCH   1  10
BRANCH   3  39
ATOM     39  O3B NA7 d   1      10.080  40.842  -6.866  0.00  0.00    -0.390 OA
ATOM     40  H5  NA7 d   1      10.942  40.442  -6.873  0.00  0.00     0.210 HD
ENDBRANCH   3  39
BRANCH   5  41
ATOM     41  N9A NA7 d   1      10.150  44.890  -9.000  0.00  0.00    -0.294 N 
ATOM     42  C8A NA7 d   1      10.656  46.031  -8.485  0.00  0.00     0.071 A 
ATOM     43  N7A NA7 d   1      10.711  46.978  -9.461  0.00  0.00    -0.236 NA
ATOM     44  H8  NA7 d   1      10.970  46.171  -7.452  0.00  0.00     0.144 H 
ATOM     45  C5A NA7 d   1      10.233  46.417 -10.601  0.00  0.00     0.149 A 
ATOM     46  C6A NA7 d   1      10.041  46.894 -11.900  0.00  0.00     0.155 A 
ATOM     47  C4A NA7 d   1       9.887  45.107 -10.300  0.00  0.00     0.167 A 
ATOM     48  N1A NA7 d   1       9.519  46.037 -12.828  0.00  0.00    -0.222 NA
ATOM     49  C2A NA7 d   1       9.197  44.765 -12.506  0.00  0.00     0.091 A 
ATOM     50  N3A NA7 d   1       9.374  44.300 -11.257  0.00  0.00    -0.222 NA
ATOM     51  H11 NA7 d   1       8.790  44.109 -13.267  0.00  0.00     0.146 H 
BRANCH  46  52
ATOM     52  N6A NA7 d   1      10.373  48.173 -12.256  0.00  0.00    -0.382 N 
ATOM     53  H9  NA7 d   1      10.219  48.495 -13.222  0.00  0.00     0.157 HD
ATOM     54  H10 NA7 d   1      10.777  48.814 -11.558  0.00  0.00     0.157 HD
ENDBRANCH  46  52
ENDBRANCH   5  41
BRANCH   4  55
ATOM     55  O2B NA7 d   1      11.933  42.315  -8.108  0.00  0.00    -0.270 OA
BRANCH  55  56
ATOM     56  P2B NA7 d   1      13.413  42.866  -8.344  0.00  0.00     0.422 P 
ATOM     57  O1X NA7 d   1      13.956  43.291  -7.004  0.00  0.00    -0.617 OA
ATOM     58  O2X NA7 d   1      14.116  41.688  -8.960  0.00  0.00    -0.617 OA
ATOM     59  O3X NA7 d   1      13.261  44.041  -9.295  0.00  0.00    -0.617 OA
ENDBRANCH  55  56
ENDBRANCH   4  55
TORSDOF 15
