REMARK  5 active torsions:
REMARK  status: ('A' for Active; 'I' for Inactive)
REMARK    1  A    between atoms: C3_3  and  O3_10 
REMARK    2  A    between atoms: C4_4  and  O4_12 
REMARK    3  A    between atoms: C5_5  and  C6_6 
REMARK    4  A    between atoms: C6_6  and  O6_14 
REMARK    5  A    between atoms: C2_13  and  O2_11 
ROOT
ATOM      1  C1  MVL d   1      44.139  24.440 100.917  0.00  0.00     0.138 A 
ATOM      2  N10 MVL d   1      43.961  23.213 100.438  0.00  0.00    -0.332 N 
ATOM      3  C3  MVL d   1      44.942  23.590 103.126  0.00  0.00     0.093 C 
ATOM      4  C4  MVL d   1      44.301  22.260 102.643  0.00  0.00     0.085 C 
ATOM      5  C5  MVL d   1      44.446  21.995 101.134  0.00  0.00     0.065 C 
ATOM      6  C7  MVL d   1      42.897  24.614  99.141  0.00  0.00     0.019 A 
ATOM      7  C8  MVL d   1      43.167  23.284  99.362  0.00  0.00    -0.001 A 
ATOM      8  N1  MVL d   1      43.510  25.317 100.118  0.00  0.00    -0.243 NA
ATOM      9  C2  MVL d   1      44.962  24.745 102.115  0.00  0.00     0.119 C 
ATOM     10  H1  MVL d   1      45.982  23.368 103.408  0.00  0.00     0.091 H 
ATOM     11  H2  MVL d   1      43.225  22.318 102.866  0.00  0.00     0.090 H 
ATOM     12  H3  MVL d   1      45.504  21.823 100.888  0.00  0.00     0.080 H 
ATOM     13  H6  MVL d   1      42.299  25.025  98.329  0.00  0.00     0.117 H 
ATOM     14  H7  MVL d   1      42.803  22.444  98.772  0.00  0.00     0.113 H 
ATOM     15  H11 MVL d   1      46.002  24.904 101.795  0.00  0.00     0.099 H 
ENDROOT
BRANCH   5  16
ATOM     16  C6  MVL d   1      43.628  20.763 100.708  0.00  0.00     0.038 C 
ATOM     17  H4  MVL d   1      44.108  19.860 101.113  0.00  0.00     0.077 H 
ATOM     18  H5  MVL d   1      43.613  20.709  99.609  0.00  0.00     0.077 H 
BRANCH  16  19
ATOM     19  O6  MVL d   1      42.272  20.824 101.189  0.00  0.00    -0.399 OA
ATOM     20  H12 MVL d   1      42.275  20.865 102.138  0.00  0.00     0.209 HD
ENDBRANCH  16  19
ENDBRANCH   5  16
BRANCH   4  21
ATOM     21  O4  MVL d   1      44.853  21.148 103.370  0.00  0.00    -0.391 OA
ATOM     22  H10 MVL d   1      44.766  21.306 104.303  0.00  0.00     0.210 HD
ENDBRANCH   4  21
BRANCH   3  23
ATOM     23  O3  MVL d   1      44.236  24.074 104.265  0.00  0.00    -0.390 OA
ATOM     24  H8  MVL d   1      44.281  23.430 104.962  0.00  0.00     0.210 HD
ENDBRANCH   3  23
BRANCH   9  25
ATOM     25  O2  MVL d   1      44.474  25.953 102.715  0.00  0.00    -0.385 OA
ATOM     26  H9  MVL d   1      43.581  25.820 103.012  0.00  0.00     0.210 HD
ENDBRANCH   9  25
TORSDOF 5
