REMARK  11 active torsions:
REMARK  status: ('A' for Active; 'I' for Inactive)
REMARK    1  A    between atoms: CAT_6  and  CAX_7 
REMARK    2  A    between atoms: CAX_7  and  SAR_8 
REMARK    3  A    between atoms: CAX_7  and  CAW_15 
REMARK    4  A    between atoms: CAX_7  and  CAU_19 
REMARK    5  A    between atoms: SAR_8  and  CB_9 
REMARK    6  A    between atoms: CB_9  and  CA_10 
REMARK    7  A    between atoms: CA_10  and  C_11 
REMARK    8  A    between atoms: CA_10  and  N_14 
REMARK    9  A    between atoms: CAW_15  and  CAB_16 
REMARK   10  A    between atoms: CAW_15  and  CAP_17 
REMARK   11  A    between atoms: CAP_17  and  CAA_18 
ROOT
ATOM      1  CAX X2O d   1      54.425  11.888   1.130  0.00  0.00     0.065 C 
ENDROOT
BRANCH   1   2
ATOM      2  CAT X2O d   1      54.468  10.715   0.150  0.00  0.00    -0.035 A 
ATOM      3  CAL X2O d   1      54.491  10.961  -1.220  0.00  0.00    -0.075 A 
ATOM      4  CAH X2O d   1      54.502   9.907  -2.123  0.00  0.00    -0.082 A 
ATOM      5  H1  X2O d   1      54.500  11.982  -1.584  0.00  0.00     0.084 H 
ATOM      6  CAF X2O d   1      54.467   8.600  -1.639  0.00  0.00    -0.083 A 
ATOM      7  H2  X2O d   1      54.537  10.097  -3.190  0.00  0.00     0.083 H 
ATOM      8  CAI X2O d   1      54.434   8.349  -0.267  0.00  0.00    -0.082 A 
ATOM      9  H3  X2O d   1      54.465   7.770  -2.336  0.00  0.00     0.083 H 
ATOM     10  CAM X2O d   1      54.420   9.406   0.636  0.00  0.00    -0.075 A 
ATOM     11  H4  X2O d   1      54.419   7.328   0.096  0.00  0.00     0.083 H 
ATOM     12  H5  X2O d   1      54.373   9.217   1.702  0.00  0.00     0.084 H 
ENDBRANCH   1   2
BRANCH   1  13
ATOM     13  SAR X2O d   1      52.677  11.968   1.667  0.00  0.00    -0.146 SA
BRANCH  13  14
ATOM     14  CB  X2O d   1      51.829  12.384   0.098  0.00  0.00     0.014 C 
ATOM     15  H6  X2O d   1      51.987  11.568  -0.623  0.00  0.00     0.052 H 
ATOM     16  H7  X2O d   1      52.254  13.316  -0.304  0.00  0.00     0.052 H 
BRANCH  14  17
ATOM     17  CA  X2O d   1      50.318  12.575   0.316  0.00  0.00     0.190 C 
ATOM     18  H8  X2O d   1      50.165  13.373   1.058  0.00  0.00     0.102 H 
BRANCH  17  19
ATOM     19  C   X2O d   1      49.657  13.000  -1.002  0.00  0.00     0.205 C 
ATOM     20  OXT X2O d   1      50.116  14.021  -1.551  0.00  0.00    -0.646 OA
ATOM     21  O   X2O d   1      48.719  12.294  -1.434  0.00  0.00    -0.646 OA
ENDBRANCH  17  19
BRANCH  17  22
ATOM     22  N   X2O d   1      49.717  11.329   0.839  0.00  0.00    -0.065 N 
ATOM     23  H9  X2O d   1      48.728  11.466   0.978  0.00  0.00     0.275 HD
ATOM     24  H10 X2O d   1      50.150  11.090   1.718  0.00  0.00     0.275 HD
ATOM     25  H11 X2O d   1      49.864  10.582   0.178  0.00  0.00     0.275 HD
ENDBRANCH  17  22
ENDBRANCH  14  17
ENDBRANCH  13  14
ENDBRANCH   1  13
BRANCH   1  26
ATOM     26  CAW X2O d   1      54.845  13.218   0.454  0.00  0.00    -0.033 C 
ATOM     27  H12 X2O d   1      54.163  13.380  -0.394  0.00  0.00     0.042 H 
BRANCH  26  28
ATOM     28  CAB X2O d   1      56.285  13.207  -0.087  0.00  0.00    -0.071 C 
ATOM     29  H13 X2O d   1      56.510  14.179  -0.550  0.00  0.00     0.028 H 
ATOM     30  H14 X2O d   1      56.388  12.410  -0.838  0.00  0.00     0.028 H 
ATOM     31  H15 X2O d   1      56.986  13.024   0.741  0.00  0.00     0.028 H 
ENDBRANCH  26  28
BRANCH  26  32
ATOM     32  CAP X2O d   1      54.727  14.400   1.394  0.00  0.00    -0.063 C 
ATOM     33  H16 X2O d   1      55.381  14.246   2.265  0.00  0.00     0.033 H 
ATOM     34  H17 X2O d   1      53.685  14.501   1.731  0.00  0.00     0.033 H 
BRANCH  32  35
ATOM     35  CAA X2O d   1      55.151  15.667   0.651  0.00  0.00    -0.076 C 
ATOM     36  H18 X2O d   1      55.069  16.532   1.325  0.00  0.00     0.027 H 
ATOM     37  H19 X2O d   1      54.496  15.818  -0.220  0.00  0.00     0.027 H 
ATOM     38  H20 X2O d   1      56.193  15.563   0.313  0.00  0.00     0.027 H 
ENDBRANCH  32  35
ENDBRANCH  26  32
ENDBRANCH   1  26
BRANCH   1  39
ATOM     39  CAU X2O d   1      55.298  11.643   2.376  0.00  0.00    -0.035 A 
ATOM     40  CAN X2O d   1      54.818  12.015   3.634  0.00  0.00    -0.075 A 
ATOM     41  CAJ X2O d   1      55.588  11.819   4.775  0.00  0.00    -0.082 A 
ATOM     42  H21 X2O d   1      53.834  12.461   3.722  0.00  0.00     0.084 H 
ATOM     43  CAG X2O d   1      56.851  11.243   4.667  0.00  0.00    -0.083 A 
ATOM     44  H22 X2O d   1      55.206  12.114   5.746  0.00  0.00     0.083 H 
ATOM     45  CAK X2O d   1      57.335  10.872   3.414  0.00  0.00    -0.082 A 
ATOM     46  H23 X2O d   1      57.455  11.084   5.553  0.00  0.00     0.083 H 
ATOM     47  CAO X2O d   1      56.564  11.068   2.270  0.00  0.00    -0.075 A 
ATOM     48  H24 X2O d   1      58.320  10.427   3.329  0.00  0.00     0.083 H 
ATOM     49  H25 X2O d   1      56.947  10.774   1.300  0.00  0.00     0.084 H 
ENDBRANCH   1  39
TORSDOF 11
