REMARK  11 active torsions:
REMARK  status: ('A' for Active; 'I' for Inactive)
REMARK    1  A    between atoms: C3_3  and  N7_7 
REMARK    2  A    between atoms: C5_5  and  C10_10 
REMARK    3  A    between atoms: C5_5  and  C11_11 
REMARK    4  A    between atoms: N7_7  and  C12_12 
REMARK       I    between atoms: N9_9  and  C13_13 
REMARK       I    between atoms: C13_13  and  N16_16 
REMARK    5  A    between atoms: N16_16  and  C21_21 
REMARK    6  A    between atoms: C20_20  and  C25_25 
REMARK    7  A    between atoms: C21_21  and  C26_26 
REMARK    8  A    between atoms: C21_21  and  C27_27 
REMARK    9  A    between atoms: C27_27  and  N30_30 
REMARK   10  A    between atoms: N30_30  and  C34_34 
REMARK   11  A    between atoms: N30_30  and  C35_35 
ROOT
ATOM      1  C1  X4Z d   1      20.018  20.503  61.240  0.00  0.00     0.034 A 
ATOM      2  C2  X4Z d   1      20.228  21.648  61.966  0.00  0.00     0.067 A 
ATOM      3  C3  X4Z d   1      19.536  19.589  62.207  0.00  0.00     0.159 A 
ATOM      4  C4  X4Z d   1      20.280  20.706  59.801  0.00  0.00     0.030 C 
ATOM      5  C5  X4Z d   1      20.766  22.816  61.166  0.00  0.00     0.074 C 
ATOM      6  N6  X4Z d   1      19.908  21.511  63.262  0.00  0.00    -0.277 N 
ATOM      7  N8  X4Z d   1      19.456  20.180  63.418  0.00  0.00    -0.156 NA
ATOM      8  N9  X4Z d   1      20.624  22.189  59.796  0.00  0.00    -0.315 N 
ATOM      9  C13 X4Z d   1      20.777  22.918  58.654  0.00  0.00     0.320 C 
ATOM     10  N16 X4Z d   1      20.603  22.313  57.489  0.00  0.00    -0.333 N 
ATOM     11  O17 X4Z d   1      21.086  24.107  58.701  0.00  0.00    -0.247 OA
ATOM     12  H1  X4Z d   1      19.390  20.492  59.191  0.00  0.00     0.072 H 
ATOM     13  H2  X4Z d   1      21.122  20.091  59.450  0.00  0.00     0.072 H 
ATOM     14  H3  X4Z d   1      19.978  22.231  63.996  0.00  0.00     0.189 HD
ATOM     15  H11 X4Z d   1      20.386  21.337  57.465  0.00  0.00     0.165 HD
ENDROOT
BRANCH   5  16
ATOM     16  C10 X4Z d   1      19.836  24.023  61.414  0.00  0.00    -0.048 C 
ATOM     17  H5  X4Z d   1      20.005  24.414  62.428  0.00  0.00     0.031 H 
ATOM     18  H6  X4Z d   1      18.788  23.705  61.314  0.00  0.00     0.031 H 
ATOM     19  H7  X4Z d   1      20.052  24.810  60.677  0.00  0.00     0.031 H 
ENDBRANCH   5  16
BRANCH   5  20
ATOM     20  C11 X4Z d   1      22.199  23.173  61.621  0.00  0.00    -0.048 C 
ATOM     21  H8  X4Z d   1      22.164  23.618  62.626  0.00  0.00     0.031 H 
ATOM     22  H9  X4Z d   1      22.639  23.894  60.916  0.00  0.00     0.031 H 
ATOM     23  H10 X4Z d   1      22.814  22.261  61.645  0.00  0.00     0.031 H 
ENDBRANCH   5  20
BRANCH  10  24
ATOM     24  C21 X4Z d   1      20.728  23.074  56.213  0.00  0.00     0.062 C 
ATOM     25  H12 X4Z d   1      20.162  24.002  56.379  0.00  0.00     0.083 H 
BRANCH  24  26
ATOM     26  C26 X4Z d   1      22.093  23.516  55.799  0.00  0.00    -0.034 A 
ATOM     27  C28 X4Z d   1      22.218  24.604  54.878  0.00  0.00    -0.075 A 
ATOM     28  C31 X4Z d   1      23.511  25.032  54.454  0.00  0.00    -0.082 A 
ATOM     29  H20 X4Z d   1      21.331  25.102  54.503  0.00  0.00     0.084 H 
ATOM     30  C33 X4Z d   1      24.668  24.369  54.960  0.00  0.00    -0.083 A 
ATOM     31  H23 X4Z d   1      23.613  25.853  53.754  0.00  0.00     0.083 H 
ATOM     32  C32 X4Z d   1      24.560  23.283  55.885  0.00  0.00    -0.082 A 
ATOM     33  H25 X4Z d   1      25.650  24.695  54.637  0.00  0.00     0.083 H 
ATOM     34  C29 X4Z d   1      23.263  22.859  56.302  0.00  0.00    -0.075 A 
ATOM     35  H24 X4Z d   1      25.449  22.791  56.263  0.00  0.00     0.083 H 
ATOM     36  H21 X4Z d   1      23.162  22.037  57.002  0.00  0.00     0.084 H 
ENDBRANCH  24  26
BRANCH  24  37
ATOM     37  C27 X4Z d   1      20.019  22.325  55.029  0.00  0.00     0.105 C 
ATOM     38  H18 X4Z d   1      20.360  21.279  55.035  0.00  0.00     0.079 H 
ATOM     39  H19 X4Z d   1      20.327  22.806  54.089  0.00  0.00     0.079 H 
BRANCH  37  40
ATOM     40  N30 X4Z d   1      18.541  22.324  55.080  0.00  0.00    -0.076 N 
ATOM     41  H22 X4Z d   1      18.244  23.280  54.960  0.00  0.00     0.279 HD
BRANCH  40  42
ATOM     42  C34 X4Z d   1      17.877  21.821  56.295  0.00  0.00     0.066 C 
ATOM     43  H26 X4Z d   1      16.786  21.888  56.171  0.00  0.00     0.068 H 
ATOM     44  H27 X4Z d   1      18.186  22.427  57.159  0.00  0.00     0.068 H 
ATOM     45  H28 X4Z d   1      18.163  20.772  56.462  0.00  0.00     0.068 H 
ENDBRANCH  40  42
BRANCH  40  46
ATOM     46  C35 X4Z d   1      18.055  21.520  53.937  0.00  0.00     0.066 C 
ATOM     47  H29 X4Z d   1      18.534  21.872  53.011  0.00  0.00     0.068 H 
ATOM     48  H30 X4Z d   1      16.964  21.629  53.850  0.00  0.00     0.068 H 
ATOM     49  H31 X4Z d   1      18.306  20.462  54.100  0.00  0.00     0.068 H 
ENDBRANCH  40  46
ENDBRANCH  37  40
ENDBRANCH  24  37
ENDBRANCH  10  24
BRANCH   3  50
ATOM     50  N7  X4Z d   1      19.225  18.186  61.912  0.00  0.00    -0.323 N 
ATOM     51  H4  X4Z d   1      18.439  17.820  62.469  0.00  0.00     0.169 HD
BRANCH  50  52
ATOM     52  C12 X4Z d   1      19.740  17.283  61.079  0.00  0.00     0.150 A 
ATOM     53  C14 X4Z d   1      19.258  15.966  61.125  0.00  0.00     0.079 A 
ATOM     54  C18 X4Z d   1      19.837  15.027  60.202  0.00  0.00     0.080 A 
ATOM     55  S19 X4Z d   1      18.077  15.202  62.080  0.00  0.00    -0.096 SA
ATOM     56  N22 X4Z d   1      20.839  15.486  59.335  0.00  0.00    -0.233 NA
ATOM     57  C23 X4Z d   1      19.252  13.728  60.348  0.00  0.00    -0.047 A 
ATOM     58  C20 X4Z d   1      21.261  16.766  59.348  0.00  0.00     0.125 A 
ATOM     59  N15 X4Z d   1      20.715  17.656  60.210  0.00  0.00    -0.215 NA
ATOM     60  C24 X4Z d   1      18.259  13.680  61.356  0.00  0.00    -0.042 A 
ATOM     61  H13 X4Z d   1      19.541  12.867  59.747  0.00  0.00     0.087 H 
ATOM     62  H14 X4Z d   1      17.692  12.791  61.628  0.00  0.00     0.095 H 
BRANCH  58  63
ATOM     63  C25 X4Z d   1      22.311  17.221  58.441  0.00  0.00    -0.019 C 
ATOM     64  H15 X4Z d   1      22.505  18.290  58.612  0.00  0.00     0.037 H 
ATOM     65  H16 X4Z d   1      21.988  17.069  57.401  0.00  0.00     0.037 H 
ATOM     66  H17 X4Z d   1      23.231  16.647  58.627  0.00  0.00     0.037 H 
ENDBRANCH  58  63
ENDBRANCH  50  52
ENDBRANCH   3  50
TORSDOF 11
