REMARK  24 active torsions:
REMARK  status: ('A' for Active; 'I' for Inactive)
REMARK    1  A    between atoms: O6_21  and  C1_1 
REMARK    2  A    between atoms: C2_2  and  O2_7 
REMARK    3  A    between atoms: C3_3  and  O3_8 
REMARK    4  A    between atoms: C4_4  and  O4_9 
REMARK    5  A    between atoms: C5_5  and  C6_6 
REMARK    6  A    between atoms: O4_31  and  C1_11 
REMARK    7  A    between atoms: C2_12  and  O2_17 
REMARK    8  A    between atoms: C3_13  and  O3_18 
REMARK    9  A    between atoms: C4_14  and  O4_19 
REMARK   10  A    between atoms: C5_15  and  C6_16 
REMARK   11  A    between atoms: C6_16  and  O6_21 
REMARK   12  A    between atoms: C1_22  and  O1_28 
REMARK   13  A    between atoms: C2_23  and  O2_29 
REMARK   14  A    between atoms: O3_30  and  C3_24 
REMARK   15  A    between atoms: C4_25  and  O4_31 
REMARK   16  A    between atoms: C5_26  and  C6_27 
REMARK   17  A    between atoms: C6_27  and  O6_33 
REMARK   18  A    between atoms: C1_34  and  O3_30 
REMARK   19  A    between atoms: N2_42  and  C2_35 
REMARK   20  A    between atoms: C3_36  and  O3_43 
REMARK   21  A    between atoms: C4_37  and  O4_44 
REMARK   22  A    between atoms: C5_38  and  C6_39 
REMARK   23  A    between atoms: C6_39  and  O6_46 
REMARK   24  A    between atoms: C7_40  and  C8_41 
REMARK       I    between atoms: C7_40  and  N2_42 
ROOT
ATOM      1  C1  NON d   1     -16.337  -1.186  36.661  0.00  0.00     0.156 C 
ATOM      2  C2  NON d   1     -17.322  -0.284  35.934  0.00  0.00     0.110 C 
ATOM      3  C3  NON d   1     -17.423  -0.812  34.488  0.00  0.00     0.098 C 
ATOM      4  C4  NON d   1     -16.049  -1.210  33.896  0.00  0.00     0.096 C 
ATOM      5  C5  NON d   1     -15.338  -2.269  34.785  0.00  0.00     0.089 C 
ATOM      6  O5  NON d   1     -15.265  -1.943  36.172  0.00  0.00    -0.349 OA
ATOM      7  H22 NON d   1     -16.033  -0.689  37.594  0.00  0.00     0.133 H 
ATOM      8  H23 NON d   1     -16.941   0.748  35.925  0.00  0.00     0.094 H 
ATOM      9  H24 NON d   1     -18.044  -1.720  34.497  0.00  0.00     0.091 H 
ATOM     10  H25 NON d   1     -16.258  -1.709  32.938  0.00  0.00     0.091 H 
ATOM     11  H26 NON d   1     -15.928  -3.192  34.684  0.00  0.00     0.090 H 
ENDROOT
BRANCH   4  12
ATOM     12  O4  NON d   1     -15.287  -0.146  33.593  0.00  0.00    -0.348 OA
BRANCH  12  13
ATOM     13  C1  NON d   1     -14.675  -0.058  32.321  0.00  0.00     0.159 C 
ATOM     14  C2  NON d   1     -13.585   1.003  32.324  0.00  0.00     0.110 C 
ATOM     15  C3  NON d   1     -14.193   2.393  32.502  0.00  0.00     0.092 C 
ATOM     16  H13 NON d   1     -13.023   0.970  31.379  0.00  0.00     0.094 H 
ATOM     17  C4  NON d   1     -15.250   2.624  31.433  0.00  0.00     0.090 C 
ATOM     18  H14 NON d   1     -14.671   2.443  33.492  0.00  0.00     0.091 H 
ATOM     19  C5  NON d   1     -16.284   1.491  31.482  0.00  0.00     0.089 C 
ATOM     20  H15 NON d   1     -14.772   2.633  30.442  0.00  0.00     0.091 H 
ATOM     21  O5  NON d   1     -15.621   0.255  31.334  0.00  0.00    -0.348 OA
ATOM     22  H16 NON d   1     -16.795   1.533  32.455  0.00  0.00     0.090 H 
ATOM     23  H12 NON d   1     -14.223  -1.032  32.083  0.00  0.00     0.133 H 
BRANCH  14  24
ATOM     24  O2  NON d   1     -12.740   0.703  33.396  0.00  0.00    -0.388 OA
ATOM     25  H19 NON d   1     -13.237   0.724  34.205  0.00  0.00     0.210 HD
ENDBRANCH  14  24
BRANCH  15  26
ATOM     26  O3  NON d   1     -13.196   3.409  32.429  0.00  0.00    -0.390 OA
ATOM     27  H20 NON d   1     -13.600   4.258  32.566  0.00  0.00     0.210 HD
ENDBRANCH  15  26
BRANCH  17  28
ATOM     28  O4  NON d   1     -15.863   3.859  31.659  0.00  0.00    -0.390 OA
ATOM     29  H21 NON d   1     -15.209   4.547  31.625  0.00  0.00     0.210 HD
ENDBRANCH  17  28
BRANCH  19  30
ATOM     30  C6  NON d   1     -17.328   1.527  30.373  0.00  0.00     0.049 C 
ATOM     31  H17 NON d   1     -18.063   2.316  30.589  0.00  0.00     0.078 H 
ATOM     32  H18 NON d   1     -17.839   0.554  30.320  0.00  0.00     0.078 H 
BRANCH  30  33
ATOM     33  O6  NON d   1     -16.725   1.785  29.184  0.00  0.00    -0.356 OA
BRANCH  33  34
ATOM     34  C1  NON d   1     -16.981   2.932  28.408  0.00  0.00     0.158 C 
ATOM     35  C2  NON d   1     -16.099   2.892  27.156  0.00  0.00     0.110 C 
ATOM     36  C3  NON d   1     -16.580   1.865  26.139  0.00  0.00     0.092 C 
ATOM     37  H2  NON d   1     -15.066   2.646  27.444  0.00  0.00     0.094 H 
ATOM     38  C4  NON d   1     -18.085   1.991  25.925  0.00  0.00     0.087 C 
ATOM     39  H3  NON d   1     -16.366   0.863  26.538  0.00  0.00     0.091 H 
ATOM     40  C5  NON d   1     -18.838   1.952  27.270  0.00  0.00     0.065 C 
ATOM     41  H4  NON d   1     -18.299   2.957  25.444  0.00  0.00     0.091 H 
ATOM     42  O5  NON d   1     -18.370   2.992  28.113  0.00  0.00    -0.351 OA
ATOM     43  H5  NON d   1     -18.671   0.973  27.743  0.00  0.00     0.086 H 
ATOM     44  H1  NON d   1     -16.714   3.827  28.989  0.00  0.00     0.133 H 
BRANCH  35  45
ATOM     45  O2  NON d   1     -16.145   4.177  26.601  0.00  0.00    -0.388 OA
ATOM     46  H9  NON d   1     -15.584   4.210  25.835  0.00  0.00     0.210 HD
ENDBRANCH  35  45
BRANCH  36  47
ATOM     47  O3  NON d   1     -15.911   2.000  24.893  0.00  0.00    -0.390 OA
ATOM     48  H10 NON d   1     -16.108   2.851  24.520  0.00  0.00     0.210 HD
ENDBRANCH  36  47
BRANCH  38  49
ATOM     49  O4  NON d   1     -18.479   0.951  25.049  0.00  0.00    -0.390 OA
ATOM     50  H11 NON d   1     -17.988   1.019  24.238  0.00  0.00     0.210 HD
ENDBRANCH  38  49
BRANCH  40  51
ATOM     51  C6  NON d   1     -20.336   2.199  27.111  0.00  0.00    -0.050 C 
ATOM     52  H6  NON d   1     -20.821   2.160  28.098  0.00  0.00     0.031 H 
ATOM     53  H7  NON d   1     -20.768   1.425  26.459  0.00  0.00     0.031 H 
ATOM     54  H8  NON d   1     -20.499   3.190  26.662  0.00  0.00     0.031 H 
ENDBRANCH  40  51
ENDBRANCH  33  34
ENDBRANCH  30  33
ENDBRANCH  19  30
ENDBRANCH  12  13
ENDBRANCH   4  12
BRANCH   3  55
ATOM     55  O3  NON d   1     -18.090   0.165  33.733  0.00  0.00    -0.348 OA
BRANCH  55  56
ATOM     56  C1  NON d   1     -19.372  -0.045  33.368  0.00  0.00     0.154 C 
ATOM     57  C2  NON d   1     -20.007   1.307  33.042  0.00  0.00     0.087 C 
ATOM     58  C3  NON d   1     -21.366   1.232  32.339  0.00  0.00     0.086 C 
ATOM     59  H33 NON d   1     -19.317   1.837  32.370  0.00  0.00     0.084 H 
ATOM     60  C4  NON d   1     -21.408   0.125  31.296  0.00  0.00     0.089 C 
ATOM     61  H34 NON d   1     -22.128   1.007  33.100  0.00  0.00     0.090 H 
ATOM     62  C5  NON d   1     -20.748  -1.140  31.820  0.00  0.00     0.089 C 
ATOM     63  H35 NON d   1     -20.875   0.456  30.392  0.00  0.00     0.091 H 
ATOM     64  O5  NON d   1     -19.404  -0.893  32.238  0.00  0.00    -0.349 OA
ATOM     65  H36 NON d   1     -21.320  -1.465  32.702  0.00  0.00     0.090 H 
ATOM     66  H32 NON d   1     -19.921  -0.519  34.195  0.00  0.00     0.132 H 
BRANCH  57  67
ATOM     67  N2  NON d   1     -20.157   2.086  34.256  0.00  0.00    -0.349 N 
ATOM     68  C7  NON d   1     -19.419   3.165  34.506  0.00  0.00     0.214 C 
ATOM     69  O7  NON d   1     -18.545   3.573  33.736  0.00  0.00    -0.274 OA
ATOM     70  H42 NON d   1     -20.840   1.802  34.929  0.00  0.00     0.163 HD
BRANCH  68  71
ATOM     71  C8  NON d   1     -19.693   3.871  35.804  0.00  0.00    -0.003 C 
ATOM     72  H39 NON d   1     -19.026   4.740  35.896  0.00  0.00     0.040 H 
ATOM     73  H40 NON d   1     -19.514   3.181  36.642  0.00  0.00     0.040 H 
ATOM     74  H41 NON d   1     -20.740   4.208  35.824  0.00  0.00     0.040 H 
ENDBRANCH  68  71
ENDBRANCH  57  67
BRANCH  58  75
ATOM     75  O3  NON d   1     -21.684   2.484  31.752  0.00  0.00    -0.391 OA
ATOM     76  H43 NON d   1     -21.055   2.681  31.068  0.00  0.00     0.210 HD
ENDBRANCH  58  75
BRANCH  60  77
ATOM     77  O4  NON d   1     -22.765  -0.126  30.978  0.00  0.00    -0.390 OA
ATOM     78  H44 NON d   1     -22.813  -0.801  30.311  0.00  0.00     0.210 HD
ENDBRANCH  60  77
BRANCH  62  79
ATOM     79  C6  NON d   1     -20.774  -2.277  30.813  0.00  0.00     0.043 C 
ATOM     80  H37 NON d   1     -21.814  -2.476  30.517  0.00  0.00     0.078 H 
ATOM     81  H38 NON d   1     -20.345  -3.179  31.273  0.00  0.00     0.078 H 
BRANCH  79  82
ATOM     82  O6  NON d   1     -20.023  -1.935  29.671  0.00  0.00    -0.398 OA
ATOM     83  H45 NON d   1     -20.393  -1.157  29.271  0.00  0.00     0.209 HD
ENDBRANCH  79  82
ENDBRANCH  62  79
ENDBRANCH  55  56
ENDBRANCH   3  55
BRANCH   5  84
ATOM     84  C6  NON d   1     -13.898  -2.586  34.392  0.00  0.00     0.043 C 
ATOM     85  H27 NON d   1     -13.298  -2.728  35.303  0.00  0.00     0.078 H 
ATOM     86  H28 NON d   1     -13.489  -1.746  33.811  0.00  0.00     0.078 H 
BRANCH  84  87
ATOM     87  O6  NON d   1     -13.843  -3.747  33.621  0.00  0.00    -0.398 OA
ATOM     88  H31 NON d   1     -12.940  -3.928  33.386  0.00  0.00     0.209 HD
ENDBRANCH  84  87
ENDBRANCH   5  84
BRANCH   2  89
ATOM     89  O2  NON d   1     -18.576  -0.297  36.564  0.00  0.00    -0.388 OA
ATOM     90  H30 NON d   1     -18.908  -1.187  36.587  0.00  0.00     0.210 HD
ENDBRANCH   2  89
BRANCH   1  91
ATOM     91  O1  NON d   1     -17.183  -2.325  36.789  0.00  0.00    -0.369 OA
ATOM     92  H29 NON d   1     -18.029  -2.054  37.126  0.00  0.00     0.212 HD
ENDBRANCH   1  91
TORSDOF 24
