REMARK  9 active torsions:
REMARK  status: ('A' for Active; 'I' for Inactive)
REMARK    1  A    between atoms: SBD_2  and  NAD_4 
REMARK    2  A    between atoms: SBD_2  and  OAS_5 
REMARK    3  A    between atoms: OAS_5  and  CAX_6 
REMARK    4  A    between atoms: CBB_9  and  CAB_11 
REMARK    5  A    between atoms: CAT_22  and  CAK_23 
REMARK    6  A    between atoms: CAK_23  and  CAA_24 
REMARK    7  A    between atoms: CAV_25  and  OAR_26 
REMARK    8  A    between atoms: OAR_26  and  SBC_27 
REMARK    9  A    between atoms: SBC_27  and  NAC_30 
ROOT
ATOM      1  CAX WZB d   1      -4.478   2.193  14.815  0.00  0.00     0.066 C 
ATOM      2  CAM WZB d   1      -4.336   1.368  13.512  0.00  0.00    -0.038 C 
ATOM      3  CAO WZB d   1      -3.338   2.159  12.643  0.00  0.00    -0.058 C 
ATOM      4  CBB WZB d   1      -4.272   3.640  14.369  0.00  0.00    -0.012 C 
ATOM      5  CBA WZB d   1      -2.970   3.309  13.595  0.00  0.00    -0.041 C 
ATOM      6  CAQ WZB d   1      -4.029   4.739  15.434  0.00  0.00    -0.055 C 
ATOM      7  CAP WZB d   1      -3.279   5.979  14.885  0.00  0.00    -0.057 C 
ATOM      8  CAY WZB d   1      -1.996   5.575  14.109  0.00  0.00    -0.024 C 
ATOM      9  CAZ WZB d   1      -2.310   4.564  12.931  0.00  0.00    -0.042 C 
ATOM     10  CAN WZB d   1      -1.013   4.199  12.153  0.00  0.00    -0.057 C 
ATOM     11  CAL WZB d   1      -0.409   5.462  11.465  0.00  0.00    -0.040 C 
ATOM     12  CAU WZB d   1      -0.490   6.733  12.322  0.00  0.00    -0.049 A 
ATOM     13  CAI WZB d   1       0.212   7.925  11.883  0.00  0.00    -0.042 A 
ATOM     14  CAW WZB d   1      -1.244   6.784  13.567  0.00  0.00    -0.047 A 
ATOM     15  CAJ WZB d   1      -1.096   7.994  14.047  0.00  0.00    -0.067 A 
ATOM     16  CAT WZB d   1      -0.564   9.186  13.890  0.00  0.00    -0.023 A 
ATOM     17  CAV WZB d   1       0.189   9.150  12.643  0.00  0.00     0.098 A 
ATOM     18  H3  WZB d   1      -3.684   1.910  15.522  0.00  0.00     0.086 H 
ATOM     19  H4  WZB d   1      -5.307   1.280  13.002  0.00  0.00     0.036 H 
ATOM     20  H5  WZB d   1      -3.945   0.363  13.732  0.00  0.00     0.036 H 
ATOM     21  H6  WZB d   1      -3.811   2.532  11.722  0.00  0.00     0.033 H 
ATOM     22  H7  WZB d   1      -2.458   1.552  12.383  0.00  0.00     0.033 H 
ATOM     23  H8  WZB d   1      -2.233   2.922  14.314  0.00  0.00     0.042 H 
ATOM     24  H12 WZB d   1      -3.433   4.306  16.251  0.00  0.00     0.034 H 
ATOM     25  H13 WZB d   1      -5.004   5.067  15.824  0.00  0.00     0.034 H 
ATOM     26  H14 WZB d   1      -2.997   6.627  15.728  0.00  0.00     0.034 H 
ATOM     27  H15 WZB d   1      -3.948   6.529  14.207  0.00  0.00     0.034 H 
ATOM     28  H16 WZB d   1      -1.333   5.062  14.821  0.00  0.00     0.048 H 
ATOM     29  H17 WZB d   1      -3.021   5.023  12.229  0.00  0.00     0.041 H 
ATOM     30  H18 WZB d   1      -1.252   3.449  11.385  0.00  0.00     0.034 H 
ATOM     31  H19 WZB d   1      -0.276   3.783  12.855  0.00  0.00     0.034 H 
ATOM     32  H20 WZB d   1      -0.955   5.641  10.527  0.00  0.00     0.040 H 
ATOM     33  H21 WZB d   1       0.649   5.262  11.241  0.00  0.00     0.040 H 
ATOM     34  H22 WZB d   1       0.771   7.893  10.955  0.00  0.00     0.088 H 
ATOM     35  H23 WZB d   1      -1.654   8.026  14.976  0.00  0.00     0.085 H 
ENDROOT
BRANCH   1  36
ATOM     36  OAS WZB d   1      -5.745   1.974  15.458  0.00  0.00    -0.254 OA
BRANCH  36  37
ATOM     37  SBD WZB d   1      -5.844   1.123  16.859  0.00  0.00     0.356 S 
ATOM     38  OAH WZB d   1      -7.259   1.081  17.195  0.00  0.00    -0.176 OA
ATOM     39  OAG WZB d   1      -5.064   1.720  17.890  0.00  0.00    -0.176 OA
BRANCH  37  40
ATOM     40  NAD WZB d   1      -5.257  -0.257  16.596  0.00  0.00    -0.306 N 
ATOM     41  H1  WZB d   1      -5.224  -0.934  17.331  0.00  0.00     0.171 HD
ATOM     42  H2  WZB d   1      -4.905  -0.486  15.688  0.00  0.00     0.171 HD
ENDBRANCH  37  40
ENDBRANCH  36  37
ENDBRANCH   1  36
BRANCH   4  43
ATOM     43  CAB WZB d   1      -5.518   4.093  13.518  0.00  0.00    -0.066 C 
ATOM     44  H9  WZB d   1      -6.366   4.294  14.189  0.00  0.00     0.028 H 
ATOM     45  H10 WZB d   1      -5.790   3.294  12.812  0.00  0.00     0.028 H 
ATOM     46  H11 WZB d   1      -5.268   5.007  12.959  0.00  0.00     0.028 H 
ENDBRANCH   4  43
BRANCH  16  47
ATOM     47  CAK WZB d   1      -0.683  10.394  14.814  0.00  0.00    -0.042 C 
ATOM     48  H24 WZB d   1       0.232  11.002  14.752  0.00  0.00     0.039 H 
ATOM     49  H25 WZB d   1      -0.829  10.056  15.851  0.00  0.00     0.039 H 
BRANCH  47  50
ATOM     50  CAA WZB d   1      -1.882  11.221  14.368  0.00  0.00    -0.073 C 
ATOM     51  H26 WZB d   1      -1.986  12.099  15.023  0.00  0.00     0.028 H 
ATOM     52  H27 WZB d   1      -2.793  10.608  14.429  0.00  0.00     0.028 H 
ATOM     53  H28 WZB d   1      -1.733  11.553  13.330  0.00  0.00     0.028 H 
ENDBRANCH  47  50
ENDBRANCH  16  47
BRANCH  17  54
ATOM     54  OAR WZB d   1       0.893  10.247  12.161  0.00  0.00    -0.216 OA
BRANCH  54  55
ATOM     55  SBC WZB d   1       2.543  10.254  12.257  0.00  0.00     0.360 S 
ATOM     56  OAF WZB d   1       3.008  11.647  12.059  0.00  0.00    -0.176 OA
ATOM     57  OAE WZB d   1       3.116   9.406  11.188  0.00  0.00    -0.176 OA
BRANCH  55  58
ATOM     58  NAC WZB d   1       3.041   9.733  13.605  0.00  0.00    -0.305 N 
ATOM     59  H29 WZB d   1       4.022   9.686  13.791  0.00  0.00     0.171 HD
ATOM     60  H30 WZB d   1       2.385   9.439  14.301  0.00  0.00     0.171 HD
ENDBRANCH  55  58
ENDBRANCH  54  55
ENDBRANCH  17  54
TORSDOF 9
