REMARK  7 active torsions:
REMARK  status: ('A' for Active; 'I' for Inactive)
REMARK    1  A    between atoms: O3_9  and  C1_1 
REMARK    2  A    between atoms: C2_4  and  O4_12 
REMARK    3  A    between atoms: S1_7  and  N1_8 
REMARK    4  A    between atoms: S1_7  and  O3_9 
REMARK    5  A    between atoms: O4_12  and  C7_13 
REMARK    6  A    between atoms: C14_19  and  C16_21 
REMARK    7  A    between atoms: C15_20  and  OAF_26 
ROOT
ATOM      1  C1  WZA d   1       2.078   4.858 -17.868  0.00  0.00     0.124 A 
ATOM      2  C2  WZA d   1       1.237   3.788 -18.455  0.00  0.00     0.103 A 
ATOM      3  C3  WZA d   1       1.779   2.594 -18.892  0.00  0.00    -0.041 A 
ATOM      4  C4  WZA d   1       3.137   2.361 -18.795  0.00  0.00    -0.044 A 
ATOM      5  C5  WZA d   1       4.013   3.401 -18.194  0.00  0.00    -0.049 A 
ATOM      6  C6  WZA d   1       3.451   4.611 -17.752  0.00  0.00    -0.040 A 
ATOM      7  C8  WZA d   1       3.652   1.056 -19.275  0.00  0.00    -0.024 C 
ATOM      8  C10 WZA d   1       5.820   1.640 -18.095  0.00  0.00    -0.057 C 
ATOM      9  C11 WZA d   1       5.506   3.140 -18.083  0.00  0.00    -0.040 C 
ATOM     10  C12 WZA d   1       3.063   0.646 -20.632  0.00  0.00    -0.057 C 
ATOM     11  C13 WZA d   1       3.420  -0.819 -20.937  0.00  0.00    -0.055 C 
ATOM     12  C14 WZA d   1       4.914  -1.098 -20.763  0.00  0.00    -0.014 C 
ATOM     13  C15 WZA d   1       5.238  -2.566 -20.555  0.00  0.00     0.043 C 
ATOM     14  C17 WZA d   1       5.386  -0.551 -19.416  0.00  0.00    -0.041 C 
ATOM     15  C18 WZA d   1       6.748  -1.195 -19.161  0.00  0.00    -0.058 C 
ATOM     16  C19 WZA d   1       6.616  -2.572 -19.873  0.00  0.00    -0.040 C 
ATOM     17  CAW WZA d   1       5.176   0.962 -19.303  0.00  0.00    -0.042 C 
ATOM     18  H1  WZA d   1       1.132   1.833 -19.315  0.00  0.00     0.088 H 
ATOM     19  H4  WZA d   1       4.092   5.367 -17.313  0.00  0.00     0.088 H 
ATOM     20  H8  WZA d   1       3.309   0.309 -18.544  0.00  0.00     0.048 H 
ATOM     21  H9  WZA d   1       5.430   1.182 -17.174  0.00  0.00     0.034 H 
ATOM     22  H10 WZA d   1       6.910   1.500 -18.141  0.00  0.00     0.034 H 
ATOM     23  H11 WZA d   1       5.875   3.574 -17.142  0.00  0.00     0.040 H 
ATOM     24  H12 WZA d   1       6.016   3.618 -18.932  0.00  0.00     0.040 H 
ATOM     25  H13 WZA d   1       3.476   1.294 -21.419  0.00  0.00     0.034 H 
ATOM     26  H14 WZA d   1       1.969   0.756 -20.603  0.00  0.00     0.034 H 
ATOM     27  H15 WZA d   1       3.136  -1.044 -21.976  0.00  0.00     0.034 H 
ATOM     28  H16 WZA d   1       2.856  -1.471 -20.253  0.00  0.00     0.034 H 
ATOM     29  H17 WZA d   1       4.494  -3.018 -19.883  0.00  0.00     0.084 H 
ATOM     30  H21 WZA d   1       4.721  -0.970 -18.646  0.00  0.00     0.042 H 
ATOM     31  H22 WZA d   1       6.931  -1.322 -18.084  0.00  0.00     0.033 H 
ATOM     32  H23 WZA d   1       7.558  -0.597 -19.603  0.00  0.00     0.033 H 
ATOM     33  H24 WZA d   1       7.413  -2.693 -20.622  0.00  0.00     0.036 H 
ATOM     34  H25 WZA d   1       6.676  -3.389 -19.139  0.00  0.00     0.036 H 
ATOM     35  H26 WZA d   1       5.571   1.454 -20.204  0.00  0.00     0.041 H 
ENDROOT
BRANCH   1  36
ATOM     36  O3  WZA d   1       1.531   6.033 -17.396  0.00  0.00    -0.214 OA
BRANCH  36  37
ATOM     37  S1  WZA d   1       0.919   7.354 -18.181  0.00  0.00     0.360 S 
ATOM     38  O1  WZA d   1       1.610   7.688 -19.378  0.00  0.00    -0.176 OA
ATOM     39  O2  WZA d   1      -0.485   7.171 -18.460  0.00  0.00    -0.176 OA
BRANCH  37  40
ATOM     40  N1  WZA d   1       1.108   8.545 -17.132  0.00  0.00    -0.305 N 
ATOM     41  H2  WZA d   1       0.812   9.471 -17.368  0.00  0.00     0.171 HD
ATOM     42  H3  WZA d   1       1.522   8.365 -16.240  0.00  0.00     0.171 HD
ENDBRANCH  37  40
ENDBRANCH  36  37
ENDBRANCH   1  36
BRANCH   2  43
ATOM     43  O4  WZA d   1      -0.098   3.907 -18.574  0.00  0.00    -0.353 OA
BRANCH  43  44
ATOM     44  C7  WZA d   1      -0.810   2.873 -17.896  0.00  0.00     0.010 C 
ATOM     45  H5  WZA d   1      -1.891   3.024 -18.029  0.00  0.00     0.066 H 
ATOM     46  H6  WZA d   1      -0.565   2.901 -16.824  0.00  0.00     0.066 H 
ATOM     47  H7  WZA d   1      -0.522   1.896 -18.312  0.00  0.00     0.066 H 
ENDBRANCH  43  44
ENDBRANCH   2  43
BRANCH  12  48
ATOM     48  C16 WZA d   1       5.641  -0.489 -21.972  0.00  0.00    -0.066 C 
ATOM     49  H18 WZA d   1       5.366   0.572 -22.069  0.00  0.00     0.028 H 
ATOM     50  H19 WZA d   1       5.349  -1.028 -22.885  0.00  0.00     0.028 H 
ATOM     51  H20 WZA d   1       6.728  -0.574 -21.827  0.00  0.00     0.028 H 
ENDBRANCH  12  48
BRANCH  13  52
ATOM     52  OAF WZA d   1       5.227  -3.295 -21.786  0.00  0.00    -0.395 OA
ATOM     53  H27 WZA d   1       4.357  -3.261 -22.165  0.00  0.00     0.210 HD
ENDBRANCH  13  52
TORSDOF 7
