REMARK  13 active torsions:
REMARK  status: ('A' for Active; 'I' for Inactive)
REMARK    1  A    between atoms: C2_10  and  N1_6 
REMARK    2  A    between atoms: N1_6  and  C4_12 
REMARK       I    between atoms: C1_9  and  N2_7 
REMARK    3  A    between atoms: C13_21  and  N3_8 
REMARK    4  A    between atoms: C2_10  and  C1_9 
REMARK    5  A    between atoms: C10_18  and  C2_10 
REMARK    6  A    between atoms: C4_12  and  C3_11 
REMARK    7  A    between atoms: C4_12  and  C14_22 
REMARK    8  A    between atoms: C5_13  and  C9_17 
REMARK    9  A    between atoms: C11_19  and  C10_18 
REMARK   10  A    between atoms: C12_20  and  C11_19 
REMARK   11  A    between atoms: C12_20  and  C13_21 
REMARK   12  A    between atoms: C14_22  and  C15_23 
REMARK   13  A    between atoms: C15_23  and  C16_24 
ROOT
ATOM      1  C2  LPR d   1      27.432  -3.634  43.929  0.00  0.00     0.179 C 
ATOM      2  H6  LPR d   1      26.977  -3.789  44.919  0.00  0.00     0.099 H 
ENDROOT
BRANCH   1   3
ATOM      3  N1  LPR d   1      27.226  -2.205  43.502  0.00  0.00    -0.048 N 
ATOM      4  H1  LPR d   1      26.245  -2.099  43.295  0.00  0.00     0.279 HD
ATOM      5  H2  LPR d   1      27.763  -2.071  42.660  0.00  0.00     0.279 HD
BRANCH   3   6
ATOM      6  C4  LPR d   1      27.603  -1.072  44.455  0.00  0.00     0.185 C 
ATOM      7  H7  LPR d   1      28.695  -1.073  44.590  0.00  0.00     0.101 H 
BRANCH   6   8
ATOM      8  C3  LPR d   1      26.953  -1.368  45.811  0.00  0.00     0.204 C 
ATOM      9  O2  LPR d   1      27.647  -1.401  46.838  0.00  0.00    -0.646 OA
ATOM     10  O3  LPR d   1      25.708  -1.569  45.830  0.00  0.00    -0.646 OA
ENDBRANCH   6   8
BRANCH   6  11
ATOM     11  C14 LPR d   1      27.203   0.317  43.864  0.00  0.00    -0.025 C 
ATOM     12  H23 LPR d   1      26.113   0.441  43.941  0.00  0.00     0.037 H 
ATOM     13  H24 LPR d   1      27.503   0.359  42.807  0.00  0.00     0.037 H 
BRANCH  11  14
ATOM     14  C15 LPR d   1      27.887   1.446  44.621  0.00  0.00    -0.039 C 
ATOM     15  H25 LPR d   1      28.971   1.296  44.513  0.00  0.00     0.040 H 
ATOM     16  H26 LPR d   1      27.606   1.341  45.679  0.00  0.00     0.040 H 
BRANCH  14  17
ATOM     17  C16 LPR d   1      27.599   2.867  44.228  0.00  0.00    -0.058 A 
ATOM     18  C17 LPR d   1      28.175   3.928  44.992  0.00  0.00    -0.077 A 
ATOM     19  C18 LPR d   1      27.926   5.286  44.648  0.00  0.00    -0.082 A 
ATOM     20  H27 LPR d   1      28.807   3.696  45.841  0.00  0.00     0.084 H 
ATOM     21  C19 LPR d   1      27.084   5.593  43.528  0.00  0.00    -0.083 A 
ATOM     22  H28 LPR d   1      28.371   6.085  45.230  0.00  0.00     0.083 H 
ATOM     23  C20 LPR d   1      26.499   4.538  42.760  0.00  0.00    -0.082 A 
ATOM     24  H29 LPR d   1      26.891   6.626  43.263  0.00  0.00     0.083 H 
ATOM     25  C21 LPR d   1      26.758   3.180  43.108  0.00  0.00    -0.077 A 
ATOM     26  H30 LPR d   1      25.860   4.770  41.916  0.00  0.00     0.083 H 
ATOM     27  H31 LPR d   1      26.318   2.380  42.524  0.00  0.00     0.084 H 
ENDBRANCH  14  17
ENDBRANCH  11  14
ENDBRANCH   6  11
ENDBRANCH   3   6
ENDBRANCH   1   3
BRANCH   1  28
ATOM     28  C1  LPR d   1      28.988  -3.817  43.985  0.00  0.00     0.251 C 
ATOM     29  O1  LPR d   1      29.717  -3.059  43.266  0.00  0.00    -0.271 OA
ATOM     30  N2  LPR d   1      29.576  -4.752  44.762  0.00  0.00    -0.336 N 
ATOM     31  C5  LPR d   1      31.083  -4.893  44.743  0.00  0.00     0.098 C 
ATOM     32  C8  LPR d   1      28.968  -5.755  45.681  0.00  0.00    -0.001 C 
ATOM     33  C6  LPR d   1      31.284  -6.118  45.650  0.00  0.00    -0.035 C 
ATOM     34  H8  LPR d   1      31.585  -4.001  45.146  0.00  0.00     0.089 H 
ATOM     35  C7  LPR d   1      30.155  -6.262  46.407  0.00  0.00    -0.048 C 
ATOM     36  H9  LPR d   1      32.156  -5.962  46.303  0.00  0.00     0.036 H 
ATOM     37  H10 LPR d   1      31.441  -7.017  45.036  0.00  0.00     0.036 H 
ATOM     38  H11 LPR d   1      30.274  -5.697  47.343  0.00  0.00     0.035 H 
ATOM     39  H12 LPR d   1      30.009  -7.327  46.638  0.00  0.00     0.035 H 
ATOM     40  H13 LPR d   1      28.468  -6.559  45.121  0.00  0.00     0.064 H 
ATOM     41  H14 LPR d   1      28.250  -5.284  46.368  0.00  0.00     0.064 H 
BRANCH  31  42
ATOM     42  C9  LPR d   1      31.574  -5.170  43.308  0.00  0.00     0.196 C 
ATOM     43  O4  LPR d   1      30.937  -5.812  42.530  0.00  0.00    -0.646 OA
ATOM     44  O5  LPR d   1      32.695  -4.603  43.057  0.00  0.00    -0.646 OA
ENDBRANCH  31  42
ENDBRANCH   1  28
BRANCH   1  45
ATOM     45  C10 LPR d   1      26.906  -4.677  42.977  0.00  0.00    -0.030 C 
ATOM     46  H15 LPR d   1      25.838  -4.463  42.822  0.00  0.00     0.036 H 
ATOM     47  H16 LPR d   1      27.016  -5.652  43.474  0.00  0.00     0.036 H 
BRANCH  45  48
ATOM     48  C11 LPR d   1      27.512  -4.799  41.661  0.00  0.00    -0.061 C 
ATOM     49  H17 LPR d   1      28.584  -4.997  41.811  0.00  0.00     0.033 H 
ATOM     50  H18 LPR d   1      27.386  -3.832  41.151  0.00  0.00     0.033 H 
BRANCH  48  51
ATOM     51  C12 LPR d   1      26.947  -5.939  40.673  0.00  0.00    -0.043 C 
ATOM     52  H19 LPR d   1      26.122  -5.527  40.073  0.00  0.00     0.035 H 
ATOM     53  H20 LPR d   1      26.579  -6.788  41.267  0.00  0.00     0.035 H 
BRANCH  51  54
ATOM     54  C13 LPR d   1      28.000  -6.389  39.795  0.00  0.00     0.080 C 
ATOM     55  H21 LPR d   1      28.363  -5.529  39.214  0.00  0.00     0.075 H 
ATOM     56  H22 LPR d   1      28.820  -6.789  40.409  0.00  0.00     0.075 H 
BRANCH  54  57
ATOM     57  N3  LPR d   1      27.551  -7.462  38.835  0.00  0.00    -0.079 N 
ATOM     58  H3  LPR d   1      28.325  -7.735  38.250  0.00  0.00     0.274 HD
ATOM     59  H4  LPR d   1      26.804  -7.106  38.259  0.00  0.00     0.274 HD
ATOM     60  H5  LPR d   1      27.224  -8.262  39.354  0.00  0.00     0.274 HD
ENDBRANCH  54  57
ENDBRANCH  51  54
ENDBRANCH  48  51
ENDBRANCH  45  48
ENDBRANCH   1  45
TORSDOF 13
