REMARK  13 active torsions:
REMARK  status: ('A' for Active; 'I' for Inactive)
REMARK    1  A    between atoms: C24_2  and  C23_4 
REMARK    2  A    between atoms: C23_4  and  C25_5 
REMARK    3  A    between atoms: C23_4  and  N2_15 
REMARK    4  A    between atoms: C25_5  and  C26_6 
REMARK       I    between atoms: N2_15  and  C19_16 
REMARK    5  A    between atoms: C19_16  and  C18_18 
REMARK    6  A    between atoms: C17_22  and  P1_23 
REMARK    7  A    between atoms: P1_23  and  C9_26 
REMARK    8  A    between atoms: C9_26  and  C10_27 
REMARK    9  A    between atoms: C9_26  and  N1_34 
REMARK   10  A    between atoms: C10_27  and  C11_28 
REMARK       I    between atoms: N1_34  and  C1_35 
REMARK   11  A    between atoms: C1_35  and  O1_37 
REMARK   12  A    between atoms: O1_37  and  C2_38 
REMARK   13  A    between atoms: C2_38  and  C3_39 
ROOT
ATOM      1  C18 RX3 d   1      27.776   3.822  23.684  0.00  0.00     0.036 C 
ATOM      2  C20 RX3 d   1      27.227   4.892  24.627  0.00  0.00    -0.053 C 
ATOM      3  C21 RX3 d   1      26.007   4.303  25.331  0.00  0.00    -0.063 C 
ATOM      4  C22 RX3 d   1      26.085   2.786  25.176  0.00  0.00    -0.052 C 
ATOM      5  C17 RX3 d   1      26.872   2.641  23.911  0.00  0.00     0.035 C 
ATOM      6  H11 RX3 d   1      27.682   4.152  22.639  0.00  0.00     0.056 H 
ATOM      7  H12 RX3 d   1      26.935   5.784  24.053  0.00  0.00     0.034 H 
ATOM      8  H13 RX3 d   1      27.992   5.167  25.368  0.00  0.00     0.034 H 
ATOM      9  H14 RX3 d   1      25.084   4.682  24.867  0.00  0.00     0.033 H 
ATOM     10  H15 RX3 d   1      26.020   4.574  26.397  0.00  0.00     0.033 H 
ATOM     11  H16 RX3 d   1      25.083   2.343  25.076  0.00  0.00     0.034 H 
ATOM     12  H17 RX3 d   1      26.608   2.324  26.027  0.00  0.00     0.034 H 
ATOM     13  H18 RX3 d   1      27.658   2.037  24.388  0.00  0.00     0.057 H 
ENDROOT
BRANCH   5  14
ATOM     14  P1  RX3 d   1      26.599   1.426  22.729  0.00  0.00     0.135 P 
ATOM     15  O3  RX3 d   1      27.590   1.635  21.600  0.00  0.00    -0.666 OA
ATOM     16  O4  RX3 d   1      25.195   1.725  22.308  0.00  0.00    -0.666 OA
BRANCH  14  17
ATOM     17  C9  RX3 d   1      26.847  -0.264  23.080  0.00  0.00     0.093 C 
ATOM     18  H19 RX3 d   1      27.716  -0.275  22.405  0.00  0.00     0.089 H 
BRANCH  17  19
ATOM     19  C10 RX3 d   1      27.715  -0.805  24.208  0.00  0.00    -0.013 C 
ATOM     20  H20 RX3 d   1      27.378  -0.362  25.157  0.00  0.00     0.044 H 
ATOM     21  H21 RX3 d   1      28.760  -0.517  24.020  0.00  0.00     0.044 H 
BRANCH  19  22
ATOM     22  C11 RX3 d   1      27.638  -2.326  24.321  0.00  0.00    -0.056 A 
ATOM     23  C13 RX3 d   1      26.919  -2.903  25.379  0.00  0.00    -0.077 A 
ATOM     24  C15 RX3 d   1      26.817  -4.300  25.498  0.00  0.00    -0.082 A 
ATOM     25  H22 RX3 d   1      26.438  -2.265  26.112  0.00  0.00     0.084 H 
ATOM     26  C16 RX3 d   1      27.431  -5.137  24.550  0.00  0.00    -0.083 A 
ATOM     27  H23 RX3 d   1      26.263  -4.733  26.323  0.00  0.00     0.083 H 
ATOM     28  C14 RX3 d   1      28.143  -4.574  23.479  0.00  0.00    -0.082 A 
ATOM     29  H24 RX3 d   1      27.355  -6.214  24.646  0.00  0.00     0.083 H 
ATOM     30  C12 RX3 d   1      28.243  -3.178  23.370  0.00  0.00    -0.077 A 
ATOM     31  H25 RX3 d   1      28.613  -5.213  22.741  0.00  0.00     0.083 H 
ATOM     32  H26 RX3 d   1      28.794  -2.746  22.542  0.00  0.00     0.084 H 
ENDBRANCH  19  22
ENDBRANCH  17  19
BRANCH  17  33
ATOM     33  N1  RX3 d   1      26.192  -1.171  22.311  0.00  0.00    -0.322 N 
ATOM     34  C1  RX3 d   1      25.093  -1.824  21.945  0.00  0.00     0.361 C 
ATOM     35  O2  RX3 d   1      24.067  -1.891  22.587  0.00  0.00    -0.238 OA
ATOM     36  H27 RX3 d   1      26.902  -1.537  21.710  0.00  0.00     0.165 HD
BRANCH  34  37
ATOM     37  O1  RX3 d   1      25.125  -2.503  20.667  0.00  0.00    -0.299 OA
BRANCH  37  38
ATOM     38  C2  RX3 d   1      23.981  -2.686  19.840  0.00  0.00     0.054 C 
ATOM     39  H28 RX3 d   1      23.539  -1.708  19.600  0.00  0.00     0.082 H 
ATOM     40  H29 RX3 d   1      23.239  -3.304  20.367  0.00  0.00     0.082 H 
BRANCH  38  41
ATOM     41  C3  RX3 d   1      24.407  -3.381  18.560  0.00  0.00    -0.034 A 
ATOM     42  C4  RX3 d   1      25.298  -2.756  17.675  0.00  0.00    -0.075 A 
ATOM     43  C6  RX3 d   1      25.681  -3.413  16.498  0.00  0.00    -0.082 A 
ATOM     44  H30 RX3 d   1      25.688  -1.770  17.900  0.00  0.00     0.084 H 
ATOM     45  C8  RX3 d   1      25.168  -4.686  16.192  0.00  0.00    -0.083 A 
ATOM     46  H34 RX3 d   1      26.378  -2.936  15.818  0.00  0.00     0.083 H 
ATOM     47  C7  RX3 d   1      24.279  -5.310  17.072  0.00  0.00    -0.082 A 
ATOM     48  H33 RX3 d   1      25.462  -5.183  15.274  0.00  0.00     0.083 H 
ATOM     49  C5  RX3 d   1      23.897  -4.656  18.254  0.00  0.00    -0.075 A 
ATOM     50  H32 RX3 d   1      23.887  -6.294  16.843  0.00  0.00     0.083 H 
ATOM     51  H31 RX3 d   1      23.204  -5.137  18.936  0.00  0.00     0.084 H 
ENDBRANCH  38  41
ENDBRANCH  37  38
ENDBRANCH  34  37
ENDBRANCH  17  33
ENDBRANCH  14  17
ENDBRANCH   5  14
BRANCH   1  52
ATOM     52  C19 RX3 d   1      29.233   3.581  23.964  0.00  0.00     0.223 C 
ATOM     53  N2  RX3 d   1      30.012   4.570  23.521  0.00  0.00    -0.346 N 
ATOM     54  H10 RX3 d   1      29.576   5.341  23.056  0.00  0.00     0.163 HD
ATOM     55  O5  RX3 d   1      29.630   2.564  24.547  0.00  0.00    -0.273 OA
BRANCH  53  56
ATOM     56  C23 RX3 d   1      31.465   4.593  23.675  0.00  0.00     0.100 C 
ATOM     57  H1  RX3 d   1      31.878   3.654  23.278  0.00  0.00     0.090 H 
BRANCH  56  58
ATOM     58  C24 RX3 d   1      31.893   4.710  25.125  0.00  0.00     0.197 C 
ATOM     59  OXT RX3 d   1      33.100   4.566  25.402  0.00  0.00    -0.646 OA
ATOM     60  O6  RX3 d   1      31.041   4.946  26.018  0.00  0.00    -0.646 OA
ENDBRANCH  56  58
BRANCH  56  61
ATOM     61  C25 RX3 d   1      31.983   5.762  22.824  0.00  0.00    -0.011 C 
ATOM     62  H2  RX3 d   1      31.733   5.555  21.773  0.00  0.00     0.044 H 
ATOM     63  H3  RX3 d   1      33.076   5.809  22.939  0.00  0.00     0.044 H 
BRANCH  61  64
ATOM     64  C26 RX3 d   1      31.415   7.117  23.183  0.00  0.00    -0.028 A 
ATOM     65  C28 RX3 d   1      30.465   7.845  22.478  0.00  0.00    -0.002 A 
ATOM     66  C30 RX3 d   1      29.786   7.553  21.282  0.00  0.00    -0.070 A 
ATOM     67  C29 RX3 d   1      30.231   9.038  23.177  0.00  0.00     0.042 A 
ATOM     68  C32 RX3 d   1      28.862   8.481  20.786  0.00  0.00    -0.082 A 
ATOM     69  H4  RX3 d   1      29.974   6.626  20.753  0.00  0.00     0.084 H 
ATOM     70  C33 RX3 d   1      28.619   9.681  21.470  0.00  0.00    -0.081 A 
ATOM     71  H5  RX3 d   1      28.330   8.270  19.865  0.00  0.00     0.083 H 
ATOM     72  C31 RX3 d   1      29.296   9.967  22.668  0.00  0.00    -0.056 A 
ATOM     73  H6  RX3 d   1      27.904  10.393  21.072  0.00  0.00     0.083 H 
ATOM     74  H7  RX3 d   1      29.102  10.893  23.197  0.00  0.00     0.086 H 
ATOM     75  N3  RX3 d   1      31.024   9.034  24.280  0.00  0.00    -0.365 N 
ATOM     76  C27 RX3 d   1      31.743   7.882  24.299  0.00  0.00    -0.015 A 
ATOM     77  H8  RX3 d   1      31.072   9.782  24.986  0.00  0.00     0.165 HD
ATOM     78  H9  RX3 d   1      32.463   7.601  25.066  0.00  0.00     0.112 H 
ENDBRANCH  61  64
ENDBRANCH  56  61
ENDBRANCH  53  56
ENDBRANCH   1  52
TORSDOF 13
