REMARK  6 active torsions:
REMARK  status: ('A' for Active; 'I' for Inactive)
REMARK    1  A    between atoms: C1_1  and  C2_2 
REMARK    2  A    between atoms: C2_2  and  C3_3 
REMARK    3  A    between atoms: C2_2  and  C4_4 
REMARK    4  A    between atoms: C6_6  and  C7_7 
REMARK       I    between atoms: C7_7  and  N9_9 
REMARK    5  A    between atoms: C18_18  and  O19_19 
REMARK    6  A    between atoms: C21_21  and  O22_22 
ROOT
ATOM      1  C4  VHD d   1      -0.102  32.939   0.890  0.00  0.00    -0.020 A 
ATOM      2  C5  VHD d   1      -0.333  33.524  -0.360  0.00  0.00    -0.056 A 
ATOM      3  C6  VHD d   1      -1.615  33.909  -0.752  0.00  0.00     0.066 A 
ATOM      4  C18 VHD d   1      -2.706  33.674   0.116  0.00  0.00     0.084 A 
ATOM      5  C20 VHD d   1      -2.501  33.062   1.346  0.00  0.00    -0.018 A 
ATOM      6  C21 VHD d   1      -1.214  32.697   1.740  0.00  0.00     0.075 A 
ATOM      7  H8  VHD d   1       0.500  33.681  -1.036  0.00  0.00     0.086 H 
ATOM      8  H16 VHD d   1      -3.343  32.868   2.001  0.00  0.00     0.092 H 
ENDROOT
BRANCH   3   9
ATOM      9  C7  VHD d   1      -1.793  34.585  -2.073  0.00  0.00     0.264 C 
ATOM     10  O8  VHD d   1      -2.391  34.019  -2.976  0.00  0.00    -0.267 OA
ATOM     11  N9  VHD d   1      -1.315  35.865  -2.211  0.00  0.00    -0.298 N 
ATOM     12  C10 VHD d   1      -1.472  36.660  -3.440  0.00  0.00    -0.002 C 
ATOM     13  C17 VHD d   1      -0.783  36.655  -1.093  0.00  0.00    -0.002 C 
ATOM     14  C11 VHD d   1      -1.256  38.064  -2.947  0.00  0.00    -0.009 A 
ATOM     15  H9  VHD d   1      -1.690  36.318  -4.451  0.00  0.00     0.113 H 
ATOM     16  C12 VHD d   1      -1.373  39.270  -3.630  0.00  0.00    -0.071 A 
ATOM     17  C16 VHD d   1      -0.874  38.060  -1.615  0.00  0.00    -0.009 A 
ATOM     18  C13 VHD d   1      -1.118  40.461  -2.979  0.00  0.00    -0.082 A 
ATOM     19  H10 VHD d   1      -1.665  39.275  -4.674  0.00  0.00     0.084 H 
ATOM     20  C14 VHD d   1      -0.746  40.458  -1.650  0.00  0.00    -0.082 A 
ATOM     21  H11 VHD d   1      -1.210  41.400  -3.513  0.00  0.00     0.083 H 
ATOM     22  C15 VHD d   1      -0.622  39.265  -0.965  0.00  0.00    -0.071 A 
ATOM     23  H12 VHD d   1      -0.550  41.395  -1.142  0.00  0.00     0.083 H 
ATOM     24  H13 VHD d   1      -0.329  39.267   0.079  0.00  0.00     0.084 H 
ATOM     25  H14 VHD d   1      -0.415  36.309  -0.128  0.00  0.00     0.113 H 
ENDBRANCH   3   9
BRANCH   4  26
ATOM     26  O19 VHD d   1      -3.969  34.023  -0.264  0.00  0.00    -0.360 OA
ATOM     27  H15 VHD d   1      -4.580  33.799   0.428  0.00  0.00     0.217 HD
ENDBRANCH   4  26
BRANCH   1  28
ATOM     28  C2  VHD d   1       1.298  32.477   1.266  0.00  0.00    -0.033 C 
ATOM     29  H4  VHD d   1       1.347  32.426   2.364  0.00  0.00     0.046 H 
BRANCH  28  30
ATOM     30  C1  VHD d   1       1.570  31.078   0.717  0.00  0.00    -0.069 C 
ATOM     31  H1  VHD d   1       2.586  30.764   1.000  0.00  0.00     0.028 H 
ATOM     32  H2  VHD d   1       1.482  31.091  -0.379  0.00  0.00     0.028 H 
ATOM     33  H3  VHD d   1       0.838  30.371   1.135  0.00  0.00     0.028 H 
ENDBRANCH  28  30
BRANCH  28  34
ATOM     34  C3  VHD d   1       2.380  33.451   0.800  0.00  0.00    -0.069 C 
ATOM     35  H5  VHD d   1       2.170  34.453   1.203  0.00  0.00     0.028 H 
ATOM     36  H6  VHD d   1       2.387  33.492  -0.299  0.00  0.00     0.028 H 
ATOM     37  H7  VHD d   1       3.361  33.109   1.161  0.00  0.00     0.028 H 
ENDBRANCH  28  34
ENDBRANCH   1  28
BRANCH   6  38
ATOM     38  O22 VHD d   1      -1.026  32.134   2.965  0.00  0.00    -0.360 OA
ATOM     39  H17 VHD d   1      -1.528  31.329   3.023  0.00  0.00     0.217 HD
ENDBRANCH   6  38
TORSDOF 6
