REMARK  13 active torsions:
REMARK  status: ('A' for Active; 'I' for Inactive)
REMARK    1  A    between atoms: C2_2  and  N29_29 
REMARK    2  A    between atoms: C4_4  and  N7_7 
REMARK    3  A    between atoms: N7_7  and  C8_8 
REMARK    4  A    between atoms: C11_11  and  N16_16 
REMARK    5  A    between atoms: C13_13  and  O14_14 
REMARK    6  A    between atoms: O14_14  and  C15_15 
REMARK    7  A    between atoms: C19_19  and  N22_22 
REMARK    8  A    between atoms: N25_25  and  C28_28 
REMARK    9  A    between atoms: N29_29  and  C30_30 
REMARK   10  A    between atoms: C31_31  and  S36_36 
REMARK   11  A    between atoms: S36_36  and  C37_37 
REMARK   12  A    between atoms: C37_37  and  C38_38 
REMARK   13  A    between atoms: C37_37  and  C39_39 
ROOT
ATOM      1  C8  GUI d   1       2.296  19.907   8.164  0.00  0.00     0.082 A 
ATOM      2  C9  GUI d   1       3.585  20.286   8.012  0.00  0.00    -0.052 A 
ATOM      3  C10 GUI d   1       3.949  21.455   7.189  0.00  0.00    -0.055 A 
ATOM      4  C11 GUI d   1       2.989  22.184   6.563  0.00  0.00     0.033 A 
ATOM      5  C12 GUI d   1       1.560  21.771   6.727  0.00  0.00    -0.023 A 
ATOM      6  C13 GUI d   1       1.216  20.690   7.482  0.00  0.00     0.097 A 
ATOM      7  H3  GUI d   1       4.367  19.719   8.505  0.00  0.00     0.087 H 
ATOM      8  H4  GUI d   1       4.991  21.734   7.083  0.00  0.00     0.087 H 
ATOM      9  H5  GUI d   1       0.782  22.344   6.235  0.00  0.00     0.091 H 
ENDROOT
BRANCH   1  10
ATOM     10  N7  GUI d   1       2.002  18.766   8.982  0.00  0.00    -0.185 N 
ATOM     11  H2  GUI d   1       1.053  18.770   9.381  0.00  0.00     0.184 HD
BRANCH  10  12
ATOM     12  C4  GUI d   1       2.773  17.635   9.343  0.00  0.00     0.728 A 
ATOM     13  N3  GUI d   1       3.899  17.443   8.781  0.00  0.00    -0.043 NA
ATOM     14  C2  GUI d   1       4.720  16.337   9.093  0.00  0.00     0.170 A 
ATOM     15  C1  GUI d   1       4.287  15.446  10.029  0.00  0.00     0.098 A 
ATOM     16  C6  GUI d   1       3.011  15.687  10.650  0.00  0.00     0.046 A 
ATOM     17 CL   GUI d   1       5.204  14.061  10.486  0.00  0.00    -0.079 Cl
ATOM     18  N5  GUI d   1       2.320  16.718  10.313  0.00  0.00    -0.073 NA
ATOM     19  H1  GUI d   1       2.633  15.001  11.400  0.00  0.00     0.118 H 
BRANCH  14  20
ATOM     20  N29 GUI d   1       5.989  16.134   8.452  0.00  0.00    -0.338 N 
ATOM     21  H31 GUI d   1       6.556  15.351   8.809  0.00  0.00     0.167 HD
BRANCH  20  22
ATOM     22  C30 GUI d   1       6.563  16.886   7.378  0.00  0.00     0.055 A 
ATOM     23  C31 GUI d   1       7.917  16.833   7.204  0.00  0.00     0.086 A 
ATOM     24  C32 GUI d   1       8.552  17.605   6.093  0.00  0.00    -0.060 A 
ATOM     25  C33 GUI d   1       7.790  18.361   5.257  0.00  0.00    -0.081 A 
ATOM     26  H32 GUI d   1       9.626  17.562   5.952  0.00  0.00     0.085 H 
ATOM     27  C34 GUI d   1       6.323  18.421   5.445  0.00  0.00    -0.081 A 
ATOM     28  H33 GUI d   1       8.257  18.919   4.454  0.00  0.00     0.083 H 
ATOM     29  C35 GUI d   1       5.746  17.721   6.448  0.00  0.00    -0.056 A 
ATOM     30  H34 GUI d   1       5.714  19.024   4.781  0.00  0.00     0.083 H 
ATOM     31  H35 GUI d   1       4.671  17.767   6.579  0.00  0.00     0.087 H 
BRANCH  23  32
ATOM     32  S36 GUI d   1       8.933  15.854   8.306  0.00  0.00     0.181 S 
ATOM     33  O40 GUI d   1      10.046  15.168   7.531  0.00  0.00    -0.222 OA
ATOM     34  O41 GUI d   1       8.112  14.822   9.049  0.00  0.00    -0.222 OA
BRANCH  32  35
ATOM     35  C37 GUI d   1       9.731  16.932   9.525  0.00  0.00     0.042 C 
ATOM     36  H36 GUI d   1      10.169  16.312  10.321  0.00  0.00     0.063 H 
BRANCH  35  37
ATOM     37  C38 GUI d   1       8.709  17.903  10.148  0.00  0.00    -0.060 C 
ATOM     38  H37 GUI d   1       9.215  18.546  10.883  0.00  0.00     0.029 H 
ATOM     39  H38 GUI d   1       7.915  17.329  10.648  0.00  0.00     0.029 H 
ATOM     40  H39 GUI d   1       8.267  18.527   9.357  0.00  0.00     0.029 H 
ENDBRANCH  35  37
BRANCH  35  41
ATOM     41  C39 GUI d   1      10.846  17.738   8.833  0.00  0.00    -0.060 C 
ATOM     42  H40 GUI d   1      11.334  18.395   9.568  0.00  0.00     0.029 H 
ATOM     43  H41 GUI d   1      10.411  18.349   8.028  0.00  0.00     0.029 H 
ATOM     44  H42 GUI d   1      11.589  17.047   8.409  0.00  0.00     0.029 H 
ENDBRANCH  35  41
ENDBRANCH  32  35
ENDBRANCH  23  32
ENDBRANCH  20  22
ENDBRANCH  14  20
ENDBRANCH  10  12
ENDBRANCH   1  10
BRANCH   6  45
ATOM     45  O14 GUI d   1      -0.132  20.270   7.658  0.00  0.00    -0.354 OA
BRANCH  45  46
ATOM     46  C15 GUI d   1      -1.155  21.059   7.033  0.00  0.00     0.010 C 
ATOM     47  H6  GUI d   1      -2.140  20.621   7.251  0.00  0.00     0.066 H 
ATOM     48  H7  GUI d   1      -0.993  21.074   5.945  0.00  0.00     0.066 H 
ATOM     49  H8  GUI d   1      -1.116  22.087   7.424  0.00  0.00     0.066 H 
ENDBRANCH  45  46
ENDBRANCH   6  45
BRANCH   4  50
ATOM     50  N16 GUI d   1       3.340  23.329   5.768  0.00  0.00    -0.381 N 
ATOM     51  C17 GUI d   1       4.773  23.560   5.420  0.00  0.00    -0.003 C 
ATOM     52  C18 GUI d   1       5.122  25.051   5.192  0.00  0.00    -0.023 C 
ATOM     53  H9  GUI d   1       5.001  23.005   4.498  0.00  0.00     0.064 H 
ATOM     54  H10 GUI d   1       5.396  23.179   6.242  0.00  0.00     0.064 H 
ATOM     55  C19 GUI d   1       4.077  25.684   4.229  0.00  0.00     0.107 C 
ATOM     56  H11 GUI d   1       6.125  25.130   4.748  0.00  0.00     0.038 H 
ATOM     57  H12 GUI d   1       5.104  25.584   6.154  0.00  0.00     0.038 H 
ATOM     58  C20 GUI d   1       2.740  25.710   5.019  0.00  0.00    -0.023 C 
ATOM     59  H13 GUI d   1       3.974  25.069   3.323  0.00  0.00     0.084 H 
ATOM     60  C21 GUI d   1       2.261  24.262   5.323  0.00  0.00    -0.003 C 
ATOM     61  H14 GUI d   1       1.975  26.226   4.420  0.00  0.00     0.038 H 
ATOM     62  H15 GUI d   1       2.889  26.249   5.966  0.00  0.00     0.038 H 
ATOM     63  H16 GUI d   1       1.502  24.312   6.117  0.00  0.00     0.064 H 
ATOM     64  H17 GUI d   1       1.808  23.852   4.408  0.00  0.00     0.064 H 
BRANCH  55  65
ATOM     65  N22 GUI d   1       4.480  27.090   3.837  0.00  0.00    -0.064 N 
ATOM     66  C23 GUI d   1       3.602  27.601   2.724  0.00  0.00     0.106 C 
ATOM     67  C24 GUI d   1       3.968  29.081   2.406  0.00  0.00     0.105 C 
ATOM     68  H19 GUI d   1       2.548  27.543   3.034  0.00  0.00     0.078 H 
ATOM     69  H20 GUI d   1       3.755  26.985   1.825  0.00  0.00     0.078 H 
ATOM     70  N25 GUI d   1       5.425  29.202   2.074  0.00  0.00    -0.072 N 
ATOM     71  H21 GUI d   1       3.744  29.706   3.283  0.00  0.00     0.078 H 
ATOM     72  H22 GUI d   1       3.372  29.425   1.548  0.00  0.00     0.078 H 
ATOM     73  C26 GUI d   1       6.311  28.617   3.128  0.00  0.00     0.105 C 
ATOM     74  H23 GUI d   1       5.595  28.716   1.207  0.00  0.00     0.279 HD
ATOM     75  C27 GUI d   1       5.917  27.139   3.388  0.00  0.00     0.106 C 
ATOM     76  H24 GUI d   1       6.200  29.193   4.059  0.00  0.00     0.078 H 
ATOM     77  H25 GUI d   1       7.357  28.662   2.791  0.00  0.00     0.078 H 
ATOM     78  H26 GUI d   1       6.035  26.557   2.462  0.00  0.00     0.078 H 
ATOM     79  H27 GUI d   1       6.564  26.717   4.171  0.00  0.00     0.078 H 
ATOM     80  H18 GUI d   1       4.371  27.689   4.640  0.00  0.00     0.280 HD
BRANCH  70  81
ATOM     81  C28 GUI d   1       5.768  30.627   1.908  0.00  0.00     0.066 C 
ATOM     82  H28 GUI d   1       5.124  31.072   1.135  0.00  0.00     0.068 H 
ATOM     83  H29 GUI d   1       6.821  30.718   1.604  0.00  0.00     0.068 H 
ATOM     84  H30 GUI d   1       5.615  31.154   2.861  0.00  0.00     0.068 H 
ENDBRANCH  70  81
ENDBRANCH  55  65
ENDBRANCH   4  50
TORSDOF 13
