REMARK  11 active torsions:
REMARK  status: ('A' for Active; 'I' for Inactive)
REMARK    1  A    between atoms: O3B_8  and  PG_1 
REMARK    2  A    between atoms: PB_5  and  O3B_8 
REMARK    3  A    between atoms: O3A_12  and  PB_5 
REMARK    4  A    between atoms: PA_9  and  O3A_12 
REMARK    5  A    between atoms: PA_9  and  O5'_13 
REMARK    6  A    between atoms: O5'_13  and  C5'_14 
REMARK    7  A    between atoms: C5'_14  and  C4'_15 
REMARK    8  A    between atoms: C3'_17  and  O3'_18 
REMARK    9  A    between atoms: C2'_19  and  O2'_20 
REMARK   10  A    between atoms: C1'_21  and  N9_22 
REMARK   11  A    between atoms: C6_26  and  N6_27 
ROOT
ATOM      1  C4' ATP d   1      42.857 -13.927  54.959  0.00  0.00     0.089 C 
ATOM      2  O4' ATP d   1      41.555 -14.386  55.362  0.00  0.00    -0.353 OA
ATOM      3  C3' ATP d   1      43.072 -12.649  55.726  0.00  0.00     0.091 C 
ATOM      4  C2' ATP d   1      41.703 -12.059  55.758  0.00  0.00     0.105 C 
ATOM      5  C1' ATP d   1      40.847 -13.298  55.961  0.00  0.00     0.139 C 
ATOM      6  H3  ATP d   1      42.840 -13.672  53.889  0.00  0.00     0.090 H 
ATOM      7  H4  ATP d   1      43.392 -12.887  56.751  0.00  0.00     0.091 H 
ATOM      8  H6  ATP d   1      41.580 -11.325  56.568  0.00  0.00     0.093 H 
ATOM      9  H8  ATP d   1      39.891 -13.148  55.438  0.00  0.00     0.122 H 
ENDROOT
BRANCH   1  10
ATOM     10  C5' ATP d   1      43.856 -15.049  55.121  0.00  0.00     0.058 C 
ATOM     11  H1  ATP d   1      43.500 -15.947  54.594  0.00  0.00     0.079 H 
ATOM     12  H2  ATP d   1      44.830 -14.745  54.711  0.00  0.00     0.079 H 
BRANCH  10  13
ATOM     13  O5' ATP d   1      43.982 -15.327  56.545  0.00  0.00    -0.287 OA
BRANCH  13  14
ATOM     14  PA  ATP d   1      45.188 -16.262  57.020  0.00  0.00     0.417 P 
ATOM     15  O1A ATP d   1      46.294 -15.374  57.512  0.00  0.00    -0.624 OA
ATOM     16  O2A ATP d   1      45.511 -17.277  56.028  0.00  0.00    -0.624 OA
BRANCH  14  17
ATOM     17  O3A ATP d   1      44.457 -16.892  58.316  0.00  0.00    -0.180 OA
BRANCH  17  18
ATOM     18  PB  ATP d   1      45.114 -17.442  59.657  0.00  0.00     0.428 P 
ATOM     19  O1B ATP d   1      46.061 -16.410  60.181  0.00  0.00    -0.624 OA
ATOM     20  O2B ATP d   1      44.029 -17.889  60.557  0.00  0.00    -0.624 OA
BRANCH  18  21
ATOM     21  O3B ATP d   1      45.894 -18.750  59.177  0.00  0.00    -0.173 OA
BRANCH  21  22
ATOM     22  PG  ATP d   1      47.515 -18.931  58.885  0.00  0.00     0.431 P 
ATOM     23  O1G ATP d   1      47.581 -19.971  57.810  0.00  0.00    -0.616 OA
ATOM     24  O2G ATP d   1      48.095 -19.375  60.184  0.00  0.00    -0.616 OA
ATOM     25  O3G ATP d   1      47.980 -17.568  58.434  0.00  0.00    -0.616 OA
ENDBRANCH  21  22
ENDBRANCH  18  21
ENDBRANCH  17  18
ENDBRANCH  14  17
ENDBRANCH  13  14
ENDBRANCH  10  13
ENDBRANCH   1  10
BRANCH   3  26
ATOM     26  O3' ATP d   1      44.047 -11.804  55.174  0.00  0.00    -0.390 OA
ATOM     27  H5  ATP d   1      44.881 -12.258  55.149  0.00  0.00     0.210 HD
ENDBRANCH   3  26
BRANCH   5  28
ATOM     28  N9  ATP d   1      40.548 -13.632  57.360  0.00  0.00    -0.294 N 
ATOM     29  C8  ATP d   1      41.283 -14.465  58.173  0.00  0.00     0.071 A 
ATOM     30  N7  ATP d   1      40.701 -14.624  59.354  0.00  0.00    -0.236 NA
ATOM     31  H9  ATP d   1      42.222 -14.934  57.883  0.00  0.00     0.144 H 
ATOM     32  C5  ATP d   1      39.539 -13.868  59.272  0.00  0.00     0.149 A 
ATOM     33  C6  ATP d   1      38.424 -13.680  60.142  0.00  0.00     0.155 A 
ATOM     34  C4  ATP d   1      39.460 -13.255  58.034  0.00  0.00     0.167 A 
ATOM     35  N1  ATP d   1      37.418 -12.873  59.741  0.00  0.00    -0.222 NA
ATOM     36  C2  ATP d   1      37.464 -12.338  58.512  0.00  0.00     0.091 A 
ATOM     37  N3  ATP d   1      38.452 -12.456  57.601  0.00  0.00    -0.222 NA
ATOM     38  H12 ATP d   1      36.608 -11.742  58.217  0.00  0.00     0.146 H 
BRANCH  33  39
ATOM     39  N6  ATP d   1      38.350 -14.264  61.354  0.00  0.00    -0.382 N 
ATOM     40  H10 ATP d   1      37.528 -14.104  61.954  0.00  0.00     0.157 HD
ATOM     41  H11 ATP d   1      39.115 -14.871  61.681  0.00  0.00     0.157 HD
ENDBRANCH  33  39
ENDBRANCH   5  28
BRANCH   4  42
ATOM     42  O2' ATP d   1      41.404 -11.473  54.493  0.00  0.00    -0.388 OA
ATOM     43  H7  ATP d   1      40.531 -11.098  54.517  0.00  0.00     0.210 HD
ENDBRANCH   4  42
TORSDOF 11
