REMARK  7 active torsions:
REMARK  status: ('A' for Active; 'I' for Inactive)
REMARK    1  A    between atoms: N4_4  and  S1_1 
REMARK    2  A    between atoms: S1_1  and  N29_29 
REMARK    3  A    between atoms: C2_2  and  C5_5 
REMARK    4  A    between atoms: C7_7  and  C3_3 
REMARK       I    between atoms: C5_5  and  N12_12 
REMARK    5  A    between atoms: C11_11  and  N6_6 
REMARK       I    between atoms: N14_14  and  C7_7 
REMARK    6  A    between atoms: N12_12  and  C15_15 
REMARK    7  A    between atoms: C28_28  and  N14_14 
ROOT
ATOM      1  C2  455 d   1       9.387  66.471   3.230  0.00  0.00     0.049 C 
ATOM      2  C3  455 d   1      10.182  66.757   4.492  0.00  0.00     0.049 C 
ATOM      3  N4  455 d   1       9.616  68.738   3.311  0.00  0.00    -0.192 NA
ATOM      4  C8  455 d   1      10.372  68.319   4.500  0.00  0.00     0.007 C 
ATOM      5  C9  455 d   1       8.605  67.752   2.976  0.00  0.00     0.007 C 
ATOM      6  H1  455 d   1      10.069  66.259   2.393  0.00  0.00     0.058 H 
ATOM      7  H2  455 d   1       9.608  66.451   5.379  0.00  0.00     0.058 H 
ATOM      8  H3  455 d   1      11.434  68.591   4.412  0.00  0.00     0.058 H 
ATOM      9  H4  455 d   1       9.954  68.766   5.414  0.00  0.00     0.058 H 
ATOM     10  H5  455 d   1       7.726  67.830   3.632  0.00  0.00     0.058 H 
ATOM     11  H6  455 d   1       8.287  67.834   1.926  0.00  0.00     0.058 H 
ENDROOT
BRANCH   1  12
ATOM     12  C5  455 d   1       8.458  65.345   3.388  0.00  0.00     0.228 C 
ATOM     13  N12 455 d   1       9.042  64.182   3.035  0.00  0.00    -0.324 N 
ATOM     14  H7  455 d   1       9.940  64.207   2.595  0.00  0.00     0.169 HD
ATOM     15  O20 455 d   1       7.306  65.426   3.887  0.00  0.00    -0.273 OA
BRANCH  13  16
ATOM     16  C15 455 d   1       8.410  62.887   3.273  0.00  0.00     0.073 A 
ATOM     17  C16 455 d   1       8.660  61.969   2.276  0.00  0.00     0.145 A 
ATOM     18  C13 455 d   1       8.122  60.679   2.247  0.00  0.00    -0.017 A 
ATOM     19  F30 455 d   1       9.422  62.363   1.239  0.00  0.00    -0.204 F 
ATOM     20  C11 455 d   1       7.305  60.349   3.301  0.00  0.00     0.045 A 
ATOM     21  H8  455 d   1       8.336  59.983   1.444  0.00  0.00     0.091 H 
ATOM     22  C24 455 d   1       6.979  61.243   4.319  0.00  0.00    -0.054 A 
ATOM     23  C25 455 d   1       7.539  62.548   4.295  0.00  0.00    -0.052 A 
ATOM     24  H12 455 d   1       6.308  60.947   5.117  0.00  0.00     0.087 H 
ATOM     25  H13 455 d   1       7.288  63.268   5.065  0.00  0.00     0.087 H 
BRANCH  20  26
ATOM     26  N6  455 d   1       6.825  58.994   3.395  0.00  0.00    -0.290 N 
ATOM     27  C10 455 d   1       5.705  58.623   2.581  0.00  0.00     0.252 C 
ATOM     28  C22 455 d   1       5.316  57.223   2.581  0.00  0.00    -0.017 C 
ATOM     29  O23 455 d   1       5.326  59.508   1.761  0.00  0.00    -0.268 OA
ATOM     30  C27 455 d   1       5.831  56.384   3.533  0.00  0.00    -0.076 C 
ATOM     31  H11 455 d   1       4.622  56.845   1.832  0.00  0.00     0.092 H 
ATOM     32  C26 455 d   1       6.868  56.840   4.425  0.00  0.00    -0.067 C 
ATOM     33  H15 455 d   1       5.455  55.365   3.617  0.00  0.00     0.083 H 
ATOM     34  C19 455 d   1       7.423  58.076   4.305  0.00  0.00    -0.011 C 
ATOM     35  H14 455 d   1       7.216  56.177   5.216  0.00  0.00     0.085 H 
ATOM     36  H10 455 d   1       8.299  58.356   4.888  0.00  0.00     0.112 H 
ENDBRANCH  20  26
ENDBRANCH  13  16
ENDBRANCH   1  12
BRANCH   2  37
ATOM     37  C7  455 d   1      11.468  66.008   4.482  0.00  0.00     0.228 C 
ATOM     38  N14 455 d   1      12.163  66.035   5.703  0.00  0.00    -0.327 N 
ATOM     39  H9  455 d   1      11.779  66.629   6.409  0.00  0.00     0.169 HD
ATOM     40  O21 455 d   1      11.815  65.259   3.568  0.00  0.00    -0.273 OA
BRANCH  38  41
ATOM     41  C28 455 d   1      13.353  65.320   6.068  0.00  0.00     0.034 A 
ATOM     42  C33 455 d   1      13.667  65.342   7.415  0.00  0.00    -0.056 A 
ATOM     43  C36 455 d   1      14.755  64.591   7.888  0.00  0.00    -0.060 A 
ATOM     44  H18 455 d   1      13.076  65.936   8.102  0.00  0.00     0.087 H 
ATOM     45  C31 455 d   1      15.481  63.850   6.943  0.00  0.00     0.034 A 
ATOM     46  H21 455 d   1      15.023  64.584   8.938  0.00  0.00     0.086 H 
ATOM     47 CL   455 d   1      16.696  62.704   7.494  0.00  0.00    -0.084 Cl
ATOM     48  C35 455 d   1      15.137  63.779   5.569  0.00  0.00    -0.060 A 
ATOM     49  C34 455 d   1      14.041  64.542   5.118  0.00  0.00    -0.056 A 
ATOM     50  H20 455 d   1      15.701  63.156   4.885  0.00  0.00     0.086 H 
ATOM     51  H19 455 d   1      13.739  64.530   4.077  0.00  0.00     0.087 H 
ENDBRANCH  38  41
ENDBRANCH   2  37
BRANCH   3  52
ATOM     52  S1  455 d   1       9.260  70.429   3.460  0.00  0.00     0.296 S 
ATOM     53  O17 455 d   1       8.217  70.509   4.467  0.00  0.00    -0.189 OA
ATOM     54  O18 455 d   1      10.492  71.050   3.908  0.00  0.00    -0.189 OA
BRANCH  52  55
ATOM     55  N29 455 d   1       8.791  70.888   2.005  0.00  0.00    -0.316 N 
ATOM     56  H16 455 d   1       8.529  71.839   1.841  0.00  0.00     0.170 HD
ATOM     57  H17 455 d   1       8.759  70.225   1.258  0.00  0.00     0.170 HD
ENDBRANCH  52  55
ENDBRANCH   3  52
TORSDOF 7
