REMARK  7 active torsions:
REMARK  status: ('A' for Active; 'I' for Inactive)
REMARK    1  A    between atoms: N4_4  and  S1_1 
REMARK    2  A    between atoms: S1_1  and  C29_29 
REMARK    3  A    between atoms: C2_2  and  C5_5 
REMARK    4  A    between atoms: C7_7  and  C3_3 
REMARK       I    between atoms: C5_5  and  N12_12 
REMARK    5  A    between atoms: C11_11  and  N6_6 
REMARK       I    between atoms: N14_14  and  C7_7 
REMARK    6  A    between atoms: N12_12  and  C15_15 
REMARK    7  A    between atoms: C28_28  and  N14_14 
ROOT
ATOM      1  C2  RR8 d   1       9.579  66.322   2.617  0.00  0.00     0.053 C 
ATOM      2  C3  RR8 d   1      10.131  66.600   4.014  0.00  0.00     0.053 C 
ATOM      3  N4  RR8 d   1       9.627  68.561   2.828  0.00  0.00    -0.309 N 
ATOM      4  C8  RR8 d   1      10.276  68.126   4.048  0.00  0.00     0.017 C 
ATOM      5  C9  RR8 d   1       8.727  67.554   2.315  0.00  0.00     0.017 C 
ATOM      6  H1  RR8 d   1      10.431  66.295   1.922  0.00  0.00     0.058 H 
ATOM      7  H2  RR8 d   1       9.457  66.244   4.808  0.00  0.00     0.058 H 
ATOM      8  H3  RR8 d   1      11.336  68.419   4.054  0.00  0.00     0.066 H 
ATOM      9  H4  RR8 d   1       9.774  68.548   4.931  0.00  0.00     0.066 H 
ATOM     10  H5  RR8 d   1       7.769  67.539   2.855  0.00  0.00     0.066 H 
ATOM     11  H6  RR8 d   1       8.539  67.675   1.238  0.00  0.00     0.066 H 
ENDROOT
BRANCH   1  12
ATOM     12  C5  RR8 d   1       8.808  65.047   2.384  0.00  0.00     0.229 C 
ATOM     13  N12 RR8 d   1       9.009  64.056   3.135  0.00  0.00    -0.324 N 
ATOM     14  H7  RR8 d   1       9.679  64.173   3.868  0.00  0.00     0.169 HD
ATOM     15  O20 RR8 d   1       7.992  64.922   1.422  0.00  0.00    -0.273 OA
BRANCH  13  16
ATOM     16  C15 RR8 d   1       8.356  62.749   3.038  0.00  0.00     0.073 A 
ATOM     17  C16 RR8 d   1       8.650  61.850   1.994  0.00  0.00     0.145 A 
ATOM     18  C13 RR8 d   1       8.154  60.543   1.947  0.00  0.00    -0.017 A 
ATOM     19  F30 RR8 d   1       9.471  62.215   0.972  0.00  0.00    -0.204 F 
ATOM     20  C11 RR8 d   1       7.343  60.210   3.004  0.00  0.00     0.045 A 
ATOM     21  H8  RR8 d   1       8.389  59.852   1.145  0.00  0.00     0.091 H 
ATOM     22  C24 RR8 d   1       6.980  61.062   4.034  0.00  0.00    -0.054 A 
ATOM     23  C25 RR8 d   1       7.499  62.376   4.066  0.00  0.00    -0.052 A 
ATOM     24  H12 RR8 d   1       6.303  60.723   4.810  0.00  0.00     0.087 H 
ATOM     25  H13 RR8 d   1       7.239  63.066   4.861  0.00  0.00     0.087 H 
BRANCH  20  26
ATOM     26  N6  RR8 d   1       6.860  58.899   3.048  0.00  0.00    -0.290 N 
ATOM     27  C10 RR8 d   1       5.755  58.569   2.191  0.00  0.00     0.252 A 
ATOM     28  C22 RR8 d   1       5.306  57.225   2.224  0.00  0.00    -0.017 A 
ATOM     29  O23 RR8 d   1       5.377  59.429   1.352  0.00  0.00    -0.268 OA
ATOM     30  C27 RR8 d   1       5.834  56.347   3.119  0.00  0.00    -0.076 A 
ATOM     31  H11 RR8 d   1       4.535  56.894   1.530  0.00  0.00     0.092 H 
ATOM     32  C26 RR8 d   1       6.914  56.695   4.007  0.00  0.00    -0.067 A 
ATOM     33  H15 RR8 d   1       5.423  55.340   3.166  0.00  0.00     0.083 H 
ATOM     34  C19 RR8 d   1       7.432  57.960   3.987  0.00  0.00    -0.011 A 
ATOM     35  H14 RR8 d   1       7.317  55.952   4.693  0.00  0.00     0.085 H 
ATOM     36  H10 RR8 d   1       8.244  58.249   4.652  0.00  0.00     0.112 H 
ENDBRANCH  20  26
ENDBRANCH  13  16
ENDBRANCH   1  12
BRANCH   2  37
ATOM     37  C7  RR8 d   1      11.470  65.912   4.104  0.00  0.00     0.228 C 
ATOM     38  N14 RR8 d   1      12.171  65.995   5.299  0.00  0.00    -0.327 N 
ATOM     39  H9  RR8 d   1      11.825  66.652   5.969  0.00  0.00     0.169 HD
ATOM     40  O21 RR8 d   1      11.831  65.125   3.238  0.00  0.00    -0.273 OA
BRANCH  38  41
ATOM     41  C28 RR8 d   1      13.350  65.238   5.691  0.00  0.00     0.034 A 
ATOM     42  C34 RR8 d   1      13.778  65.347   7.016  0.00  0.00    -0.056 A 
ATOM     43  C35 RR8 d   1      14.863  64.598   7.457  0.00  0.00    -0.060 A 
ATOM     44  H19 RR8 d   1      13.265  66.014   7.699  0.00  0.00     0.087 H 
ATOM     45  C31 RR8 d   1      15.474  63.769   6.575  0.00  0.00     0.034 A 
ATOM     46  H22 RR8 d   1      15.212  64.675   8.480  0.00  0.00     0.086 H 
ATOM     47 CL3  RR8 d   1      16.661  62.696   7.188  0.00  0.00    -0.084 Cl
ATOM     48  C36 RR8 d   1      15.101  63.666   5.206  0.00  0.00    -0.060 A 
ATOM     49  C33 RR8 d   1      14.002  64.411   4.778  0.00  0.00    -0.056 A 
ATOM     50  H21 RR8 d   1      15.651  63.032   4.520  0.00  0.00     0.086 H 
ATOM     51  H20 RR8 d   1      13.660  64.348   3.751  0.00  0.00     0.087 H 
ENDBRANCH  38  41
ENDBRANCH   2  37
BRANCH   3  52
ATOM     52  S1  RR8 d   1       9.156  70.205   2.776  0.00  0.00     0.224 S 
ATOM     53  O17 RR8 d   1      10.290  70.998   3.366  0.00  0.00    -0.206 OA
ATOM     54  O18 RR8 d   1       8.757  70.520   1.381  0.00  0.00    -0.206 OA
BRANCH  52  55
ATOM     55  C29 RR8 d   1       7.817  70.247   3.895  0.00  0.00     0.032 C 
ATOM     56  H16 RR8 d   1       7.418  71.271   3.951  0.00  0.00     0.051 H 
ATOM     57  H17 RR8 d   1       8.162  69.932   4.891  0.00  0.00     0.051 H 
ATOM     58  H18 RR8 d   1       7.027  69.565   3.548  0.00  0.00     0.051 H 
ENDBRANCH  52  55
ENDBRANCH   3  52
TORSDOF 7
