REMARK  9 active torsions:
REMARK  status: ('A' for Active; 'I' for Inactive)
REMARK    1  A    between atoms: N4_4  and  S1_1 
REMARK    2  A    between atoms: S1_1  and  C33_33 
REMARK    3  A    between atoms: C2_2  and  C5_5 
REMARK    4  A    between atoms: C7_7  and  C3_3 
REMARK       I    between atoms: C5_5  and  N12_12 
REMARK    5  A    between atoms: C11_11  and  N6_6 
REMARK       I    between atoms: N14_14  and  C7_7 
REMARK    6  A    between atoms: N12_12  and  C15_15 
REMARK    7  A    between atoms: C22_22  and  N14_14 
REMARK    8  A    between atoms: C26_26  and  O37_37 
REMARK    9  A    between atoms: O37_37  and  C38_38 
ROOT
ATOM      1  C2  8NC d   1       8.993  66.494   2.659  0.00  0.00     0.053 C 
ATOM      2  C3  8NC d   1       9.705  66.995   3.952  0.00  0.00     0.053 C 
ATOM      3  N4  8NC d   1       8.948  68.853   2.660  0.00  0.00    -0.309 N 
ATOM      4  C8  8NC d   1       8.120  67.704   2.268  0.00  0.00     0.017 C 
ATOM      5  C9  8NC d   1       9.806  68.510   3.791  0.00  0.00     0.017 C 
ATOM      6  H1  8NC d   1       9.727  66.275   1.869  0.00  0.00     0.058 H 
ATOM      7  H2  8NC d   1       9.124  66.740   4.851  0.00  0.00     0.058 H 
ATOM      8  H3  8NC d   1       7.167  67.698   2.818  0.00  0.00     0.066 H 
ATOM      9  H4  8NC d   1       7.919  67.713   1.187  0.00  0.00     0.066 H 
ATOM     10  H5  8NC d   1      10.846  68.804   3.585  0.00  0.00     0.066 H 
ATOM     11  H6  8NC d   1       9.456  69.015   4.703  0.00  0.00     0.066 H 
ENDROOT
BRANCH   1  12
ATOM     12  C5  8NC d   1       8.171  65.249   2.920  0.00  0.00     0.229 C 
ATOM     13  N12 8NC d   1       8.761  64.062   2.747  0.00  0.00    -0.324 N 
ATOM     14  H7  8NC d   1       9.718  64.082   2.458  0.00  0.00     0.169 HD
ATOM     15  O23 8NC d   1       7.015  65.313   3.299  0.00  0.00    -0.273 OA
BRANCH  13  16
ATOM     16  C15 8NC d   1       8.188  62.781   2.925  0.00  0.00     0.073 A 
ATOM     17  C16 8NC d   1       8.512  61.855   1.957  0.00  0.00     0.145 A 
ATOM     18  C13 8NC d   1       8.055  60.551   2.003  0.00  0.00    -0.017 A 
ATOM     19  F34 8NC d   1       9.315  62.261   0.950  0.00  0.00    -0.204 F 
ATOM     20  C11 8NC d   1       7.249  60.159   3.049  0.00  0.00     0.045 A 
ATOM     21  H8  8NC d   1       8.328  59.846   1.226  0.00  0.00     0.091 H 
ATOM     22  C28 8NC d   1       6.898  61.085   4.030  0.00  0.00    -0.054 A 
ATOM     23  C29 8NC d   1       7.388  62.400   3.992  0.00  0.00    -0.052 A 
ATOM     24  H13 8NC d   1       6.237  60.785   4.835  0.00  0.00     0.087 H 
ATOM     25  H14 8NC d   1       7.146  63.103   4.781  0.00  0.00     0.087 H 
BRANCH  20  26
ATOM     26  N6  8NC d   1       6.775  58.840   3.060  0.00  0.00    -0.290 N 
ATOM     27  C10 8NC d   1       5.815  58.486   2.187  0.00  0.00     0.252 A 
ATOM     28  C25 8NC d   1       5.313  57.170   2.188  0.00  0.00    -0.017 A 
ATOM     29  O27 8NC d   1       5.353  59.322   1.420  0.00  0.00    -0.268 OA
ATOM     30  C31 8NC d   1       5.799  56.275   3.087  0.00  0.00    -0.076 A 
ATOM     31  H12 8NC d   1       4.544  56.873   1.476  0.00  0.00     0.092 H 
ATOM     32  C30 8NC d   1       6.818  56.667   3.969  0.00  0.00    -0.067 A 
ATOM     33  H16 8NC d   1       5.401  55.262   3.123  0.00  0.00     0.083 H 
ATOM     34  C21 8NC d   1       7.297  57.924   3.929  0.00  0.00    -0.011 A 
ATOM     35  H15 8NC d   1       7.221  55.953   4.686  0.00  0.00     0.085 H 
ATOM     36  H11 8NC d   1       8.108  58.214   4.595  0.00  0.00     0.112 H 
ENDBRANCH  20  26
ENDBRANCH  13  16
ENDBRANCH   1  12
BRANCH   2  37
ATOM     37  C7  8NC d   1      11.063  66.359   4.022  0.00  0.00     0.228 C 
ATOM     38  N14 8NC d   1      11.647  66.174   5.203  0.00  0.00    -0.327 N 
ATOM     39  H9  8NC d   1      11.196  66.519   6.026  0.00  0.00     0.169 HD
ATOM     40  O24 8NC d   1      11.630  66.017   3.012  0.00  0.00    -0.273 OA
BRANCH  38  41
ATOM     41  C22 8NC d   1      12.868  65.515   5.328  0.00  0.00     0.037 A 
ATOM     42  C18 8NC d   1      13.571  65.033   4.212  0.00  0.00    -0.017 A 
ATOM     43  C17 8NC d   1      14.754  64.334   4.428  0.00  0.00     0.151 A 
ATOM     44  H10 8NC d   1      13.201  65.201   3.207  0.00  0.00     0.091 H 
ATOM     45  C26 8NC d   1      15.185  64.092   5.728  0.00  0.00     0.106 A 
ATOM     46  F35 8NC d   1      15.493  63.857   3.384  0.00  0.00    -0.203 F 
ATOM     47  C32 8NC d   1      14.468  64.553   6.821  0.00  0.00    -0.046 A 
ATOM     48  C36 8NC d   1      13.296  65.255   6.614  0.00  0.00    -0.054 A 
ATOM     49  H17 8NC d   1      14.823  64.365   7.828  0.00  0.00     0.088 H 
ATOM     50  H21 8NC d   1      12.714  65.601   7.460  0.00  0.00     0.087 H 
BRANCH  45  51
ATOM     51  O37 8NC d   1      16.337  63.393   5.956  0.00  0.00    -0.353 OA
BRANCH  51  52
ATOM     52  C38 8NC d   1      16.457  62.747   7.215  0.00  0.00     0.011 C 
ATOM     53  H22 8NC d   1      17.424  62.224   7.268  0.00  0.00     0.066 H 
ATOM     54  H23 8NC d   1      15.640  62.020   7.333  0.00  0.00     0.066 H 
ATOM     55  H24 8NC d   1      16.400  63.496   8.018  0.00  0.00     0.066 H 
ENDBRANCH  51  52
ENDBRANCH  45  51
ENDBRANCH  38  41
ENDBRANCH   2  37
BRANCH   3  56
ATOM     56  S1  8NC d   1       8.244  70.337   2.702  0.00  0.00     0.224 S 
ATOM     57  O19 8NC d   1       7.650  70.411   1.411  0.00  0.00    -0.206 OA
ATOM     58  O20 8NC d   1       9.324  71.187   3.076  0.00  0.00    -0.206 OA
BRANCH  56  59
ATOM     59  C33 8NC d   1       7.029  70.185   4.037  0.00  0.00     0.032 C 
ATOM     60  H18 8NC d   1       6.491  71.138   4.153  0.00  0.00     0.051 H 
ATOM     61  H19 8NC d   1       7.545  69.938   4.976  0.00  0.00     0.051 H 
ATOM     62  H20 8NC d   1       6.313  69.387   3.792  0.00  0.00     0.051 H 
ENDBRANCH  56  59
ENDBRANCH   3  56
TORSDOF 9
