REMARK  7 active torsions:
REMARK  status: ('A' for Active; 'I' for Inactive)
REMARK    1  A    between atoms: C1_1  and  C6_6 
REMARK    2  A    between atoms: C7_7  and  C2_2 
REMARK    3  A    between atoms: N4_4  and  C33_32 
REMARK       I    between atoms: C6_6  and  N11_11 
REMARK       I    between atoms: N8_8  and  C7_7 
REMARK    4  A    between atoms: C19_18  and  N8_8 
REMARK    5  A    between atoms: N11_11  and  C12_12 
REMARK    6  A    between atoms: N25_24  and  C21_20 
REMARK    7  A    between atoms: C33_32  and  C34_33 
ROOT
ATOM      1  C1  IVK d   1      -3.909  11.895  24.831  0.00  0.00     0.060 C 
ATOM      2  C2  IVK d   1      -3.803  12.020  23.306  0.00  0.00     0.060 C 
ATOM      3  C3  IVK d   1      -4.721  13.244  23.017  0.00  0.00     0.096 C 
ATOM      4  N4  IVK d   1      -4.302  14.174  24.102  0.00  0.00    -0.061 N 
ATOM      5  C5  IVK d   1      -3.861  13.348  25.283  0.00  0.00     0.096 C 
ATOM      6  H1  IVK d   1      -4.852  11.426  25.149  0.00  0.00     0.058 H 
ATOM      7  H2  IVK d   1      -2.769  12.285  23.039  0.00  0.00     0.058 H 
ATOM      8  H3  IVK d   1      -5.785  12.979  23.100  0.00  0.00     0.077 H 
ATOM      9  H4  IVK d   1      -4.526  13.670  22.022  0.00  0.00     0.077 H 
ATOM     10  H5  IVK d   1      -3.522  14.717  23.767  0.00  0.00     0.280 HD
ATOM     11  H6  IVK d   1      -2.837  13.621  25.578  0.00  0.00     0.077 H 
ATOM     12  H7  IVK d   1      -4.542  13.505  26.133  0.00  0.00     0.077 H 
ENDROOT
BRANCH   2  13
ATOM     13  C7  IVK d   1      -4.126  10.738  22.545  0.00  0.00     0.229 C 
ATOM     14  N8  IVK d   1      -5.158  10.709  21.684  0.00  0.00    -0.324 N 
ATOM     15  H8  IVK d   1      -5.721  11.531  21.599  0.00  0.00     0.169 HD
ATOM     16  O9  IVK d   1      -3.427   9.712  22.666  0.00  0.00    -0.273 OA
BRANCH  14  17
ATOM     17  C19 IVK d   1      -5.496   9.586  20.890  0.00  0.00     0.073 A 
ATOM     18  C20 IVK d   1      -6.734   8.957  20.953  0.00  0.00    -0.052 A 
ATOM     19  C23 IVK d   1      -7.008   7.886  20.110  0.00  0.00    -0.054 A 
ATOM     20  H13 IVK d   1      -7.483   9.300  21.657  0.00  0.00     0.087 H 
ATOM     21  C21 IVK d   1      -6.080   7.437  19.172  0.00  0.00     0.045 A 
ATOM     22  H15 IVK d   1      -7.968   7.388  20.184  0.00  0.00     0.087 H 
ATOM     23  C22 IVK d   1      -4.852   8.084  19.095  0.00  0.00    -0.017 A 
ATOM     24  C24 IVK d   1      -4.569   9.137  19.950  0.00  0.00     0.145 A 
ATOM     25  H14 IVK d   1      -4.116   7.765  18.366  0.00  0.00     0.091 H 
ATOM     26  F32 IVK d   1      -3.382   9.788  19.876  0.00  0.00    -0.204 F 
BRANCH  21  27
ATOM     27  N25 IVK d   1      -6.372   6.364  18.293  0.00  0.00    -0.290 N 
ATOM     28  C26 IVK d   1      -6.261   5.065  18.657  0.00  0.00    -0.011 A 
ATOM     29  C29 IVK d   1      -6.494   4.055  17.784  0.00  0.00    -0.067 A 
ATOM     30  H16 IVK d   1      -5.976   4.825  19.680  0.00  0.00     0.112 H 
ATOM     31  C27 IVK d   1      -6.900   4.342  16.465  0.00  0.00    -0.076 A 
ATOM     32  H19 IVK d   1      -6.367   3.021  18.102  0.00  0.00     0.085 H 
ATOM     33  C28 IVK d   1      -7.040   5.651  16.105  0.00  0.00    -0.017 A 
ATOM     34  H17 IVK d   1      -7.096   3.542  15.753  0.00  0.00     0.083 H 
ATOM     35  C30 IVK d   1      -6.757   6.665  17.025  0.00  0.00     0.252 A 
ATOM     36  H18 IVK d   1      -7.373   5.906  15.100  0.00  0.00     0.092 H 
ATOM     37  O31 IVK d   1      -6.842   7.829  16.664  0.00  0.00    -0.268 OA
ENDBRANCH  21  27
ENDBRANCH  14  17
ENDBRANCH   2  13
BRANCH   1  38
ATOM     38  C6  IVK d   1      -2.740  11.036  25.264  0.00  0.00     0.228 C 
ATOM     39  O10 IVK d   1      -1.609  11.246  24.861  0.00  0.00    -0.273 OA
ATOM     40  N11 IVK d   1      -3.044  10.084  26.143  0.00  0.00    -0.327 N 
ATOM     41  H9  IVK d   1      -3.976  10.132  26.503  0.00  0.00     0.169 HD
BRANCH  40  42
ATOM     42  C12 IVK d   1      -2.285   9.037  26.644  0.00  0.00     0.034 A 
ATOM     43  C17 IVK d   1      -2.699   8.353  27.794  0.00  0.00    -0.056 A 
ATOM     44  C15 IVK d   1      -1.999   7.235  28.214  0.00  0.00    -0.060 A 
ATOM     45  H12 IVK d   1      -3.562   8.697  28.352  0.00  0.00     0.087 H 
ATOM     46  C14 IVK d   1      -0.960   6.777  27.437  0.00  0.00     0.034 A 
ATOM     47  H10 IVK d   1      -2.264   6.731  29.136  0.00  0.00     0.086 H 
ATOM     48  C16 IVK d   1      -0.575   7.453  26.272  0.00  0.00    -0.060 A 
ATOM     49 CL1  IVK d   1      -0.075   5.372  27.920  0.00  0.00    -0.084 Cl
ATOM     50  C35 IVK d   1      -1.262   8.566  25.852  0.00  0.00    -0.056 A 
ATOM     51  H11 IVK d   1       0.272   7.095  25.697  0.00  0.00     0.086 H 
ATOM     52  H22 IVK d   1      -1.006   9.060  24.922  0.00  0.00     0.087 H 
ENDBRANCH  40  42
ENDBRANCH   1  38
BRANCH   4  53
ATOM     53  C33 IVK d   1      -5.349  15.101  24.529  0.00  0.00     0.172 C 
ATOM     54  H20 IVK d   1      -6.006  14.621  25.269  0.00  0.00     0.090 H 
ATOM     55  H21 IVK d   1      -5.946  15.428  23.665  0.00  0.00     0.090 H 
BRANCH  53  56
ATOM     56  C34 IVK d   1      -4.626  16.293  25.156  0.00  0.00     0.411 C 
ATOM     57  F35 IVK d   1      -5.537  17.335  25.369  0.00  0.00    -0.169 F 
ATOM     58  F36 IVK d   1      -3.604  16.706  24.303  0.00  0.00    -0.169 F 
ATOM     59  F30 IVK d   1      -4.048  15.925  26.380  0.00  0.00    -0.169 F 
ENDBRANCH  53  56
ENDBRANCH   4  53
TORSDOF 7
