REMARK  7 active torsions:
REMARK  status: ('A' for Active; 'I' for Inactive)
REMARK    1  A    between atoms: CAA_1  and  CAG_2 
REMARK    2  A    between atoms: CAG_2  and  CAH_3 
REMARK    3  A    between atoms: CAH_3  and  CAM_4 
REMARK    4  A    between atoms: CAR_9  and  CAL_10 
REMARK    5  A    between atoms: CAR_9  and  OAF_13 
REMARK    6  A    between atoms: CAP_15  and  OAD_16 
REMARK    7  A    between atoms: CAQ_17  and  OAE_18 
ROOT
ATOM      1  CAM JPS d   1       2.239  15.359  24.763  0.00  0.00    -0.016 A 
ATOM      2  CAI JPS d   1       2.096  14.050  25.041  0.00  0.00    -0.060 A 
ATOM      3  SAK JPS d   1       2.261  15.558  23.129  0.00  0.00    -0.096 SA
ATOM      4  CAO JPS d   1       2.076  13.937  22.777  0.00  0.00     0.024 A 
ATOM      5  CAN JPS d   1       2.001  13.221  23.974  0.00  0.00     0.003 A 
ATOM      6  CAR JPS d   1       1.809  11.679  23.958  0.00  0.00     0.176 C 
ATOM      7  CAJ JPS d   1       1.229  11.197  22.614  0.00  0.00     0.004 C 
ATOM      8  CAP JPS d   1       2.061  11.805  21.457  0.00  0.00     0.068 C 
ATOM      9  CAQ JPS d   1       1.939  13.321  21.423  0.00  0.00     0.092 C 
ATOM     10  H6  JPS d   1       2.059  13.679  26.064  0.00  0.00     0.086 H 
ATOM     11  H8  JPS d   1       0.182  11.523  22.526  0.00  0.00     0.042 H 
ATOM     12  H9  JPS d   1       1.276  10.099  22.565  0.00  0.00     0.042 H 
ATOM     13  H10 JPS d   1       3.116  11.515  21.573  0.00  0.00     0.087 H 
ATOM     14  H12 JPS d   1       0.921  13.539  21.068  0.00  0.00     0.095 H 
ENDROOT
BRANCH   1  15
ATOM     15  CAH JPS d   1       2.377  16.537  25.727  0.00  0.00    -0.035 C 
ATOM     16  H4  JPS d   1       2.371  16.173  26.765  0.00  0.00     0.040 H 
ATOM     17  H5  JPS d   1       3.318  17.072  25.532  0.00  0.00     0.040 H 
BRANCH  15  18
ATOM     18  CAG JPS d   1       1.182  17.480  25.496  0.00  0.00    -0.058 C 
ATOM     19  H2  JPS d   1       1.309  17.965  24.517  0.00  0.00     0.034 H 
ATOM     20  H3  JPS d   1       0.262  16.877  25.490  0.00  0.00     0.034 H 
BRANCH  18  21
ATOM     21  CAA JPS d   1       1.033  18.577  26.563  0.00  0.00    -0.054 A 
ATOM     22  CA0 JPS d   1      -0.307  19.320  26.563  0.00  0.00    -0.061 A 
ATOM     23  CA1 JPS d   1       0.932  20.008  26.039  0.00  0.00    -0.061 A 
ATOM     24  H14 JPS d   1      -0.755  19.645  27.514  0.00  0.00     0.033 H 
ATOM     25  H15 JPS d   1      -1.103  19.017  25.867  0.00  0.00     0.033 H 
ATOM     26  H16 JPS d   1       1.035  20.206  24.962  0.00  0.00     0.033 H 
ATOM     27  H17 JPS d   1       1.383  20.834  26.609  0.00  0.00     0.033 H 
ATOM     28  H1  JPS d   1       1.569  18.328  27.491  0.00  0.00     0.040 H 
ENDBRANCH  18  21
ENDBRANCH  15  18
ENDBRANCH   1  15
BRANCH   6  29
ATOM     29  CAL JPS d   1       0.948  11.275  25.155  0.00  0.00     0.214 C 
ATOM     30  OAC JPS d   1       1.571  11.178  26.213  0.00  0.00    -0.645 OA
ATOM     31  OAB JPS d   1      -0.276  11.062  25.020  0.00  0.00    -0.645 OA
ENDBRANCH   6  29
BRANCH   6  32
ATOM     32  OAF JPS d   1       3.076  10.994  24.139  0.00  0.00    -0.374 OA
ATOM     33  H7  JPS d   1       3.470  11.270  24.958  0.00  0.00     0.211 HD
ENDBRANCH   6  32
BRANCH   9  34
ATOM     34  OAE JPS d   1       2.851  13.973  20.506  0.00  0.00    -0.388 OA
ATOM     35  H13 JPS d   1       2.716  14.913  20.541  0.00  0.00     0.210 HD
ENDBRANCH   9  34
BRANCH   8  36
ATOM     36  OAD JPS d   1       1.543  11.330  20.201  0.00  0.00    -0.393 OA
ATOM     37  H11 JPS d   1       1.602  10.382  20.173  0.00  0.00     0.210 HD
ENDBRANCH   8  36
TORSDOF 7
