REMARK  9 active torsions:
REMARK  status: ('A' for Active; 'I' for Inactive)
REMARK       I    between atoms: C23_2  and  N4_3 
REMARK    1  A    between atoms: C23_2  and  C25_22 
REMARK    2  A    between atoms: N4_3  and  C5_4 
REMARK    3  A    between atoms: C5_4  and  C13_5 
REMARK    4  A    between atoms: C5_4  and  C6_15 
REMARK       I    between atoms: C13_5  and  N15_6 
REMARK    5  A    between atoms: N15_6  and  C17_7 
REMARK    6  A    between atoms: N15_6  and  C16_13 
REMARK    7  A    between atoms: C6_15  and  C7_16 
REMARK    8  A    between atoms: C25_22  and  C1_23 
REMARK    9  A    between atoms: C2_31  and  C32_32 
ROOT
ATOM      1  C5  1B0 d   1       0.984   1.924  17.915  0.00  0.00     0.093 C 
ATOM      2  H2  1B0 d   1       1.812   2.182  18.592  0.00  0.00     0.088 H 
ENDROOT
BRANCH   1   3
ATOM      3  N4  1B0 d   1      -0.112   2.854  18.164  0.00  0.00    -0.347 N 
ATOM      4  C23 1B0 d   1       0.092   4.149  18.417  0.00  0.00     0.222 C 
ATOM      5  O24 1B0 d   1       1.197   4.621  18.635  0.00  0.00    -0.273 OA
ATOM      6  H1  1B0 d   1      -1.050   2.509  18.145  0.00  0.00     0.163 HD
BRANCH   4   7
ATOM      7  C25 1B0 d   1      -1.125   5.043  18.438  0.00  0.00     0.036 C 
ATOM      8  H18 1B0 d   1      -2.041   4.435  18.413  0.00  0.00     0.054 H 
ATOM      9  H19 1B0 d   1      -1.111   5.721  17.572  0.00  0.00     0.054 H 
BRANCH   7  10
ATOM     10  C1  1B0 d   1      -1.065   5.840  19.722  0.00  0.00    -0.015 A 
ATOM     11  C26 1B0 d   1      -1.022   5.295  21.100  0.00  0.00    -0.001 A 
ATOM     12  C31 1B0 d   1      -1.031   3.981  21.567  0.00  0.00    -0.070 A 
ATOM     13  C27 1B0 d   1      -0.962   6.379  21.960  0.00  0.00     0.043 A 
ATOM     14  C30 1B0 d   1      -0.985   3.757  22.943  0.00  0.00    -0.082 A 
ATOM     15  H20 1B0 d   1      -1.073   3.149  20.873  0.00  0.00     0.084 H 
ATOM     16  C29 1B0 d   1      -0.929   4.841  23.824  0.00  0.00    -0.081 A 
ATOM     17  H21 1B0 d   1      -0.993   2.744  23.329  0.00  0.00     0.083 H 
ATOM     18  C28 1B0 d   1      -0.921   6.149  23.335  0.00  0.00    -0.056 A 
ATOM     19  H22 1B0 d   1      -0.892   4.665  24.893  0.00  0.00     0.083 H 
ATOM     20  H23 1B0 d   1      -0.883   6.985  24.024  0.00  0.00     0.086 H 
ATOM     21  N3  1B0 d   1      -0.965   7.512  21.207  0.00  0.00    -0.359 N 
ATOM     22  C2  1B0 d   1      -1.023   7.226  19.877  0.00  0.00     0.013 A 
ATOM     23  H24 1B0 d   1      -0.928   8.466  21.594  0.00  0.00     0.166 HD
BRANCH  22  24
ATOM     24  C32 1B0 d   1      -1.039   8.254  18.775  0.00  0.00    -0.037 C 
ATOM     25  H25 1B0 d   1      -1.089   7.746  17.800  0.00  0.00     0.035 H 
ATOM     26  H26 1B0 d   1      -0.123   8.860  18.826  0.00  0.00     0.035 H 
ATOM     27  H27 1B0 d   1      -1.917   8.906  18.894  0.00  0.00     0.035 H 
ENDBRANCH  22  24
ENDBRANCH   7  10
ENDBRANCH   4   7
ENDBRANCH   1   3
BRANCH   1  28
ATOM     28  C13 1B0 d   1       1.478   2.046  16.495  0.00  0.00     0.247 C 
ATOM     29  N15 1B0 d   1       2.801   2.099  16.258  0.00  0.00    -0.321 N 
ATOM     30  O14 1B0 d   1       0.669   2.118  15.587  0.00  0.00    -0.271 OA
BRANCH  29  31
ATOM     31  C17 1B0 d   1       3.726   1.935  17.305  0.00  0.00     0.036 A 
ATOM     32  C22 1B0 d   1       4.151   0.648  17.659  0.00  0.00    -0.057 A 
ATOM     33  C21 1B0 d   1       5.065   0.489  18.690  0.00  0.00    -0.081 A 
ATOM     34  H3  1B0 d   1       3.768  -0.218  17.131  0.00  0.00     0.086 H 
ATOM     35  C20 1B0 d   1       5.562   1.607  19.364  0.00  0.00    -0.083 A 
ATOM     36  H4  1B0 d   1       5.394  -0.504  18.973  0.00  0.00     0.083 H 
ATOM     37  C19 1B0 d   1       5.151   2.889  19.011  0.00  0.00    -0.081 A 
ATOM     38  H5  1B0 d   1       6.275   1.475  20.170  0.00  0.00     0.083 H 
ATOM     39  C18 1B0 d   1       4.230   3.058  17.977  0.00  0.00    -0.057 A 
ATOM     40  H6  1B0 d   1       5.544   3.752  19.537  0.00  0.00     0.083 H 
ATOM     41  H7  1B0 d   1       3.905   4.053  17.694  0.00  0.00     0.086 H 
ENDBRANCH  29  31
BRANCH  29  42
ATOM     42  C16 1B0 d   1       3.374   2.347  14.939  0.00  0.00    -0.011 C 
ATOM     43  H8  1B0 d   1       2.564   2.459  14.203  0.00  0.00     0.057 H 
ATOM     44  H9  1B0 d   1       4.016   1.501  14.653  0.00  0.00     0.057 H 
ATOM     45  H10 1B0 d   1       3.974   3.269  14.967  0.00  0.00     0.057 H 
ENDBRANCH  29  42
ENDBRANCH   1  28
BRANCH   1  46
ATOM     46  C6  1B0 d   1       0.561   0.481  18.202  0.00  0.00    -0.014 C 
ATOM     47  H11 1B0 d   1       1.373  -0.204  17.917  0.00  0.00     0.043 H 
ATOM     48  H12 1B0 d   1      -0.342   0.240  17.622  0.00  0.00     0.043 H 
BRANCH  46  49
ATOM     49  C7  1B0 d   1       0.268   0.330  19.678  0.00  0.00    -0.056 A 
ATOM     50  C12 1B0 d   1       1.281   0.013  20.584  0.00  0.00    -0.077 A 
ATOM     51  C11 1B0 d   1       1.003  -0.117  21.941  0.00  0.00    -0.082 A 
ATOM     52  H13 1B0 d   1       2.294  -0.133  20.227  0.00  0.00     0.084 H 
ATOM     53  C10 1B0 d   1      -0.296   0.081  22.406  0.00  0.00    -0.083 A 
ATOM     54  H14 1B0 d   1       1.795  -0.372  22.636  0.00  0.00     0.083 H 
ATOM     55  C9  1B0 d   1      -1.305   0.400  21.503  0.00  0.00    -0.082 A 
ATOM     56  H15 1B0 d   1      -0.518  -0.013  23.463  0.00  0.00     0.083 H 
ATOM     57  C8  1B0 d   1      -1.031   0.522  20.143  0.00  0.00    -0.077 A 
ATOM     58  H16 1B0 d   1      -2.316   0.555  21.862  0.00  0.00     0.083 H 
ATOM     59  H17 1B0 d   1      -1.827   0.766  19.448  0.00  0.00     0.084 H 
ENDBRANCH  46  49
ENDBRANCH   1  46
TORSDOF 9
