REMARK  2 active torsions:
REMARK  status: ('A' for Active; 'I' for Inactive)
REMARK    1  A    between atoms: C5A_5  and  C4_6 
REMARK    2  A    between atoms: C2_11  and  N7_12 
ROOT
ATOM      1  C4  XDK d   1       7.211   0.555   9.469  0.00  0.00     0.089 A 
ATOM      2  N3  XDK d   1       6.728   0.143  10.652  0.00  0.00    -0.063 NA
ATOM      3  C5  XDK d   1       8.104  -0.221   8.753  0.00  0.00    -0.036 A 
ATOM      4  C6  XDK d   1       8.490  -1.435   9.272  0.00  0.00     0.023 A 
ATOM      5  N1  XDK d   1       8.023  -1.867  10.444  0.00  0.00    -0.075 NA
ATOM      6  C2  XDK d   1       7.148  -1.065  11.096  0.00  0.00     0.720 A 
ATOM      7  H4  XDK d   1       8.493   0.121   7.801  0.00  0.00     0.089 H 
ATOM      8  H5  XDK d   1       9.187  -2.053   8.717  0.00  0.00     0.115 H 
ENDROOT
BRANCH   1   9
ATOM      9  C5A XDK d   1       6.725   1.873   8.973  0.00  0.00     0.011 A 
ATOM     10  C1A XDK d   1       6.305   2.038   7.654  0.00  0.00     0.014 A 
ATOM     11  N2A XDK d   1       5.858   3.203   7.160  0.00  0.00    -0.272 NA
ATOM     12  H3  XDK d   1       6.341   1.180   6.992  0.00  0.00     0.116 H 
ATOM     13  C3A XDK d   1       5.806   4.254   7.986  0.00  0.00     0.002 A 
ATOM     14  C7A XDK d   1       6.212   4.181   9.306  0.00  0.00    -0.065 A 
ATOM     15  H2  XDK d   1       5.432   5.198   7.607  0.00  0.00     0.114 H 
ATOM     16  C9  XDK d   1       6.669   2.981   9.809  0.00  0.00    -0.068 A 
ATOM     17  H1  XDK d   1       6.171   5.059   9.940  0.00  0.00     0.085 H 
ATOM     18  H8  XDK d   1       6.981   2.903  10.844  0.00  0.00     0.085 H 
ENDBRANCH   1   9
BRANCH   6  19
ATOM     19  N7  XDK d   1       6.644  -1.508  12.296  0.00  0.00    -0.231 N 
ATOM     20  H6  XDK d   1       5.976  -0.925  12.821  0.00  0.00     0.174 HD
ATOM     21  H7  XDK d   1       6.934  -2.423  12.670  0.00  0.00     0.174 HD
ENDBRANCH   6  19
TORSDOF 2
