REMARK  4 active torsions:
REMARK  status: ('A' for Active; 'I' for Inactive)
REMARK    1  A    between atoms: C1_1  and  O2_2 
REMARK    2  A    between atoms: O2_2  and  C3_3 
REMARK    3  A    between atoms: C8_8  and  C9_9 
REMARK    4  A    between atoms: C14_14  and  N15_15 
ROOT
ATOM      1  C3  WOE d   1       6.611   0.198   9.591  0.00  0.00     0.080 A 
ATOM      2  C4  WOE d   1       6.084   1.372   9.078  0.00  0.00    -0.050 A 
ATOM      3  C5  WOE d   1       5.559   1.395   7.806  0.00  0.00    -0.080 A 
ATOM      4  C6  WOE d   1       5.589   0.253   7.022  0.00  0.00    -0.082 A 
ATOM      5  C7  WOE d   1       6.120  -0.924   7.520  0.00  0.00    -0.068 A 
ATOM      6  C8  WOE d   1       6.651  -0.965   8.802  0.00  0.00     0.027 A 
ATOM      7  H4  WOE d   1       6.085   2.274   9.679  0.00  0.00     0.087 H 
ATOM      8  H5  WOE d   1       5.122   2.307   7.417  0.00  0.00     0.083 H 
ATOM      9  H6  WOE d   1       5.194   0.282   6.013  0.00  0.00     0.083 H 
ATOM     10  H7  WOE d   1       6.121  -1.818   6.906  0.00  0.00     0.085 H 
ENDROOT
BRANCH   6  11
ATOM     11  C9  WOE d   1       7.211  -2.240   9.309  0.00  0.00     0.092 A 
ATOM     12  C10 WOE d   1       8.114  -2.986   8.592  0.00  0.00    -0.014 A 
ATOM     13  C11 WOE d   1       8.554  -4.175   9.147  0.00  0.00     0.147 A 
ATOM     14  H8  WOE d   1       8.470  -2.655   7.623  0.00  0.00     0.092 H 
ATOM     15 CL1  WOE d   1       9.671  -5.173   8.268  0.00  0.00    -0.062 Cl
ATOM     16  N13 WOE d   1       8.169  -4.623  10.349  0.00  0.00    -0.051 NA
ATOM     17  C14 WOE d   1       7.272  -3.821  11.000  0.00  0.00     0.722 A 
ATOM     18  N16 WOE d   1       6.798  -2.635  10.526  0.00  0.00    -0.062 NA
BRANCH  17  19
ATOM     19  N15 WOE d   1       6.841  -4.223  12.252  0.00  0.00    -0.231 N 
ATOM     20  H9  WOE d   1       7.174  -5.113  12.650  0.00  0.00     0.174 HD
ATOM     21  H10 WOE d   1       6.188  -3.632  12.786  0.00  0.00     0.174 HD
ENDBRANCH  17  19
ENDBRANCH   6  11
BRANCH   1  22
ATOM     22  O2  WOE d   1       7.152   0.069  10.844  0.00  0.00    -0.355 OA
BRANCH  22  23
ATOM     23  C1  WOE d   1       7.843   1.196  11.388  0.00  0.00     0.010 C 
ATOM     24  H1  WOE d   1       8.220   0.946  12.391  0.00  0.00     0.066 H 
ATOM     25  H2  WOE d   1       7.154   2.050  11.457  0.00  0.00     0.066 H 
ATOM     26  H3  WOE d   1       8.688   1.459  10.734  0.00  0.00     0.066 H 
ENDBRANCH  22  23
ENDBRANCH   1  22
TORSDOF 4
