REMARK WARNING: 32 MAX_TORS EXCEEDED!!!
REMARK  41 active torsions:
REMARK  status: ('A' for Active; 'I' for Inactive)
REMARK    1  A    between atoms: CBZ_2  and  CBH_4 
REMARK    2  A    between atoms: CBH_4  and  CBJ_5 
REMARK    3  A    between atoms: CBJ_5  and  CCI_6 
REMARK    4  A    between atoms: CCI_6  and  CCB_7 
REMARK    5  A    between atoms: CCI_6  and  NBQ_10 
REMARK       I    between atoms: NBQ_10  and  CCC_11 
REMARK       I    between atoms: CCC_11  and  N_13 
REMARK    6  A    between atoms: N_13  and  CA_14 
REMARK    7  A    between atoms: CA_14  and  C_15 
REMARK    8  A    between atoms: CA_14  and  CB_18 
REMARK    9  A    between atoms: CB_18  and  CAP_19 
REMARK   10  A    between atoms: CAP_19  and  CAQ_20 
REMARK   11  A    between atoms: CAQ_20  and  CBK_21 
REMARK   12  A    between atoms: CBK_21  and  NCJ_22 
REMARK   13  A    between atoms: CCD_26  and  CBL_27 
REMARK   14  A    between atoms: CBL_27  and  OBY_28 
REMARK   15  A    between atoms: OBY_28  and  CBG_29 
REMARK   16  A    between atoms: CBG_29  and  CBF_30 
REMARK   17  A    between atoms: CBF_30  and  OBX_31 
REMARK   18  A    between atoms: OBX_31  and  CBE_32 
REMARK   19  A    between atoms: CBE_32  and  CBD_33 
REMARK   20  A    between atoms: CBD_33  and  OBW_34 
REMARK   21  A    between atoms: OBW_34  and  CBC_35 
REMARK   22  A    between atoms: CBC_35  and  CBB_36 
REMARK   23  A    between atoms: CBB_36  and  OBV_37 
REMARK   24  A    between atoms: OBV_37  and  CBA_38 
REMARK   25  A    between atoms: CBA_38  and  CAZ_39 
REMARK   26  A    between atoms: CAZ_39  and  OBU_40 
REMARK   27  A    between atoms: OBU_40  and  CAY_41 
REMARK   28  A    between atoms: CAY_41  and  CAX_42 
REMARK   29  A    between atoms: CAX_42  and  OBT_43 
REMARK   30  A    between atoms: OBT_43  and  CAW_44 
REMARK   31  A    between atoms: CAW_44  and  CAV_45 
REMARK   32  A    between atoms: CAV_45  and  OBS_46 
REMARK   33  A    between atoms: OBS_46  and  CAU_47 
REMARK   34  A    between atoms: CAU_47  and  CAT_48 
REMARK   35  A    between atoms: CAT_48  and  OBR_49 
REMARK   36  A    between atoms: OBR_49  and  CAS_50 
REMARK   37  A    between atoms: CAS_50  and  CAR_51 
REMARK   38  A    between atoms: CAR_51  and  NBO_52 
REMARK   39  A    between atoms: NBO_52  and  CCF_53 
REMARK   40  A    between atoms: CCE_56  and  NCK_57 
REMARK   41  A    between atoms: CCG_61  and  NCL_62 
ROOT
ATOM      1  CBD AR8 d   1      27.029  55.217  41.803  0.00  0.00     0.039 C 
ATOM      2  H26 AR8 d   1      26.177  55.876  41.582  0.00  0.00     0.077 H 
ATOM      3  H27 AR8 d   1      27.499  54.896  40.861  0.00  0.00     0.077 H 
ENDROOT
BRANCH   1   4
ATOM      4  CBE AR8 d   1      26.550  53.995  42.586  0.00  0.00     0.039 C 
ATOM      5  H24 AR8 d   1      27.247  53.162  42.413  0.00  0.00     0.077 H 
ATOM      6  H25 AR8 d   1      26.531  54.240  43.658  0.00  0.00     0.077 H 
BRANCH   4   7
ATOM      7  OBX AR8 d   1      25.228  53.598  42.170  0.00  0.00    -0.387 OA
BRANCH   7   8
ATOM      8  CBF AR8 d   1      25.206  52.212  41.745  0.00  0.00     0.039 C 
ATOM      9  H22 AR8 d   1      25.925  51.645  42.355  0.00  0.00     0.077 H 
ATOM     10  H23 AR8 d   1      24.194  51.811  41.903  0.00  0.00     0.077 H 
BRANCH   8  11
ATOM     11  CBG AR8 d   1      25.578  52.045  40.258  0.00  0.00     0.040 C 
ATOM     12  H20 AR8 d   1      25.343  52.981  39.730  0.00  0.00     0.077 H 
ATOM     13  H21 AR8 d   1      26.657  51.845  40.187  0.00  0.00     0.077 H 
BRANCH  11  14
ATOM     14  OBY AR8 d   1      24.867  50.966  39.618  0.00  0.00    -0.383 OA
BRANCH  14  15
ATOM     15  CBL AR8 d   1      25.716  49.814  39.340  0.00  0.00     0.062 C 
ATOM     16  H18 AR8 d   1      25.919  49.837  38.259  0.00  0.00     0.084 H 
ATOM     17  H19 AR8 d   1      26.652  49.983  39.893  0.00  0.00     0.084 H 
BRANCH  15  18
ATOM     18  CCD AR8 d   1      25.318  48.497  39.636  0.00  0.00     0.099 A 
ATOM     19  CAO AR8 d   1      24.910  48.049  40.820  0.00  0.00     0.028 A 
ATOM     20  NCJ AR8 d   1      24.664  46.758  40.582  0.00  0.00    -0.261 N 
ATOM     21  H17 AR8 d   1      24.803  48.599  41.754  0.00  0.00     0.117 H 
ATOM     22  NBN AR8 d   1      24.900  46.470  39.396  0.00  0.00    -0.066 NA
ATOM     23  NBM AR8 d   1      25.298  47.473  38.776  0.00  0.00    -0.133 NA
BRANCH  20  24
ATOM     24  CBK AR8 d   1      24.176  45.786  41.586  0.00  0.00     0.018 C 
ATOM     25  H15 AR8 d   1      24.186  44.774  41.156  0.00  0.00     0.067 H 
ATOM     26  H16 AR8 d   1      24.825  45.814  42.473  0.00  0.00     0.067 H 
BRANCH  24  27
ATOM     27  CAQ AR8 d   1      22.753  46.160  41.981  0.00  0.00    -0.048 C 
ATOM     28  H13 AR8 d   1      22.736  47.225  42.254  0.00  0.00     0.035 H 
ATOM     29  H14 AR8 d   1      22.096  45.992  41.115  0.00  0.00     0.035 H 
BRANCH  27  30
ATOM     30  CAP AR8 d   1      22.214  45.345  43.167  0.00  0.00    -0.061 C 
ATOM     31  H11 AR8 d   1      22.367  44.268  43.005  0.00  0.00     0.033 H 
ATOM     32  H12 AR8 d   1      22.701  45.648  44.106  0.00  0.00     0.033 H 
BRANCH  30  33
ATOM     33  CB  AR8 d   1      20.727  45.688  43.189  0.00  0.00    -0.036 C 
ATOM     34  H9  AR8 d   1      20.639  46.766  43.389  0.00  0.00     0.036 H 
ATOM     35  H10 AR8 d   1      20.322  45.466  42.191  0.00  0.00     0.036 H 
BRANCH  33  36
ATOM     36  CA  AR8 d   1      19.854  44.955  44.215  0.00  0.00     0.098 C 
ATOM     37  H8  AR8 d   1      20.039  43.871  44.244  0.00  0.00     0.089 H 
BRANCH  36  38
ATOM     38  N   AR8 d   1      18.517  45.304  43.758  0.00  0.00    -0.329 N 
ATOM     39  CCC AR8 d   1      17.867  44.547  42.873  0.00  0.00     0.317 C 
ATOM     40  NBQ AR8 d   1      16.605  44.927  42.562  0.00  0.00    -0.329 N 
ATOM     41  OAD AR8 d   1      18.303  43.472  42.423  0.00  0.00    -0.247 OA
ATOM     42  H6  AR8 d   1      16.125  45.613  43.109  0.00  0.00     0.165 HD
ATOM     43  H7  AR8 d   1      18.077  46.128  44.115  0.00  0.00     0.165 HD
BRANCH  40  44
ATOM     44  CCI AR8 d   1      15.953  44.298  41.387  0.00  0.00     0.098 C 
ATOM     45  H5  AR8 d   1      15.771  43.231  41.584  0.00  0.00     0.089 H 
BRANCH  44  46
ATOM     46  CBJ AR8 d   1      14.613  45.004  41.028  0.00  0.00    -0.028 C 
ATOM     47  H3  AR8 d   1      14.207  44.570  40.102  0.00  0.00     0.037 H 
ATOM     48  H4  AR8 d   1      13.893  44.861  41.847  0.00  0.00     0.037 H 
BRANCH  46  49
ATOM     49  CBH AR8 d   1      14.864  46.516  40.821  0.00  0.00     0.018 C 
ATOM     50  H1  AR8 d   1      15.075  46.959  41.806  0.00  0.00     0.049 H 
ATOM     51  H2  AR8 d   1      15.746  46.624  40.173  0.00  0.00     0.049 H 
BRANCH  49  52
ATOM     52  CBZ AR8 d   1      13.710  47.318  40.182  0.00  0.00     0.172 C 
ATOM     53  OAA AR8 d   1      13.678  48.555  40.432  0.00  0.00    -0.648 OA
ATOM     54  OAG AR8 d   1      12.916  46.711  39.431  0.00  0.00    -0.648 OA
ENDBRANCH  49  52
ENDBRANCH  46  49
ENDBRANCH  44  46
BRANCH  44  55
ATOM     55  CCB AR8 d   1      16.926  44.480  40.182  0.00  0.00     0.196 C 
ATOM     56  OAI AR8 d   1      16.829  43.682  39.220  0.00  0.00    -0.646 OA
ATOM     57  OAC AR8 d   1      17.831  45.360  40.218  0.00  0.00    -0.646 OA
ENDBRANCH  44  55
ENDBRANCH  40  44
ENDBRANCH  36  38
BRANCH  36  58
ATOM     58  C   AR8 d   1      20.047  45.607  45.587  0.00  0.00     0.196 C 
ATOM     59  OXT AR8 d   1      20.641  44.910  46.445  0.00  0.00    -0.646 OA
ATOM     60  O   AR8 d   1      19.511  46.723  45.786  0.00  0.00    -0.646 OA
ENDBRANCH  36  58
ENDBRANCH  33  36
ENDBRANCH  30  33
ENDBRANCH  27  30
ENDBRANCH  24  27
ENDBRANCH  20  24
ENDBRANCH  15  18
ENDBRANCH  14  15
ENDBRANCH  11  14
ENDBRANCH   8  11
ENDBRANCH   7   8
ENDBRANCH   4   7
ENDBRANCH   1   4
BRANCH   1  61
ATOM     61  OBW AR8 d   1      27.994  55.920  42.618  0.00  0.00    -0.387 OA
BRANCH  61  62
ATOM     62  CBC AR8 d   1      29.180  56.243  41.827  0.00  0.00     0.039 C 
ATOM     63  H28 AR8 d   1      28.986  56.013  40.769  0.00  0.00     0.077 H 
ATOM     64  H29 AR8 d   1      30.030  55.642  42.183  0.00  0.00     0.077 H 
BRANCH  62  65
ATOM     65  CBB AR8 d   1      29.521  57.751  41.971  0.00  0.00     0.039 C 
ATOM     66  H30 AR8 d   1      28.631  58.357  41.746  0.00  0.00     0.077 H 
ATOM     67  H31 AR8 d   1      30.332  58.017  41.277  0.00  0.00     0.077 H 
BRANCH  65  68
ATOM     68  OBV AR8 d   1      29.951  57.994  43.355  0.00  0.00    -0.387 OA
BRANCH  68  69
ATOM     69  CBA AR8 d   1      29.390  59.277  43.813  0.00  0.00     0.039 C 
ATOM     70  H32 AR8 d   1      28.883  59.762  42.966  0.00  0.00     0.077 H 
ATOM     71  H33 AR8 d   1      30.214  59.917  44.162  0.00  0.00     0.077 H 
BRANCH  69  72
ATOM     72  CAZ AR8 d   1      28.359  59.104  44.982  0.00  0.00     0.039 C 
ATOM     73  H34 AR8 d   1      27.940  60.087  45.242  0.00  0.00     0.077 H 
ATOM     74  H35 AR8 d   1      28.874  58.681  45.858  0.00  0.00     0.077 H 
BRANCH  72  75
ATOM     75  OBU AR8 d   1      27.284  58.219  44.591  0.00  0.00    -0.387 OA
BRANCH  75  76
ATOM     76  CAY AR8 d   1      26.109  58.957  44.075  0.00  0.00     0.039 C 
ATOM     77  H36 AR8 d   1      26.455  59.797  43.455  0.00  0.00     0.077 H 
ATOM     78  H37 AR8 d   1      25.526  59.344  44.924  0.00  0.00     0.077 H 
BRANCH  76  79
ATOM     79  CAX AR8 d   1      25.212  58.039  43.225  0.00  0.00     0.039 C 
ATOM     80  H38 AR8 d   1      25.800  57.148  42.957  0.00  0.00     0.077 H 
ATOM     81  H39 AR8 d   1      24.939  58.587  42.311  0.00  0.00     0.077 H 
BRANCH  79  82
ATOM     82  OBT AR8 d   1      23.938  57.571  43.879  0.00  0.00    -0.387 OA
BRANCH  82  83
ATOM     83  CAW AR8 d   1      24.186  56.921  45.131  0.00  0.00     0.039 C 
ATOM     84  H40 AR8 d   1      24.244  57.676  45.929  0.00  0.00     0.077 H 
ATOM     85  H41 AR8 d   1      25.138  56.373  45.075  0.00  0.00     0.077 H 
BRANCH  83  86
ATOM     86  CAV AR8 d   1      23.062  55.948  45.440  0.00  0.00     0.039 C 
ATOM     87  H42 AR8 d   1      22.282  56.097  44.679  0.00  0.00     0.077 H 
ATOM     88  H43 AR8 d   1      22.663  56.213  46.430  0.00  0.00     0.077 H 
BRANCH  86  89
ATOM     89  OBS AR8 d   1      23.375  54.523  45.466  0.00  0.00    -0.387 OA
BRANCH  89  90
ATOM     90  CAU AR8 d   1      24.776  54.209  45.455  0.00  0.00     0.039 C 
ATOM     91  H44 AR8 d   1      25.348  55.146  45.524  0.00  0.00     0.077 H 
ATOM     92  H45 AR8 d   1      25.016  53.702  44.509  0.00  0.00     0.077 H 
BRANCH  90  93
ATOM     93  CAT AR8 d   1      25.180  53.310  46.601  0.00  0.00     0.039 C 
ATOM     94  H46 AR8 d   1      24.547  52.411  46.611  0.00  0.00     0.077 H 
ATOM     95  H47 AR8 d   1      25.069  53.848  47.554  0.00  0.00     0.077 H 
BRANCH  93  96
ATOM     96  OBR AR8 d   1      26.554  52.936  46.410  0.00  0.00    -0.387 OA
BRANCH  96  97
ATOM     97  CAS AR8 d   1      27.319  53.418  47.526  0.00  0.00     0.034 C 
ATOM     98  H48 AR8 d   1      27.521  52.574  48.202  0.00  0.00     0.076 H 
ATOM     99  H49 AR8 d   1      26.725  54.178  48.055  0.00  0.00     0.076 H 
BRANCH  97 100
ATOM    100  CAR AR8 d   1      28.657  54.045  47.114  0.00  0.00     0.013 C 
ATOM    101  H50 AR8 d   1      28.572  55.142  47.113  0.00  0.00     0.067 H 
ATOM    102  H51 AR8 d   1      28.939  53.698  46.109  0.00  0.00     0.067 H 
BRANCH 100 103
ATOM    103  NBO AR8 d   1      29.673  53.621  48.095  0.00  0.00    -0.386 N 
ATOM    104  H52 AR8 d   1      29.334  53.219  48.981  0.00  0.00     0.159 HD
BRANCH 103 105
ATOM    105  CCF AR8 d   1      31.001  53.714  47.932  0.00  0.00     0.061 A 
ATOM    106  CAM AR8 d   1      31.548  54.588  46.986  0.00  0.00    -0.053 A 
ATOM    107  CAL AR8 d   1      32.932  54.683  46.842  0.00  0.00    -0.049 A 
ATOM    108  H53 AR8 d   1      30.896  55.191  46.365  0.00  0.00     0.087 H 
ATOM    109  CCE AR8 d   1      33.784  53.915  47.641  0.00  0.00     0.105 A 
ATOM    110  H54 AR8 d   1      33.350  55.358  46.104  0.00  0.00     0.087 H 
ATOM    111  CAN AR8 d   1      33.231  53.048  48.589  0.00  0.00    -0.017 A 
ATOM    112  CCG AR8 d   1      31.847  52.937  48.744  0.00  0.00     0.131 A 
ATOM    113  H55 AR8 d   1      33.887  52.453  49.214  0.00  0.00     0.091 H 
BRANCH 109 114
ATOM    114  NCK AR8 d   1      35.120  54.002  47.496  0.00  0.00    -0.116 N 
ATOM    115  OAJ AR8 d   1      35.697  54.866  46.507  0.00  0.00    -0.532 OA
ATOM    116  OAE AR8 d   1      36.012  53.220  48.308  0.00  0.00    -0.532 OA
ENDBRANCH 109 114
BRANCH 112 117
ATOM    117  NCL AR8 d   1      31.357  52.088  49.666  0.00  0.00    -0.113 N 
ATOM    118  OAK AR8 d   1      29.968  51.838  49.776  0.00  0.00    -0.532 OA
ATOM    119  OAF AR8 d   1      32.220  51.411  50.555  0.00  0.00    -0.532 OA
ENDBRANCH 112 117
ENDBRANCH 103 105
ENDBRANCH 100 103
ENDBRANCH  97 100
ENDBRANCH  96  97
ENDBRANCH  93  96
ENDBRANCH  90  93
ENDBRANCH  89  90
ENDBRANCH  86  89
ENDBRANCH  83  86
ENDBRANCH  82  83
ENDBRANCH  79  82
ENDBRANCH  76  79
ENDBRANCH  75  76
ENDBRANCH  72  75
ENDBRANCH  69  72
ENDBRANCH  68  69
ENDBRANCH  65  68
ENDBRANCH  62  65
ENDBRANCH  61  62
ENDBRANCH   1  61
TORSDOF 41
