REMARK  29 active torsions:
REMARK  status: ('A' for Active; 'I' for Inactive)
REMARK    1  A    between atoms: CBN_2  and  CAZ_4 
REMARK    2  A    between atoms: CAZ_4  and  CBB_5 
REMARK    3  A    between atoms: CBB_5  and  CBW_6 
REMARK    4  A    between atoms: CBW_6  and  CBP_7 
REMARK    5  A    between atoms: CBW_6  and  NBI_10 
REMARK       I    between atoms: NBI_10  and  CBQ_11 
REMARK       I    between atoms: CBQ_11  and  N_13 
REMARK    6  A    between atoms: N_13  and  CA_14 
REMARK    7  A    between atoms: CA_14  and  C_15 
REMARK    8  A    between atoms: CA_14  and  CB_18 
REMARK    9  A    between atoms: CB_18  and  CAP_19 
REMARK   10  A    between atoms: CAP_19  and  CAQ_20 
REMARK   11  A    between atoms: CAQ_20  and  CBC_21 
REMARK   12  A    between atoms: CBC_21  and  NBX_22 
REMARK   13  A    between atoms: CBR_26  and  CBD_27 
REMARK   14  A    between atoms: CBD_27  and  OBM_28 
REMARK   15  A    between atoms: OBM_28  and  CAY_29 
REMARK   16  A    between atoms: CAY_29  and  CAX_30 
REMARK   17  A    between atoms: CAX_30  and  OBL_31 
REMARK   18  A    between atoms: OBL_31  and  CAW_32 
REMARK   19  A    between atoms: CAW_32  and  CAV_33 
REMARK   20  A    between atoms: CAV_33  and  OBK_34 
REMARK   21  A    between atoms: OBK_34  and  CAU_35 
REMARK   22  A    between atoms: CAU_35  and  CAT_36 
REMARK   23  A    between atoms: CAT_36  and  OBJ_37 
REMARK   24  A    between atoms: OBJ_37  and  CAS_38 
REMARK   25  A    between atoms: CAS_38  and  CAR_39 
REMARK   26  A    between atoms: CAR_39  and  NBG_40 
REMARK   27  A    between atoms: NBG_40  and  CBT_41 
REMARK   28  A    between atoms: CBS_44  and  NBY_45 
REMARK   29  A    between atoms: CBU_49  and  NBZ_50 
ROOT
ATOM      1  CBD CI9 d   1      25.637  49.339  38.991  0.00  0.00     0.062 C 
ATOM      2  H18 CI9 d   1      24.826  49.659  38.320  0.00  0.00     0.084 H 
ATOM      3  H19 CI9 d   1      26.561  49.199  38.410  0.00  0.00     0.084 H 
ENDROOT
BRANCH   1   4
ATOM      4  CBR CI9 d   1      25.282  48.101  39.502  0.00  0.00     0.099 A 
ATOM      5  CAO CI9 d   1      24.867  47.862  40.747  0.00  0.00     0.028 A 
ATOM      6  NBX CI9 d   1      24.655  46.548  40.716  0.00  0.00    -0.261 N 
ATOM      7  H17 CI9 d   1      24.736  48.559  41.573  0.00  0.00     0.117 H 
ATOM      8  NBF CI9 d   1      24.906  46.078  39.587  0.00  0.00    -0.066 NA
ATOM      9  NBE CI9 d   1      25.290  46.964  38.810  0.00  0.00    -0.133 NA
BRANCH   6  10
ATOM     10  CBC CI9 d   1      24.174  45.714  41.846  0.00  0.00     0.018 C 
ATOM     11  H15 CI9 d   1      24.276  44.649  41.591  0.00  0.00     0.067 H 
ATOM     12  H16 CI9 d   1      24.765  45.934  42.748  0.00  0.00     0.067 H 
BRANCH  10  13
ATOM     13  CAQ CI9 d   1      22.726  46.041  42.095  0.00  0.00    -0.048 C 
ATOM     14  H13 CI9 d   1      22.625  47.127  42.237  0.00  0.00     0.035 H 
ATOM     15  H14 CI9 d   1      22.134  45.728  41.222  0.00  0.00     0.035 H 
BRANCH  13  16
ATOM     16  CAP CI9 d   1      22.183  45.315  43.358  0.00  0.00    -0.061 C 
ATOM     17  H11 CI9 d   1      22.394  44.236  43.312  0.00  0.00     0.033 H 
ATOM     18  H12 CI9 d   1      22.624  45.736  44.273  0.00  0.00     0.033 H 
BRANCH  16  19
ATOM     19  CB  CI9 d   1      20.678  45.580  43.305  0.00  0.00    -0.036 C 
ATOM     20  H9  CI9 d   1      20.523  46.664  43.406  0.00  0.00     0.036 H 
ATOM     21  H10 CI9 d   1      20.311  45.247  42.323  0.00  0.00     0.036 H 
BRANCH  19  22
ATOM     22  CA  CI9 d   1      19.849  44.891  44.368  0.00  0.00     0.098 C 
ATOM     23  H8  CI9 d   1      20.008  43.804  44.433  0.00  0.00     0.089 H 
BRANCH  22  24
ATOM     24  N   CI9 d   1      18.526  45.276  43.890  0.00  0.00    -0.329 N 
ATOM     25  CBQ CI9 d   1      17.844  44.501  43.028  0.00  0.00     0.317 C 
ATOM     26  NBI CI9 d   1      16.594  44.895  42.682  0.00  0.00    -0.329 N 
ATOM     27  OAD CI9 d   1      18.266  43.448  42.536  0.00  0.00    -0.247 OA
ATOM     28  H6  CI9 d   1      16.116  45.593  43.215  0.00  0.00     0.165 HD
ATOM     29  H7  CI9 d   1      18.119  46.132  44.209  0.00  0.00     0.165 HD
BRANCH  26  30
ATOM     30  CBW CI9 d   1      15.946  44.276  41.502  0.00  0.00     0.098 C 
ATOM     31  H5  CI9 d   1      15.732  43.215  41.701  0.00  0.00     0.089 H 
BRANCH  30  32
ATOM     32  CBB CI9 d   1      14.652  45.017  41.080  0.00  0.00    -0.028 C 
ATOM     33  H3  CI9 d   1      14.330  44.652  40.093  0.00  0.00     0.037 H 
ATOM     34  H4  CI9 d   1      13.862  44.819  41.820  0.00  0.00     0.037 H 
BRANCH  32  35
ATOM     35  CAZ CI9 d   1      14.908  46.536  41.003  0.00  0.00     0.018 C 
ATOM     36  H1  CI9 d   1      15.077  46.917  42.021  0.00  0.00     0.049 H 
ATOM     37  H2  CI9 d   1      15.806  46.711  40.392  0.00  0.00     0.049 H 
BRANCH  35  38
ATOM     38  CBN CI9 d   1      13.712  47.316  40.369  0.00  0.00     0.172 C 
ATOM     39  OAA CI9 d   1      13.702  48.558  40.576  0.00  0.00    -0.648 OA
ATOM     40  OAG CI9 d   1      12.915  46.745  39.587  0.00  0.00    -0.648 OA
ENDBRANCH  35  38
ENDBRANCH  32  35
ENDBRANCH  30  32
BRANCH  30  41
ATOM     41  CBP CI9 d   1      16.930  44.446  40.311  0.00  0.00     0.196 C 
ATOM     42  OAI CI9 d   1      16.818  43.646  39.335  0.00  0.00    -0.646 OA
ATOM     43  OAC CI9 d   1      17.807  45.358  40.327  0.00  0.00    -0.646 OA
ENDBRANCH  30  41
ENDBRANCH  26  30
ENDBRANCH  22  24
BRANCH  22  44
ATOM     44  C   CI9 d   1      20.103  45.592  45.695  0.00  0.00     0.196 C 
ATOM     45  OXT CI9 d   1      19.542  46.703  45.865  0.00  0.00    -0.646 OA
ATOM     46  O   CI9 d   1      20.718  44.910  46.553  0.00  0.00    -0.646 OA
ENDBRANCH  22  44
ENDBRANCH  19  22
ENDBRANCH  16  19
ENDBRANCH  13  16
ENDBRANCH  10  13
ENDBRANCH   6  10
ENDBRANCH   1   4
BRANCH   1  47
ATOM     47  OBM CI9 d   1      25.874  50.414  39.914  0.00  0.00    -0.383 OA
BRANCH  47  48
ATOM     48  CAY CI9 d   1      24.972  51.477  39.648  0.00  0.00     0.040 C 
ATOM     49  H20 CI9 d   1      23.955  51.187  39.950  0.00  0.00     0.077 H 
ATOM     50  H21 CI9 d   1      24.982  51.714  38.574  0.00  0.00     0.077 H 
BRANCH  48  51
ATOM     51  CAX CI9 d   1      25.419  52.682  40.443  0.00  0.00     0.039 C 
ATOM     52  H22 CI9 d   1      24.770  53.541  40.217  0.00  0.00     0.077 H 
ATOM     53  H23 CI9 d   1      26.460  52.932  40.189  0.00  0.00     0.077 H 
BRANCH  51  54
ATOM     54  OBL CI9 d   1      25.323  52.351  41.840  0.00  0.00    -0.387 OA
BRANCH  54  55
ATOM     55  CAW CI9 d   1      24.825  53.482  42.548  0.00  0.00     0.039 C 
ATOM     56  H24 CI9 d   1      23.858  53.243  43.016  0.00  0.00     0.077 H 
ATOM     57  H25 CI9 d   1      24.701  54.335  41.865  0.00  0.00     0.077 H 
BRANCH  55  58
ATOM     58  CAV CI9 d   1      25.845  53.802  43.598  0.00  0.00     0.039 C 
ATOM     59  H26 CI9 d   1      26.462  52.912  43.789  0.00  0.00     0.077 H 
ATOM     60  H27 CI9 d   1      25.333  54.099  44.525  0.00  0.00     0.077 H 
BRANCH  58  61
ATOM     61  OBK CI9 d   1      26.695  54.888  43.150  0.00  0.00    -0.387 OA
BRANCH  61  62
ATOM     62  CAU CI9 d   1      27.812  55.036  44.071  0.00  0.00     0.039 C 
ATOM     63  H28 CI9 d   1      28.365  55.952  43.815  0.00  0.00     0.077 H 
ATOM     64  H29 CI9 d   1      28.476  54.165  43.966  0.00  0.00     0.077 H 
BRANCH  62  65
ATOM     65  CAT CI9 d   1      27.341  55.132  45.546  0.00  0.00     0.039 C 
ATOM     66  H30 CI9 d   1      26.326  54.714  45.623  0.00  0.00     0.077 H 
ATOM     67  H31 CI9 d   1      27.325  56.190  45.845  0.00  0.00     0.077 H 
BRANCH  65  68
ATOM     68  OBJ CI9 d   1      28.209  54.410  46.438  0.00  0.00    -0.387 OA
BRANCH  68  69
ATOM     69  CAS CI9 d   1      27.466  53.623  47.375  0.00  0.00     0.034 C 
ATOM     70  H32 CI9 d   1      26.742  52.973  46.862  0.00  0.00     0.076 H 
ATOM     71  H33 CI9 d   1      26.938  54.261  48.099  0.00  0.00     0.076 H 
BRANCH  69  72
ATOM     72  CAR CI9 d   1      28.561  52.801  48.057  0.00  0.00     0.013 C 
ATOM     73  H34 CI9 d   1      29.015  52.122  47.320  0.00  0.00     0.067 H 
ATOM     74  H35 CI9 d   1      28.116  52.212  48.872  0.00  0.00     0.067 H 
BRANCH  72  75
ATOM     75  NBG CI9 d   1      29.605  53.683  48.611  0.00  0.00    -0.386 N 
ATOM     76  H36 CI9 d   1      29.293  54.367  49.315  0.00  0.00     0.159 HD
BRANCH  75  77
ATOM     77  CBT CI9 d   1      30.917  53.703  48.308  0.00  0.00     0.061 A 
ATOM     78  CAM CI9 d   1      31.351  54.597  47.318  0.00  0.00    -0.053 A 
ATOM     79  CAL CI9 d   1      32.706  54.692  46.996  0.00  0.00    -0.049 A 
ATOM     80  H37 CI9 d   1      30.630  55.218  46.800  0.00  0.00     0.087 H 
ATOM     81  CBS CI9 d   1      33.640  53.899  47.670  0.00  0.00     0.105 A 
ATOM     82  H38 CI9 d   1      33.034  55.380  46.225  0.00  0.00     0.087 H 
ATOM     83  CAN CI9 d   1      33.205  53.024  48.667  0.00  0.00    -0.017 A 
ATOM     84  CBU CI9 d   1      31.856  52.909  49.006  0.00  0.00     0.131 A 
ATOM     85  H39 CI9 d   1      33.934  52.418  49.192  0.00  0.00     0.091 H 
BRANCH  81  86
ATOM     86  NBY CI9 d   1      34.955  53.956  47.379  0.00  0.00    -0.116 N 
ATOM     87  OAJ CI9 d   1      35.439  53.784  46.028  0.00  0.00    -0.532 OA
ATOM     88  OAE CI9 d   1      35.921  54.139  48.428  0.00  0.00    -0.532 OA
ENDBRANCH  81  86
BRANCH  84  89
ATOM     89  NBZ CI9 d   1      31.527  52.024  49.974  0.00  0.00    -0.113 N 
ATOM     90  OAK CI9 d   1      30.206  51.644  50.231  0.00  0.00    -0.532 OA
ATOM     91  OAF CI9 d   1      32.528  51.392  50.744  0.00  0.00    -0.532 OA
ENDBRANCH  84  89
ENDBRANCH  75  77
ENDBRANCH  72  75
ENDBRANCH  69  72
ENDBRANCH  68  69
ENDBRANCH  65  68
ENDBRANCH  62  65
ENDBRANCH  61  62
ENDBRANCH  58  61
ENDBRANCH  55  58
ENDBRANCH  54  55
ENDBRANCH  51  54
ENDBRANCH  48  51
ENDBRANCH  47  48
ENDBRANCH   1  47
TORSDOF 29
