REMARK  23 active torsions:
REMARK  status: ('A' for Active; 'I' for Inactive)
REMARK    1  A    between atoms: CBH_2  and  CAV_4 
REMARK    2  A    between atoms: CAV_4  and  CAX_5 
REMARK    3  A    between atoms: CAX_5  and  CBQ_6 
REMARK    4  A    between atoms: CBQ_6  and  CBJ_7 
REMARK    5  A    between atoms: CBQ_6  and  NBE_10 
REMARK       I    between atoms: NBE_10  and  CBK_11 
REMARK       I    between atoms: CBK_11  and  N_13 
REMARK    6  A    between atoms: N_13  and  CA_14 
REMARK    7  A    between atoms: CA_14  and  C_15 
REMARK    8  A    between atoms: CA_14  and  CB_18 
REMARK    9  A    between atoms: CB_18  and  CAP_19 
REMARK   10  A    between atoms: CAP_19  and  CAQ_20 
REMARK   11  A    between atoms: CAQ_20  and  CAY_21 
REMARK   12  A    between atoms: CAY_21  and  NBR_22 
REMARK   13  A    between atoms: CBL_26  and  CAZ_27 
REMARK   14  A    between atoms: CAZ_27  and  OBG_28 
REMARK   15  A    between atoms: OBG_28  and  CAU_29 
REMARK   16  A    between atoms: CAU_29  and  CAT_30 
REMARK   17  A    between atoms: CAT_30  and  OBF_31 
REMARK   18  A    between atoms: OBF_31  and  CAS_32 
REMARK   19  A    between atoms: CAS_32  and  CAR_33 
REMARK   20  A    between atoms: CAR_33  and  NBC_34 
REMARK   21  A    between atoms: NBC_34  and  CBN_35 
REMARK   22  A    between atoms: CBM_38  and  NBS_39 
REMARK   23  A    between atoms: CBO_43  and  NBT_44 
ROOT
ATOM      1  NBR ARK d   1      24.726  47.561  41.645  0.00  0.00    -0.261 N 
ATOM      2  CAO ARK d   1      25.131  48.366  42.643  0.00  0.00     0.028 A 
ATOM      3  NBB ARK d   1      25.011  48.045  40.532  0.00  0.00    -0.066 NA
ATOM      4  NBA ARK d   1      25.591  49.133  40.672  0.00  0.00    -0.133 NA
ATOM      5  CBL ARK d   1      25.694  49.376  41.991  0.00  0.00     0.099 A 
ATOM      6  H17 ARK d   1      25.024  48.225  43.718  0.00  0.00     0.117 H 
ENDROOT
BRANCH   1   7
ATOM      7  CAY ARK d   1      24.015  46.275  41.872  0.00  0.00     0.018 C 
ATOM      8  H15 ARK d   1      23.454  45.990  40.970  0.00  0.00     0.067 H 
ATOM      9  H16 ARK d   1      24.738  45.483  42.119  0.00  0.00     0.067 H 
BRANCH   7  10
ATOM     10  CAQ ARK d   1      23.057  46.490  43.037  0.00  0.00    -0.048 C 
ATOM     11  H13 ARK d   1      23.645  46.629  43.956  0.00  0.00     0.035 H 
ATOM     12  H14 ARK d   1      22.461  47.394  42.842  0.00  0.00     0.035 H 
BRANCH  10  13
ATOM     13  CAP ARK d   1      22.113  45.316  43.234  0.00  0.00    -0.061 C 
ATOM     14  H11 ARK d   1      22.234  44.604  42.404  0.00  0.00     0.033 H 
ATOM     15  H12 ARK d   1      22.345  44.814  44.185  0.00  0.00     0.033 H 
BRANCH  13  16
ATOM     16  CB  ARK d   1      20.669  45.826  43.264  0.00  0.00    -0.036 C 
ATOM     17  H9  ARK d   1      20.662  46.872  43.603  0.00  0.00     0.036 H 
ATOM     18  H10 ARK d   1      20.244  45.766  42.251  0.00  0.00     0.036 H 
BRANCH  16  19
ATOM     19  CA  ARK d   1      19.796  44.961  44.242  0.00  0.00     0.098 C 
ATOM     20  H8  ARK d   1      20.077  43.898  44.234  0.00  0.00     0.089 H 
BRANCH  19  21
ATOM     21  N   ARK d   1      18.454  45.191  43.742  0.00  0.00    -0.329 N 
ATOM     22  CBK ARK d   1      17.835  44.413  42.854  0.00  0.00     0.317 C 
ATOM     23  NBE ARK d   1      16.583  44.770  42.555  0.00  0.00    -0.329 N 
ATOM     24  OAD ARK d   1      18.332  43.392  42.347  0.00  0.00    -0.247 OA
ATOM     25  H6  ARK d   1      16.111  45.434  43.135  0.00  0.00     0.165 HD
ATOM     26  H7  ARK d   1      17.959  45.988  44.087  0.00  0.00     0.165 HD
BRANCH  23  27
ATOM     27  CBQ ARK d   1      15.884  44.207  41.390  0.00  0.00     0.098 C 
ATOM     28  H5  ARK d   1      15.649  43.144  41.549  0.00  0.00     0.089 H 
BRANCH  27  29
ATOM     29  CAX ARK d   1      14.574  45.018  41.042  0.00  0.00    -0.028 C 
ATOM     30  H3  ARK d   1      14.132  44.599  40.126  0.00  0.00     0.037 H 
ATOM     31  H4  ARK d   1      13.862  44.913  41.874  0.00  0.00     0.037 H 
BRANCH  29  32
ATOM     32  CAV ARK d   1      14.856  46.536  40.813  0.00  0.00     0.018 C 
ATOM     33  H1  ARK d   1      14.990  46.984  41.809  0.00  0.00     0.049 H 
ATOM     34  H2  ARK d   1      15.800  46.599  40.252  0.00  0.00     0.049 H 
BRANCH  32  35
ATOM     35  CBH ARK d   1      13.813  47.444  40.045  0.00  0.00     0.172 C 
ATOM     36  OAA ARK d   1      13.858  48.698  40.215  0.00  0.00    -0.648 OA
ATOM     37  OAG ARK d   1      12.996  46.866  39.297  0.00  0.00    -0.648 OA
ENDBRANCH  32  35
ENDBRANCH  29  32
ENDBRANCH  27  29
BRANCH  27  38
ATOM     38  CBJ ARK d   1      16.871  44.417  40.189  0.00  0.00     0.196 C 
ATOM     39  OAI ARK d   1      16.774  43.624  39.193  0.00  0.00    -0.646 OA
ATOM     40  OAC ARK d   1      17.727  45.352  40.258  0.00  0.00    -0.646 OA
ENDBRANCH  27  38
ENDBRANCH  23  27
ENDBRANCH  19  21
BRANCH  19  41
ATOM     41  C   ARK d   1      19.896  45.556  45.645  0.00  0.00     0.196 C 
ATOM     42  OXT ARK d   1      19.416  46.711  45.800  0.00  0.00    -0.646 OA
ATOM     43  O   ARK d   1      20.517  44.851  46.504  0.00  0.00    -0.646 OA
ENDBRANCH  19  41
ENDBRANCH  16  19
ENDBRANCH  13  16
ENDBRANCH  10  13
ENDBRANCH   7  10
ENDBRANCH   1   7
BRANCH   5  44
ATOM     44  CAZ ARK d   1      26.281  50.496  42.602  0.00  0.00     0.062 C 
ATOM     45  H18 ARK d   1      27.030  50.892  41.900  0.00  0.00     0.084 H 
ATOM     46  H19 ARK d   1      26.784  50.141  43.514  0.00  0.00     0.084 H 
BRANCH  44  47
ATOM     47  OBG ARK d   1      25.433  51.603  42.988  0.00  0.00    -0.383 OA
BRANCH  47  48
ATOM     48  CAU ARK d   1      25.338  51.678  44.430  0.00  0.00     0.040 C 
ATOM     49  H20 ARK d   1      26.214  51.176  44.867  0.00  0.00     0.077 H 
ATOM     50  H21 ARK d   1      24.422  51.160  44.749  0.00  0.00     0.077 H 
BRANCH  48  51
ATOM     51  CAT ARK d   1      25.290  53.141  44.955  0.00  0.00     0.039 C 
ATOM     52  H22 ARK d   1      24.580  53.203  45.793  0.00  0.00     0.077 H 
ATOM     53  H23 ARK d   1      24.959  53.807  44.144  0.00  0.00     0.077 H 
BRANCH  51  54
ATOM     54  OBF ARK d   1      26.603  53.557  45.410  0.00  0.00    -0.387 OA
BRANCH  54  55
ATOM     55  CAS ARK d   1      26.775  53.215  46.805  0.00  0.00     0.034 C 
ATOM     56  H24 ARK d   1      25.876  52.678  47.142  0.00  0.00     0.076 H 
ATOM     57  H25 ARK d   1      26.881  54.148  47.378  0.00  0.00     0.076 H 
BRANCH  55  58
ATOM     58  CAR ARK d   1      28.000  52.331  47.092  0.00  0.00     0.013 C 
ATOM     59  H26 ARK d   1      28.317  51.828  46.167  0.00  0.00     0.067 H 
ATOM     60  H27 ARK d   1      27.742  51.577  47.850  0.00  0.00     0.067 H 
BRANCH  58  61
ATOM     61  NBC ARK d   1      29.094  53.181  47.593  0.00  0.00    -0.386 N 
ATOM     62  H28 ARK d   1      29.022  54.196  47.433  0.00  0.00     0.159 HD
BRANCH  61  63
ATOM     63  CBN ARK d   1      30.179  52.728  48.244  0.00  0.00     0.061 A 
ATOM     64  CAM ARK d   1      30.074  52.078  49.475  0.00  0.00    -0.053 A 
ATOM     65  CAL ARK d   1      31.223  51.642  50.116  0.00  0.00    -0.049 A 
ATOM     66  H29 ARK d   1      29.102  51.916  49.926  0.00  0.00     0.087 H 
ATOM     67  CBM ARK d   1      32.480  51.865  49.550  0.00  0.00     0.105 A 
ATOM     68  H30 ARK d   1      31.145  51.123  51.065  0.00  0.00     0.087 H 
ATOM     69  CAN ARK d   1      32.580  52.524  48.342  0.00  0.00    -0.017 A 
ATOM     70  CBO ARK d   1      31.443  52.959  47.690  0.00  0.00     0.131 A 
ATOM     71  H31 ARK d   1      33.555  52.701  47.903  0.00  0.00     0.091 H 
BRANCH  67  72
ATOM     72  NBS ARK d   1      33.623  51.454  50.113  0.00  0.00    -0.116 N 
ATOM     73  OAJ ARK d   1      34.851  51.657  49.432  0.00  0.00    -0.532 OA
ATOM     74  OAE ARK d   1      33.662  50.692  51.329  0.00  0.00    -0.532 OA
ENDBRANCH  67  72
BRANCH  70  75
ATOM     75  NBT ARK d   1      31.605  53.565  46.517  0.00  0.00    -0.113 N 
ATOM     76  OAK ARK d   1      32.910  53.705  45.977  0.00  0.00    -0.532 OA
ATOM     77  OAF ARK d   1      30.476  53.971  45.752  0.00  0.00    -0.532 OA
ENDBRANCH  70  75
ENDBRANCH  61  63
ENDBRANCH  58  61
ENDBRANCH  55  58
ENDBRANCH  54  55
ENDBRANCH  51  54
ENDBRANCH  48  51
ENDBRANCH  47  48
ENDBRANCH  44  47
ENDBRANCH   5  44
TORSDOF 23
