REMARK  27 active torsions:
REMARK  status: ('A' for Active; 'I' for Inactive)
REMARK    1  A    between atoms: CAA_1  and  OBC_2 
REMARK    2  A    between atoms: OBC_2  and  CAL_3 
REMARK    3  A    between atoms: CAL_3  and  CAM_4 
REMARK    4  A    between atoms: CAM_4  and  OBD_5 
REMARK    5  A    between atoms: OBD_5  and  CAN_6 
REMARK    6  A    between atoms: CAN_6  and  CAO_7 
REMARK    7  A    between atoms: CAO_7  and  OBE_8 
REMARK    8  A    between atoms: OBE_8  and  CAP_9 
REMARK    9  A    between atoms: CAP_9  and  CAQ_10 
REMARK   10  A    between atoms: CAQ_10  and  OBF_11 
REMARK   11  A    between atoms: OBF_11  and  CAR_12 
REMARK   12  A    between atoms: CAR_12  and  CAS_13 
REMARK   13  A    between atoms: CAS_13  and  OBG_14 
REMARK   14  A    between atoms: OBG_14  and  CAX_15 
REMARK   15  A    between atoms: CAX_15  and  CBL_16 
REMARK   16  A    between atoms: NBO_20  and  CAW_21 
REMARK   17  A    between atoms: CAW_21  and  CAK_22 
REMARK   18  A    between atoms: CAK_22  and  CAJ_23 
REMARK   19  A    between atoms: CAJ_23  and  CB_24 
REMARK   20  A    between atoms: CB_24  and  CA_25 
REMARK   21  A    between atoms: CA_25  and  C_26 
REMARK   22  A    between atoms: CA_25  and  N_29 
REMARK       I    between atoms: N_29  and  CBK_30 
REMARK       I    between atoms: CBK_30  and  NBB_32 
REMARK   23  A    between atoms: NBB_32  and  CBN_33 
REMARK   24  A    between atoms: CBN_33  and  CBJ_34 
REMARK   25  A    between atoms: CBN_33  and  CAV_37 
REMARK   26  A    between atoms: CAV_37  and  CAT_38 
REMARK   27  A    between atoms: CAT_38  and  CBH_39 
ROOT
ATOM      1  CBL OKD d   1      25.511  48.657  39.951  0.00  0.00     0.099 A 
ATOM      2  CAI OKD d   1      25.076  48.300  41.166  0.00  0.00     0.028 A 
ATOM      3  NAY OKD d   1      25.463  47.554  39.175  0.00  0.00    -0.133 NA
ATOM      4  NAZ OKD d   1      25.030  46.610  39.878  0.00  0.00    -0.066 NA
ATOM      5  NBO OKD d   1      24.778  47.003  41.038  0.00  0.00    -0.261 N 
ATOM      6  H22 OKD d   1      24.986  48.923  42.054  0.00  0.00     0.117 H 
ENDROOT
BRANCH   5   7
ATOM      7  CAW OKD d   1      24.273  46.194  42.192  0.00  0.00     0.018 C 
ATOM      8  H23 OKD d   1      24.314  46.813  43.100  0.00  0.00     0.067 H 
ATOM      9  H24 OKD d   1      24.923  45.316  42.317  0.00  0.00     0.067 H 
BRANCH   7  10
ATOM     10  CAK OKD d   1      22.850  45.719  41.993  0.00  0.00    -0.048 C 
ATOM     11  H25 OKD d   1      22.845  44.867  41.298  0.00  0.00     0.035 H 
ATOM     12  H26 OKD d   1      22.249  46.539  41.573  0.00  0.00     0.035 H 
BRANCH  10  13
ATOM     13  CAJ OKD d   1      22.233  45.274  43.360  0.00  0.00    -0.061 C 
ATOM     14  H27 OKD d   1      22.723  45.805  44.190  0.00  0.00     0.033 H 
ATOM     15  H28 OKD d   1      22.354  44.189  43.497  0.00  0.00     0.033 H 
BRANCH  13  16
ATOM     16  CB  OKD d   1      20.729  45.643  43.301  0.00  0.00    -0.036 C 
ATOM     17  H29 OKD d   1      20.341  45.356  42.312  0.00  0.00     0.036 H 
ATOM     18  H30 OKD d   1      20.635  46.731  43.430  0.00  0.00     0.036 H 
BRANCH  16  19
ATOM     19  CA  OKD d   1      19.866  44.950  44.380  0.00  0.00     0.098 C 
ATOM     20  H31 OKD d   1      20.066  43.871  44.455  0.00  0.00     0.089 H 
BRANCH  19  21
ATOM     21  C   OKD d   1      20.124  45.653  45.732  0.00  0.00     0.196 C 
ATOM     22  OXT OKD d   1      20.780  44.982  46.561  0.00  0.00    -0.646 OA
ATOM     23  O   OKD d   1      19.535  46.726  45.951  0.00  0.00    -0.646 OA
ENDBRANCH  19  21
BRANCH  19  24
ATOM     24  N   OKD d   1      18.511  45.228  43.904  0.00  0.00    -0.329 N 
ATOM     25  CBK OKD d   1      17.882  44.480  43.019  0.00  0.00     0.317 C 
ATOM     26  OAE OKD d   1      18.354  43.441  42.570  0.00  0.00    -0.247 OA
ATOM     27  NBB OKD d   1      16.627  44.818  42.721  0.00  0.00    -0.329 N 
ATOM     28  H33 OKD d   1      16.122  45.460  43.298  0.00  0.00     0.165 HD
ATOM     29  H32 OKD d   1      18.036  46.029  44.270  0.00  0.00     0.165 HD
BRANCH  27  30
ATOM     30  CBN OKD d   1      16.008  44.238  41.547  0.00  0.00     0.098 C 
ATOM     31  H34 OKD d   1      15.809  43.169  41.714  0.00  0.00     0.089 H 
BRANCH  30  32
ATOM     32  CBJ OKD d   1      16.994  44.460  40.368  0.00  0.00     0.196 C 
ATOM     33  OAH OKD d   1      16.850  43.686  39.398  0.00  0.00    -0.646 OA
ATOM     34  OAD OKD d   1      17.888  45.362  40.430  0.00  0.00    -0.646 OA
ENDBRANCH  30  32
BRANCH  30  35
ATOM     35  CAV OKD d   1      14.691  44.980  41.124  0.00  0.00    -0.028 C 
ATOM     36  H35 OKD d   1      13.887  44.710  41.824  0.00  0.00     0.037 H 
ATOM     37  H36 OKD d   1      14.413  44.665  40.107  0.00  0.00     0.037 H 
BRANCH  35  38
ATOM     38  CAT OKD d   1      14.882  46.538  41.142  0.00  0.00     0.018 C 
ATOM     39  H37 OKD d   1      15.836  46.772  40.647  0.00  0.00     0.049 H 
ATOM     40  H38 OKD d   1      14.923  46.866  42.191  0.00  0.00     0.049 H 
BRANCH  38  41
ATOM     41  CBH OKD d   1      13.756  47.339  40.428  0.00  0.00     0.172 C 
ATOM     42  OAF OKD d   1      13.705  48.565  40.657  0.00  0.00    -0.648 OA
ATOM     43  OAB OKD d   1      12.943  46.719  39.706  0.00  0.00    -0.648 OA
ENDBRANCH  38  41
ENDBRANCH  35  38
ENDBRANCH  30  35
ENDBRANCH  27  30
ENDBRANCH  19  24
ENDBRANCH  16  19
ENDBRANCH  13  16
ENDBRANCH  10  13
ENDBRANCH   7  10
ENDBRANCH   5   7
BRANCH   1  44
ATOM     44  CAX OKD d   1      25.946  49.975  39.596  0.00  0.00     0.062 C 
ATOM     45  H20 OKD d   1      26.984  50.044  39.954  0.00  0.00     0.084 H 
ATOM     46  H21 OKD d   1      25.935  49.997  38.496  0.00  0.00     0.084 H 
BRANCH  44  47
ATOM     47  OBG OKD d   1      25.283  51.283  40.031  0.00  0.00    -0.383 OA
BRANCH  47  48
ATOM     48  CAS OKD d   1      25.613  51.730  41.426  0.00  0.00     0.040 C 
ATOM     49  H18 OKD d   1      25.058  51.087  42.124  0.00  0.00     0.077 H 
ATOM     50  H19 OKD d   1      26.693  51.588  41.577  0.00  0.00     0.077 H 
BRANCH  48  51
ATOM     51  CAR OKD d   1      25.277  53.205  41.772  0.00  0.00     0.039 C 
ATOM     52  H16 OKD d   1      24.348  53.572  41.312  0.00  0.00     0.077 H 
ATOM     53  H17 OKD d   1      25.263  53.420  42.851  0.00  0.00     0.077 H 
BRANCH  51  54
ATOM     54  OBF OKD d   1      26.517  53.657  41.079  0.00  0.00    -0.387 OA
BRANCH  54  55
ATOM     55  CAQ OKD d   1      26.595  55.078  41.295  0.00  0.00     0.039 C 
ATOM     56  H14 OKD d   1      25.593  55.489  41.489  0.00  0.00     0.077 H 
ATOM     57  H15 OKD d   1      27.253  55.298  42.148  0.00  0.00     0.077 H 
BRANCH  55  58
ATOM     58  CAP OKD d   1      27.175  55.677  40.009  0.00  0.00     0.039 C 
ATOM     59  H12 OKD d   1      28.010  55.043  39.676  0.00  0.00     0.077 H 
ATOM     60  H13 OKD d   1      26.387  55.680  39.241  0.00  0.00     0.077 H 
BRANCH  58  61
ATOM     61  OBE OKD d   1      27.664  57.030  40.168  0.00  0.00    -0.387 OA
BRANCH  61  62
ATOM     62  CAO OKD d   1      29.111  57.017  40.413  0.00  0.00     0.039 C 
ATOM     63  H10 OKD d   1      29.316  57.688  41.260  0.00  0.00     0.077 H 
ATOM     64  H11 OKD d   1      29.399  55.990  40.681  0.00  0.00     0.077 H 
BRANCH  62  65
ATOM     65  CAN OKD d   1      29.996  57.464  39.229  0.00  0.00     0.039 C 
ATOM     66  H8  OKD d   1      30.878  57.984  39.632  0.00  0.00     0.077 H 
ATOM     67  H9  OKD d   1      30.318  56.568  38.679  0.00  0.00     0.077 H 
BRANCH  65  68
ATOM     68  OBD OKD d   1      29.325  58.353  38.302  0.00  0.00    -0.387 OA
BRANCH  68  69
ATOM     69  CAM OKD d   1      29.712  59.738  38.507  0.00  0.00     0.039 C 
ATOM     70  H6  OKD d   1      30.566  59.771  39.199  0.00  0.00     0.077 H 
ATOM     71  H7  OKD d   1      30.006  60.173  37.541  0.00  0.00     0.077 H 
BRANCH  69  72
ATOM     72  CAL OKD d   1      28.560  60.567  39.097  0.00  0.00     0.039 C 
ATOM     73  H4  OKD d   1      27.759  60.660  38.349  0.00  0.00     0.077 H 
ATOM     74  H5  OKD d   1      28.169  60.061  39.992  0.00  0.00     0.077 H 
BRANCH  72  75
ATOM     75  OBC OKD d   1      29.031  61.888  39.461  0.00  0.00    -0.394 OA
BRANCH  75  76
ATOM     76  CAA OKD d   1      28.536  62.246  40.769  0.00  0.00     0.004 C 
ATOM     77  H1  OKD d   1      28.899  63.250  41.036  0.00  0.00     0.066 H 
ATOM     78  H2  OKD d   1      28.896  61.517  41.510  0.00  0.00     0.066 H 
ATOM     79  H3  OKD d   1      27.436  62.245  40.758  0.00  0.00     0.066 H 
ENDBRANCH  75  76
ENDBRANCH  72  75
ENDBRANCH  69  72
ENDBRANCH  68  69
ENDBRANCH  65  68
ENDBRANCH  62  65
ENDBRANCH  61  62
ENDBRANCH  58  61
ENDBRANCH  55  58
ENDBRANCH  54  55
ENDBRANCH  51  54
ENDBRANCH  48  51
ENDBRANCH  47  48
ENDBRANCH  44  47
ENDBRANCH   1  44
TORSDOF 27
