REMARK  6 active torsions:
REMARK  status: ('A' for Active; 'I' for Inactive)
REMARK    1  A    between atoms: C1_1  and  C2_2 
REMARK    2  A    between atoms: C2_2  and  C3_3 
REMARK    3  A    between atoms: C2_2  and  C4_4 
REMARK    4  A    between atoms: C2_2  and  C5_5 
REMARK    5  A    between atoms: C7_7  and  C12_12 
REMARK    6  A    between atoms: C10_10  and  O11_11 
REMARK       I    between atoms: C12_12  and  N14_14 
ROOT
ATOM      1  C5  C0Y d   1       6.726  -3.051  11.609  0.00  0.00    -0.017 A 
ATOM      2  C6  C0Y d   1       7.654  -3.647  10.775  0.00  0.00    -0.058 A 
ATOM      3  C7  C0Y d   1       8.085  -4.948  10.973  0.00  0.00     0.032 A 
ATOM      4  C8  C0Y d   1       7.579  -5.679  12.042  0.00  0.00    -0.065 A 
ATOM      5  C9  C0Y d   1       6.650  -5.117  12.898  0.00  0.00    -0.050 A 
ATOM      6  C10 C0Y d   1       6.214  -3.810  12.699  0.00  0.00     0.072 A 
ATOM      7  H10 C0Y d   1       8.055  -3.080   9.943  0.00  0.00     0.086 H 
ATOM      8  H11 C0Y d   1       7.915  -6.697  12.205  0.00  0.00     0.085 H 
ATOM      9  H12 C0Y d   1       6.260  -5.696  13.727  0.00  0.00     0.087 H 
ENDROOT
BRANCH   3  10
ATOM     10  C12 C0Y d   1       9.128  -5.535  10.076  0.00  0.00     0.253 C 
ATOM     11  O13 C0Y d   1      10.177  -5.922  10.557  0.00  0.00    -0.267 OA
ATOM     12  N14 C0Y d   1       8.917  -5.545   8.736  0.00  0.00    -0.344 N 
ATOM     13  C15 C0Y d   1       9.944  -5.977   7.778  0.00  0.00     0.018 C 
ATOM     14  C19 C0Y d   1       7.585  -5.413   8.142  0.00  0.00     0.018 C 
ATOM     15  C16 C0Y d   1       9.483  -7.238   7.071  0.00  0.00     0.034 C 
ATOM     16  H14 C0Y d   1      10.883  -6.181   8.315  0.00  0.00     0.067 H 
ATOM     17  H15 C0Y d   1      10.111  -5.182   7.037  0.00  0.00     0.067 H 
ATOM     18  O17 C0Y d   1       8.211  -7.043   6.436  0.00  0.00    -0.388 OA
ATOM     19  H16 C0Y d   1       9.395  -8.050   7.808  0.00  0.00     0.076 H 
ATOM     20  H17 C0Y d   1      10.226  -7.513   6.308  0.00  0.00     0.076 H 
ATOM     21  C18 C0Y d   1       7.219  -6.696   7.414  0.00  0.00     0.034 C 
ATOM     22  H18 C0Y d   1       7.137  -7.513   8.146  0.00  0.00     0.076 H 
ATOM     23  H19 C0Y d   1       6.251  -6.558   6.909  0.00  0.00     0.076 H 
ATOM     24  H20 C0Y d   1       7.584  -4.575   7.429  0.00  0.00     0.067 H 
ATOM     25  H21 C0Y d   1       6.848  -5.220   8.936  0.00  0.00     0.067 H 
ENDBRANCH   3  10
BRANCH   1  26
ATOM     26  C2  C0Y d   1       6.358  -1.591  11.297  0.00  0.00    -0.021 C 
BRANCH  26  27
ATOM     27  C1  C0Y d   1       7.024  -1.139   9.997  0.00  0.00    -0.066 C 
ATOM     28  H1  C0Y d   1       6.751  -0.094   9.789  0.00  0.00     0.028 H 
ATOM     29  H2  C0Y d   1       6.684  -1.779   9.169  0.00  0.00     0.028 H 
ATOM     30  H3  C0Y d   1       8.117  -1.219  10.098  0.00  0.00     0.028 H 
ENDBRANCH  26  27
BRANCH  26  31
ATOM     31  C3  C0Y d   1       6.837  -0.664  12.425  0.00  0.00    -0.066 C 
ATOM     32  H4  C0Y d   1       6.371  -0.969  13.373  0.00  0.00     0.028 H 
ATOM     33  H5  C0Y d   1       6.552   0.373  12.193  0.00  0.00     0.028 H 
ATOM     34  H6  C0Y d   1       7.931  -0.732  12.516  0.00  0.00     0.028 H 
ENDBRANCH  26  31
BRANCH  26  35
ATOM     35  C4  C0Y d   1       4.842  -1.433  11.145  0.00  0.00    -0.066 C 
ATOM     36  H7  C0Y d   1       4.484  -2.091  10.340  0.00  0.00     0.028 H 
ATOM     37  H8  C0Y d   1       4.605  -0.388  10.897  0.00  0.00     0.028 H 
ATOM     38  H9  C0Y d   1       4.348  -1.706  12.089  0.00  0.00     0.028 H 
ENDBRANCH  26  35
ENDBRANCH   1  26
BRANCH   6  39
ATOM     39  O11 C0Y d   1       5.280  -3.277  13.559  0.00  0.00    -0.360 OA
ATOM     40  H13 C0Y d   1       5.627  -3.280  14.443  0.00  0.00     0.217 HD
ENDBRANCH   6  39
TORSDOF 6
