REMARK  7 active torsions:
REMARK  status: ('A' for Active; 'I' for Inactive)
REMARK    1  A    between atoms: CAJ_14  and  CAI_15 
REMARK       I    between atoms: CAI_15  and  NAV_17 
REMARK    2  A    between atoms: NAV_17  and  CAD_18 
REMARK    3  A    between atoms: CAD_18  and  CAA_19 
REMARK    4  A    between atoms: CAE_21  and  CAU_22 
REMARK    5  A    between atoms: CAG_23  and  OAX_24 
REMARK    6  A    between atoms: CAF_25  and  OAY_26 
REMARK    7  A    between atoms: CAB_27  and  OBA_28 
ROOT
ATOM      1  CAD TA9 d   1     -28.469   2.457  27.807  0.00  0.00     0.025 C 
ATOM      2  H9  TA9 d   1     -28.846   1.490  28.171  0.00  0.00     0.067 H 
ATOM      3  H10 TA9 d   1     -28.711   3.243  28.538  0.00  0.00     0.067 H 
ENDROOT
BRANCH   1   4
ATOM      4  NAV TA9 d   1     -29.104   2.771  26.542  0.00  0.00    -0.355 N 
ATOM      5  CAI TA9 d   1     -29.249   1.877  25.558  0.00  0.00     0.252 C 
ATOM      6  OAZ TA9 d   1     -28.723   0.771  25.574  0.00  0.00    -0.268 OA
ATOM      7  H8  TA9 d   1     -29.449   3.699  26.399  0.00  0.00     0.162 HD
BRANCH   5   8
ATOM      8  CAJ TA9 d   1     -29.888   2.407  24.260  0.00  0.00     0.047 A 
ATOM      9  CAK TA9 d   1     -30.977   3.288  24.250  0.00  0.00     0.042 A 
ATOM     10  CAQ TA9 d   1     -31.776   3.858  25.247  0.00  0.00     0.195 A 
ATOM     11  CAL TA9 d   1     -31.482   3.750  23.026  0.00  0.00    -0.010 A 
ATOM     12  OBB TA9 d   1     -31.694   3.641  26.459  0.00  0.00    -0.287 OA
ATOM     13  CAN TA9 d   1     -32.731   4.683  24.672  0.00  0.00     0.026 A 
ATOM     14  CAS TA9 d   1     -33.734   5.485  25.214  0.00  0.00    -0.068 A 
ATOM     15  CAM TA9 d   1     -32.547   4.616  23.282  0.00  0.00    -0.011 A 
ATOM     16  CAH TA9 d   1     -34.536   6.240  24.343  0.00  0.00    -0.082 A 
ATOM     17  H1  TA9 d   1     -33.892   5.525  26.286  0.00  0.00     0.085 H 
ATOM     18  CAC TA9 d   1     -34.347   6.187  22.955  0.00  0.00    -0.082 A 
ATOM     19  H2  TA9 d   1     -35.315   6.875  24.751  0.00  0.00     0.083 H 
ATOM     20  CAR TA9 d   1     -33.345   5.383  22.426  0.00  0.00    -0.071 A 
ATOM     21  H3  TA9 d   1     -34.980   6.771  22.297  0.00  0.00     0.083 H 
ATOM     22  H4  TA9 d   1     -33.182   5.350  21.355  0.00  0.00     0.084 H 
ATOM     23  CAO TA9 d   1     -30.905   3.332  21.829  0.00  0.00    -0.071 A 
ATOM     24  CAT TA9 d   1     -29.816   2.464  21.843  0.00  0.00    -0.081 A 
ATOM     25  H5  TA9 d   1     -31.305   3.683  20.884  0.00  0.00     0.084 H 
ATOM     26  CAP TA9 d   1     -29.308   1.998  23.057  0.00  0.00    -0.067 A 
ATOM     27  H6  TA9 d   1     -29.362   2.150  20.910  0.00  0.00     0.083 H 
ATOM     28  H7  TA9 d   1     -28.463   1.319  23.066  0.00  0.00     0.085 H 
ENDBRANCH   5   8
ENDBRANCH   1   4
BRANCH   1  29
ATOM     29  CAA TA9 d   1     -26.969   2.375  27.644  0.00  0.00     0.144 C 
ATOM     30  NAW TA9 d   1     -26.451   3.711  27.265  0.00  0.00    -0.060 N 
ATOM     31  CAE TA9 d   1     -24.978   3.558  26.993  0.00  0.00     0.126 C 
ATOM     32  H12 TA9 d   1     -26.597   4.364  28.019  0.00  0.00     0.278 HD
ATOM     33  H13 TA9 d   1     -26.922   4.042  26.438  0.00  0.00     0.278 HD
ATOM     34  CAG TA9 d   1     -24.242   2.939  28.148  0.00  0.00     0.089 C 
ATOM     35  H14 TA9 d   1     -24.852   2.895  26.124  0.00  0.00     0.087 H 
ATOM     36  CAF TA9 d   1     -24.884   1.610  28.599  0.00  0.00     0.089 C 
ATOM     37  H18 TA9 d   1     -23.203   2.747  27.842  0.00  0.00     0.090 H 
ATOM     38  CAB TA9 d   1     -26.331   1.890  28.940  0.00  0.00     0.091 C 
ATOM     39  H20 TA9 d   1     -24.840   0.878  27.779  0.00  0.00     0.091 H 
ATOM     40  H22 TA9 d   1     -26.400   2.662  29.720  0.00  0.00     0.090 H 
ATOM     41  H11 TA9 d   1     -26.731   1.659  26.843  0.00  0.00     0.091 H 
BRANCH  31  42
ATOM     42  CAU TA9 d   1     -24.414   4.965  26.629  0.00  0.00    -0.047 C 
ATOM     43  H15 TA9 d   1     -23.336   4.886  26.424  0.00  0.00     0.030 H 
ATOM     44  H16 TA9 d   1     -24.578   5.655  27.470  0.00  0.00     0.030 H 
ATOM     45  H17 TA9 d   1     -24.930   5.347  25.736  0.00  0.00     0.030 H 
ENDBRANCH  31  42
BRANCH  34  46
ATOM     46  OAX TA9 d   1     -24.253   3.837  29.249  0.00  0.00    -0.391 OA
ATOM     47  H19 TA9 d   1     -23.788   3.446  29.980  0.00  0.00     0.210 HD
ENDBRANCH  34  46
BRANCH  36  48
ATOM     48  OAY TA9 d   1     -24.156   1.090  29.729  0.00  0.00    -0.390 OA
ATOM     49  H21 TA9 d   1     -24.189   1.718  30.441  0.00  0.00     0.210 HD
ENDBRANCH  36  48
BRANCH  38  50
ATOM     50  OBA TA9 d   1     -26.997   0.684  29.388  0.00  0.00    -0.391 OA
ATOM     51  H23 TA9 d   1     -26.559   0.350  30.162  0.00  0.00     0.210 HD
ENDBRANCH  38  50
ENDBRANCH   1  29
TORSDOF 7
