REMARK  6 active torsions:
REMARK  status: ('A' for Active; 'I' for Inactive)
REMARK    1  A    between atoms: C5_3  and  N8_4 
REMARK    2  A    between atoms: C2_7  and  N1_8 
REMARK    3  A    between atoms: N1_8  and  C9_9 
REMARK    4  A    between atoms: C11_14  and  C15_15 
REMARK    5  A    between atoms: C17_20  and  C21_21 
REMARK    6  A    between atoms: C22_22  and  C23_23 
ROOT
ATOM      1  C9  XJ1 d   1     -22.116 -35.422  -4.448  0.00  0.00     0.142 A 
ATOM      2  N10 XJ1 d   1     -22.080 -35.519  -3.103  0.00  0.00    -0.228 NA
ATOM      3  C14 XJ1 d   1     -22.633 -36.488  -5.190  0.00  0.00     0.046 A 
ATOM      4  N13 XJ1 d   1     -23.101 -37.565  -4.562  0.00  0.00    -0.267 NA
ATOM      5  C12 XJ1 d   1     -23.091 -37.652  -3.221  0.00  0.00     0.030 A 
ATOM      6  C11 XJ1 d   1     -22.551 -36.612  -2.453  0.00  0.00     0.086 A 
ATOM      7  H15 XJ1 d   1     -22.653 -36.438  -6.273  0.00  0.00     0.120 H 
ATOM      8  H16 XJ1 d   1     -23.502 -38.528  -2.733  0.00  0.00     0.118 H 
ENDROOT
BRANCH   1   9
ATOM      9  N1  XJ1 d   1     -21.593 -34.368  -5.088  0.00  0.00    -0.369 N 
ATOM     10  H14 XJ1 d   1     -20.901 -34.616  -5.810  0.00  0.00     0.161 HD
BRANCH   9  11
ATOM     11  C2  XJ1 d   1     -21.826 -32.908  -4.949  0.00  0.00     0.011 C 
ATOM     12  C3  XJ1 d   1     -20.482 -32.170  -4.756  0.00  0.00    -0.044 C 
ATOM     13  C4  XJ1 d   1     -20.709 -30.643  -4.742  0.00  0.00    -0.037 C 
ATOM     14  H1  XJ1 d   1     -20.032 -32.479  -3.801  0.00  0.00     0.036 H 
ATOM     15  H2  XJ1 d   1     -19.803 -32.429  -5.582  0.00  0.00     0.036 H 
ATOM     16  C5  XJ1 d   1     -21.646 -30.235  -3.591  0.00  0.00     0.100 C 
ATOM     17  H3  XJ1 d   1     -21.159 -30.337  -5.698  0.00  0.00     0.036 H 
ATOM     18  H4  XJ1 d   1     -19.741 -30.137  -4.614  0.00  0.00     0.036 H 
ATOM     19  C6  XJ1 d   1     -22.964 -30.990  -3.754  0.00  0.00    -0.037 C 
ATOM     20  H5  XJ1 d   1     -21.182 -30.525  -2.636  0.00  0.00     0.083 H 
ATOM     21  C7  XJ1 d   1     -22.771 -32.520  -3.811  0.00  0.00    -0.044 C 
ATOM     22  H9  XJ1 d   1     -23.445 -30.661  -4.687  0.00  0.00     0.036 H 
ATOM     23  H10 XJ1 d   1     -23.615 -30.749  -2.901  0.00  0.00     0.036 H 
ATOM     24  H11 XJ1 d   1     -23.747 -33.001  -3.974  0.00  0.00     0.036 H 
ATOM     25  H12 XJ1 d   1     -22.347 -32.865  -2.857  0.00  0.00     0.036 H 
ATOM     26  H13 XJ1 d   1     -22.280 -32.560  -5.888  0.00  0.00     0.072 H 
BRANCH  16  27
ATOM     27  N8  XJ1 d   1     -21.883 -28.774  -3.570  0.00  0.00    -0.075 N 
ATOM     28  H6  XJ1 d   1     -22.499 -28.544  -2.806  0.00  0.00     0.274 HD
ATOM     29  H7  XJ1 d   1     -22.306 -28.490  -4.439  0.00  0.00     0.274 HD
ATOM     30  H8  XJ1 d   1     -21.005 -28.293  -3.450  0.00  0.00     0.274 HD
ENDBRANCH  16  27
ENDBRANCH   9  11
ENDBRANCH   1   9
BRANCH   6  31
ATOM     31  C15 XJ1 d   1     -22.537 -36.625  -1.033  0.00  0.00    -0.005 A 
ATOM     32  C16 XJ1 d   1     -22.362 -35.414  -0.359  0.00  0.00    -0.061 A 
ATOM     33  C17 XJ1 d   1     -22.347 -35.327   1.032  0.00  0.00    -0.035 A 
ATOM     34  H17 XJ1 d   1     -22.233 -34.508  -0.940  0.00  0.00     0.086 H 
ATOM     35  C18 XJ1 d   1     -22.559 -36.485   1.782  0.00  0.00    -0.073 A 
ATOM     36  C19 XJ1 d   1     -22.745 -37.709   1.140  0.00  0.00    -0.081 A 
ATOM     37  H20 XJ1 d   1     -22.579 -36.433   2.865  0.00  0.00     0.084 H 
ATOM     38  C20 XJ1 d   1     -22.736 -37.777  -0.268  0.00  0.00    -0.071 A 
ATOM     39  H19 XJ1 d   1     -22.897 -38.609   1.724  0.00  0.00     0.083 H 
ATOM     40  H18 XJ1 d   1     -22.885 -38.731  -0.761  0.00  0.00     0.084 H 
BRANCH  33  41
ATOM     41  C21 XJ1 d   1     -22.190 -34.087   1.665  0.00  0.00    -0.067 C 
ATOM     42  C22 XJ1 d   1     -21.483 -32.992   1.162  0.00  0.00    -0.009 C 
ATOM     43  H22 XJ1 d   1     -20.973 -33.073   0.203  0.00  0.00     0.094 H 
ATOM     44  H21 XJ1 d   1     -22.663 -33.965   2.639  0.00  0.00     0.085 H 
BRANCH  42  45
ATOM     45  C23 XJ1 d   1     -21.424 -31.788   1.882  0.00  0.00     0.198 C 
ATOM     46  O25 XJ1 d   1     -20.768 -30.865   1.376  0.00  0.00    -0.645 OA
ATOM     47  O24 XJ1 d   1     -22.035 -31.670   2.976  0.00  0.00    -0.645 OA
ENDBRANCH  42  45
ENDBRANCH  33  41
ENDBRANCH   6  31
TORSDOF 6
