REMARK  5 active torsions:
REMARK  status: ('A' for Active; 'I' for Inactive)
REMARK    1  A    between atoms: C13_18  and  C1_1 
REMARK    2  A    between atoms: C3_3  and  N1_7 
REMARK    3  A    between atoms: N3_10  and  C8_14 
REMARK    4  A    between atoms: C15_20  and  C18_21 
REMARK    5  A    between atoms: C19_22  and  C9_23 
ROOT
ATOM      1  C1  985 d   1     -22.547 -36.670  -2.528  0.00  0.00     0.086 A 
ATOM      2  N2  985 d   1     -21.962 -35.640  -3.169  0.00  0.00    -0.228 NA
ATOM      3  C3  985 d   1     -21.953 -35.517  -4.508  0.00  0.00     0.144 A 
ATOM      4  C4  985 d   1     -22.613 -36.485  -5.264  0.00  0.00     0.046 A 
ATOM      5  N5  985 d   1     -23.205 -37.501  -4.637  0.00  0.00    -0.267 NA
ATOM      6  C6  985 d   1     -23.209 -37.618  -3.307  0.00  0.00     0.030 A 
ATOM      7  H1  985 d   1     -22.644 -36.412  -6.345  0.00  0.00     0.120 H 
ATOM      8  H2  985 d   1     -23.725 -38.446  -2.835  0.00  0.00     0.118 H 
ENDROOT
BRANCH   3   9
ATOM      9  N1  985 d   1     -21.328 -34.468  -5.071  0.00  0.00    -0.363 N 
ATOM     10  C2  985 d   1     -20.486 -33.619  -4.206  0.00  0.00     0.019 C 
ATOM     11  C11 985 d   1     -21.322 -32.471  -3.589  0.00  0.00     0.098 C 
ATOM     12  H3  985 d   1     -19.669 -33.190  -4.805  0.00  0.00     0.066 H 
ATOM     13  H4  985 d   1     -20.064 -34.233  -3.397  0.00  0.00     0.066 H 
ATOM     14  N3  985 d   1     -22.368 -31.897  -4.481  0.00  0.00    -0.073 N 
ATOM     15  H5  985 d   1     -20.633 -31.661  -3.308  0.00  0.00     0.078 H 
ATOM     16  H6  985 d   1     -21.819 -32.859  -2.688  0.00  0.00     0.078 H 
ATOM     17  C5  985 d   1     -21.932 -31.714  -5.885  0.00  0.00     0.085 C 
ATOM     18  H7  985 d   1     -23.169 -32.510  -4.470  0.00  0.00     0.279 HD
ATOM     19  C14 985 d   1     -22.392 -32.910  -6.752  0.00  0.00    -0.027 C 
ATOM     20  H8  985 d   1     -20.835 -31.643  -5.918  0.00  0.00     0.076 H 
ATOM     21  H9  985 d   1     -22.371 -30.787  -6.283  0.00  0.00     0.076 H 
ATOM     22  C7  985 d   1     -21.523 -34.174  -6.519  0.00  0.00    -0.002 C 
ATOM     23  H10 985 d   1     -22.325 -32.625  -7.812  0.00  0.00     0.037 H 
ATOM     24  H11 985 d   1     -23.436 -33.148  -6.502  0.00  0.00     0.037 H 
ATOM     25  H12 985 d   1     -22.018 -35.035  -6.991  0.00  0.00     0.064 H 
ATOM     26  H13 985 d   1     -20.538 -34.017  -6.984  0.00  0.00     0.064 H 
BRANCH  14  27
ATOM     27  C8  985 d   1     -22.747 -30.568  -3.956  0.00  0.00     0.066 C 
ATOM     28  H14 985 d   1     -23.077 -30.667  -2.911  0.00  0.00     0.068 H 
ATOM     29  H15 985 d   1     -23.567 -30.154  -4.562  0.00  0.00     0.068 H 
ATOM     30  H16 985 d   1     -21.879 -29.894  -4.004  0.00  0.00     0.068 H 
ENDBRANCH  14  27
ENDBRANCH   3   9
BRANCH   1  31
ATOM     31  C13 985 d   1     -22.577 -36.707  -1.118  0.00  0.00    -0.005 A 
ATOM     32  C12 985 d   1     -22.851 -37.867  -0.400  0.00  0.00    -0.071 A 
ATOM     33  C16 985 d   1     -22.937 -37.838   0.992  0.00  0.00    -0.081 A 
ATOM     34  H19 985 d   1     -22.999 -38.802  -0.927  0.00  0.00     0.084 H 
ATOM     35  C10 985 d   1     -22.775 -36.637   1.680  0.00  0.00    -0.073 A 
ATOM     36  H18 985 d   1     -23.131 -38.753   1.540  0.00  0.00     0.083 H 
ATOM     37  C15 985 d   1     -22.502 -35.463   0.981  0.00  0.00    -0.035 A 
ATOM     38  H17 985 d   1     -22.861 -36.616   2.760  0.00  0.00     0.084 H 
ATOM     39  C17 985 d   1     -22.437 -35.509  -0.409  0.00  0.00    -0.061 A 
ATOM     40  H20 985 d   1     -22.273 -34.589  -0.958  0.00  0.00     0.086 H 
BRANCH  37  41
ATOM     41  C18 985 d   1     -22.378 -34.250   1.670  0.00  0.00    -0.067 C 
ATOM     42  C19 985 d   1     -21.715 -33.119   1.195  0.00  0.00    -0.009 C 
ATOM     43  H22 985 d   1     -21.214 -33.157   0.229  0.00  0.00     0.094 H 
ATOM     44  H21 985 d   1     -22.836 -34.185   2.656  0.00  0.00     0.085 H 
BRANCH  42  45
ATOM     45  C9  985 d   1     -21.683 -31.934   1.942  0.00  0.00     0.198 C 
ATOM     46  O1  985 d   1     -21.061 -30.972   1.456  0.00  0.00    -0.645 OA
ATOM     47  O2  985 d   1     -22.279 -31.874   3.046  0.00  0.00    -0.645 OA
ENDBRANCH  42  45
ENDBRANCH  37  41
ENDBRANCH   1  31
TORSDOF 5
