REMARK  5 active torsions:
REMARK  status: ('A' for Active; 'I' for Inactive)
REMARK    1  A    between atoms: C8_2  and  C10_3 
REMARK       I    between atoms: C8_2  and  N2_4 
REMARK    2  A    between atoms: N2_4  and  C2_5 
REMARK    3  A    between atoms: C3_6  and  O4_7 
REMARK    4  A    between atoms: C4_8  and  O2_9 
REMARK    5  A    between atoms: C6_15  and  O3_16 
ROOT
ATOM      1  C2  GC2 d   1       2.562 -31.199  33.991  0.00  0.00     0.062 C 
ATOM      2  C3  GC2 d   1       2.275 -32.287  35.061  0.00  0.00     0.083 C 
ATOM      3  C4  GC2 d   1       1.375 -31.717  36.153  0.00  0.00     0.092 C 
ATOM      4  C1  GC2 d   1       1.497 -30.073  34.091  0.00  0.00     0.105 C 
ATOM      5  N1  GC2 d   1       0.134 -30.598  34.297  0.00  0.00    -0.060 N 
ATOM      6  C5  GC2 d   1      -0.001 -31.441  35.510  0.00  0.00     0.155 C 
ATOM      7  C9  GC2 d   1      -0.949 -29.593  34.284  0.00  0.00     0.086 C 
ATOM      8  C7  GC2 d   1      -1.889 -29.953  35.450  0.00  0.00    -0.016 C 
ATOM      9  C6  GC2 d   1      -0.968 -30.678  36.439  0.00  0.00     0.067 C 
ATOM     10  H5  GC2 d   1       3.545 -30.742  34.180  0.00  0.00     0.079 H 
ATOM     11  H6  GC2 d   1       1.772 -33.143  34.586  0.00  0.00     0.090 H 
ATOM     12  H8  GC2 d   1       1.810 -30.799  36.576  0.00  0.00     0.090 H 
ATOM     13  H10 GC2 d   1       1.513 -29.489  33.159  0.00  0.00     0.079 H 
ATOM     14  H11 GC2 d   1       1.754 -29.419  34.937  0.00  0.00     0.079 H 
ATOM     15  H12 GC2 d   1      -0.038 -31.202  33.509  0.00  0.00     0.280 HD
ATOM     16  H13 GC2 d   1      -0.450 -32.408  35.239  0.00  0.00     0.092 H 
ATOM     17  H14 GC2 d   1      -1.494 -29.633  33.329  0.00  0.00     0.076 H 
ATOM     18  H15 GC2 d   1      -0.534 -28.584  34.427  0.00  0.00     0.076 H 
ATOM     19  H16 GC2 d   1      -2.701 -30.614  35.111  0.00  0.00     0.039 H 
ATOM     20  H17 GC2 d   1      -2.318 -29.047  35.904  0.00  0.00     0.039 H 
ATOM     21  H18 GC2 d   1      -1.525 -31.360  37.098  0.00  0.00     0.086 H 
ENDROOT
BRANCH   1  22
ATOM     22  N2  GC2 d   1       2.628 -31.932  32.701  0.00  0.00    -0.353 N 
ATOM     23  C8  GC2 d   1       1.592 -32.518  32.006  0.00  0.00     0.214 C 
ATOM     24  O1  GC2 d   1       0.398 -32.417  32.357  0.00  0.00    -0.274 OA
ATOM     25  H4  GC2 d   1       3.534 -32.010  32.286  0.00  0.00     0.163 HD
BRANCH  23  26
ATOM     26  C10 GC2 d   1       1.970 -33.228  30.704  0.00  0.00    -0.003 C 
ATOM     27  H1  GC2 d   1       3.063 -33.208  30.580  0.00  0.00     0.040 H 
ATOM     28  H2  GC2 d   1       1.495 -32.715  29.855  0.00  0.00     0.040 H 
ATOM     29  H3  GC2 d   1       1.624 -34.272  30.741  0.00  0.00     0.040 H 
ENDBRANCH  23  26
ENDBRANCH   1  22
BRANCH   2  30
ATOM     30  O4  GC2 d   1       3.498 -32.714  35.626  0.00  0.00    -0.391 OA
ATOM     31  H7  GC2 d   1       3.327 -33.380  36.282  0.00  0.00     0.210 HD
ENDBRANCH   2  30
BRANCH   3  32
ATOM     32  O2  GC2 d   1       1.172 -32.684  37.161  0.00  0.00    -0.391 OA
ATOM     33  H9  GC2 d   1       0.611 -32.322  37.837  0.00  0.00     0.210 HD
ENDBRANCH   3  32
BRANCH   9  34
ATOM     34  O3  GC2 d   1      -0.249 -29.702  37.214  0.00  0.00    -0.393 OA
ATOM     35  H19 GC2 d   1       0.323 -30.146  37.828  0.00  0.00     0.210 HD
ENDBRANCH   9  34
TORSDOF 5
