REMARK  7 active torsions:
REMARK  status: ('A' for Active; 'I' for Inactive)
REMARK    1  A    between atoms: C1_1  and  C2_2 
REMARK    2  A    between atoms: C2_2  and  C3_3 
REMARK    3  A    between atoms: C2_2  and  C4_4 
REMARK    4  A    between atoms: C6_6  and  C7_7 
REMARK       I    between atoms: C7_7  and  N9_9 
REMARK    5  A    between atoms: C18_18  and  O19_19 
REMARK    6  A    between atoms: C21_21  and  O22_22 
REMARK    7  A    between atoms: O22_22  and  C19_23 
ROOT
ATOM      1  C4  XJG d   1      14.046  -3.298  10.339  0.00  0.00    -0.020 A 
ATOM      2  C5  XJG d   1      15.108  -3.848   9.614  0.00  0.00    -0.056 A 
ATOM      3  C6  XJG d   1      15.336  -5.222   9.604  0.00  0.00     0.066 A 
ATOM      4  C18 XJG d   1      14.495  -6.068  10.346  0.00  0.00     0.084 A 
ATOM      5  C20 XJG d   1      13.439  -5.545  11.066  0.00  0.00    -0.017 A 
ATOM      6  C21 XJG d   1      13.198  -4.189  11.070  0.00  0.00     0.077 A 
ATOM      7  H8  XJG d   1      15.764  -3.194   9.051  0.00  0.00     0.086 H 
ATOM      8  H18 XJG d   1      12.794  -6.207  11.633  0.00  0.00     0.092 H 
ENDROOT
BRANCH   3   9
ATOM      9  C7  XJG d   1      16.498  -5.750   8.854  0.00  0.00     0.257 C 
ATOM     10  O8  XJG d   1      17.503  -6.033   9.477  0.00  0.00    -0.267 OA
ATOM     11  N9  XJG d   1      16.433  -5.875   7.486  0.00  0.00    -0.339 N 
ATOM     12  C10 XJG d   1      17.535  -6.416   6.674  0.00  0.00     0.022 C 
ATOM     13  C17 XJG d   1      15.349  -5.333   6.645  0.00  0.00     0.022 C 
ATOM     14  C11 XJG d   1      16.864  -6.650   5.346  0.00  0.00    -0.032 A 
ATOM     15  H9  XJG d   1      17.919  -7.355   7.098  0.00  0.00     0.071 H 
ATOM     16  H10 XJG d   1      18.357  -5.691   6.583  0.00  0.00     0.071 H 
ATOM     17  C12 XJG d   1      17.311  -7.345   4.231  0.00  0.00    -0.075 A 
ATOM     18  C16 XJG d   1      15.615  -6.010   5.323  0.00  0.00    -0.032 A 
ATOM     19  C13 XJG d   1      16.508  -7.438   3.103  0.00  0.00    -0.082 A 
ATOM     20  H11 XJG d   1      18.288  -7.815   4.241  0.00  0.00     0.084 H 
ATOM     21  C14 XJG d   1      15.260  -6.835   3.089  0.00  0.00    -0.082 A 
ATOM     22  H12 XJG d   1      16.857  -7.982   2.233  0.00  0.00     0.083 H 
ATOM     23  C15 XJG d   1      14.813  -6.123   4.194  0.00  0.00    -0.075 A 
ATOM     24  H13 XJG d   1      14.630  -6.920   2.211  0.00  0.00     0.083 H 
ATOM     25  H14 XJG d   1      13.836  -5.654   4.176  0.00  0.00     0.084 H 
ATOM     26  H15 XJG d   1      15.420  -4.239   6.556  0.00  0.00     0.071 H 
ATOM     27  H16 XJG d   1      14.360  -5.605   7.042  0.00  0.00     0.071 H 
ENDBRANCH   3   9
BRANCH   4  28
ATOM     28  O19 XJG d   1      14.681  -7.416  10.360  0.00  0.00    -0.360 OA
ATOM     29  H17 XJG d   1      14.021  -7.820  10.912  0.00  0.00     0.217 HD
ENDBRANCH   4  28
BRANCH   1  30
ATOM     30  C2  XJG d   1      13.836  -1.788  10.310  0.00  0.00    -0.033 C 
ATOM     31  H4  XJG d   1      12.785  -1.592  10.568  0.00  0.00     0.046 H 
BRANCH  30  32
ATOM     32  C1  XJG d   1      14.099  -1.206   8.918  0.00  0.00    -0.069 C 
ATOM     33  H1  XJG d   1      13.937  -0.118   8.939  0.00  0.00     0.028 H 
ATOM     34  H2  XJG d   1      13.411  -1.665   8.193  0.00  0.00     0.028 H 
ATOM     35  H3  XJG d   1      15.137  -1.417   8.623  0.00  0.00     0.028 H 
ENDBRANCH  30  32
BRANCH  30  36
ATOM     36  C3  XJG d   1      14.711  -1.083  11.332  0.00  0.00    -0.069 C 
ATOM     37  H5  XJG d   1      14.520  -1.503  12.330  0.00  0.00     0.028 H 
ATOM     38  H6  XJG d   1      14.477  -0.008  11.336  0.00  0.00     0.028 H 
ATOM     39  H7  XJG d   1      15.770  -1.227  11.070  0.00  0.00     0.028 H 
ENDBRANCH  30  36
ENDBRANCH   1  30
BRANCH   6  40
ATOM     40  O22 XJG d   1      12.165  -3.646  11.756  0.00  0.00    -0.355 OA
BRANCH  40  41
ATOM     41  C19 XJG d   1      11.333  -4.547  12.515  0.00  0.00     0.010 C 
ATOM     42  H19 XJG d   1      10.539  -3.976  13.019  0.00  0.00     0.066 H 
ATOM     43  H20 XJG d   1      11.945  -5.066  13.267  0.00  0.00     0.066 H 
ATOM     44  H21 XJG d   1      10.880  -5.286  11.838  0.00  0.00     0.066 H 
ENDBRANCH  40  41
ENDBRANCH   6  40
TORSDOF 7
