REMARK  4 active torsions:
REMARK  status: ('A' for Active; 'I' for Inactive)
REMARK    1  A    between atoms: C1_1  and  C2_3 
REMARK    2  A    between atoms: C2_3  and  C19_2 
REMARK    3  A    between atoms: C6_7  and  C7_8 
REMARK       I    between atoms: C7_8  and  N9_10 
REMARK    4  A    between atoms: C18_19  and  O19_20 
ROOT
ATOM      1  C2  L81 d   1       0.901  -0.245  -3.603  0.00  0.00    -0.002 C 
ATOM      2  C3  L81 d   1       0.170   0.558  -2.506  0.00  0.00     0.003 C 
ATOM      3  C4  L81 d   1      -0.254  -0.790  -4.418  0.00  0.00    -0.021 A 
ATOM      4  C5  L81 d   1      -0.257  -1.428  -5.659  0.00  0.00    -0.056 A 
ATOM      5  C6  L81 d   1      -1.450  -1.941  -6.192  0.00  0.00     0.066 A 
ATOM      6  C18 L81 d   1      -2.645  -1.803  -5.450  0.00  0.00     0.083 A 
ATOM      7  C20 L81 d   1      -2.628  -1.181  -4.195  0.00  0.00    -0.024 A 
ATOM      8  C21 L81 d   1      -1.432  -0.687  -3.690  0.00  0.00     0.037 A 
ATOM      9  N5  L81 d   1      -1.160  -0.044  -2.490  0.00  0.00    -0.388 N 
ATOM     10  H7  L81 d   1       0.118   1.626  -2.766  0.00  0.00     0.065 H 
ATOM     11  H8  L81 d   1       0.668   0.442  -1.532  0.00  0.00     0.065 H 
ATOM     12  H9  L81 d   1       0.668  -1.528  -6.215  0.00  0.00     0.086 H 
ATOM     13  H19 L81 d   1      -3.543  -1.086  -3.621  0.00  0.00     0.091 H 
ATOM     14  H20 L81 d   1      -1.811   0.002  -1.693  0.00  0.00     0.159 HD
ENDROOT
BRANCH   5  15
ATOM     15  C7  L81 d   1      -1.444  -2.599  -7.547  0.00  0.00     0.257 C 
ATOM     16  O8  L81 d   1      -1.763  -3.783  -7.651  0.00  0.00    -0.267 OA
ATOM     17  N9  L81 d   1      -1.147  -1.842  -8.648  0.00  0.00    -0.339 N 
ATOM     18  C10 L81 d   1      -1.102  -2.388 -10.023  0.00  0.00     0.022 C 
ATOM     19  C17 L81 d   1      -1.033  -0.376  -8.629  0.00  0.00     0.022 C 
ATOM     20  C11 L81 d   1      -1.373  -1.167 -10.857  0.00  0.00    -0.032 A 
ATOM     21  H10 L81 d   1      -1.877  -3.154 -10.174  0.00  0.00     0.071 H 
ATOM     22  H11 L81 d   1      -0.114  -2.816 -10.251  0.00  0.00     0.071 H 
ATOM     23  C12 L81 d   1      -1.626  -1.055 -12.217  0.00  0.00    -0.075 A 
ATOM     24  C16 L81 d   1      -1.329  -0.017 -10.061  0.00  0.00    -0.032 A 
ATOM     25  C13 L81 d   1      -1.839   0.192 -12.783  0.00  0.00    -0.082 A 
ATOM     26  H12 L81 d   1      -1.657  -1.944 -12.837  0.00  0.00     0.084 H 
ATOM     27  C14 L81 d   1      -1.810   1.330 -11.991  0.00  0.00    -0.082 A 
ATOM     28  H13 L81 d   1      -2.029   0.278 -13.847  0.00  0.00     0.083 H 
ATOM     29  C15 L81 d   1      -1.554   1.228 -10.634  0.00  0.00    -0.075 A 
ATOM     30  H14 L81 d   1      -1.988   2.302 -12.436  0.00  0.00     0.083 H 
ATOM     31  H15 L81 d   1      -1.529   2.120 -10.019  0.00  0.00     0.084 H 
ATOM     32  H16 L81 d   1      -0.021  -0.058  -8.339  0.00  0.00     0.071 H 
ATOM     33  H17 L81 d   1      -1.768   0.073  -7.945  0.00  0.00     0.071 H 
ENDBRANCH   5  15
BRANCH   6  34
ATOM     34  O19 L81 d   1      -3.815  -2.314  -5.939  0.00  0.00    -0.360 OA
ATOM     35  H18 L81 d   1      -4.518  -2.138  -5.324  0.00  0.00     0.217 HD
ENDBRANCH   6  34
BRANCH   1  36
ATOM     36  C1  L81 d   1       1.692  -1.416  -3.003  0.00  0.00    -0.064 C 
ATOM     37  H1  L81 d   1       2.532  -1.025  -2.410  0.00  0.00     0.028 H 
ATOM     38  H2  L81 d   1       2.079  -2.051  -3.814  0.00  0.00     0.028 H 
ATOM     39  H3  L81 d   1       1.032  -2.011  -2.355  0.00  0.00     0.028 H 
ENDBRANCH   1  36
BRANCH   1  40
ATOM     40  C19 L81 d   1       1.832   0.631  -4.420  0.00  0.00    -0.064 C 
ATOM     41  H4  L81 d   1       1.264   1.470  -4.849  0.00  0.00     0.028 H 
ATOM     42  H5  L81 d   1       2.277   0.036  -5.231  0.00  0.00     0.028 H 
ATOM     43  H6  L81 d   1       2.630   1.022  -3.772  0.00  0.00     0.028 H 
ENDBRANCH   1  40
TORSDOF 4
