REMARK  9 active torsions:
REMARK  status: ('A' for Active; 'I' for Inactive)
REMARK    1  A    between atoms: C1_1  and  C2_2 
REMARK    2  A    between atoms: C2_2  and  C3_3 
REMARK    3  A    between atoms: C2_2  and  C4_4 
REMARK    4  A    between atoms: C6_6  and  C7_7 
REMARK       I    between atoms: C7_7  and  N9_9 
REMARK    5  A    between atoms: C14_14  and  C15_15 
REMARK    6  A    between atoms: C15_15  and  N16_16 
REMARK    7  A    between atoms: N20_19  and  C22_20 
REMARK    8  A    between atoms: C28_26  and  O29_27 
REMARK    9  A    between atoms: C31_29  and  O32_30 
ROOT
ATOM      1  C7  XJX d   1      15.763  -4.569   8.623  0.00  0.00     0.257 C 
ATOM      2  O8  XJX d   1      16.684  -4.985   9.297  0.00  0.00    -0.267 OA
ATOM      3  N9  XJX d   1      15.793  -4.597   7.283  0.00  0.00    -0.339 N 
ATOM      4  C10 XJX d   1      16.882  -5.218   6.515  0.00  0.00     0.022 C 
ATOM      5  C11 XJX d   1      16.266  -5.375   5.153  0.00  0.00    -0.032 A 
ATOM      6  C12 XJX d   1      16.789  -5.984   4.019  0.00  0.00    -0.074 A 
ATOM      7  C13 XJX d   1      16.053  -6.015   2.848  0.00  0.00    -0.075 A 
ATOM      8  C14 XJX d   1      14.788  -5.437   2.793  0.00  0.00    -0.032 A 
ATOM      9  C25 XJX d   1      14.282  -4.834   3.941  0.00  0.00    -0.067 A 
ATOM     10  C26 XJX d   1      15.019  -4.810   5.112  0.00  0.00    -0.032 A 
ATOM     11  C27 XJX d   1      14.667  -4.183   6.433  0.00  0.00     0.022 C 
ATOM     12  H9  XJX d   1      17.163  -6.193   6.940  0.00  0.00     0.071 H 
ATOM     13  H10 XJX d   1      17.767  -4.565   6.479  0.00  0.00     0.071 H 
ATOM     14  H11 XJX d   1      17.774  -6.435   4.052  0.00  0.00     0.084 H 
ATOM     15  H12 XJX d   1      16.465  -6.493   1.966  0.00  0.00     0.084 H 
ATOM     16  H28 XJX d   1      13.299  -4.378   3.917  0.00  0.00     0.085 H 
ATOM     17  H29 XJX d   1      14.610  -3.087   6.352  0.00  0.00     0.071 H 
ATOM     18  H30 XJX d   1      13.713  -4.572   6.817  0.00  0.00     0.071 H 
ENDROOT
BRANCH   1  19
ATOM     19  C6  XJX d   1      14.593  -3.928   9.284  0.00  0.00     0.066 A 
ATOM     20  C5  XJX d   1      14.378  -2.556   9.133  0.00  0.00    -0.056 A 
ATOM     21  C4  XJX d   1      13.280  -1.925   9.716  0.00  0.00    -0.020 A 
ATOM     22  H8  XJX d   1      15.079  -1.970   8.550  0.00  0.00     0.086 H 
ATOM     23  C31 XJX d   1      12.417  -2.711  10.512  0.00  0.00     0.075 A 
ATOM     24  C30 XJX d   1      12.626  -4.073  10.659  0.00  0.00    -0.018 A 
ATOM     25  C28 XJX d   1      13.715  -4.685  10.039  0.00  0.00     0.084 A 
ATOM     26  H32 XJX d   1      11.942  -4.664  11.257  0.00  0.00     0.092 H 
BRANCH  21  27
ATOM     27  C2  XJX d   1      13.097  -0.409   9.627  0.00  0.00    -0.033 C 
ATOM     28  H4  XJX d   1      12.018  -0.209   9.708  0.00  0.00     0.046 H 
BRANCH  27  29
ATOM     29  C1  XJX d   1      13.790   0.293  10.800  0.00  0.00    -0.069 C 
ATOM     30  H1  XJX d   1      13.645   1.380  10.714  0.00  0.00     0.028 H 
ATOM     31  H2  XJX d   1      14.866   0.064  10.780  0.00  0.00     0.028 H 
ATOM     32  H3  XJX d   1      13.357  -0.061  11.747  0.00  0.00     0.028 H 
ENDBRANCH  27  29
BRANCH  27  33
ATOM     33  C3  XJX d   1      13.565   0.183   8.302  0.00  0.00    -0.069 C 
ATOM     34  H5  XJX d   1      13.059  -0.331   7.472  0.00  0.00     0.028 H 
ATOM     35  H6  XJX d   1      14.653   0.052   8.206  0.00  0.00     0.028 H 
ATOM     36  H7  XJX d   1      13.321   1.255   8.273  0.00  0.00     0.028 H 
ENDBRANCH  27  33
ENDBRANCH  21  27
BRANCH  23  37
ATOM     37  O32 XJX d   1      11.320  -2.163  11.117  0.00  0.00    -0.360 OA
ATOM     38  H33 XJX d   1      11.372  -2.306  12.055  0.00  0.00     0.217 HD
ENDBRANCH  23  37
BRANCH  25  39
ATOM     39  O29 XJX d   1      13.937  -6.030  10.185  0.00  0.00    -0.360 OA
ATOM     40  H31 XJX d   1      13.253  -6.406  10.726  0.00  0.00     0.217 HD
ENDBRANCH  25  39
ENDBRANCH   1  19
BRANCH   8  41
ATOM     41  C15 XJX d   1      13.987  -5.448   1.514  0.00  0.00     0.107 C 
ATOM     42  H13 XJX d   1      12.917  -5.428   1.768  0.00  0.00     0.083 H 
ATOM     43  H14 XJX d   1      14.216  -6.372   0.962  0.00  0.00     0.083 H 
BRANCH  41  44
ATOM     44  N16 XJX d   1      14.297  -4.266   0.628  0.00  0.00    -0.064 N 
ATOM     45  C18 XJX d   1      14.308  -2.986   1.412  0.00  0.00     0.106 C 
ATOM     46  C19 XJX d   1      14.638  -1.795   0.524  0.00  0.00     0.105 C 
ATOM     47  H16 XJX d   1      15.064  -3.060   2.208  0.00  0.00     0.078 H 
ATOM     48  H17 XJX d   1      13.316  -2.833   1.862  0.00  0.00     0.078 H 
ATOM     49  N20 XJX d   1      15.958  -2.012  -0.141  0.00  0.00    -0.072 N 
ATOM     50  H18 XJX d   1      14.683  -0.883   1.137  0.00  0.00     0.078 H 
ATOM     51  H19 XJX d   1      13.857  -1.683  -0.242  0.00  0.00     0.078 H 
ATOM     52  C23 XJX d   1      15.912  -3.253  -0.973  0.00  0.00     0.105 C 
ATOM     53  H20 XJX d   1      16.650  -2.146   0.579  0.00  0.00     0.279 HD
ATOM     54  C24 XJX d   1      15.599  -4.453  -0.093  0.00  0.00     0.106 C 
ATOM     55  H24 XJX d   1      16.887  -3.402  -1.460  0.00  0.00     0.078 H 
ATOM     56  H25 XJX d   1      15.131  -3.149  -1.740  0.00  0.00     0.078 H 
ATOM     57  H26 XJX d   1      15.536  -5.353  -0.722  0.00  0.00     0.078 H 
ATOM     58  H27 XJX d   1      16.405  -4.577   0.646  0.00  0.00     0.078 H 
ATOM     59  H15 XJX d   1      13.566  -4.200  -0.063  0.00  0.00     0.280 HD
BRANCH  49  60
ATOM     60  C22 XJX d   1      16.369  -0.825  -0.948  0.00  0.00     0.066 C 
ATOM     61  H21 XJX d   1      17.343  -1.022  -1.421  0.00  0.00     0.068 H 
ATOM     62  H22 XJX d   1      16.451   0.054  -0.292  0.00  0.00     0.068 H 
ATOM     63  H23 XJX d   1      15.616  -0.632  -1.726  0.00  0.00     0.068 H 
ENDBRANCH  49  60
ENDBRANCH  41  44
ENDBRANCH   8  41
TORSDOF 9
