REMARK  7 active torsions:
REMARK  status: ('A' for Active; 'I' for Inactive)
REMARK    1  A    between atoms: C2_1  and  N2_8 
REMARK    2  A    between atoms: C3_2  and  O3_10 
REMARK    3  A    between atoms: C4_3  and  O4_11 
REMARK    4  A    between atoms: C5_4  and  C6_5 
REMARK    5  A    between atoms: C6_5  and  O6_13 
REMARK    6  A    between atoms: C7_6  and  C8_7 
REMARK       I    between atoms: N2_8  and  C7_6 
REMARK    7  A    between atoms: N1_16  and  O1_9 
ROOT
ATOM      1  C2  LOG d   1       7.972 -11.439   3.729  0.00  0.00     0.105 C 
ATOM      2  C3  LOG d   1       7.631 -10.413   2.644  0.00  0.00     0.089 C 
ATOM      3  C4  LOG d   1       6.743 -11.069   1.584  0.00  0.00     0.090 C 
ATOM      4  C5  LOG d   1       5.415 -11.470   2.222  0.00  0.00     0.094 C 
ATOM      5  O5  LOG d   1       5.666 -12.556   3.125  0.00  0.00    -0.324 OA
ATOM      6  C1  LOG d   1       6.887 -12.463   3.888  0.00  0.00     0.193 C 
ATOM      7  N1  LOG d   1       7.125 -13.328   4.771  0.00  0.00    -0.113 NA
ATOM      8  H1  LOG d   1       8.875 -11.963   3.383  0.00  0.00     0.090 H 
ATOM      9  H2  LOG d   1       7.104  -9.553   3.084  0.00  0.00     0.090 H 
ATOM     10  H3  LOG d   1       7.244 -11.953   1.162  0.00  0.00     0.091 H 
ATOM     11  H4  LOG d   1       5.006 -10.609   2.771  0.00  0.00     0.091 H 
ENDROOT
BRANCH   1  12
ATOM     12  N2  LOG d   1       8.289 -10.874   5.078  0.00  0.00    -0.347 N 
ATOM     13  C7  LOG d   1       7.244 -10.355   5.841  0.00  0.00     0.214 C 
ATOM     14  O7  LOG d   1       6.067 -10.403   5.449  0.00  0.00    -0.274 OA
ATOM     15  H10 LOG d   1       9.227 -10.869   5.424  0.00  0.00     0.163 HD
BRANCH  13  16
ATOM     16  C8  LOG d   1       7.583  -9.710   7.175  0.00  0.00    -0.003 C 
ATOM     17  H7  LOG d   1       6.660  -9.352   7.654  0.00  0.00     0.040 H 
ATOM     18  H8  LOG d   1       8.263  -8.862   7.010  0.00  0.00     0.040 H 
ATOM     19  H9  LOG d   1       8.071 -10.450   7.827  0.00  0.00     0.040 H 
ENDBRANCH  13  16
ENDBRANCH   1  12
BRANCH   2  20
ATOM     20  O3  LOG d   1       8.885  -9.982   2.066  0.00  0.00    -0.390 OA
ATOM     21  H12 LOG d   1       8.714  -9.352   1.375  0.00  0.00     0.210 HD
ENDBRANCH   2  20
BRANCH   3  22
ATOM     22  O4  LOG d   1       6.484 -10.106   0.557  0.00  0.00    -0.390 OA
ATOM     23  H13 LOG d   1       5.913 -10.489  -0.098  0.00  0.00     0.210 HD
ENDBRANCH   3  22
BRANCH   7  24
ATOM     24  O1  LOG d   1       6.176 -14.290   4.966  0.00  0.00    -0.264 OA
ATOM     25  H11 LOG d   1       6.463 -14.882   5.651  0.00  0.00     0.247 HD
ENDBRANCH   7  24
BRANCH   4  26
ATOM     26  C6  LOG d   1       4.377 -11.951   1.194  0.00  0.00     0.044 C 
ATOM     27  H5  LOG d   1       4.195 -11.166   0.445  0.00  0.00     0.078 H 
ATOM     28  H6  LOG d   1       3.433 -12.201   1.700  0.00  0.00     0.078 H 
BRANCH  26  29
ATOM     29  O6  LOG d   1       4.930 -13.138   0.551  0.00  0.00    -0.398 OA
ATOM     30  H14 LOG d   1       5.088 -13.807   1.206  0.00  0.00     0.209 HD
ENDBRANCH  26  29
ENDBRANCH   4  26
TORSDOF 7
