REMARK  10 active torsions:
REMARK  status: ('A' for Active; 'I' for Inactive)
REMARK    1  A    between atoms: C17_1  and  C16_2 
REMARK    2  A    between atoms: N4_3  and  C13_4 
REMARK    3  A    between atoms: C1_14  and  N1_15 
REMARK    4  A    between atoms: N1_15  and  C2_16 
REMARK    5  A    between atoms: C5_21  and  S_22 
REMARK    6  A    between atoms: S_22  and  N2_25 
REMARK    7  A    between atoms: N2_25  and  C6_26 
REMARK    8  A    between atoms: C6_26  and  C7_27 
REMARK    9  A    between atoms: C7_27  and  O_28 
REMARK   10  A    between atoms: O_28  and  C8_29 
ROOT
ATOM      1  C2  CDK d   1      23.106  28.833  28.834  0.00  0.00     0.049 A 
ATOM      2  C9  CDK d   1      22.178  28.425  29.784  0.00  0.00    -0.055 A 
ATOM      3  C10 CDK d   1      21.438  27.268  29.619  0.00  0.00    -0.058 A 
ATOM      4  C3  CDK d   1      23.298  28.095  27.674  0.00  0.00    -0.055 A 
ATOM      5  C4  CDK d   1      22.545  26.933  27.492  0.00  0.00    -0.058 A 
ATOM      6  C5  CDK d   1      21.629  26.523  28.464  0.00  0.00     0.079 A 
ATOM      7  H10 CDK d   1      22.031  29.026  30.674  0.00  0.00     0.087 H 
ATOM      8  H11 CDK d   1      20.727  26.951  30.373  0.00  0.00     0.086 H 
ATOM      9  H12 CDK d   1      24.016  28.413  26.927  0.00  0.00     0.087 H 
ATOM     10  H13 CDK d   1      22.672  26.345  26.590  0.00  0.00     0.086 H 
ENDROOT
BRANCH   1  11
ATOM     11  N1  CDK d   1      23.713  29.977  29.109  0.00  0.00    -0.188 N 
ATOM     12  H9  CDK d   1      23.372  30.493  29.933  0.00  0.00     0.184 HD
BRANCH  11  13
ATOM     13  C1  CDK d   1      24.712  30.528  28.438  0.00  0.00     0.727 A 
ATOM     14  N   CDK d   1      25.509  29.841  27.594  0.00  0.00    -0.061 NA
ATOM     15  C   CDK d   1      26.515  30.495  26.985  0.00  0.00     0.096 A 
ATOM     16  C15 CDK d   1      27.315  29.852  26.045  0.00  0.00     0.062 A 
ATOM     17  C12 CDK d   1      26.731  31.844  27.243  0.00  0.00    -0.036 A 
ATOM     18  C16 CDK d   1      28.654  30.122  25.741  0.00  0.00     0.030 A 
ATOM     19  S1  CDK d   1      26.757  28.660  24.974  0.00  0.00    -0.025 SA
ATOM     20  N4  CDK d   1      29.141  29.367  24.743  0.00  0.00    -0.316 N 
ATOM     21  C14 CDK d   1      28.263  28.515  24.193  0.00  0.00     0.291 A 
ATOM     22  O3  CDK d   1      28.509  27.722  23.286  0.00  0.00    -0.259 OA
ATOM     23  C11 CDK d   1      25.906  32.494  28.146  0.00  0.00     0.023 A 
ATOM     24  H7  CDK d   1      27.532  32.379  26.745  0.00  0.00     0.089 H 
ATOM     25  N3  CDK d   1      24.924  31.821  28.718  0.00  0.00    -0.075 NA
ATOM     26  H8  CDK d   1      26.064  33.541  28.380  0.00  0.00     0.115 H 
BRANCH  18  27
ATOM     27  C17 CDK d   1      29.498  31.152  26.493  0.00  0.00    -0.036 C 
ATOM     28  H1  CDK d   1      28.881  31.641  27.261  0.00  0.00     0.035 H 
ATOM     29  H2  CDK d   1      29.870  31.908  25.786  0.00  0.00     0.035 H 
ATOM     30  H3  CDK d   1      30.350  30.648  26.973  0.00  0.00     0.035 H 
ENDBRANCH  18  27
BRANCH  20  31
ATOM     31  C13 CDK d   1      30.545  29.456  24.286  0.00  0.00    -0.011 C 
ATOM     32  H4  CDK d   1      31.075  30.217  24.877  0.00  0.00     0.057 H 
ATOM     33  H5  CDK d   1      30.567  29.736  23.223  0.00  0.00     0.057 H 
ATOM     34  H6  CDK d   1      31.036  28.481  24.419  0.00  0.00     0.057 H 
ENDBRANCH  20  31
ENDBRANCH  11  13
ENDBRANCH   1  11
BRANCH   6  35
ATOM     35  S   CDK d   1      20.635  25.097  28.284  0.00  0.00     0.258 S 
ATOM     36  O1  CDK d   1      19.484  25.445  27.385  0.00  0.00    -0.201 OA
ATOM     37  O2  CDK d   1      20.062  24.747  29.637  0.00  0.00    -0.201 OA
BRANCH  35  38
ATOM     38  N2  CDK d   1      21.476  23.829  27.668  0.00  0.00    -0.313 N 
ATOM     39  H14 CDK d   1      22.429  23.865  27.368  0.00  0.00     0.172 HD
BRANCH  38  40
ATOM     40  C6  CDK d   1      20.620  22.629  27.621  0.00  0.00     0.022 C 
ATOM     41  H15 CDK d   1      20.923  22.006  26.767  0.00  0.00     0.068 H 
ATOM     42  H16 CDK d   1      19.573  22.941  27.494  0.00  0.00     0.068 H 
BRANCH  40  43
ATOM     43  C7  CDK d   1      20.743  21.803  28.910  0.00  0.00     0.034 C 
ATOM     44  H17 CDK d   1      21.644  22.130  29.450  0.00  0.00     0.076 H 
ATOM     45  H18 CDK d   1      20.844  20.742  28.636  0.00  0.00     0.076 H 
BRANCH  43  46
ATOM     46  O   CDK d   1      19.601  21.943  29.794  0.00  0.00    -0.394 OA
BRANCH  46  47
ATOM     47  C8  CDK d   1      19.251  20.670  30.331  0.00  0.00     0.004 C 
ATOM     48  H19 CDK d   1      18.385  20.780  31.000  0.00  0.00     0.066 H 
ATOM     49  H20 CDK d   1      20.102  20.264  30.897  0.00  0.00     0.066 H 
ATOM     50  H21 CDK d   1      18.995  19.984  29.510  0.00  0.00     0.066 H 
ENDBRANCH  46  47
ENDBRANCH  43  46
ENDBRANCH  40  43
ENDBRANCH  38  40
ENDBRANCH  35  38
ENDBRANCH   6  35
TORSDOF 10
