REMARK  4 active torsions:
REMARK  status: ('A' for Active; 'I' for Inactive)
REMARK    1  A    between atoms: C14_2  and  C13_4 
REMARK    2  A    between atoms: C8_9  and  N7_10 
REMARK    3  A    between atoms: C1_12  and  C17_13 
REMARK    4  A    between atoms: C2_17  and  C18_18 
ROOT
ATOM      1  N7  ID8 d   1       9.149   7.003  22.829  0.00  0.00    -0.355 N 
ATOM      2  C6  ID8 d   1      10.188   6.363  22.228  0.00  0.00     0.039 A 
ATOM      3  C1  ID8 d   1      10.205   4.873  22.033  0.00  0.00    -0.029 A 
ATOM      4  C5  ID8 d   1      11.394   7.055  22.070  0.00  0.00    -0.057 A 
ATOM      5  C4  ID8 d   1      12.573   6.406  21.674  0.00  0.00    -0.080 A 
ATOM      6  C3  ID8 d   1      12.625   5.029  21.450  0.00  0.00    -0.077 A 
ATOM      7  C2  ID8 d   1      11.490   4.236  21.617  0.00  0.00    -0.054 A 
ATOM      8  H5  ID8 d   1       8.600   7.708  22.317  0.00  0.00     0.166 HD
ATOM      9  H9  ID8 d   1      11.418   8.122  22.259  0.00  0.00     0.086 H 
ATOM     10  H10 ID8 d   1      13.474   6.993  21.537  0.00  0.00     0.083 H 
ATOM     11  H11 ID8 d   1      13.558   4.571  21.143  0.00  0.00     0.084 H 
ENDROOT
BRANCH   1  12
ATOM     12  C8  ID8 d   1       8.844   6.686  24.146  0.00  0.00     0.049 A 
ATOM     13  C13 ID8 d   1       7.899   7.611  24.879  0.00  0.00     0.067 A 
ATOM     14  C12 ID8 d   1       7.547   7.330  26.204  0.00  0.00    -0.064 A 
ATOM     15  C11 ID8 d   1       8.080   6.225  26.863  0.00  0.00    -0.082 A 
ATOM     16  H1  ID8 d   1       6.852   7.980  26.723  0.00  0.00     0.085 H 
ATOM     17  C10 ID8 d   1       8.973   5.373  26.218  0.00  0.00    -0.081 A 
ATOM     18  H2  ID8 d   1       7.796   6.026  27.890  0.00  0.00     0.083 H 
ATOM     19  C9  ID8 d   1       9.357   5.602  24.891  0.00  0.00    -0.056 A 
ATOM     20  H3  ID8 d   1       9.377   4.520  26.751  0.00  0.00     0.083 H 
ATOM     21  H4  ID8 d   1      10.067   4.929  24.423  0.00  0.00     0.086 H 
BRANCH  13  22
ATOM     22  C14 ID8 d   1       7.280   8.824  24.193  0.00  0.00     0.211 C 
ATOM     23  O16 ID8 d   1       6.094   9.142  24.463  0.00  0.00    -0.644 OA
ATOM     24  O15 ID8 d   1       7.938   9.486  23.346  0.00  0.00    -0.644 OA
ENDBRANCH  13  22
ENDBRANCH   1  12
BRANCH   3  25
ATOM     25  C17 ID8 d   1       8.963   4.028  22.216  0.00  0.00    -0.049 C 
ATOM     26  H6  ID8 d   1       8.124   4.671  22.522  0.00  0.00     0.033 H 
ATOM     27  H7  ID8 d   1       9.146   3.270  22.992  0.00  0.00     0.033 H 
ATOM     28  H8  ID8 d   1       8.716   3.529  21.267  0.00  0.00     0.033 H 
ENDBRANCH   3  25
BRANCH   7  29
ATOM     29  C18 ID8 d   1      11.579   2.752  21.369  0.00  0.00    -0.051 C 
ATOM     30  H12 ID8 d   1      10.597   2.291  21.548  0.00  0.00     0.033 H 
ATOM     31  H13 ID8 d   1      12.321   2.310  22.050  0.00  0.00     0.033 H 
ATOM     32  H14 ID8 d   1      11.884   2.572  20.328  0.00  0.00     0.033 H 
ENDBRANCH   7  29
TORSDOF 4
