REMARK  6 active torsions:
REMARK  status: ('A' for Active; 'I' for Inactive)
REMARK    1  A    between atoms: N1_1  and  S1_2 
REMARK    2  A    between atoms: S1_2  and  C1_5 
REMARK    3  A    between atoms: C4_9  and  N2_10 
REMARK    4  A    between atoms: N2_10  and  C5_11 
REMARK    5  A    between atoms: C5_11  and  C6_12 
REMARK    6  A    between atoms: C10_17  and  C12_19 
ROOT
ATOM      1  C1  FUN d   1     -11.494 -16.486   7.155  0.00  0.00     0.102 A 
ATOM      2  C2  FUN d   1     -11.484 -15.415   6.267  0.00  0.00     0.059 A 
ATOM      3 CL1  FUN d   1     -12.970 -14.651   5.637  0.00  0.00    -0.083 Cl
ATOM      4  C3  FUN d   1     -10.295 -14.855   5.813  0.00  0.00    -0.034 A 
ATOM      5  C4  FUN d   1      -9.059 -15.352   6.226  0.00  0.00     0.047 A 
ATOM      6  C10 FUN d   1      -9.043 -16.434   7.121  0.00  0.00     0.068 A 
ATOM      7  C11 FUN d   1     -10.256 -16.981   7.565  0.00  0.00    -0.040 A 
ATOM      8  H3  FUN d   1     -10.329 -14.017   5.126  0.00  0.00     0.089 H 
ATOM      9  H10 FUN d   1     -10.230 -17.819   8.252  0.00  0.00     0.087 H 
ENDROOT
BRANCH   5  10
ATOM     10  N2  FUN d   1      -7.899 -14.794   5.784  0.00  0.00    -0.383 N 
ATOM     11  H4  FUN d   1      -7.015 -15.231   6.081  0.00  0.00     0.160 HD
BRANCH  10  12
ATOM     12  C5  FUN d   1      -7.817 -13.625   4.922  0.00  0.00     0.037 C 
ATOM     13  H5  FUN d   1      -6.851 -13.129   5.096  0.00  0.00     0.074 H 
ATOM     14  H6  FUN d   1      -8.635 -12.938   5.185  0.00  0.00     0.074 H 
BRANCH  12  15
ATOM     15  C6  FUN d   1      -7.926 -13.963   3.453  0.00  0.00     0.070 A 
ATOM     16  C7  FUN d   1      -8.378 -15.148   2.890  0.00  0.00    -0.051 A 
ATOM     17  C8  FUN d   1      -8.317 -15.025   1.516  0.00  0.00    -0.059 A 
ATOM     18  H7  FUN d   1      -8.722 -16.024   3.438  0.00  0.00     0.087 H 
ATOM     19  C9  FUN d   1      -7.831 -13.769   1.232  0.00  0.00     0.019 A 
ATOM     20  H8  FUN d   1      -8.602 -15.784   0.789  0.00  0.00     0.086 H 
ATOM     21  O3  FUN d   1      -7.596 -13.122   2.426  0.00  0.00    -0.325 OA
ATOM     22  H9  FUN d   1      -7.662 -13.358   0.238  0.00  0.00     0.123 H 
ENDBRANCH  12  15
ENDBRANCH  10  12
ENDBRANCH   5  10
BRANCH   6  23
ATOM     23  C12 FUN d   1      -7.760 -17.017   7.654  0.00  0.00     0.211 C 
ATOM     24  O4  FUN d   1      -7.781 -17.817   8.633  0.00  0.00    -0.644 OA
ATOM     25  O5  FUN d   1      -6.677 -16.644   7.150  0.00  0.00    -0.644 OA
ENDBRANCH   6  23
BRANCH   1  26
ATOM     26  S1  FUN d   1     -12.868 -17.160   7.704  0.00  0.00     0.258 S 
ATOM     27  O1  FUN d   1     -12.582 -18.434   8.389  0.00  0.00    -0.201 OA
ATOM     28  O2  FUN d   1     -13.829 -17.308   6.602  0.00  0.00    -0.201 OA
BRANCH  26  29
ATOM     29  N1  FUN d   1     -13.455 -16.224   8.770  0.00  0.00    -0.324 N 
ATOM     30  H1  FUN d   1     -12.929 -16.013   9.594  0.00  0.00     0.169 HD
ATOM     31  H2  FUN d   1     -14.363 -15.826   8.640  0.00  0.00     0.169 HD
ENDBRANCH  26  29
ENDBRANCH   1  26
TORSDOF 6
