REMARK  3 active torsions:
REMARK  status: ('A' for Active; 'I' for Inactive)
REMARK    1  A    between atoms: C5C_2  and  C6_17 
REMARK    2  A    between atoms: C6C_3  and  C7C_4 
REMARK    3  A    between atoms: C1D_7  and  C7D_13 
ROOT
ATOM      1  N4C 4F8 d   1     -40.752  18.464  16.060  0.00  0.00    -0.333 N 
ATOM      2  C5C 4F8 d   1     -41.974  18.869  15.694  0.00  0.00     0.147 A 
ATOM      3  C6C 4F8 d   1     -42.219  18.406  14.384  0.00  0.00     0.169 A 
ATOM      4  C7D 4F8 d   1     -40.229  17.762  15.018  0.00  0.00     0.139 A 
ATOM      5  N3  4F8 d   1     -41.144  17.706  14.010  0.00  0.00    -0.221 NA
ATOM      6  H1  4F8 d   1     -40.292  18.649  16.963  0.00  0.00     0.168 HD
ENDROOT
BRANCH   4   7
ATOM      7  C1D 4F8 d   1     -38.999  17.096  14.963  0.00  0.00     0.010 A 
ATOM      8  C2D 4F8 d   1     -38.457  16.502  16.114  0.00  0.00    -0.069 A 
ATOM      9  C3D 4F8 d   1     -37.250  15.798  16.070  0.00  0.00    -0.082 A 
ATOM     10  H2  4F8 d   1     -38.985  16.591  17.056  0.00  0.00     0.085 H 
ATOM     11  C4D 4F8 d   1     -36.574  15.642  14.853  0.00  0.00    -0.083 A 
ATOM     12  H3  4F8 d   1     -36.837  15.373  16.978  0.00  0.00     0.083 H 
ATOM     13  C5D 4F8 d   1     -37.136  16.212  13.711  0.00  0.00    -0.082 A 
ATOM     14  H4  4F8 d   1     -35.640  15.094  14.800  0.00  0.00     0.083 H 
ATOM     15  C6D 4F8 d   1     -38.342  16.925  13.760  0.00  0.00    -0.069 A 
ATOM     16  H5  4F8 d   1     -36.627  16.101  12.761  0.00  0.00     0.083 H 
ATOM     17  H6  4F8 d   1     -38.760  17.343  12.851  0.00  0.00     0.085 H 
ENDBRANCH   4   7
BRANCH   2  18
ATOM     18  C6  4F8 d   1     -42.913  19.729  16.569  0.00  0.00     0.229 C 
ATOM     19  O   4F8 d   1     -43.841  20.357  16.042  0.00  0.00    -0.643 OA
ATOM     20  O2  4F8 d   1     -42.739  19.828  17.796  0.00  0.00    -0.643 OA
ENDBRANCH   2  18
BRANCH   3  21
ATOM     21  C7C 4F8 d   1     -43.481  18.587  13.493  0.00  0.00     0.231 C 
ATOM     22  O8C 4F8 d   1     -44.595  18.654  14.012  0.00  0.00    -0.643 OA
ATOM     23  O9C 4F8 d   1     -43.412  18.558  12.256  0.00  0.00    -0.643 OA
ENDBRANCH   3  21
TORSDOF 3
