REMARK  5 active torsions:
REMARK  status: ('A' for Active; 'I' for Inactive)
REMARK    1  A    between atoms: N_1  and  CA_2 
REMARK    2  A    between atoms: CA_2  and  C_3 
REMARK    3  A    between atoms: CA_2  and  CB_5 
REMARK    4  A    between atoms: CB_5  and  CG_6 
REMARK    5  A    between atoms: CG_6  and  CD_7 
ROOT
ATOM      1  CA  GLU d   1     -28.307  35.431   6.740  0.00  0.00     0.183 C 
ATOM      2  H4  GLU d   1     -27.360  35.986   6.807  0.00  0.00     0.101 H 
ENDROOT
BRANCH   1   3
ATOM      3  N   GLU d   1     -28.468  34.674   7.986  0.00  0.00    -0.065 N 
ATOM      4  H1  GLU d   1     -27.715  34.009   8.075  0.00  0.00     0.275 HD
ATOM      5  H2  GLU d   1     -29.349  34.184   7.970  0.00  0.00     0.275 HD
ATOM      6  H3  GLU d   1     -28.450  35.308   8.769  0.00  0.00     0.275 HD
ENDBRANCH   1   3
BRANCH   1   7
ATOM      7  C   GLU d   1     -29.427  36.446   6.572  0.00  0.00     0.204 C 
ATOM      8  O   GLU d   1     -30.158  36.769   7.526  0.00  0.00    -0.646 OA
ATOM      9  OXT GLU d   1     -29.594  36.988   5.479  0.00  0.00    -0.646 OA
ENDBRANCH   1   7
BRANCH   1  10
ATOM     10  CB  GLU d   1     -28.214  34.499   5.523  0.00  0.00    -0.020 C 
ATOM     11  H5  GLU d   1     -28.370  35.096   4.613  0.00  0.00     0.037 H 
ATOM     12  H6  GLU d   1     -29.006  33.739   5.603  0.00  0.00     0.037 H 
BRANCH  10  13
ATOM     13  CG  GLU d   1     -26.861  33.783   5.411  0.00  0.00     0.018 C 
ATOM     14  H7  GLU d   1     -26.940  32.997   4.645  0.00  0.00     0.049 H 
ATOM     15  H8  GLU d   1     -26.622  33.326   6.383  0.00  0.00     0.049 H 
BRANCH  13  16
ATOM     16  CD  GLU d   1     -25.733  34.728   5.026  0.00  0.00     0.172 C 
ATOM     17  OE1 GLU d   1     -26.036  35.793   4.433  0.00  0.00    -0.648 OA
ATOM     18  OE2 GLU d   1     -24.543  34.374   5.260  0.00  0.00    -0.648 OA
ENDBRANCH  13  16
ENDBRANCH  10  13
ENDBRANCH   1  10
TORSDOF 5
