REMARK  6 active torsions:
REMARK  status: ('A' for Active; 'I' for Inactive)
REMARK    1  A    between atoms: CG2_10  and  CD1_3 
REMARK    2  A    between atoms: CG2_10  and  CD2_4 
REMARK    3  A    between atoms: CA_5  and  C_11 
REMARK    4  A    between atoms: CB_6  and  CB1_7 
REMARK    5  A    between atoms: CB1_7  and  CG1_9 
REMARK    6  A    between atoms: CG_8  and  CG2_10 
ROOT
ATOM      1  N   KAI d   1      19.628 -35.059  -7.820  0.00  0.00    -0.060 N 
ATOM      2  CD  KAI d   1      19.287 -33.735  -7.244  0.00  0.00     0.087 C 
ATOM      3  CA  KAI d   1      20.047 -35.924  -6.715  0.00  0.00     0.188 C 
ATOM      4  CB  KAI d   1      20.191 -35.032  -5.497  0.00  0.00    -0.002 C 
ATOM      5  CG  KAI d   1      19.193 -33.941  -5.739  0.00  0.00    -0.022 C 
ATOM      6  H1  KAI d   1      20.379 -34.962  -8.485  0.00  0.00     0.278 HD
ATOM      7  H2  KAI d   1      18.822 -35.453  -8.279  0.00  0.00     0.278 HD
ATOM      8  H3  KAI d   1      18.324 -33.382  -7.642  0.00  0.00     0.076 H 
ATOM      9  H4  KAI d   1      20.072 -33.002  -7.481  0.00  0.00     0.076 H 
ATOM     10  H11 KAI d   1      21.004 -36.414  -6.945  0.00  0.00     0.102 H 
ATOM     11  H12 KAI d   1      19.981 -35.591  -4.573  0.00  0.00     0.045 H 
ATOM     12  H15 KAI d   1      18.176 -34.263  -5.470  0.00  0.00     0.043 H 
ENDROOT
BRANCH   5  13
ATOM     13  CG2 KAI d   1      19.566 -32.732  -4.878  0.00  0.00    -0.056 C 
ATOM     14  H16 KAI d   1      20.661 -32.755  -4.773  0.00  0.00     0.039 H 
BRANCH  13  15
ATOM     15  CD1 KAI d   1      19.239 -31.406  -5.537  0.00  0.00    -0.073 C 
ATOM     16  H5  KAI d   1      19.531 -30.583  -4.869  0.00  0.00     0.028 H 
ATOM     17  H6  KAI d   1      18.158 -31.352  -5.736  0.00  0.00     0.028 H 
ATOM     18  H7  KAI d   1      19.791 -31.322  -6.485  0.00  0.00     0.028 H 
ENDBRANCH  13  15
BRANCH  13  19
ATOM     19  CD2 KAI d   1      18.997 -32.856  -3.464  0.00  0.00    -0.073 C 
ATOM     20  H8  KAI d   1      19.268 -33.836  -3.044  0.00  0.00     0.028 H 
ATOM     21  H9  KAI d   1      17.901 -32.763  -3.500  0.00  0.00     0.028 H 
ATOM     22  H10 KAI d   1      19.412 -32.058  -2.830  0.00  0.00     0.028 H 
ENDBRANCH  13  19
ENDBRANCH   5  13
BRANCH   4  23
ATOM     23  CB1 KAI d   1      21.561 -34.361  -5.413  0.00  0.00     0.022 C 
ATOM     24  H13 KAI d   1      21.482 -33.506  -4.726  0.00  0.00     0.049 H 
ATOM     25  H14 KAI d   1      21.828 -34.001  -6.418  0.00  0.00     0.049 H 
BRANCH  23  26
ATOM     26  CG1 KAI d   1      22.678 -35.257  -4.922  0.00  0.00     0.172 C 
ATOM     27  OD1 KAI d   1      23.845 -34.818  -5.060  0.00  0.00    -0.648 OA
ATOM     28  OD2 KAI d   1      22.432 -36.378  -4.404  0.00  0.00    -0.648 OA
ENDBRANCH  23  26
ENDBRANCH   4  23
BRANCH   3  29
ATOM     29  C   KAI d   1      18.986 -36.955  -6.489  0.00  0.00     0.205 C 
ATOM     30  O   KAI d   1      18.142 -37.195  -7.375  0.00  0.00    -0.646 OA
ATOM     31  OXT KAI d   1      18.935 -37.561  -5.408  0.00  0.00    -0.646 OA
ENDBRANCH   3  29
TORSDOF 6
