REMARK  5 active torsions:
REMARK  status: ('A' for Active; 'I' for Inactive)
REMARK    1  A    between atoms: N_1  and  CA_2 
REMARK    2  A    between atoms: CA_2  and  C_3 
REMARK    3  A    between atoms: CA_2  and  CB_5 
REMARK    4  A    between atoms: CB_5  and  CG_6 
REMARK    5  A    between atoms: CG_6  and  CD_7 
ROOT
ATOM      1  CA  GLU d   1     -10.161   1.140 -23.370  0.00  0.00     0.183 C 
ATOM      2  H4  GLU d   1      -9.433   0.367 -23.083  0.00  0.00     0.101 H 
ENDROOT
BRANCH   1   3
ATOM      3  N   GLU d   1     -11.479   0.712 -22.902  0.00  0.00    -0.065 N 
ATOM      4  H1  GLU d   1     -11.731  -0.154 -23.353  0.00  0.00     0.275 HD
ATOM      5  H2  GLU d   1     -12.161   1.419 -23.127  0.00  0.00     0.275 HD
ATOM      6  H3  GLU d   1     -11.453   0.576 -21.904  0.00  0.00     0.275 HD
ENDBRANCH   1   3
BRANCH   1   7
ATOM      7  C   GLU d   1      -9.738   2.449 -22.713  0.00  0.00     0.204 C 
ATOM      8  O   GLU d   1     -10.319   2.857 -21.703  0.00  0.00    -0.646 OA
ATOM      9  OXT GLU d   1      -8.813   3.120 -23.173  0.00  0.00    -0.646 OA
ENDBRANCH   1   7
BRANCH   1  10
ATOM     10  CB  GLU d   1     -10.141   1.265 -24.898  0.00  0.00    -0.020 C 
ATOM     11  H5  GLU d   1      -9.247   1.837 -25.189  0.00  0.00     0.037 H 
ATOM     12  H6  GLU d   1     -11.043   1.809 -25.214  0.00  0.00     0.037 H 
BRANCH  10  13
ATOM     13  CG  GLU d   1     -10.110  -0.080 -25.621  0.00  0.00     0.018 C 
ATOM     14  H7  GLU d   1     -10.250   0.097 -26.698  0.00  0.00     0.049 H 
ATOM     15  H8  GLU d   1     -10.934  -0.702 -25.241  0.00  0.00     0.049 H 
BRANCH  13  16
ATOM     16  CD  GLU d   1      -8.799  -0.832 -25.417  0.00  0.00     0.172 C 
ATOM     17  OE1 GLU d   1      -7.776  -0.175 -25.148  0.00  0.00    -0.648 OA
ATOM     18  OE2 GLU d   1      -8.789  -2.079 -25.532  0.00  0.00    -0.648 OA
ENDBRANCH  13  16
ENDBRANCH  10  13
ENDBRANCH   1  10
TORSDOF 5
