REMARK  18 active torsions:
REMARK  status: ('A' for Active; 'I' for Inactive)
REMARK    1  A    between atoms: CBB_7  and  CBP_6 
REMARK    2  A    between atoms: OBJ_8  and  CBB_7 
REMARK    3  A    between atoms: CBM_9  and  OBJ_8 
REMARK       I    between atoms: NBI_11  and  CBM_9 
REMARK    4  A    between atoms: CBX_12  and  NBI_11 
REMARK    5  A    between atoms: CBX_12  and  CBE_13 
REMARK    6  A    between atoms: PBY_20  and  CBX_12 
REMARK    7  A    between atoms: CBE_13  and  CBQ_14 
REMARK    8  A    between atoms: CBF_36  and  PBY_20 
REMARK    9  A    between atoms: N_23  and  CA_24 
REMARK       I    between atoms: CBN_38  and  N_23 
REMARK   10  A    between atoms: CA_24  and  C_25 
REMARK   11  A    between atoms: CA_24  and  CB_28 
REMARK   12  A    between atoms: CB_28  and  CG_29 
REMARK   13  A    between atoms: CZ_32  and  OH_33 
REMARK   14  A    between atoms: CBV_37  and  CBF_36 
REMARK   15  A    between atoms: CBV_37  and  CBN_38 
REMARK   16  A    between atoms: CBV_37  and  CBC_40 
REMARK   17  A    between atoms: CBC_40  and  CBS_41 
REMARK   18  A    between atoms: CBU_45  and  CBT_46 
ROOT
ATOM      1  CBV 3ES d   1       2.478 -15.655 -23.349  0.00  0.00     0.038 C 
ATOM      2  H28 3ES d   1       3.062 -15.158 -24.138  0.00  0.00     0.056 H 
ENDROOT
BRANCH   1   3
ATOM      3  CBF 3ES d   1       1.082 -15.992 -23.943  0.00  0.00     0.021 C 
ATOM      4  H26 3ES d   1       0.529 -15.049 -24.060  0.00  0.00     0.050 H 
ATOM      5  H27 3ES d   1       1.238 -16.451 -24.931  0.00  0.00     0.050 H 
BRANCH   3   6
ATOM      6  PBY 3ES d   1       0.052 -17.125 -22.957  0.00  0.00     0.130 P 
ATOM      7  OAG 3ES d   1       0.280 -18.592 -23.514  0.00  0.00    -0.666 OA
ATOM      8  OAD 3ES d   1       0.147 -17.060 -21.472  0.00  0.00    -0.666 OA
BRANCH   6   9
ATOM      9  CBX 3ES d   1      -1.689 -16.717 -23.410  0.00  0.00     0.093 C 
ATOM     10  H9  3ES d   1      -1.839 -16.875 -24.488  0.00  0.00     0.089 H 
BRANCH   9  11
ATOM     11  NBI 3ES d   1      -2.544 -17.610 -22.637  0.00  0.00    -0.322 N 
ATOM     12  CBM 3ES d   1      -3.141 -18.720 -23.102  0.00  0.00     0.361 C 
ATOM     13  OAB 3ES d   1      -3.041 -19.149 -24.259  0.00  0.00    -0.238 OA
ATOM     14  H8  3ES d   1      -2.700 -17.376 -21.677  0.00  0.00     0.165 HD
BRANCH  12  15
ATOM     15  OBJ 3ES d   1      -3.962 -19.324 -22.200  0.00  0.00    -0.299 OA
BRANCH  15  16
ATOM     16  CBB 3ES d   1      -4.087 -20.739 -22.106  0.00  0.00     0.054 C 
ATOM     17  H6  3ES d   1      -4.664 -21.093 -22.973  0.00  0.00     0.082 H 
ATOM     18  H7  3ES d   1      -3.079 -21.177 -22.132  0.00  0.00     0.082 H 
BRANCH  16  19
ATOM     19  CBP 3ES d   1      -4.728 -21.179 -20.942  0.00  0.00    -0.034 A 
ATOM     20  CAQ 3ES d   1      -4.238 -20.774 -19.695  0.00  0.00    -0.075 A 
ATOM     21  CAK 3ES d   1      -4.875 -21.187 -18.526  0.00  0.00    -0.082 A 
ATOM     22  H1  3ES d   1      -3.362 -20.138 -19.638  0.00  0.00     0.084 H 
ATOM     23  CAH 3ES d   1      -6.006 -22.001 -18.598  0.00  0.00    -0.083 A 
ATOM     24  H2  3ES d   1      -4.492 -20.876 -17.561  0.00  0.00     0.083 H 
ATOM     25  CAL 3ES d   1      -6.507 -22.398 -19.838  0.00  0.00    -0.082 A 
ATOM     26  H3  3ES d   1      -6.497 -22.326 -17.688  0.00  0.00     0.083 H 
ATOM     27  CAR 3ES d   1      -5.870 -21.986 -21.011  0.00  0.00    -0.075 A 
ATOM     28  H4  3ES d   1      -7.389 -23.025 -19.891  0.00  0.00     0.083 H 
ATOM     29  H5  3ES d   1      -6.260 -22.291 -21.975  0.00  0.00     0.084 H 
ENDBRANCH  16  19
ENDBRANCH  15  16
ENDBRANCH  12  15
ENDBRANCH   9  11
BRANCH   9  30
ATOM     30  CBE 3ES d   1      -2.069 -15.251 -23.042  0.00  0.00    -0.013 C 
ATOM     31  H10 3ES d   1      -1.457 -14.571 -23.652  0.00  0.00     0.044 H 
ATOM     32  H11 3ES d   1      -1.844 -15.091 -21.977  0.00  0.00     0.044 H 
BRANCH  30  33
ATOM     33  CBQ 3ES d   1      -3.574 -14.909 -23.284  0.00  0.00    -0.056 A 
ATOM     34  CAS 3ES d   1      -4.016 -14.471 -24.535  0.00  0.00    -0.077 A 
ATOM     35  CAM 3ES d   1      -5.365 -14.165 -24.773  0.00  0.00    -0.082 A 
ATOM     36  H12 3ES d   1      -3.300 -14.365 -25.341  0.00  0.00     0.084 H 
ATOM     37  CAI 3ES d   1      -6.308 -14.282 -23.752  0.00  0.00    -0.083 A 
ATOM     38  H13 3ES d   1      -5.676 -13.835 -25.758  0.00  0.00     0.083 H 
ATOM     39  CAN 3ES d   1      -5.873 -14.725 -22.501  0.00  0.00    -0.082 A 
ATOM     40  H14 3ES d   1      -7.349 -14.036 -23.925  0.00  0.00     0.083 H 
ATOM     41  CAT 3ES d   1      -4.518 -15.033 -22.264  0.00  0.00    -0.077 A 
ATOM     42  H15 3ES d   1      -6.591 -14.834 -21.697  0.00  0.00     0.083 H 
ATOM     43  H16 3ES d   1      -4.207 -15.369 -21.281  0.00  0.00     0.084 H 
ENDBRANCH  30  33
ENDBRANCH   9  30
ENDBRANCH   6   9
ENDBRANCH   3   6
ENDBRANCH   1   3
BRANCH   1  44
ATOM     44  CBN 3ES d   1       2.331 -14.641 -22.190  0.00  0.00     0.223 C 
ATOM     45  N   3ES d   1       3.317 -14.601 -21.277  0.00  0.00    -0.346 N 
ATOM     46  H17 3ES d   1       4.062 -15.267 -21.320  0.00  0.00     0.163 HD
ATOM     47  OAC 3ES d   1       1.383 -13.851 -22.183  0.00  0.00    -0.273 OA
BRANCH  45  48
ATOM     48  CA  3ES d   1       3.306 -13.574 -20.205  0.00  0.00     0.100 C 
ATOM     49  H18 3ES d   1       2.265 -13.431 -19.880  0.00  0.00     0.090 H 
BRANCH  48  50
ATOM     50  C   3ES d   1       3.815 -12.263 -20.824  0.00  0.00     0.197 C 
ATOM     51  OXT 3ES d   1       4.195 -12.314 -22.015  0.00  0.00    -0.646 OA
ATOM     52  O   3ES d   1       3.817 -11.239 -20.107  0.00  0.00    -0.646 OA
ENDBRANCH  48  50
BRANCH  48  53
ATOM     53  CB  3ES d   1       4.130 -13.950 -18.957  0.00  0.00    -0.013 C 
ATOM     54  H19 3ES d   1       3.444 -14.399 -18.224  0.00  0.00     0.043 H 
ATOM     55  H20 3ES d   1       4.555 -13.024 -18.543  0.00  0.00     0.043 H 
BRANCH  53  56
ATOM     56  CG  3ES d   1       5.284 -14.935 -19.183  0.00  0.00    -0.056 A 
ATOM     57  CD1 3ES d   1       6.589 -14.480 -19.385  0.00  0.00    -0.074 A 
ATOM     58  CE1 3ES d   1       7.632 -15.395 -19.574  0.00  0.00    -0.051 A 
ATOM     59  H21 3ES d   1       6.795 -13.416 -19.395  0.00  0.00     0.084 H 
ATOM     60  CZ  3ES d   1       7.364 -16.768 -19.556  0.00  0.00     0.065 A 
ATOM     61  H22 3ES d   1       8.644 -15.041 -19.734  0.00  0.00     0.087 H 
ATOM     62  CE2 3ES d   1       6.061 -17.219 -19.348  0.00  0.00    -0.051 A 
ATOM     63  CD2 3ES d   1       5.027 -16.304 -19.158  0.00  0.00    -0.074 A 
ATOM     64  H24 3ES d   1       5.852 -18.283 -19.334  0.00  0.00     0.087 H 
ATOM     65  H25 3ES d   1       4.017 -16.660 -18.990  0.00  0.00     0.084 H 
BRANCH  60  66
ATOM     66  OH  3ES d   1       8.361 -17.689 -19.743  0.00  0.00    -0.361 OA
ATOM     67  H23 3ES d   1       7.994 -18.564 -19.698  0.00  0.00     0.217 HD
ENDBRANCH  60  66
ENDBRANCH  53  56
ENDBRANCH  48  53
ENDBRANCH  45  48
ENDBRANCH   1  44
BRANCH   1  68
ATOM     68  CBC 3ES d   1       3.246 -16.930 -22.968  0.00  0.00    -0.006 C 
ATOM     69  H29 3ES d   1       2.931 -17.726 -23.659  0.00  0.00     0.044 H 
ATOM     70  H30 3ES d   1       2.955 -17.199 -21.942  0.00  0.00     0.044 H 
BRANCH  68  71
ATOM     71  CBS 3ES d   1       4.788 -16.859 -23.011  0.00  0.00     0.082 A 
ATOM     72  CBA 3ES d   1       5.646 -15.843 -23.130  0.00  0.00    -0.021 A 
ATOM     73  CBU 3ES d   1       6.906 -16.329 -23.086  0.00  0.00     0.097 A 
ATOM     74  H31 3ES d   1       5.375 -14.794 -23.244  0.00  0.00     0.091 H 
ATOM     75  NBG 3ES d   1       6.874 -17.649 -22.922  0.00  0.00    -0.128 NA
ATOM     76  OBK 3ES d   1       5.515 -18.000 -22.877  0.00  0.00    -0.217 OA
BRANCH  73  77
ATOM     77  CBT 3ES d   1       8.094 -15.614 -23.153  0.00  0.00    -0.005 A 
ATOM     78  CAU 3ES d   1       8.094 -14.230 -23.347  0.00  0.00    -0.071 A 
ATOM     79  CAO 3ES d   1       9.314 -13.544 -23.390  0.00  0.00    -0.082 A 
ATOM     80  H32 3ES d   1       7.159 -13.693 -23.463  0.00  0.00     0.084 H 
ATOM     81  CAJ 3ES d   1      10.516 -14.236 -23.221  0.00  0.00    -0.083 A 
ATOM     82  H33 3ES d   1       9.326 -12.473 -23.555  0.00  0.00     0.083 H 
ATOM     83  CAP 3ES d   1      10.523 -15.619 -23.019  0.00  0.00    -0.082 A 
ATOM     84  H34 3ES d   1      11.454 -13.694 -23.247  0.00  0.00     0.083 H 
ATOM     85  CAV 3ES d   1       9.308 -16.309 -22.978  0.00  0.00    -0.071 A 
ATOM     86  H35 3ES d   1      11.460 -16.150 -22.896  0.00  0.00     0.083 H 
ATOM     87  H36 3ES d   1       9.299 -17.380 -22.811  0.00  0.00     0.084 H 
ENDBRANCH  73  77
ENDBRANCH  68  71
ENDBRANCH   1  68
TORSDOF 18
