REMARK  27 active torsions:
REMARK  status: ('A' for Active; 'I' for Inactive)
REMARK    1  A    between atoms: CAA_1  and  C1_45 
REMARK    2  A    between atoms: C24_49  and  CAA_1 
REMARK       I    between atoms: CBK_2  and  N_4 
REMARK    3  A    between atoms: C1_45  and  CBK_2 
REMARK    4  A    between atoms: N_4  and  CA_5 
REMARK    5  A    between atoms: CA_5  and  CB_6 
REMARK    6  A    between atoms: CA_5  and  C_10 
REMARK    7  A    between atoms: CB_6  and  CG1_7 
REMARK    8  A    between atoms: CB_6  and  CAE_8 
REMARK    9  A    between atoms: CB_6  and  CG2_9 
REMARK       I    between atoms: C_10  and  NBG_12 
REMARK   10  A    between atoms: NBG_12  and  C9_47 
REMARK   11  A    between atoms: CBA_13  and  CBO_14 
REMARK   12  A    between atoms: C1_45  and  CBA_13 
REMARK   13  A    between atoms: C1_45  and  OAM_20 
REMARK   14  A    between atoms: CBC_21  and  NBW_22 
REMARK   15  A    between atoms: CBC_21  and  C24_49 
REMARK   16  A    between atoms: NBW_22  and  NBH_23 
REMARK   17  A    between atoms: NBW_22  and  CBB_36 
REMARK       I    between atoms: NBH_23  and  CBN_24 
REMARK   18  A    between atoms: CBN_24  and  CBV_26 
REMARK   19  A    between atoms: CBV_26  and  CBY_27 
REMARK   20  A    between atoms: CBV_26  and  NBF_31 
REMARK   21  A    between atoms: CBY_27  and  CAF_28 
REMARK   22  A    between atoms: CBY_27  and  CAG_29 
REMARK   23  A    between atoms: CBY_27  and  CAH_30 
REMARK       I    between atoms: NBF_31  and  CBL_32 
REMARK   24  A    between atoms: CBL_32  and  OBJ_34 
REMARK   25  A    between atoms: OBJ_34  and  CAB_35 
REMARK   26  A    between atoms: CBB_36  and  CBP_37 
REMARK   27  A    between atoms: CBQ_42  and  CBR_43 
ROOT
ATOM      1  NBW CXG d   1      15.343  22.393   7.142  0.00  0.00     0.015 N 
ATOM      2  H25 CXG d   1      14.429  22.057   7.402  0.00  0.00     0.309 HD
ENDROOT
BRANCH   1   3
ATOM      3  CBC CXG d   1      15.225  23.703   6.596  0.00  0.00     0.105 C 
ATOM      4  H23 CXG d   1      15.749  23.748   5.630  0.00  0.00     0.079 H 
ATOM      5  H24 CXG d   1      15.670  24.432   7.289  0.00  0.00     0.079 H 
BRANCH   3   6
ATOM      6  C24 CXG d   1      13.755  24.028   6.392  0.00  0.00    -0.037 C 
ATOM      7  H53 CXG d   1      13.178  23.549   7.196  0.00  0.00     0.035 H 
ATOM      8  H54 CXG d   1      13.628  25.119   6.450  0.00  0.00     0.035 H 
BRANCH   6   9
ATOM      9  CAA CXG d   1      13.197  23.540   5.028  0.00  0.00    -0.026 C 
ATOM     10  H1  CXG d   1      13.954  23.749   4.258  0.00  0.00     0.038 H 
ATOM     11  H2  CXG d   1      13.034  22.454   5.097  0.00  0.00     0.038 H 
BRANCH   9  12
ATOM     12  C1  CXG d   1      11.867  24.195   4.581  0.00  0.00     0.142 C 
BRANCH  12  13
ATOM     13  CBK CXG d   1      10.686  24.216   5.602  0.00  0.00     0.253 C 
ATOM     14  OAI CXG d   1      10.395  23.233   6.292  0.00  0.00    -0.270 OA
ATOM     15  N   CXG d   1       9.992  25.375   5.642  0.00  0.00    -0.344 N 
ATOM     16  H3  CXG d   1      10.332  26.095   5.037  0.00  0.00     0.163 HD
BRANCH  15  17
ATOM     17  CA  CXG d   1       8.746  25.757   6.486  0.00  0.00     0.095 C 
ATOM     18  H4  CXG d   1       8.146  24.842   6.601  0.00  0.00     0.088 H 
BRANCH  17  19
ATOM     19  CB  CXG d   1       8.974  26.338   8.022  0.00  0.00    -0.022 C 
BRANCH  19  20
ATOM     20  CG1 CXG d   1       9.768  27.655   8.053  0.00  0.00    -0.067 C 
ATOM     21  H5  CXG d   1       9.886  27.988   9.095  0.00  0.00     0.028 H 
ATOM     22  H6  CXG d   1       9.226  28.423   7.482  0.00  0.00     0.028 H 
ATOM     23  H7  CXG d   1      10.760  27.496   7.605  0.00  0.00     0.028 H 
ENDBRANCH  19  20
BRANCH  19  24
ATOM     24  CAE CXG d   1       7.615  26.657   8.741  0.00  0.00    -0.067 C 
ATOM     25  H8  CXG d   1       6.988  25.753   8.757  0.00  0.00     0.028 H 
ATOM     26  H9  CXG d   1       7.091  27.457   8.197  0.00  0.00     0.028 H 
ATOM     27  H10 CXG d   1       7.814  26.984   9.772  0.00  0.00     0.028 H 
ENDBRANCH  19  24
BRANCH  19  28
ATOM     28  CG2 CXG d   1       9.757  25.352   8.896  0.00  0.00    -0.067 C 
ATOM     29  H11 CXG d   1      10.715  25.113   8.411  0.00  0.00     0.028 H 
ATOM     30  H12 CXG d   1       9.171  24.430   9.024  0.00  0.00     0.028 H 
ATOM     31  H13 CXG d   1       9.947  25.805   9.880  0.00  0.00     0.028 H 
ENDBRANCH  19  28
ENDBRANCH  17  19
BRANCH  17  32
ATOM     32  C   CXG d   1       7.963  26.734   5.630  0.00  0.00     0.240 C 
ATOM     33  O   CXG d   1       8.349  27.822   5.197  0.00  0.00    -0.271 OA
ATOM     34  NBG CXG d   1       6.730  26.198   5.404  0.00  0.00    -0.364 N 
ATOM     35  H14 CXG d   1       6.546  25.304   5.813  0.00  0.00     0.161 HD
BRANCH  34  36
ATOM     36  C9  CXG d   1       5.644  26.801   4.620  0.00  0.00    -0.018 C 
ATOM     37  H49 CXG d   1       4.774  26.128   4.621  0.00  0.00     0.056 H 
ATOM     38  H50 CXG d   1       5.983  26.960   3.586  0.00  0.00     0.056 H 
ATOM     39  H51 CXG d   1       5.362  27.766   5.066  0.00  0.00     0.056 H 
ENDBRANCH  34  36
ENDBRANCH  17  32
ENDBRANCH  15  17
ENDBRANCH  12  13
BRANCH  12  40
ATOM     40  CBA CXG d   1      11.330  23.499   3.257  0.00  0.00    -0.004 C 
ATOM     41  H15 CXG d   1      12.092  23.624   2.474  0.00  0.00     0.045 H 
ATOM     42  H16 CXG d   1      11.193  22.428   3.467  0.00  0.00     0.045 H 
BRANCH  40  43
ATOM     43  CBO CXG d   1       9.975  24.063   2.709  0.00  0.00    -0.055 A 
ATOM     44  CAT CXG d   1       8.750  23.281   2.922  0.00  0.00    -0.077 A 
ATOM     45  CAP CXG d   1       7.477  23.777   2.438  0.00  0.00    -0.082 A 
ATOM     46  H17 CXG d   1       8.798  22.331   3.442  0.00  0.00     0.084 H 
ATOM     47  CAN CXG d   1       7.409  25.052   1.740  0.00  0.00    -0.083 A 
ATOM     48  H18 CXG d   1       6.575  23.198   2.596  0.00  0.00     0.083 H 
ATOM     49  CAQ CXG d   1       8.617  25.828   1.525  0.00  0.00    -0.082 A 
ATOM     50  H19 CXG d   1       6.456  25.423   1.380  0.00  0.00     0.083 H 
ATOM     51  CAU CXG d   1       9.892  25.334   2.009  0.00  0.00    -0.077 A 
ATOM     52  H20 CXG d   1       8.566  26.777   1.003  0.00  0.00     0.083 H 
ATOM     53  H21 CXG d   1      10.791  25.918   1.847  0.00  0.00     0.084 H 
ENDBRANCH  40  43
ENDBRANCH  12  40
BRANCH  12  54
ATOM     54  OAM CXG d   1      12.278  25.520   4.237  0.00  0.00    -0.380 OA
ATOM     55  H22 CXG d   1      12.996  25.477   3.616  0.00  0.00     0.211 HD
ENDBRANCH  12  54
ENDBRANCH   9  12
ENDBRANCH   6   9
ENDBRANCH   3   6
ENDBRANCH   1   3
BRANCH   1  56
ATOM     56  NBH CXG d   1      15.945  21.481   6.094  0.00  0.00    -0.185 N 
ATOM     57  CBN CXG d   1      15.277  20.446   5.563  0.00  0.00     0.265 C 
ATOM     58  OAL CXG d   1      14.102  20.162   5.894  0.00  0.00    -0.269 OA
ATOM     59  H26 CXG d   1      16.880  21.658   5.785  0.00  0.00     0.197 HD
BRANCH  57  60
ATOM     60  CBV CXG d   1      16.037  19.621   4.519  0.00  0.00     0.099 C 
ATOM     61  H27 CXG d   1      16.686  20.309   3.957  0.00  0.00     0.088 H 
BRANCH  60  62
ATOM     62  CBY CXG d   1      15.345  18.736   3.417  0.00  0.00    -0.022 C 
BRANCH  62  63
ATOM     63  CAF CXG d   1      16.432  18.077   2.561  0.00  0.00    -0.067 C 
ATOM     64  H28 CXG d   1      15.961  17.455   1.786  0.00  0.00     0.028 H 
ATOM     65  H29 CXG d   1      17.070  17.448   3.199  0.00  0.00     0.028 H 
ATOM     66  H30 CXG d   1      17.045  18.856   2.084  0.00  0.00     0.028 H 
ENDBRANCH  62  63
BRANCH  62  67
ATOM     67  CAG CXG d   1      14.510  19.547   2.446  0.00  0.00    -0.067 C 
ATOM     68  H31 CXG d   1      13.701  20.054   2.993  0.00  0.00     0.028 H 
ATOM     69  H32 CXG d   1      14.077  18.878   1.688  0.00  0.00     0.028 H 
ATOM     70  H33 CXG d   1      15.146  20.297   1.953  0.00  0.00     0.028 H 
ENDBRANCH  62  67
BRANCH  62  71
ATOM     71  CAH CXG d   1      14.523  17.597   4.013  0.00  0.00    -0.067 C 
ATOM     72  H34 CXG d   1      15.147  17.022   4.713  0.00  0.00     0.028 H 
ATOM     73  H35 CXG d   1      14.173  16.936   3.206  0.00  0.00     0.028 H 
ATOM     74  H36 CXG d   1      13.656  18.012   4.549  0.00  0.00     0.028 H 
ENDBRANCH  62  71
ENDBRANCH  60  62
BRANCH  60  75
ATOM     75  NBF CXG d   1      16.846  18.833   5.487  0.00  0.00    -0.323 N 
ATOM     76  CBL CXG d   1      18.172  18.947   5.657  0.00  0.00     0.360 C 
ATOM     77  OAJ CXG d   1      18.943  19.704   5.062  0.00  0.00    -0.239 OA
ATOM     78  H37 CXG d   1      16.364  18.166   6.055  0.00  0.00     0.165 HD
BRANCH  76  79
ATOM     79  OBJ CXG d   1      18.587  18.041   6.658  0.00  0.00    -0.309 OA
BRANCH  79  80
ATOM     80  CAB CXG d   1      19.322  16.874   6.262  0.00  0.00     0.015 C 
ATOM     81  H38 CXG d   1      19.568  16.276   7.152  0.00  0.00     0.067 H 
ATOM     82  H39 CXG d   1      20.250  17.179   5.757  0.00  0.00     0.067 H 
ATOM     83  H40 CXG d   1      18.711  16.272   5.574  0.00  0.00     0.067 H 
ENDBRANCH  79  80
ENDBRANCH  76  79
ENDBRANCH  60  75
ENDBRANCH  57  60
ENDBRANCH   1  56
BRANCH   1  84
ATOM     84  CBB CXG d   1      16.206  22.390   8.309  0.00  0.00     0.128 C 
ATOM     85  H41 CXG d   1      15.771  23.074   9.052  0.00  0.00     0.086 H 
ATOM     86  H42 CXG d   1      17.193  22.765   8.000  0.00  0.00     0.086 H 
BRANCH  84  87
ATOM     87  CBP CXG d   1      16.412  21.024   8.989  0.00  0.00    -0.030 A 
ATOM     88  CAW CXG d   1      15.250  20.236   9.382  0.00  0.00    -0.074 A 
ATOM     89  CAY CXG d   1      15.427  18.950  10.021  0.00  0.00    -0.072 A 
ATOM     90  H43 CXG d   1      14.252  20.614   9.195  0.00  0.00     0.084 H 
ATOM     91  CBQ CXG d   1      16.770  18.444  10.272  0.00  0.00    -0.026 A 
ATOM     92  H44 CXG d   1      14.562  18.364  10.312  0.00  0.00     0.084 H 
ATOM     93  CAZ CXG d   1      17.941  19.223   9.880  0.00  0.00    -0.072 A 
ATOM     94  CAX CXG d   1      17.758  20.523   9.232  0.00  0.00    -0.074 A 
ATOM     95  H46 CXG d   1      18.938  18.842  10.067  0.00  0.00     0.084 H 
ATOM     96  H45 CXG d   1      18.620  21.110   8.935  0.00  0.00     0.084 H 
BRANCH  91  97
ATOM     97  CBR CXG d   1      16.860  17.077  10.961  0.00  0.00    -0.026 A 
ATOM     98  CAV CXG d   1      16.756  15.820  10.236  0.00  0.00    -0.072 A 
ATOM     99  CAR CXG d   1      16.843  14.541  10.937  0.00  0.00    -0.082 A 
ATOM    100  H47 CXG d   1      16.612  15.832   9.162  0.00  0.00     0.084 H 
ATOM    101  CAO CXG d   1      17.033  14.512  12.377  0.00  0.00    -0.083 A 
ATOM    102  H48 CXG d   1      16.766  13.613  10.382  0.00  0.00     0.083 H 
ATOM    103  CAS CXG d   1      17.140  15.750  13.116  0.00  0.00    -0.082 A 
ATOM    104  H52 CXG d   1      17.095  13.563  12.897  0.00  0.00     0.083 H 
ATOM    105  C53 CXG d   1      17.055  17.029  12.413  0.00  0.00    -0.072 A 
ATOM    106  H55 CXG d   1      17.283  15.730  14.190  0.00  0.00     0.083 H 
ATOM    107  H56 CXG d   1      17.137  17.954  12.973  0.00  0.00     0.084 H 
ENDBRANCH  91  97
ENDBRANCH  84  87
ENDBRANCH   1  84
TORSDOF 27
