REMARK  27 active torsions:
REMARK  status: ('A' for Active; 'I' for Inactive)
REMARK    1  A    between atoms: C1_1  and  C2_2 
REMARK    2  A    between atoms: C1_1  and  C15_14 
REMARK    3  A    between atoms: C1_1  and  O22_21 
REMARK    4  A    between atoms: C23_22  and  C1_1 
REMARK       I    between atoms: C2_2  and  N4_4 
REMARK    5  A    between atoms: N4_4  and  C5_5 
REMARK    6  A    between atoms: C5_5  and  C6_6 
REMARK    7  A    between atoms: C5_5  and  C11_11 
REMARK    8  A    between atoms: C6_6  and  C7_7 
REMARK    9  A    between atoms: C6_6  and  C8_8 
REMARK   10  A    between atoms: C6_6  and  C13_13 
REMARK   11  A    between atoms: N10_10  and  C9_9 
REMARK       I    between atoms: C11_11  and  N10_10 
REMARK   12  A    between atoms: C15_14  and  C16_15 
REMARK   13  A    between atoms: C24_23  and  C23_22 
REMARK   14  A    between atoms: C25_24  and  C24_23 
REMARK   15  A    between atoms: N26_25  and  C25_24 
REMARK   16  A    between atoms: C27_26  and  N26_25 
REMARK   17  A    between atoms: N26_25  and  N43_41 
REMARK   18  A    between atoms: C28_27  and  C27_26 
REMARK   19  A    between atoms: C56_48  and  C31_30 
REMARK   20  A    between atoms: C41_39  and  C35_33 
REMARK   21  A    between atoms: C35_33  and  C45_43 
REMARK   22  A    between atoms: C35_33  and  C46_44 
REMARK   23  A    between atoms: C35_33  and  C47_45 
REMARK   24  A    between atoms: O37_35  and  C36_34 
REMARK   25  A    between atoms: C38_36  and  O37_35 
REMARK       I    between atoms: N40_38  and  C38_36 
REMARK   26  A    between atoms: C41_39  and  N40_38 
REMARK   27  A    between atoms: C42_40  and  C41_39 
REMARK       I    between atoms: N43_41  and  C42_40 
ROOT
ATOM      1  C25 G40 d   1      15.325  23.692   6.587  0.00  0.00     0.105 C 
ATOM      2  H28 G40 d   1      15.780  24.410   7.286  0.00  0.00     0.079 H 
ATOM      3  H29 G40 d   1      15.841  23.747   5.617  0.00  0.00     0.079 H 
ENDROOT
BRANCH   1   4
ATOM      4  C24 G40 d   1      13.859  24.042   6.394  0.00  0.00    -0.037 C 
ATOM      5  H26 G40 d   1      13.271  23.522   7.164  0.00  0.00     0.035 H 
ATOM      6  H27 G40 d   1      13.740  25.129   6.514  0.00  0.00     0.035 H 
BRANCH   4   7
ATOM      7  C23 G40 d   1      13.313  23.636   4.997  0.00  0.00    -0.026 C 
ATOM      8  H24 G40 d   1      14.063  23.925   4.246  0.00  0.00     0.038 H 
ATOM      9  H25 G40 d   1      13.189  22.543   4.990  0.00  0.00     0.038 H 
BRANCH   7  10
ATOM     10  C1  G40 d   1      11.958  24.270   4.581  0.00  0.00     0.142 C 
BRANCH  10  11
ATOM     11  C2  G40 d   1      10.774  24.238   5.601  0.00  0.00     0.253 C 
ATOM     12  O3  G40 d   1      10.490  23.232   6.255  0.00  0.00    -0.270 OA
ATOM     13  N4  G40 d   1      10.073  25.390   5.672  0.00  0.00    -0.344 N 
ATOM     14  H1  G40 d   1      10.416  26.127   5.090  0.00  0.00     0.163 HD
BRANCH  13  15
ATOM     15  C5  G40 d   1       8.820  25.753   6.512  0.00  0.00     0.095 C 
ATOM     16  H2  G40 d   1       8.223  24.834   6.609  0.00  0.00     0.088 H 
BRANCH  15  17
ATOM     17  C6  G40 d   1       9.031  26.313   8.055  0.00  0.00    -0.022 C 
BRANCH  17  18
ATOM     18  C7  G40 d   1       7.668  26.627   8.767  0.00  0.00    -0.067 C 
ATOM     19  H3  G40 d   1       7.862  26.994   9.785  0.00  0.00     0.028 H 
ATOM     20  H4  G40 d   1       7.061  25.711   8.818  0.00  0.00     0.028 H 
ATOM     21  H5  G40 d   1       7.125  27.396   8.197  0.00  0.00     0.028 H 
ENDBRANCH  17  18
BRANCH  17  22
ATOM     22  C8  G40 d   1       9.838  27.618   8.101  0.00  0.00    -0.067 C 
ATOM     23  H6  G40 d   1      10.812  27.464   7.614  0.00  0.00     0.028 H 
ATOM     24  H7  G40 d   1       9.995  27.916   9.148  0.00  0.00     0.028 H 
ATOM     25  H8  G40 d   1       9.286  28.410   7.574  0.00  0.00     0.028 H 
ENDBRANCH  17  22
BRANCH  17  26
ATOM     26  C13 G40 d   1       9.802  25.311   8.922  0.00  0.00    -0.067 C 
ATOM     27  H13 G40 d   1       9.271  24.348   8.930  0.00  0.00     0.028 H 
ATOM     28  H14 G40 d   1       9.877  25.697   9.949  0.00  0.00     0.028 H 
ATOM     29  H15 G40 d   1      10.812  25.169   8.509  0.00  0.00     0.028 H 
ENDBRANCH  17  26
ENDBRANCH  15  17
BRANCH  15  30
ATOM     30  C11 G40 d   1       8.045  26.737   5.661  0.00  0.00     0.240 C 
ATOM     31  N10 G40 d   1       6.788  26.239   5.479  0.00  0.00    -0.364 N 
ATOM     32  H12 G40 d   1       6.584  25.361   5.912  0.00  0.00     0.161 HD
ATOM     33  O12 G40 d   1       8.453  27.802   5.194  0.00  0.00    -0.271 OA
BRANCH  31  34
ATOM     34  C9  G40 d   1       5.706  26.864   4.711  0.00  0.00    -0.018 C 
ATOM     35  H9  G40 d   1       4.813  26.223   4.748  0.00  0.00     0.056 H 
ATOM     36  H10 G40 d   1       6.024  26.990   3.666  0.00  0.00     0.056 H 
ATOM     37  H11 G40 d   1       5.470  27.848   5.144  0.00  0.00     0.056 H 
ENDBRANCH  31  34
ENDBRANCH  15  30
ENDBRANCH  13  15
ENDBRANCH  10  11
BRANCH  10  38
ATOM     38  C15 G40 d   1      11.428  23.603   3.236  0.00  0.00    -0.004 C 
ATOM     39  H16 G40 d   1      11.328  22.521   3.409  0.00  0.00     0.045 H 
ATOM     40  H17 G40 d   1      12.176  23.781   2.449  0.00  0.00     0.045 H 
BRANCH  38  41
ATOM     41  C16 G40 d   1      10.048  24.143   2.725  0.00  0.00    -0.055 A 
ATOM     42  C17 G40 d   1       8.870  23.274   2.849  0.00  0.00    -0.077 A 
ATOM     43  C18 G40 d   1       7.572  23.737   2.402  0.00  0.00    -0.082 A 
ATOM     44  H18 G40 d   1       8.972  22.283   3.276  0.00  0.00     0.084 H 
ATOM     45  C19 G40 d   1       7.430  25.067   1.827  0.00  0.00    -0.083 A 
ATOM     46  H19 G40 d   1       6.705  23.092   2.496  0.00  0.00     0.083 H 
ATOM     47  C20 G40 d   1       8.588  25.933   1.699  0.00  0.00    -0.082 A 
ATOM     48  H20 G40 d   1       6.458  25.411   1.494  0.00  0.00     0.083 H 
ATOM     49  C21 G40 d   1       9.890  25.470   2.147  0.00  0.00    -0.077 A 
ATOM     50  H21 G40 d   1       8.481  26.923   1.270  0.00  0.00     0.083 H 
ATOM     51  H22 G40 d   1      10.753  26.119   2.050  0.00  0.00     0.084 H 
ENDBRANCH  38  41
ENDBRANCH  10  38
BRANCH  10  52
ATOM     52  O22 G40 d   1      12.334  25.613   4.270  0.00  0.00    -0.380 OA
ATOM     53  H23 G40 d   1      13.017  25.605   3.610  0.00  0.00     0.211 HD
ENDBRANCH  10  52
ENDBRANCH   7  10
ENDBRANCH   4   7
ENDBRANCH   1   4
BRANCH   1  54
ATOM     54  N26 G40 d   1      15.457  22.373   7.116  0.00  0.00     0.015 N 
ATOM     55  H30 G40 d   1      14.557  22.029   7.413  0.00  0.00     0.309 HD
BRANCH  54  56
ATOM     56  C27 G40 d   1      16.385  22.378   8.236  0.00  0.00     0.128 C 
ATOM     57  H31 G40 d   1      16.011  23.099   8.978  0.00  0.00     0.086 H 
ATOM     58  H32 G40 d   1      17.363  22.714   7.859  0.00  0.00     0.086 H 
BRANCH  56  59
ATOM     59  C28 G40 d   1      16.595  21.042   8.950  0.00  0.00    -0.030 A 
ATOM     60  C29 G40 d   1      15.427  20.283   9.363  0.00  0.00    -0.074 A 
ATOM     61  C30 G40 d   1      15.593  19.025  10.033  0.00  0.00    -0.072 A 
ATOM     62  H33 G40 d   1      14.432  20.666   9.165  0.00  0.00     0.084 H 
ATOM     63  C31 G40 d   1      16.930  18.507  10.302  0.00  0.00    -0.025 A 
ATOM     64  H34 G40 d   1      14.722  18.458  10.340  0.00  0.00     0.084 H 
ATOM     65  C32 G40 d   1      18.111  19.265   9.887  0.00  0.00    -0.072 A 
ATOM     66  C33 G40 d   1      17.937  20.546   9.202  0.00  0.00    -0.074 A 
ATOM     67  H35 G40 d   1      19.105  18.881  10.085  0.00  0.00     0.084 H 
ATOM     68  H36 G40 d   1      18.801  21.119   8.886  0.00  0.00     0.084 H 
BRANCH  63  69
ATOM     69  C56 G40 d   1      17.029  17.212  11.010  0.00  0.00    -0.019 A 
ATOM     70  C55 G40 d   1      15.923  16.306  11.187  0.00  0.00    -0.034 A 
ATOM     71  S54 G40 d   1      16.344  14.834  12.085  0.00  0.00    -0.113 SA
ATOM     72  H52 G40 d   1      14.923  16.506  10.806  0.00  0.00     0.096 H 
ATOM     73  C58 G40 d   1      18.020  15.429  12.232  0.00  0.00    -0.044 A 
ATOM     74  C57 G40 d   1      18.233  16.690  11.621  0.00  0.00    -0.066 A 
ATOM     75  H54 G40 d   1      18.806  14.875  12.743  0.00  0.00     0.095 H 
ATOM     76  H53 G40 d   1      19.192  17.206  11.612  0.00  0.00     0.085 H 
ENDBRANCH  63  69
ENDBRANCH  56  59
ENDBRANCH  54  56
BRANCH  54  77
ATOM     77  N43 G40 d   1      15.971  21.577   6.155  0.00  0.00    -0.185 N 
ATOM     78  C42 G40 d   1      15.297  20.544   5.609  0.00  0.00     0.265 C 
ATOM     79  O44 G40 d   1      14.134  20.240   5.948  0.00  0.00    -0.269 OA
ATOM     80  H42 G40 d   1      16.899  21.762   5.831  0.00  0.00     0.197 HD
BRANCH  78  81
ATOM     81  C41 G40 d   1      16.037  19.740   4.537  0.00  0.00     0.099 C 
ATOM     82  H41 G40 d   1      16.706  20.429   4.000  0.00  0.00     0.088 H 
BRANCH  81  83
ATOM     83  C35 G40 d   1      15.321  18.910   3.406  0.00  0.00    -0.022 C 
BRANCH  83  84
ATOM     84  C45 G40 d   1      16.392  18.254   2.525  0.00  0.00    -0.067 C 
ATOM     85  H43 G40 d   1      15.905  17.670   1.730  0.00  0.00     0.028 H 
ATOM     86  H44 G40 d   1      17.015  17.588   3.140  0.00  0.00     0.028 H 
ATOM     87  H45 G40 d   1      17.023  19.034   2.074  0.00  0.00     0.028 H 
ENDBRANCH  83  84
BRANCH  83  88
ATOM     88  C46 G40 d   1      14.510  19.777   2.466  0.00  0.00    -0.067 C 
ATOM     89  H46 G40 d   1      13.714  20.285   3.030  0.00  0.00     0.028 H 
ATOM     90  H47 G40 d   1      14.060  19.148   1.683  0.00  0.00     0.028 H 
ATOM     91  H48 G40 d   1      15.166  20.527   2.001  0.00  0.00     0.028 H 
ENDBRANCH  83  88
BRANCH  83  92
ATOM     92  C47 G40 d   1      14.477  17.772   3.970  0.00  0.00    -0.067 C 
ATOM     93  H49 G40 d   1      15.091  17.161   4.648  0.00  0.00     0.028 H 
ATOM     94  H50 G40 d   1      14.108  17.146   3.145  0.00  0.00     0.028 H 
ATOM     95  H51 G40 d   1      13.623  18.189   4.525  0.00  0.00     0.028 H 
ENDBRANCH  83  92
ENDBRANCH  81  83
BRANCH  81  96
ATOM     96  N40 G40 d   1      16.817  18.894   5.474  0.00  0.00    -0.323 N 
ATOM     97  C38 G40 d   1      18.138  18.959   5.636  0.00  0.00     0.360 C 
ATOM     98  O39 G40 d   1      18.923  19.707   5.059  0.00  0.00    -0.239 OA
ATOM     99  H40 G40 d   1      16.315  18.227   6.024  0.00  0.00     0.165 HD
BRANCH  97 100
ATOM    100  O37 G40 d   1      18.523  18.005   6.608  0.00  0.00    -0.309 OA
BRANCH 100 101
ATOM    101  C36 G40 d   1      19.912  17.681   6.760  0.00  0.00     0.015 C 
ATOM    102  H37 G40 d   1      20.028  16.928   7.554  0.00  0.00     0.067 H 
ATOM    103  H38 G40 d   1      20.473  18.588   7.030  0.00  0.00     0.067 H 
ATOM    104  H39 G40 d   1      20.300  17.278   5.813  0.00  0.00     0.067 H 
ENDBRANCH 100 101
ENDBRANCH  97 100
ENDBRANCH  81  96
ENDBRANCH  78  81
ENDBRANCH  54  77
ENDBRANCH   1  54
TORSDOF 27
