REMARK  9 active torsions:
REMARK  status: ('A' for Active; 'I' for Inactive)
REMARK    1  A    between atoms: N1_1  and  C43_43 
REMARK    2  A    between atoms: C8_8  and  O37_37 
REMARK    3  A    between atoms: C13_13  and  O39_39 
REMARK    4  A    between atoms: N20_20  and  C44_44 
REMARK    5  A    between atoms: N20_20  and  C45_45 
REMARK    6  A    between atoms: C26_26  and  O40_40 
REMARK    7  A    between atoms: C27_27  and  O42_42 
REMARK    8  A    between atoms: O37_37  and  C38_38 
REMARK    9  A    between atoms: O40_40  and  C41_41 
ROOT
ATOM      1  N1  TC9 d   1      37.140 117.753  52.126  0.00  0.00    -0.066 N 
ATOM      2  C2  TC9 d   1      36.844 118.323  50.854  0.00  0.00     0.087 C 
ATOM      3  C3  TC9 d   1      37.971 118.153  49.878  0.00  0.00    -0.018 C 
ATOM      4  C4  TC9 d   1      38.820 116.935  50.108  0.00  0.00    -0.045 A 
ATOM      5  C5  TC9 d   1      38.542 116.015  51.159  0.00  0.00    -0.018 A 
ATOM      6  C6  TC9 d   1      37.361 116.261  52.010  0.00  0.00     0.133 C 
ATOM      7  C7  TC9 d   1      39.918 116.673  49.249  0.00  0.00    -0.041 A 
ATOM      8  C8  TC9 d   1      40.721 115.520  49.464  0.00  0.00     0.102 A 
ATOM      9  C9  TC9 d   1      40.418 114.617  50.528  0.00  0.00     0.110 A 
ATOM     10  C10 TC9 d   1      39.319 114.852  51.387  0.00  0.00    -0.039 A 
ATOM     11  O11 TC9 d   1      41.216 113.454  50.638  0.00  0.00    -0.305 OA
ATOM     12  C12 TC9 d   1      41.123 112.722  51.848  0.00  0.00     0.109 A 
ATOM     13  C13 TC9 d   1      42.215 112.857  52.716  0.00  0.00     0.099 A 
ATOM     14  C14 TC9 d   1      42.279 112.103  53.866  0.00  0.00    -0.048 A 
ATOM     15  C15 TC9 d   1      41.246 111.179  54.150  0.00  0.00    -0.074 A 
ATOM     16  C16 TC9 d   1      40.170 111.012  53.277  0.00  0.00    -0.053 A 
ATOM     17  C17 TC9 d   1      40.099 111.789  52.117  0.00  0.00    -0.041 A 
ATOM     18  C18 TC9 d   1      39.043 110.009  53.688  0.00  0.00    -0.010 C 
ATOM     19  C19 TC9 d   1      38.897 108.674  52.871  0.00  0.00     0.137 C 
ATOM     20  N20 TC9 d   1      39.697 107.535  53.303  0.00  0.00    -0.066 N 
ATOM     21  C21 TC9 d   1      39.120 106.486  54.112  0.00  0.00     0.089 C 
ATOM     22  C22 TC9 d   1      37.826 106.780  54.793  0.00  0.00    -0.017 C 
ATOM     23  C23 TC9 d   1      36.879 107.472  53.890  0.00  0.00    -0.043 A 
ATOM     24  C24 TC9 d   1      37.366 108.391  52.916  0.00  0.00     0.016 A 
ATOM     25  C25 TC9 d   1      35.502 107.210  54.032  0.00  0.00    -0.041 A 
ATOM     26  C26 TC9 d   1      34.614 107.863  53.207  0.00  0.00     0.104 A 
ATOM     27  C27 TC9 d   1      35.087 108.799  52.220  0.00  0.00     0.134 A 
ATOM     28  C28 TC9 d   1      36.476 109.074  52.089  0.00  0.00     0.120 A 
ATOM     29  O29 TC9 d   1      36.955 109.936  51.069  0.00  0.00    -0.307 OA
ATOM     30  C30 TC9 d   1      36.737 111.311  51.226  0.00  0.00     0.076 A 
ATOM     31  C31 TC9 d   1      36.875 112.132  50.080  0.00  0.00    -0.050 A 
ATOM     32  C32 TC9 d   1      36.667 113.509  50.160  0.00  0.00    -0.074 A 
ATOM     33  C33 TC9 d   1      36.332 114.090  51.363  0.00  0.00    -0.056 A 
ATOM     34  C34 TC9 d   1      36.200 113.272  52.530  0.00  0.00    -0.074 A 
ATOM     35  C35 TC9 d   1      36.397 111.896  52.459  0.00  0.00    -0.050 A 
ATOM     36  C36 TC9 d   1      36.105 115.587  51.422  0.00  0.00    -0.010 C 
ATOM     37  H1  TC9 d   1      38.088 118.040  52.314  0.00  0.00     0.280 HD
ATOM     38  H2  TC9 d   1      36.648 119.397  50.985  0.00  0.00     0.076 H 
ATOM     39  H3  TC9 d   1      35.947 117.834  50.447  0.00  0.00     0.076 H 
ATOM     40  H4  TC9 d   1      38.618 119.040  49.944  0.00  0.00     0.042 H 
ATOM     41  H5  TC9 d   1      37.542 118.086  48.867  0.00  0.00     0.042 H 
ATOM     42  H6  TC9 d   1      37.549 115.845  53.011  0.00  0.00     0.092 H 
ATOM     43  H7  TC9 d   1      40.144 117.349  48.432  0.00  0.00     0.088 H 
ATOM     44  H8  TC9 d   1      39.080 114.166  52.192  0.00  0.00     0.088 H 
ATOM     45  H9  TC9 d   1      43.114 112.216  54.548  0.00  0.00     0.087 H 
ATOM     46  H10 TC9 d   1      41.291 110.591  55.060  0.00  0.00     0.084 H 
ATOM     47  H11 TC9 d   1      39.267 111.676  51.432  0.00  0.00     0.088 H 
ATOM     48  H12 TC9 d   1      38.086 110.545  53.609  0.00  0.00     0.043 H 
ATOM     49  H13 TC9 d   1      39.222 109.731  54.737  0.00  0.00     0.043 H 
ATOM     50  H14 TC9 d   1      39.191 108.878  51.831  0.00  0.00     0.093 H 
ATOM     51  H15 TC9 d   1      39.852 106.229  54.891  0.00  0.00     0.076 H 
ATOM     52  H16 TC9 d   1      38.959 105.616  53.459  0.00  0.00     0.076 H 
ATOM     53  H17 TC9 d   1      38.020 107.421  55.666  0.00  0.00     0.042 H 
ATOM     54  H18 TC9 d   1      37.375 105.834  55.126  0.00  0.00     0.042 H 
ATOM     55  H19 TC9 d   1      35.148 106.507  54.777  0.00  0.00     0.088 H 
ATOM     56  H20 TC9 d   1      37.145 111.685  49.130  0.00  0.00     0.087 H 
ATOM     57  H21 TC9 d   1      36.769 114.124  49.273  0.00  0.00     0.084 H 
ATOM     58  H22 TC9 d   1      35.944 113.729  53.479  0.00  0.00     0.084 H 
ATOM     59  H23 TC9 d   1      36.289 111.281  53.345  0.00  0.00     0.087 H 
ATOM     60  H24 TC9 d   1      35.920 115.972  50.408  0.00  0.00     0.043 H 
ATOM     61  H25 TC9 d   1      35.236 115.804  52.061  0.00  0.00     0.043 H 
ENDROOT
BRANCH  20  62
ATOM     62  C44 TC9 d   1      40.911 108.011  53.999  0.00  0.00     0.068 C 
ATOM     63  H37 TC9 d   1      41.380 108.814  53.411  0.00  0.00     0.068 H 
ATOM     64  H38 TC9 d   1      41.620 107.177  54.112  0.00  0.00     0.068 H 
ATOM     65  H39 TC9 d   1      40.637 108.397  54.992  0.00  0.00     0.068 H 
ENDBRANCH  20  62
BRANCH  20  66
ATOM     66  C45 TC9 d   1      40.121 106.800  52.097  0.00  0.00     0.068 C 
ATOM     67  H40 TC9 d   1      39.234 106.434  51.560  0.00  0.00     0.068 H 
ATOM     68  H41 TC9 d   1      40.750 105.946  52.390  0.00  0.00     0.068 H 
ATOM     69  H42 TC9 d   1      40.696 107.471  51.442  0.00  0.00     0.068 H 
ENDBRANCH  20  66
BRANCH  27  70
ATOM     70  O42 TC9 d   1      34.183 109.483  51.441  0.00  0.00    -0.356 OA
ATOM     71  H33 TC9 d   1      33.303 109.188  51.645  0.00  0.00     0.218 HD
ENDBRANCH  27  70
BRANCH  26  72
ATOM     72  O40 TC9 d   1      33.267 107.602  53.354  0.00  0.00    -0.353 OA
BRANCH  72  73
ATOM     73  C41 TC9 d   1      32.874 106.361  53.767  0.00  0.00     0.010 C 
ATOM     74  H30 TC9 d   1      31.776 106.326  53.830  0.00  0.00     0.066 H 
ATOM     75  H31 TC9 d   1      33.305 106.150  54.757  0.00  0.00     0.066 H 
ATOM     76  H32 TC9 d   1      33.224 105.607  53.047  0.00  0.00     0.066 H 
ENDBRANCH  72  73
ENDBRANCH  26  72
BRANCH  13  77
ATOM     77  O39 TC9 d   1      43.197 113.773  52.391  0.00  0.00    -0.358 OA
ATOM     78  H29 TC9 d   1      42.978 114.192  51.567  0.00  0.00     0.217 HD
ENDBRANCH  13  77
BRANCH   8  79
ATOM     79  O37 TC9 d   1      41.802 115.253  48.598  0.00  0.00    -0.353 OA
BRANCH  79  80
ATOM     80  C38 TC9 d   1      42.567 116.309  48.043  0.00  0.00     0.010 C 
ATOM     81  H26 TC9 d   1      43.356 115.892  47.400  0.00  0.00     0.066 H 
ATOM     82  H27 TC9 d   1      43.026 116.895  48.853  0.00  0.00     0.066 H 
ATOM     83  H28 TC9 d   1      41.913 116.960  47.444  0.00  0.00     0.066 H 
ENDBRANCH  79  80
ENDBRANCH   8  79
BRANCH   1  84
ATOM     84  C43 TC9 d   1      36.432 118.570  53.101  0.00  0.00     0.067 C 
ATOM     85  H34 TC9 d   1      36.511 119.630  52.817  0.00  0.00     0.068 H 
ATOM     86  H35 TC9 d   1      36.878 118.423  54.096  0.00  0.00     0.068 H 
ATOM     87  H36 TC9 d   1      35.373 118.275  53.127  0.00  0.00     0.068 H 
ENDBRANCH   1  84
TORSDOF 9
