REMARK  9 active torsions:
REMARK  status: ('A' for Active; 'I' for Inactive)
REMARK    1  A    between atoms: C20_6  and  C17_7 
REMARK    2  A    between atoms: C4_11  and  C1_12 
REMARK    3  A    between atoms: N12_24  and  C19_25 
REMARK    4  A    between atoms: C19_25  and  C21_26 
REMARK    5  A    between atoms: C21_26  and  C23_27 
REMARK    6  A    between atoms: C23_27  and  N29_28 
REMARK    7  A    between atoms: N29_28  and  C34_29 
REMARK    8  A    between atoms: C34_29  and  C35_30 
REMARK    9  A    between atoms: C35_30  and  O36_31 
ROOT
ATOM      1  C1  XWG d   1      -3.159  13.118  23.647  0.00  0.00     0.160 C 
ATOM      2  N3  XWG d   1      -4.504  13.452  24.166  0.00  0.00    -0.055 N 
ATOM      3  C7  XWG d   1      -5.135  14.222  23.074  0.00  0.00     0.117 C 
ATOM      4  C14 XWG d   1      -4.735  15.677  23.314  0.00  0.00    -0.036 C 
ATOM      5  C15 XWG d   1      -4.418  15.766  24.803  0.00  0.00    -0.040 C 
ATOM      6  C8  XWG d   1      -4.442  14.334  25.341  0.00  0.00     0.085 C 
ATOM      7  C5  XWG d   1      -4.622  13.623  21.771  0.00  0.00     0.066 C 
ATOM      8  C2  XWG d   1      -3.434  12.759  22.177  0.00  0.00     0.071 C 
ATOM      9  C6  XWG d   1      -3.927  11.350  21.965  0.00  0.00     0.234 C 
ATOM     10  O13 XWG d   1      -3.281  10.301  22.125  0.00  0.00    -0.272 OA
ATOM     11  C11 XWG d   1      -5.597  12.627  21.226  0.00  0.00     0.233 C 
ATOM     12  O18 XWG d   1      -6.593  12.887  20.553  0.00  0.00    -0.272 OA
ATOM     13  N12 XWG d   1      -5.269  11.358  21.652  0.00  0.00    -0.288 N 
ATOM     14  H4  XWG d   1      -2.555  14.037  23.677  0.00  0.00     0.096 H 
ATOM     15  H5  XWG d   1      -5.022  12.616  24.384  0.00  0.00     0.281 HD
ATOM     16  H6  XWG d   1      -6.231  14.133  23.107  0.00  0.00     0.086 H 
ATOM     17  H7  XWG d   1      -5.564  16.352  23.055  0.00  0.00     0.036 H 
ATOM     18  H8  XWG d   1      -3.850  15.937  22.715  0.00  0.00     0.036 H 
ATOM     19  H9  XWG d   1      -5.175  16.377  25.316  0.00  0.00     0.035 H 
ATOM     20  H10 XWG d   1      -3.424  16.211  24.953  0.00  0.00     0.035 H 
ATOM     21  H11 XWG d   1      -3.531  14.130  25.922  0.00  0.00     0.076 H 
ATOM     22  H12 XWG d   1      -5.325  14.182  25.979  0.00  0.00     0.076 H 
ATOM     23  H13 XWG d   1      -4.367  14.400  21.036  0.00  0.00     0.059 H 
ATOM     24  H14 XWG d   1      -2.542  12.954  21.563  0.00  0.00     0.059 H 
ENDROOT
BRANCH  13  25
ATOM     25  C19 XWG d   1      -5.938  10.152  21.106  0.00  0.00     0.007 C 
ATOM     26  H15 XWG d   1      -7.017  10.364  21.069  0.00  0.00     0.065 H 
ATOM     27  H16 XWG d   1      -5.750   9.326  21.808  0.00  0.00     0.065 H 
BRANCH  25  28
ATOM     28  C21 XWG d   1      -5.523   9.677  19.729  0.00  0.00    -0.027 C 
ATOM     29  H17 XWG d   1      -4.469   9.363  19.736  0.00  0.00     0.037 H 
ATOM     30  H18 XWG d   1      -5.661  10.481  18.991  0.00  0.00     0.037 H 
BRANCH  28  31
ATOM     31  C23 XWG d   1      -6.425   8.494  19.397  0.00  0.00     0.087 C 
ATOM     32  H19 XWG d   1      -7.468   8.833  19.476  0.00  0.00     0.076 H 
ATOM     33  H20 XWG d   1      -6.238   7.707  20.143  0.00  0.00     0.076 H 
BRANCH  31  34
ATOM     34  N29 XWG d   1      -6.242   7.900  18.057  0.00  0.00    -0.065 N 
ATOM     35  C31 XWG d   1      -7.234   6.811  17.890  0.00  0.00     0.086 C 
ATOM     36  C33 XWG d   1      -6.582   5.536  18.402  0.00  0.00    -0.041 C 
ATOM     37  H26 XWG d   1      -7.499   6.700  16.828  0.00  0.00     0.076 H 
ATOM     38  H27 XWG d   1      -8.140   7.032  18.473  0.00  0.00     0.076 H 
ATOM     39  C32 XWG d   1      -5.114   5.735  18.101  0.00  0.00    -0.041 C 
ATOM     40  H28 XWG d   1      -6.975   4.655  17.873  0.00  0.00     0.035 H 
ATOM     41  H29 XWG d   1      -6.748   5.418  19.483  0.00  0.00     0.035 H 
ATOM     42  C30 XWG d   1      -4.922   7.235  18.009  0.00  0.00     0.086 C 
ATOM     43  H30 XWG d   1      -4.848   5.254  17.148  0.00  0.00     0.035 H 
ATOM     44  H31 XWG d   1      -4.495   5.317  18.909  0.00  0.00     0.035 H 
ATOM     45  H32 XWG d   1      -4.306   7.579  18.853  0.00  0.00     0.076 H 
ATOM     46  H33 XWG d   1      -4.419   7.484  17.063  0.00  0.00     0.076 H 
BRANCH  34  47
ATOM     47  C34 XWG d   1      -6.346   8.881  16.937  0.00  0.00     0.104 C 
ATOM     48  H21 XWG d   1      -6.358   8.321  15.990  0.00  0.00     0.079 H 
ATOM     49  H22 XWG d   1      -5.459   9.531  16.967  0.00  0.00     0.079 H 
BRANCH  47  50
ATOM     50  C35 XWG d   1      -7.591   9.770  16.981  0.00  0.00     0.040 C 
ATOM     51  H23 XWG d   1      -7.523  10.538  16.197  0.00  0.00     0.076 H 
ATOM     52  H24 XWG d   1      -7.662  10.256  17.965  0.00  0.00     0.076 H 
BRANCH  50  53
ATOM     53  O36 XWG d   1      -8.744   8.966  16.762  0.00  0.00    -0.399 OA
ATOM     54  H25 XWG d   1      -8.680   8.547  15.912  0.00  0.00     0.209 HD
ENDBRANCH  50  53
ENDBRANCH  47  50
ENDBRANCH  34  47
ENDBRANCH  31  34
ENDBRANCH  28  31
ENDBRANCH  25  28
ENDBRANCH  13  25
BRANCH   1  55
ATOM     55  C4  XWG d   1      -2.347  12.075  24.373  0.00  0.00     0.096 A 
ATOM     56  C16 XWG d   1      -2.906  11.140  25.311  0.00  0.00    -0.019 A 
ATOM     57  C17 XWG d   1      -1.818  10.432  25.731  0.00  0.00     0.120 A 
ATOM     58  H3  XWG d   1      -3.946  11.025  25.613  0.00  0.00     0.091 H 
ATOM     59  O10 XWG d   1      -0.709  10.819  25.088  0.00  0.00    -0.212 OA
ATOM     60  N9  XWG d   1      -1.044  11.891  24.256  0.00  0.00    -0.130 NA
BRANCH  57  61
ATOM     61  C20 XWG d   1      -1.792   9.334  26.582  0.00  0.00     0.042 A 
ATOM     62  C22 XWG d   1      -2.699   9.032  27.580  0.00  0.00    -0.061 A 
ATOM     63  C24 XWG d   1      -2.377   7.822  28.191  0.00  0.00    -0.054 A 
ATOM     64  H2  XWG d   1      -3.550   9.655  27.852  0.00  0.00     0.085 H 
ATOM     65  C25 XWG d   1      -1.277   7.273  27.584  0.00  0.00     0.075 A 
ATOM     66  H1  XWG d   1      -2.918   7.379  29.026  0.00  0.00     0.086 H 
ATOM     67 CL1  XWG d   1      -0.504   5.701  27.995  0.00  0.00    -0.076 Cl
ATOM     68  S1  XWG d   1      -0.544   8.175  26.336  0.00  0.00    -0.075 SA
ENDBRANCH  57  61
ENDBRANCH   1  55
TORSDOF 9
