REMARK  9 active torsions:
REMARK  status: ('A' for Active; 'I' for Inactive)
REMARK    1  A    between atoms: C20_6  and  C17_7 
REMARK    2  A    between atoms: C4_11  and  C1_12 
REMARK    3  A    between atoms: N12_24  and  C19_25 
REMARK    4  A    between atoms: C19_25  and  C21_26 
REMARK    5  A    between atoms: C21_26  and  C23_27 
REMARK    6  A    between atoms: C23_27  and  N29_28 
REMARK    7  A    between atoms: N29_28  and  C32_29 
REMARK    8  A    between atoms: N29_28  and  C31_30 
REMARK    9  A    between atoms: N29_28  and  C30_31 
ROOT
ATOM      1  C1  FJD d   1      -1.206  12.026  22.344  0.00  0.00     0.179 C 
ATOM      2  N3  FJD d   1      -1.809  13.236  21.763  0.00  0.00    -0.053 N 
ATOM      3  C7  FJD d   1      -1.600  13.170  20.304  0.00  0.00     0.117 C 
ATOM      4  C14 FJD d   1      -0.355  13.983  19.973  0.00  0.00    -0.036 C 
ATOM      5  C15 FJD d   1      -0.183  14.933  21.151  0.00  0.00    -0.040 C 
ATOM      6  C8  FJD d   1      -1.179  14.489  22.222  0.00  0.00     0.085 C 
ATOM      7  C5  FJD d   1      -1.478  11.702  19.953  0.00  0.00     0.066 C 
ATOM      8  C2  FJD d   1      -1.444  10.953  21.283  0.00  0.00     0.073 C 
ATOM      9  C6  FJD d   1      -2.782  10.244  21.270  0.00  0.00     0.234 C 
ATOM     10  O13 FJD d   1      -3.337   9.707  22.214  0.00  0.00    -0.272 OA
ATOM     11  C11 FJD d   1      -2.727  11.262  19.254  0.00  0.00     0.233 C 
ATOM     12  O18 FJD d   1      -3.200  11.749  18.227  0.00  0.00    -0.272 OA
ATOM     13  N12 FJD d   1      -3.326  10.209  19.954  0.00  0.00    -0.288 N 
ATOM     14  H4  FJD d   1      -0.127  12.179  22.495  0.00  0.00     0.099 H 
ATOM     15  H5  FJD d   1      -2.793  13.256  21.982  0.00  0.00     0.281 HD
ATOM     16  H6  FJD d   1      -2.461  13.600  19.772  0.00  0.00     0.086 H 
ATOM     17  H7  FJD d   1      -0.498  14.546  19.039  0.00  0.00     0.036 H 
ATOM     18  H8  FJD d   1       0.522  13.326  19.875  0.00  0.00     0.036 H 
ATOM     19  H9  FJD d   1      -0.397  15.966  20.839  0.00  0.00     0.035 H 
ATOM     20  H10 FJD d   1       0.844  14.873  21.540  0.00  0.00     0.035 H 
ATOM     21  H11 FJD d   1      -0.653  14.317  23.173  0.00  0.00     0.076 H 
ATOM     22  H12 FJD d   1      -1.947  15.264  22.363  0.00  0.00     0.076 H 
ATOM     23  H13 FJD d   1      -0.584  11.505  19.343  0.00  0.00     0.059 H 
ATOM     24  H14 FJD d   1      -0.631  10.213  21.330  0.00  0.00     0.060 H 
ENDROOT
BRANCH  13  25
ATOM     25  C19 FJD d   1      -4.754   9.957  19.768  0.00  0.00     0.007 C 
ATOM     26  H15 FJD d   1      -5.246  10.784  19.235  0.00  0.00     0.065 H 
ATOM     27  H16 FJD d   1      -5.264   9.785  20.727  0.00  0.00     0.065 H 
BRANCH  25  28
ATOM     28  C21 FJD d   1      -4.707   8.683  18.916  0.00  0.00    -0.027 C 
ATOM     29  H17 FJD d   1      -3.985   7.985  19.365  0.00  0.00     0.037 H 
ATOM     30  H18 FJD d   1      -4.377   8.949  17.901  0.00  0.00     0.037 H 
BRANCH  28  31
ATOM     31  C23 FJD d   1      -6.059   7.994  18.824  0.00  0.00     0.086 C 
ATOM     32  H19 FJD d   1      -6.819   8.761  18.612  0.00  0.00     0.076 H 
ATOM     33  H20 FJD d   1      -6.271   7.527  19.797  0.00  0.00     0.076 H 
BRANCH  31  34
ATOM     34  N29 FJD d   1      -6.160   6.953  17.787  0.00  0.00    -0.079 N 
BRANCH  34  35
ATOM     35  C32 FJD d   1      -5.836   7.500  16.452  0.00  0.00     0.067 C 
ATOM     36  H21 FJD d   1      -5.919   6.702  15.699  0.00  0.00     0.068 H 
ATOM     37  H22 FJD d   1      -4.809   7.894  16.457  0.00  0.00     0.068 H 
ATOM     38  H23 FJD d   1      -6.539   8.310  16.207  0.00  0.00     0.068 H 
ENDBRANCH  34  35
BRANCH  34  39
ATOM     39  C31 FJD d   1      -7.565   6.540  17.764  0.00  0.00     0.067 C 
ATOM     40  H24 FJD d   1      -7.842   6.127  18.745  0.00  0.00     0.068 H 
ATOM     41  H25 FJD d   1      -7.709   5.773  16.989  0.00  0.00     0.068 H 
ATOM     42  H26 FJD d   1      -8.200   7.410  17.541  0.00  0.00     0.068 H 
ENDBRANCH  34  39
BRANCH  34  43
ATOM     43  C30 FJD d   1      -5.339   5.769  18.107  0.00  0.00     0.067 C 
ATOM     44  H27 FJD d   1      -4.277   6.055  18.130  0.00  0.00     0.068 H 
ATOM     45  H28 FJD d   1      -5.494   4.997  17.339  0.00  0.00     0.068 H 
ATOM     46  H29 FJD d   1      -5.634   5.373  19.090  0.00  0.00     0.068 H 
ENDBRANCH  34  43
ENDBRANCH  31  34
ENDBRANCH  28  31
ENDBRANCH  25  28
ENDBRANCH  13  25
BRANCH   1  47
ATOM     47  C4  FJD d   1      -1.816  11.650  23.646  0.00  0.00     0.177 A 
ATOM     48  O16 FJD d   1      -1.307  10.526  24.252  0.00  0.00    -0.291 OA
ATOM     49  C17 FJD d   1      -2.042  10.424  25.406  0.00  0.00     0.112 A 
ATOM     50  C10 FJD d   1      -3.010  11.356  25.436  0.00  0.00     0.039 A 
ATOM     51  N9  FJD d   1      -2.813  12.159  24.302  0.00  0.00    -0.236 NA
ATOM     52  H3  FJD d   1      -3.790  11.466  26.188  0.00  0.00     0.119 H 
BRANCH  49  53
ATOM     53  C20 FJD d   1      -1.854   9.326  26.285  0.00  0.00     0.042 A 
ATOM     54  C22 FJD d   1      -2.605   9.038  27.439  0.00  0.00    -0.061 A 
ATOM     55  C24 FJD d   1      -2.233   7.811  28.029  0.00  0.00    -0.054 A 
ATOM     56  H2  FJD d   1      -3.385   9.688  27.833  0.00  0.00     0.085 H 
ATOM     57  C25 FJD d   1      -1.223   7.239  27.300  0.00  0.00     0.075 A 
ATOM     58  H1  FJD d   1      -2.680   7.384  28.926  0.00  0.00     0.086 H 
ATOM     59 CL1  FJD d   1      -0.451   5.642  27.622  0.00  0.00    -0.076 Cl
ATOM     60  S1  FJD d   1      -0.700   8.100  25.923  0.00  0.00    -0.075 SA
ENDBRANCH  49  53
ENDBRANCH   1  47
TORSDOF 9
