REMARK  6 active torsions:
REMARK  status: ('A' for Active; 'I' for Inactive)
REMARK    1  A    between atoms: N_1  and  CA_2 
REMARK    2  A    between atoms: CA_2  and  C_3 
REMARK    3  A    between atoms: CA_2  and  CB_5 
REMARK    4  A    between atoms: CB_5  and  CG_6 
REMARK    5  A    between atoms: CG_6  and  CD_7 
REMARK    6  A    between atoms: CD_7  and  NE_8 
REMARK       I    between atoms: NE_8  and  CZ_9 
REMARK       I    between atoms: CZ_9  and  NH1_10 
ROOT
ATOM      1  CG  ARG d   1       0.940  -0.373  36.033  0.00  0.00    -0.047 C 
ATOM      2  H7  ARG d   1       1.985  -0.667  36.210  0.00  0.00     0.035 H 
ATOM      3  H8  ARG d   1       0.890   0.302  35.166  0.00  0.00     0.035 H 
ENDROOT
BRANCH   1   4
ATOM      4  CB  ARG d   1       0.422   0.378  37.273  0.00  0.00    -0.028 C 
ATOM      5  H5  ARG d   1      -0.585   0.760  37.050  0.00  0.00     0.036 H 
ATOM      6  H6  ARG d   1       0.367  -0.334  38.110  0.00  0.00     0.036 H 
BRANCH   4   7
ATOM      7  CA  ARG d   1       1.306   1.567  37.705  0.00  0.00     0.182 C 
ATOM      8  H4  ARG d   1       0.795   2.103  38.519  0.00  0.00     0.101 H 
BRANCH   7   9
ATOM      9  N   ARG d   1       1.522   2.519  36.571  0.00  0.00    -0.065 N 
ATOM     10  H1  ARG d   1       0.631   2.849  36.235  0.00  0.00     0.275 HD
ATOM     11  H2  ARG d   1       2.009   2.048  35.825  0.00  0.00     0.275 HD
ATOM     12  H3  ARG d   1       2.072   3.302  36.889  0.00  0.00     0.275 HD
ENDBRANCH   7   9
BRANCH   7  13
ATOM     13  C   ARG d   1       2.650   1.064  38.218  0.00  0.00     0.204 C 
ATOM     14  O   ARG d   1       2.694   0.244  39.132  0.00  0.00    -0.646 OA
ATOM     15  OXT ARG d   1       3.718   1.453  37.708  0.00  0.00    -0.646 OA
ENDBRANCH   7  13
ENDBRANCH   4   7
ENDBRANCH   1   4
BRANCH   1  16
ATOM     16  CD  ARG d   1       0.125  -1.627  35.724  0.00  0.00     0.009 C 
ATOM     17  H9  ARG d   1      -0.947  -1.390  35.787  0.00  0.00     0.064 H 
ATOM     18  H10 ARG d   1       0.371  -2.411  36.456  0.00  0.00     0.064 H 
BRANCH  16  19
ATOM     19  NE  ARG d   1       0.437  -2.107  34.375  0.00  0.00    -0.227 N 
ATOM     20  CZ  ARG d   1      -0.081  -3.196  33.810  0.00  0.00     0.665 C 
ATOM     21  NH1 ARG d   1      -0.954  -3.966  34.463  0.00  0.00    -0.235 N 
ATOM     22  NH2 ARG d   1       0.279  -3.517  32.585  0.00  0.00    -0.235 N 
ATOM     23  H12 ARG d   1      -1.343  -4.804  34.008  0.00  0.00     0.174 HD
ATOM     24  H13 ARG d   1      -1.239  -3.722  35.422  0.00  0.00     0.174 HD
ATOM     25  H14 ARG d   1       0.952  -2.928  32.075  0.00  0.00     0.174 HD
ATOM     26  H15 ARG d   1      -0.113  -4.358  32.137  0.00  0.00     0.174 HD
ATOM     27  H11 ARG d   1       1.110  -1.559  33.820  0.00  0.00     0.177 HD
ENDBRANCH  16  19
ENDBRANCH   1  16
TORSDOF 6
