REMARK  4 active torsions:
REMARK  status: ('A' for Active; 'I' for Inactive)
REMARK    1  A    between atoms: C8_11  and  N2_12 
REMARK    2  A    between atoms: C14_17  and  N3_18 
REMARK    3  A    between atoms: N3_18  and  S1_19 
REMARK    4  A    between atoms: S1_19  and  C15_22 
ROOT
ATOM      1  N2  MZA d   1       6.012   4.382  21.249  0.00  0.00    -0.313 N 
ATOM      2  C25 MZA d   1       6.593   5.533  21.694  0.00  0.00     0.247 C 
ATOM      3  O3  MZA d   1       7.721   5.948  21.446  0.00  0.00    -0.271 OA
ATOM      4  C12 MZA d   1       4.607   4.247  21.630  0.00  0.00     0.005 C 
ATOM      5  C13 MZA d   1       4.226   5.631  22.177  0.00  0.00    -0.022 C 
ATOM      6  C14 MZA d   1       5.578   6.242  22.577  0.00  0.00     0.099 C 
ATOM      7  H11 MZA d   1       4.486   3.475  22.404  0.00  0.00     0.065 H 
ATOM      8  H12 MZA d   1       3.990   3.990  20.757  0.00  0.00     0.065 H 
ATOM      9  H13 MZA d   1       3.562   5.540  23.049  0.00  0.00     0.039 H 
ATOM     10  H14 MZA d   1       3.734   6.238  21.403  0.00  0.00     0.039 H 
ATOM     11  H15 MZA d   1       5.782   6.041  23.639  0.00  0.00     0.088 H 
ENDROOT
BRANCH   6  12
ATOM     12  N3  MZA d   1       5.641   7.678  22.347  0.00  0.00    -0.301 N 
ATOM     13  H16 MZA d   1       5.439   8.028  21.432  0.00  0.00     0.173 HD
BRANCH  12  14
ATOM     14  S1  MZA d   1       6.025   8.730  23.516  0.00  0.00     0.259 S 
ATOM     15  O1  MZA d   1       5.885  10.003  22.899  0.00  0.00    -0.201 OA
ATOM     16  O2  MZA d   1       5.190   8.442  24.624  0.00  0.00    -0.201 OA
BRANCH  14  17
ATOM     17  C15 MZA d   1       7.736   8.442  23.947  0.00  0.00     0.080 A 
ATOM     18  C24 MZA d   1       8.060   7.823  25.136  0.00  0.00    -0.050 A 
ATOM     19  C23 MZA d   1       9.422   7.576  25.454  0.00  0.00    -0.024 A 
ATOM     20  H17 MZA d   1       7.278   7.526  25.825  0.00  0.00     0.087 H 
ATOM     21  C18 MZA d   1      10.430   7.990  24.530  0.00  0.00    -0.024 A 
ATOM     22  C22 MZA d   1       9.784   6.951  26.667  0.00  0.00    -0.071 A 
ATOM     23  C17 MZA d   1      10.064   8.626  23.312  0.00  0.00    -0.071 A 
ATOM     24  C19 MZA d   1      11.779   7.744  24.857  0.00  0.00    -0.051 A 
ATOM     25  C16 MZA d   1       8.735   8.829  23.050  0.00  0.00    -0.059 A 
ATOM     26  H19 MZA d   1      10.822   8.944  22.605  0.00  0.00     0.084 H 
ATOM     27  H18 MZA d   1       8.450   9.304  22.119  0.00  0.00     0.085 H 
ATOM     28  C20 MZA d   1      12.085   7.144  26.048  0.00  0.00     0.034 A 
ATOM     29  H20 MZA d   1      12.568   8.028  24.170  0.00  0.00     0.087 H 
ATOM     30 CL1  MZA d   1      13.746   6.867  26.448  0.00  0.00    -0.084 Cl
ATOM     31  C21 MZA d   1      11.100   6.750  26.948  0.00  0.00    -0.061 A 
ATOM     32  H22 MZA d   1      11.384   6.278  27.882  0.00  0.00     0.086 H 
ATOM     33  H21 MZA d   1       9.020   6.634  27.368  0.00  0.00     0.084 H 
ENDBRANCH  14  17
ENDBRANCH  12  14
ENDBRANCH   6  12
BRANCH   1  34
ATOM     34  C8  MZA d   1       6.691   3.375  20.520  0.00  0.00     0.076 A 
ATOM     35  C7  MZA d   1       7.505   3.647  19.411  0.00  0.00     0.150 A 
ATOM     36  F1  MZA d   1       7.649   4.920  19.005  0.00  0.00    -0.203 F 
ATOM     37  C6  MZA d   1       8.161   2.614  18.718  0.00  0.00    -0.008 A 
ATOM     38  C5  MZA d   1       9.039   2.924  17.513  0.00  0.00    -0.015 C 
ATOM     39  C11 MZA d   1       7.991   1.285  19.172  0.00  0.00    -0.023 A 
ATOM     40  C1  MZA d   1       9.836   1.721  17.050  0.00  0.00     0.086 C 
ATOM     41  H1  MZA d   1       9.739   3.728  17.784  0.00  0.00     0.042 H 
ATOM     42  H2  MZA d   1       8.397   3.261  16.686  0.00  0.00     0.042 H 
ATOM     43  N1  MZA d   1       9.022   0.487  17.069  0.00  0.00    -0.071 N 
ATOM     44  H3  MZA d   1      10.701   1.588  17.717  0.00  0.00     0.076 H 
ATOM     45  H4  MZA d   1      10.188   1.900  16.023  0.00  0.00     0.076 H 
ATOM     46  C3  MZA d   1       8.677   0.132  18.465  0.00  0.00     0.106 C 
ATOM     47  H5  MZA d   1       9.547  -0.266  16.653  0.00  0.00     0.277 HD
ATOM     48  H6  MZA d   1       8.175   0.637  16.543  0.00  0.00     0.277 HD
ATOM     49  H7  MZA d   1       9.599  -0.124  19.008  0.00  0.00     0.083 H 
ATOM     50  H8  MZA d   1       8.002  -0.737  18.458  0.00  0.00     0.083 H 
ATOM     51  C10 MZA d   1       7.188   0.992  20.280  0.00  0.00    -0.072 A 
ATOM     52  C9  MZA d   1       6.544   2.035  20.948  0.00  0.00    -0.053 A 
ATOM     53  H9  MZA d   1       7.068  -0.032  20.615  0.00  0.00     0.084 H 
ATOM     54  H10 MZA d   1       5.922   1.815  21.808  0.00  0.00     0.087 H 
ENDBRANCH   1  34
TORSDOF 4
