REMARK  7 active torsions:
REMARK  status: ('A' for Active; 'I' for Inactive)
REMARK    1  A    between atoms: N2_3  and  C8_4 
REMARK    2  A    between atoms: C3_12  and  N1_13 
REMARK    3  A    between atoms: N1_13  and  C2_14 
REMARK    4  A    between atoms: N1_13  and  C1_15 
REMARK    5  A    between atoms: C14_16  and  N3_19 
REMARK    6  A    between atoms: N3_19  and  S1_20 
REMARK    7  A    between atoms: S1_20  and  C15_23 
ROOT
ATOM      1  O3  C0Z d   1       7.974   6.345  21.750  0.00  0.00    -0.271 OA
ATOM      2  C25 C0Z d   1       6.862   5.937  22.018  0.00  0.00     0.247 C 
ATOM      3  N2  C0Z d   1       6.300   4.785  21.561  0.00  0.00    -0.316 N 
ATOM      4  C14 C0Z d   1       5.903   6.616  22.965  0.00  0.00     0.099 C 
ATOM      5  C13 C0Z d   1       4.543   5.979  22.600  0.00  0.00    -0.022 C 
ATOM      6  C12 C0Z d   1       4.956   4.577  22.129  0.00  0.00     0.005 C 
ATOM      7  H16 C0Z d   1       6.165   6.381  24.007  0.00  0.00     0.088 H 
ATOM      8  H17 C0Z d   1       4.044   6.539  21.795  0.00  0.00     0.039 H 
ATOM      9  H18 C0Z d   1       3.880   5.926  23.476  0.00  0.00     0.039 H 
ATOM     10  H19 C0Z d   1       4.991   3.873  22.974  0.00  0.00     0.065 H 
ATOM     11  H20 C0Z d   1       4.261   4.199  21.365  0.00  0.00     0.065 H 
ENDROOT
BRANCH   3  12
ATOM     12  C8  C0Z d   1       6.908   3.835  20.720  0.00  0.00     0.037 A 
ATOM     13  C7  C0Z d   1       7.971   4.143  19.870  0.00  0.00    -0.050 A 
ATOM     14  C6  C0Z d   1       8.537   3.145  19.081  0.00  0.00    -0.048 A 
ATOM     15  H1  C0Z d   1       8.355   5.156  19.824  0.00  0.00     0.087 H 
ATOM     16  C11 C0Z d   1       8.045   1.847  19.117  0.00  0.00    -0.021 A 
ATOM     17  C5  C0Z d   1       9.672   3.227  18.095  0.00  0.00    -0.038 C 
ATOM     18  C10 C0Z d   1       6.999   1.538  19.975  0.00  0.00    -0.072 A 
ATOM     19  C3  C0Z d   1       8.815   0.948  18.159  0.00  0.00     0.129 C 
ATOM     20  C9  C0Z d   1       6.434   2.517  20.764  0.00  0.00    -0.056 A 
ATOM     21  H3  C0Z d   1       6.625   0.522  20.025  0.00  0.00     0.084 H 
ATOM     22  H2  C0Z d   1       5.614   2.264  21.426  0.00  0.00     0.086 H 
ATOM     23  C4  C0Z d   1      10.107   1.758  17.907  0.00  0.00    -0.030 C 
ATOM     24  H8  C0Z d   1       9.054   0.001  18.665  0.00  0.00     0.092 H 
ATOM     25  H6  C0Z d   1      10.887   1.486  18.633  0.00  0.00     0.036 H 
ATOM     26  H7  C0Z d   1      10.481   1.589  16.887  0.00  0.00     0.036 H 
ATOM     27  H4  C0Z d   1      10.498   3.831  18.498  0.00  0.00     0.040 H 
ATOM     28  H5  C0Z d   1       9.332   3.660  17.142  0.00  0.00     0.040 H 
BRANCH  19  29
ATOM     29  N1  C0Z d   1       8.121   0.609  16.873  0.00  0.00    -0.070 N 
ATOM     30  H9  C0Z d   1       8.737   0.040  16.314  0.00  0.00     0.279 HD
BRANCH  29  31
ATOM     31  C2  C0Z d   1       7.710   1.800  16.097  0.00  0.00     0.067 C 
ATOM     32  H10 C0Z d   1       7.210   1.480  15.171  0.00  0.00     0.068 H 
ATOM     33  H11 C0Z d   1       8.598   2.398  15.846  0.00  0.00     0.068 H 
ATOM     34  H12 C0Z d   1       7.016   2.407  16.697  0.00  0.00     0.068 H 
ENDBRANCH  29  31
BRANCH  29  35
ATOM     35  C1  C0Z d   1       6.871  -0.123  17.164  0.00  0.00     0.067 C 
ATOM     36  H13 C0Z d   1       7.103  -1.028  17.744  0.00  0.00     0.068 H 
ATOM     37  H14 C0Z d   1       6.384  -0.407  16.220  0.00  0.00     0.068 H 
ATOM     38  H15 C0Z d   1       6.195   0.522  17.745  0.00  0.00     0.068 H 
ENDBRANCH  29  35
ENDBRANCH  19  29
ENDBRANCH   3  12
BRANCH   4  39
ATOM     39  N3  C0Z d   1       5.904   8.066  22.805  0.00  0.00    -0.301 N 
ATOM     40  H21 C0Z d   1       5.645   8.458  21.922  0.00  0.00     0.173 HD
BRANCH  39  41
ATOM     41  S1  C0Z d   1       6.311   9.051  24.010  0.00  0.00     0.259 S 
ATOM     42  O1  C0Z d   1       6.174  10.342  23.447  0.00  0.00    -0.201 OA
ATOM     43  O2  C0Z d   1       5.583   8.737  25.192  0.00  0.00    -0.201 OA
BRANCH  41  44
ATOM     44  C15 C0Z d   1       8.020   8.775  24.366  0.00  0.00     0.080 A 
ATOM     45  C24 C0Z d   1       8.371   8.106  25.510  0.00  0.00    -0.050 A 
ATOM     46  C23 C0Z d   1       9.735   7.874  25.801  0.00  0.00    -0.024 A 
ATOM     47  H22 C0Z d   1       7.604   7.755  26.191  0.00  0.00     0.087 H 
ATOM     48  C18 C0Z d   1      10.717   8.344  24.876  0.00  0.00    -0.024 A 
ATOM     49  C22 C0Z d   1      10.146   7.191  26.970  0.00  0.00    -0.071 A 
ATOM     50  C17 C0Z d   1      10.315   9.022  23.706  0.00  0.00    -0.071 A 
ATOM     51  C19 C0Z d   1      12.078   8.114  25.148  0.00  0.00    -0.051 A 
ATOM     52  C16 C0Z d   1       8.986   9.236  23.467  0.00  0.00    -0.059 A 
ATOM     53  H23 C0Z d   1      11.058   9.372  22.998  0.00  0.00     0.084 H 
ATOM     54  H24 C0Z d   1       8.679   9.767  22.573  0.00  0.00     0.085 H 
ATOM     55  C20 C0Z d   1      12.439   7.456  26.293  0.00  0.00     0.034 A 
ATOM     56  H27 C0Z d   1      12.837   8.456  24.454  0.00  0.00     0.087 H 
ATOM     57  C21 C0Z d   1      11.488   6.985  27.202  0.00  0.00    -0.061 A 
ATOM     58 CL1  C0Z d   1      14.138   7.193  26.572  0.00  0.00    -0.084 Cl
ATOM     59  H26 C0Z d   1      11.807   6.456  28.093  0.00  0.00     0.086 H 
ATOM     60  H25 C0Z d   1       9.409   6.832  27.679  0.00  0.00     0.084 H 
ENDBRANCH  41  44
ENDBRANCH  39  41
ENDBRANCH   4  39
TORSDOF 7
