REMARK  7 active torsions:
REMARK  status: ('A' for Active; 'I' for Inactive)
REMARK    1  A    between atoms: N2_3  and  C8_4 
REMARK    2  A    between atoms: C3_12  and  N1_13 
REMARK    3  A    between atoms: N1_13  and  C2_14 
REMARK    4  A    between atoms: N1_13  and  C1_15 
REMARK    5  A    between atoms: C14_16  and  N3_19 
REMARK    6  A    between atoms: N3_19  and  S1_20 
REMARK    7  A    between atoms: S1_20  and  C15_23 
ROOT
ATOM      1  O3  439 d   1       8.006   6.645  21.584  0.00  0.00    -0.271 OA
ATOM      2  C25 439 d   1       6.919   6.139  21.765  0.00  0.00     0.247 C 
ATOM      3  N2  439 d   1       6.468   5.031  21.137  0.00  0.00    -0.316 N 
ATOM      4  C14 439 d   1       5.875   6.612  22.752  0.00  0.00     0.099 C 
ATOM      5  C13 439 d   1       4.587   5.932  22.238  0.00  0.00    -0.022 C 
ATOM      6  C12 439 d   1       5.096   4.670  21.523  0.00  0.00     0.005 C 
ATOM      7  H16 439 d   1       6.115   6.259  23.766  0.00  0.00     0.088 H 
ATOM      8  H17 439 d   1       4.050   6.589  21.538  0.00  0.00     0.039 H 
ATOM      9  H18 439 d   1       3.924   5.667  23.075  0.00  0.00     0.039 H 
ATOM     10  H19 439 d   1       5.092   3.804  22.201  0.00  0.00     0.065 H 
ATOM     11  H20 439 d   1       4.484   4.445  20.637  0.00  0.00     0.065 H 
ENDROOT
BRANCH   3  12
ATOM     12  C8  439 d   1       7.206   4.239  20.247  0.00  0.00     0.037 A 
ATOM     13  C7  439 d   1       7.235   2.865  20.460  0.00  0.00    -0.050 A 
ATOM     14  C6  439 d   1       7.950   2.036  19.614  0.00  0.00    -0.048 A 
ATOM     15  H1  439 d   1       6.692   2.440  21.297  0.00  0.00     0.087 H 
ATOM     16  C11 439 d   1       8.645   2.563  18.537  0.00  0.00    -0.021 A 
ATOM     17  C5  439 d   1       8.123   0.534  19.659  0.00  0.00    -0.038 C 
ATOM     18  C10 439 d   1       8.624   3.949  18.323  0.00  0.00    -0.072 A 
ATOM     19  C3  439 d   1       9.343   1.444  17.768  0.00  0.00     0.129 C 
ATOM     20  C9  439 d   1       7.906   4.784  19.167  0.00  0.00    -0.056 A 
ATOM     21  H3  439 d   1       9.174   4.372  17.490  0.00  0.00     0.084 H 
ATOM     22  H2  439 d   1       7.888   5.853  18.990  0.00  0.00     0.086 H 
ATOM     23  C4  439 d   1       9.356   0.271  18.771  0.00  0.00    -0.030 C 
ATOM     24  H8  439 d   1      10.384   1.753  17.590  0.00  0.00     0.092 H 
ATOM     25  H6  439 d   1       9.264  -0.693  18.248  0.00  0.00     0.036 H 
ATOM     26  H7  439 d   1      10.279   0.277  19.370  0.00  0.00     0.036 H 
ATOM     27  H4  439 d   1       7.235   0.026  19.255  0.00  0.00     0.040 H 
ATOM     28  H5  439 d   1       8.303   0.192  20.689  0.00  0.00     0.040 H 
BRANCH  19  29
ATOM     29  N1  439 d   1       8.785   1.127  16.431  0.00  0.00    -0.070 N 
ATOM     30  H9  439 d   1       9.171   0.256  16.102  0.00  0.00     0.279 HD
BRANCH  29  31
ATOM     31  C2  439 d   1       9.143   2.228  15.520  0.00  0.00     0.067 C 
ATOM     32  H10 439 d   1       8.741   2.020  14.518  0.00  0.00     0.068 H 
ATOM     33  H11 439 d   1      10.238   2.317  15.465  0.00  0.00     0.068 H 
ATOM     34  H12 439 d   1       8.717   3.169  15.897  0.00  0.00     0.068 H 
ENDBRANCH  29  31
BRANCH  29  35
ATOM     35  C1  439 d   1       7.306   1.041  16.452  0.00  0.00     0.067 C 
ATOM     36  H13 439 d   1       6.996   0.227  17.124  0.00  0.00     0.068 H 
ATOM     37  H14 439 d   1       6.936   0.839  15.436  0.00  0.00     0.068 H 
ATOM     38  H15 439 d   1       6.888   1.993  16.812  0.00  0.00     0.068 H 
ENDBRANCH  29  35
ENDBRANCH  19  29
ENDBRANCH   3  12
BRANCH   4  39
ATOM     39  N3  439 d   1       5.772   8.070  22.780  0.00  0.00    -0.301 N 
ATOM     40  H21 439 d   1       5.417   8.533  21.968  0.00  0.00     0.173 HD
BRANCH  39  41
ATOM     41  S1  439 d   1       6.198   8.976  24.046  0.00  0.00     0.259 S 
ATOM     42  O1  439 d   1       6.036  10.277  23.507  0.00  0.00    -0.201 OA
ATOM     43  O2  439 d   1       5.483   8.568  25.205  0.00  0.00    -0.201 OA
BRANCH  41  44
ATOM     44  C15 439 d   1       7.918   8.701  24.374  0.00  0.00     0.080 A 
ATOM     45  C24 439 d   1       8.294   8.060  25.527  0.00  0.00    -0.050 A 
ATOM     46  C23 439 d   1       9.671   7.826  25.784  0.00  0.00    -0.024 A 
ATOM     47  H22 439 d   1       7.544   7.734  26.238  0.00  0.00     0.087 H 
ATOM     48  C18 439 d   1      10.625   8.265  24.818  0.00  0.00    -0.024 A 
ATOM     49  C22 439 d   1      10.115   7.177  26.959  0.00  0.00    -0.071 A 
ATOM     50  C17 439 d   1      10.195   8.906  23.637  0.00  0.00    -0.071 A 
ATOM     51  C19 439 d   1      11.992   8.028  25.057  0.00  0.00    -0.051 A 
ATOM     52  C16 439 d   1       8.861   9.126  23.432  0.00  0.00    -0.059 A 
ATOM     53  H23 439 d   1      10.919   9.223  22.895  0.00  0.00     0.084 H 
ATOM     54  H24 439 d   1       8.532   9.634  22.533  0.00  0.00     0.085 H 
ATOM     55  C20 439 d   1      12.377   7.402  26.203  0.00  0.00     0.034 A 
ATOM     56  H27 439 d   1      12.734   8.342  24.332  0.00  0.00     0.087 H 
ATOM     57  C21 439 d   1      11.456   6.971  27.153  0.00  0.00    -0.061 A 
ATOM     58 CL1  439 d   1      14.084   7.140  26.437  0.00  0.00    -0.084 Cl
ATOM     59  H26 439 d   1      11.801   6.470  28.050  0.00  0.00     0.086 H 
ATOM     60  H25 439 d   1       9.399   6.844  27.702  0.00  0.00     0.084 H 
ENDBRANCH  41  44
ENDBRANCH  39  41
ENDBRANCH   4  39
TORSDOF 7
