REMARK  5 active torsions:
REMARK  status: ('A' for Active; 'I' for Inactive)
REMARK    1  A    between atoms: C11_6  and  C28_33 
REMARK    2  A    between atoms: C8_9  and  N2_10 
REMARK    3  A    between atoms: C14_15  and  N3_16 
REMARK    4  A    between atoms: N3_16  and  S1_17 
REMARK    5  A    between atoms: S1_17  and  C15_21 
ROOT
ATOM      1  N2  931 d   1       6.310   4.886  21.657  0.00  0.00    -0.313 N 
ATOM      2  C25 931 d   1       6.827   5.966  22.280  0.00  0.00     0.247 C 
ATOM      3  O3  931 d   1       7.951   6.430  22.089  0.00  0.00    -0.271 OA
ATOM      4  C12 931 d   1       4.993   4.517  22.191  0.00  0.00     0.005 C 
ATOM      5  C13 931 d   1       4.521   5.762  22.924  0.00  0.00    -0.022 C 
ATOM      6  C14 931 d   1       5.800   6.506  23.278  0.00  0.00     0.099 C 
ATOM      7  H8  931 d   1       5.078   3.666  22.883  0.00  0.00     0.065 H 
ATOM      8  H9  931 d   1       4.301   4.259  21.376  0.00  0.00     0.065 H 
ATOM      9  H10 931 d   1       3.965   5.490  23.834  0.00  0.00     0.039 H 
ATOM     10  H11 931 d   1       3.881   6.377  22.274  0.00  0.00     0.039 H 
ATOM     11  H12 931 d   1       6.108   6.237  24.299  0.00  0.00     0.088 H 
ENDROOT
BRANCH   1  12
ATOM     12  C8  931 d   1       6.998   4.159  20.629  0.00  0.00     0.076 A 
ATOM     13  C7  931 d   1       7.105   2.769  20.722  0.00  0.00     0.143 A 
ATOM     14  F1  931 d   1       6.558   2.128  21.764  0.00  0.00    -0.204 F 
ATOM     15  C6  931 d   1       7.751   1.997  19.768  0.00  0.00    -0.035 A 
ATOM     16  C11 931 d   1       8.328   2.623  18.659  0.00  0.00    -0.025 A 
ATOM     17  H1  931 d   1       7.808   0.920  19.881  0.00  0.00     0.089 H 
ATOM     18  C10 931 d   1       8.241   4.019  18.551  0.00  0.00    -0.072 A 
ATOM     19  C9  931 d   1       7.587   4.784  19.522  0.00  0.00    -0.053 A 
ATOM     20  H6  931 d   1       8.690   4.515  17.698  0.00  0.00     0.084 H 
ATOM     21  H7  931 d   1       7.536   5.862  19.418  0.00  0.00     0.087 H 
BRANCH  16  22
ATOM     22  C28 931 d   1       9.042   1.817  17.590  0.00  0.00     0.127 C 
ATOM     23  N1  931 d   1       8.105   0.976  16.830  0.00  0.00    -0.067 N 
ATOM     24  C1  931 d   1       8.643  -0.377  16.714  0.00  0.00     0.083 C 
ATOM     25  H4  931 d   1       7.219   0.945  17.309  0.00  0.00     0.277 HD
ATOM     26  H5  931 d   1       7.976   1.366  15.909  0.00  0.00     0.277 HD
ATOM     27  C80 931 d   1      10.011  -0.416  17.391  0.00  0.00    -0.040 C 
ATOM     28  H2  931 d   1       8.747  -0.645  15.652  0.00  0.00     0.075 H 
ATOM     29  H3  931 d   1       7.965  -1.089  17.207  0.00  0.00     0.075 H 
ATOM     30  C70 931 d   1      10.170   0.917  18.105  0.00  0.00    -0.033 C 
ATOM     31  H16 931 d   1      10.805  -0.543  16.640  0.00  0.00     0.035 H 
ATOM     32  H17 931 d   1      10.055  -1.244  18.114  0.00  0.00     0.035 H 
ATOM     33  H14 931 d   1      11.149   1.361  17.870  0.00  0.00     0.036 H 
ATOM     34  H15 931 d   1      10.081   0.780  19.193  0.00  0.00     0.036 H 
ATOM     35  H24 931 d   1       9.491   2.542  16.895  0.00  0.00     0.091 H 
ENDBRANCH  16  22
ENDBRANCH   1  12
BRANCH   6  36
ATOM     36  N3  931 d   1       5.652   7.946  23.233  0.00  0.00    -0.301 N 
ATOM     37  H13 931 d   1       5.254   8.373  22.421  0.00  0.00     0.173 HD
BRANCH  36  38
ATOM     38  S1  931 d   1       6.115   8.868  24.461  0.00  0.00     0.259 S 
ATOM     39  O2  931 d   1       5.417   8.492  25.645  0.00  0.00    -0.201 OA
ATOM     40  O1  931 d   1       5.919  10.166  23.900  0.00  0.00    -0.201 OA
BRANCH  38  41
ATOM     41  C15 931 d   1       7.852   8.621  24.741  0.00  0.00     0.080 A 
ATOM     42  C24 931 d   1       8.279   7.923  25.843  0.00  0.00    -0.050 A 
ATOM     43  C23 931 d   1       9.666   7.725  26.073  0.00  0.00    -0.024 A 
ATOM     44  H18 931 d   1       7.554   7.521  26.541  0.00  0.00     0.087 H 
ATOM     45  C18 931 d   1      10.581   8.253  25.133  0.00  0.00    -0.024 A 
ATOM     46  C22 931 d   1      10.148   7.025  27.210  0.00  0.00    -0.071 A 
ATOM     47  C17 931 d   1      10.114   8.966  24.003  0.00  0.00    -0.071 A 
ATOM     48  C19 931 d   1      11.953   8.057  25.343  0.00  0.00    -0.051 A 
ATOM     49  C16 931 d   1       8.765   9.144  23.810  0.00  0.00    -0.059 A 
ATOM     50  H20 931 d   1      10.821   9.372  23.289  0.00  0.00     0.084 H 
ATOM     51  H19 931 d   1       8.407   9.686  22.942  0.00  0.00     0.085 H 
ATOM     52  C20 931 d   1      12.378   7.373  26.456  0.00  0.00     0.034 A 
ATOM     53  H21 931 d   1      12.674   8.443  24.632  0.00  0.00     0.087 H 
ATOM     54 CL1  931 d   1      14.090   7.152  26.659  0.00  0.00    -0.084 Cl
ATOM     55  C21 931 d   1      11.496   6.849  27.393  0.00  0.00    -0.061 A 
ATOM     56  H23 931 d   1      11.868   6.309  28.256  0.00  0.00     0.086 H 
ATOM     57  H22 931 d   1       9.448   6.628  27.936  0.00  0.00     0.084 H 
ENDBRANCH  38  41
ENDBRANCH  36  38
ENDBRANCH   6  36
TORSDOF 5
