REMARK  5 active torsions:
REMARK  status: ('A' for Active; 'I' for Inactive)
REMARK    1  A    between atoms: C15_3  and  N2_13 
REMARK    2  A    between atoms: C27_6  and  C28_7 
REMARK    3  A    between atoms: C12_16  and  N1_19 
REMARK    4  A    between atoms: N1_19  and  S1_20 
REMARK    5  A    between atoms: S1_20  and  C6_23 
ROOT
ATOM      1  N2  930 d   1       6.158   4.893  21.816  0.00  0.00    -0.313 N 
ATOM      2  C50 930 d   1       6.728   6.021  22.314  0.00  0.00     0.247 C 
ATOM      3  O3  930 d   1       7.845   6.444  22.059  0.00  0.00    -0.271 OA
ATOM      4  C12 930 d   1       5.737   6.693  23.273  0.00  0.00     0.099 C 
ATOM      5  C13 930 d   1       4.410   6.084  22.852  0.00  0.00    -0.022 C 
ATOM      6  C14 930 d   1       4.775   4.734  22.247  0.00  0.00     0.005 C 
ATOM      7  H13 930 d   1       5.966   6.428  24.316  0.00  0.00     0.088 H 
ATOM      8  H14 930 d   1       3.911   6.720  22.106  0.00  0.00     0.039 H 
ATOM      9  H15 930 d   1       3.751   5.953  23.723  0.00  0.00     0.039 H 
ATOM     10  H16 930 d   1       4.691   3.935  22.998  0.00  0.00     0.065 H 
ATOM     11  H17 930 d   1       4.125   4.502  21.391  0.00  0.00     0.065 H 
ENDROOT
BRANCH   1  12
ATOM     12  C15 930 d   1       6.836   3.947  20.978  0.00  0.00     0.076 A 
ATOM     13  C21 930 d   1       7.602   4.308  19.865  0.00  0.00     0.143 A 
ATOM     14  F2  930 d   1       7.736   5.587  19.521  0.00  0.00    -0.204 F 
ATOM     15  C24 930 d   1       8.251   3.383  19.072  0.00  0.00    -0.035 A 
ATOM     16  C27 930 d   1       8.168   2.020  19.381  0.00  0.00    -0.025 A 
ATOM     17  H12 930 d   1       8.824   3.711  18.212  0.00  0.00     0.089 H 
ATOM     18  C26 930 d   1       7.411   1.637  20.487  0.00  0.00    -0.072 A 
ATOM     19  C22 930 d   1       6.757   2.579  21.281  0.00  0.00    -0.053 A 
ATOM     20  H2  930 d   1       7.329   0.585  20.735  0.00  0.00     0.084 H 
ATOM     21  H1  930 d   1       6.183   2.251  22.140  0.00  0.00     0.087 H 
BRANCH  16  22
ATOM     22  C28 930 d   1       8.843   0.975  18.522  0.00  0.00     0.127 C 
ATOM     23  C7  930 d   1      10.100   1.486  17.806  0.00  0.00    -0.033 C 
ATOM     24  C11 930 d   1       9.621   1.867  16.402  0.00  0.00    -0.040 C 
ATOM     25  H4  930 d   1      10.864   0.697  17.754  0.00  0.00     0.036 H 
ATOM     26  H5  930 d   1      10.513   2.363  18.326  0.00  0.00     0.036 H 
ATOM     27  C8  930 d   1       8.187   1.329  16.286  0.00  0.00     0.083 C 
ATOM     28  H6  930 d   1      10.266   1.405  15.639  0.00  0.00     0.035 H 
ATOM     29  H7  930 d   1       9.631   2.960  16.278  0.00  0.00     0.035 H 
ATOM     30  N4  930 d   1       7.963   0.472  17.455  0.00  0.00    -0.067 N 
ATOM     31  H8  930 d   1       8.075   0.745  15.361  0.00  0.00     0.075 H 
ATOM     32  H9  930 d   1       7.468   2.162  16.283  0.00  0.00     0.075 H 
ATOM     33  H10 930 d   1       6.999   0.525  17.745  0.00  0.00     0.277 HD
ATOM     34  H11 930 d   1       8.195  -0.484  17.235  0.00  0.00     0.277 HD
ATOM     35  H3  930 d   1       9.124   0.139  19.179  0.00  0.00     0.091 H 
ENDBRANCH  16  22
ENDBRANCH   1  12
BRANCH   4  36
ATOM     36  N1  930 d   1       5.766   8.144  23.146  0.00  0.00    -0.301 N 
ATOM     37  H18 930 d   1       5.471   8.558  22.285  0.00  0.00     0.173 HD
BRANCH  36  38
ATOM     38  S1  930 d   1       6.257   9.112  24.347  0.00  0.00     0.259 S 
ATOM     39  O2  930 d   1       6.237  10.390  23.721  0.00  0.00    -0.201 OA
ATOM     40  O1  930 d   1       5.510   8.896  25.553  0.00  0.00    -0.201 OA
BRANCH  38  41
ATOM     41  C6  930 d   1       7.956   8.783  24.706  0.00  0.00     0.080 A 
ATOM     42  C16 930 d   1       8.889   9.238  23.759  0.00  0.00    -0.059 A 
ATOM     43  C18 930 d   1      10.246   9.028  23.997  0.00  0.00    -0.071 A 
ATOM     44  H19 930 d   1       8.559   9.744  22.859  0.00  0.00     0.085 H 
ATOM     45  C17 930 d   1      10.647   8.369  25.176  0.00  0.00    -0.024 A 
ATOM     46  H20 930 d   1      10.986   9.368  23.282  0.00  0.00     0.084 H 
ATOM     47  C4  930 d   1       9.694   7.912  26.125  0.00  0.00    -0.024 A 
ATOM     48  C9  930 d   1      12.004   8.152  25.412  0.00  0.00    -0.051 A 
ATOM     49  C5  930 d   1       8.318   8.139  25.867  0.00  0.00    -0.050 A 
ATOM     50  C3  930 d   1      10.123   7.256  27.309  0.00  0.00    -0.071 A 
ATOM     51  H21 930 d   1       7.564   7.811  26.573  0.00  0.00     0.087 H 
ATOM     52  C2  930 d   1      11.461   7.052  27.533  0.00  0.00    -0.061 A 
ATOM     53  H24 930 d   1       9.394   6.917  28.035  0.00  0.00     0.084 H 
ATOM     54  C1  930 d   1      12.395   7.509  26.581  0.00  0.00     0.034 A 
ATOM     55  H23 930 d   1      11.796   6.546  28.431  0.00  0.00     0.086 H 
ATOM     56 CL1  930 d   1      14.101   7.288  26.797  0.00  0.00    -0.084 Cl
ATOM     57  H22 930 d   1      12.745   8.481  24.693  0.00  0.00     0.087 H 
ENDBRANCH  38  41
ENDBRANCH  36  38
ENDBRANCH   4  36
TORSDOF 5
