REMARK  13 active torsions:
REMARK  status: ('A' for Active; 'I' for Inactive)
REMARK    1  A    between atoms: N1_8  and  C1'_9 
REMARK    2  A    between atoms: C1'_9  and  C1_10 
REMARK    3  A    between atoms: C1_10  and  C38_11 
REMARK    4  A    between atoms: C1_10  and  C4'_17 
REMARK       I    between atoms: C38_11  and  N34_12 
REMARK    5  A    between atoms: N34_12  and  C39_13 
REMARK    6  A    between atoms: C39_13  and  C40_14 
REMARK    7  A    between atoms: C40_14  and  O37_15 
REMARK    8  A    between atoms: C4'_17  and  C5'_18 
REMARK    9  A    between atoms: C5'_18  and  O1_19 
REMARK   10  A    between atoms: O1_19  and  C17_20 
REMARK   11  A    between atoms: C17_20  and  C30_21 
REMARK   12  A    between atoms: C17_20  and  C24_27 
REMARK   13  A    between atoms: C17_20  and  C18_33 
ROOT
ATOM      1  O1  DUQ d   1      -9.022  27.266  -2.881  0.00  0.00    -0.365 OA
ENDROOT
BRANCH   1   2
ATOM      2  C5' DUQ d   1      -8.343  28.028  -1.847  0.00  0.00     0.023 C 
ATOM      3  H15 DUQ d   1      -7.631  28.749  -2.275  0.00  0.00     0.074 H 
ATOM      4  H16 DUQ d   1      -9.056  28.558  -1.198  0.00  0.00     0.074 H 
BRANCH   2   5
ATOM      5  C4' DUQ d   1      -7.624  26.895  -1.097  0.00  0.00    -0.032 C 
ATOM      6  H13 DUQ d   1      -7.965  25.942  -1.528  0.00  0.00     0.037 H 
ATOM      7  H14 DUQ d   1      -6.545  27.012  -1.274  0.00  0.00     0.037 H 
BRANCH   5   8
ATOM      8  C1  DUQ d   1      -7.834  26.822   0.388  0.00  0.00     0.041 C 
ATOM      9  H6  DUQ d   1      -7.295  27.693   0.789  0.00  0.00     0.057 H 
BRANCH   8  10
ATOM     10  C1' DUQ d   1      -7.129  25.618   1.046  0.00  0.00     0.015 C 
ATOM     11  H4  DUQ d   1      -7.154  25.727   2.140  0.00  0.00     0.066 H 
ATOM     12  H5  DUQ d   1      -7.640  24.687   0.759  0.00  0.00     0.066 H 
BRANCH  10  13
ATOM     13  N1  DUQ d   1      -5.718  25.578   0.579  0.00  0.00    -0.309 N 
ATOM     14  C2  DUQ d   1      -5.295  24.428  -0.104  0.00  0.00     0.329 A 
ATOM     15  N3  DUQ d   1      -4.047  24.363  -0.621  0.00  0.00    -0.275 N 
ATOM     16  O2  DUQ d   1      -6.141  23.502  -0.176  0.00  0.00    -0.246 OA
ATOM     17  C4  DUQ d   1      -3.192  25.413  -0.462  0.00  0.00     0.250 A 
ATOM     18  H1  DUQ d   1      -3.752  23.547  -1.119  0.00  0.00     0.173 HD
ATOM     19  O4  DUQ d   1      -2.033  25.404  -0.916  0.00  0.00    -0.268 OA
ATOM     20  C5  DUQ d   1      -3.581  26.545   0.204  0.00  0.00    -0.002 A 
ATOM     21  C6  DUQ d   1      -4.891  26.624   0.708  0.00  0.00    -0.011 A 
ATOM     22  H2  DUQ d   1      -2.886  27.372   0.341  0.00  0.00     0.094 H 
ATOM     23  H3  DUQ d   1      -5.232  27.533   1.202  0.00  0.00     0.112 H 
ENDBRANCH  10  13
ENDBRANCH   8  10
BRANCH   8  24
ATOM     24  C38 DUQ d   1      -9.283  27.075   0.780  0.00  0.00     0.223 C 
ATOM     25  N34 DUQ d   1     -10.330  26.626   0.097  0.00  0.00    -0.359 N 
ATOM     26  H7  DUQ d   1     -10.155  26.093  -0.731  0.00  0.00     0.162 HD
ATOM     27  O38 DUQ d   1      -9.424  27.781   1.729  0.00  0.00    -0.273 OA
BRANCH  25  28
ATOM     28  C39 DUQ d   1     -11.730  26.863   0.480  0.00  0.00     0.015 C 
ATOM     29  H8  DUQ d   1     -12.000  27.920   0.335  0.00  0.00     0.067 H 
ATOM     30  H9  DUQ d   1     -11.899  26.582   1.530  0.00  0.00     0.067 H 
BRANCH  28  31
ATOM     31  C40 DUQ d   1     -12.536  25.967  -0.456  0.00  0.00     0.031 C 
ATOM     32  H10 DUQ d   1     -13.552  25.821  -0.060  0.00  0.00     0.076 H 
ATOM     33  H11 DUQ d   1     -12.042  24.991  -0.566  0.00  0.00     0.076 H 
BRANCH  31  34
ATOM     34  O37 DUQ d   1     -12.590  26.645  -1.731  0.00  0.00    -0.399 OA
ATOM     35  H12 DUQ d   1     -13.086  26.119  -2.347  0.00  0.00     0.209 HD
ENDBRANCH  31  34
ENDBRANCH  28  31
ENDBRANCH  25  28
ENDBRANCH   8  24
ENDBRANCH   5   8
ENDBRANCH   2   5
ENDBRANCH   1   2
BRANCH   1  36
ATOM     36  C17 DUQ d   1      -8.463  27.200  -4.217  0.00  0.00     0.142 C 
BRANCH  36  37
ATOM     37  C30 DUQ d   1      -9.272  26.090  -4.862  0.00  0.00    -0.015 A 
ATOM     38  C31 DUQ d   1     -10.461  25.646  -4.245  0.00  0.00    -0.073 A 
ATOM     39  C32 DUQ d   1     -11.188  24.595  -4.847  0.00  0.00    -0.082 A 
ATOM     40  H17 DUQ d   1     -10.810  26.103  -3.326  0.00  0.00     0.084 H 
ATOM     41  C33 DUQ d   1     -10.801  24.014  -6.058  0.00  0.00    -0.083 A 
ATOM     42  H18 DUQ d   1     -12.079  24.226  -4.352  0.00  0.00     0.083 H 
ATOM     43  C34 DUQ d   1      -9.632  24.486  -6.678  0.00  0.00    -0.082 A 
ATOM     44  H19 DUQ d   1     -11.387  23.220  -6.507  0.00  0.00     0.083 H 
ATOM     45  C35 DUQ d   1      -8.916  25.518  -6.086  0.00  0.00    -0.073 A 
ATOM     46  H20 DUQ d   1      -9.292  24.049  -7.610  0.00  0.00     0.083 H 
ATOM     47  H21 DUQ d   1      -8.039  25.898  -6.598  0.00  0.00     0.084 H 
ENDBRANCH  36  37
BRANCH  36  48
ATOM     48  C24 DUQ d   1      -8.861  28.492  -4.918  0.00  0.00    -0.015 A 
ATOM     49  C25 DUQ d   1      -9.890  29.292  -4.352  0.00  0.00    -0.073 A 
ATOM     50  C26 DUQ d   1     -10.302  30.490  -4.978  0.00  0.00    -0.082 A 
ATOM     51  H22 DUQ d   1     -10.365  28.980  -3.429  0.00  0.00     0.084 H 
ATOM     52  C27 DUQ d   1      -9.710  30.858  -6.200  0.00  0.00    -0.083 A 
ATOM     53  H23 DUQ d   1     -11.062  31.115  -4.524  0.00  0.00     0.083 H 
ATOM     54  C28 DUQ d   1      -8.700  30.065  -6.789  0.00  0.00    -0.082 A 
ATOM     55  H24 DUQ d   1     -10.034  31.765  -6.698  0.00  0.00     0.083 H 
ATOM     56  C29 DUQ d   1      -8.277  28.883  -6.144  0.00  0.00    -0.073 A 
ATOM     57  H25 DUQ d   1      -8.253  30.363  -7.731  0.00  0.00     0.083 H 
ATOM     58  H26 DUQ d   1      -7.501  28.273  -6.591  0.00  0.00     0.084 H 
ENDBRANCH  36  48
BRANCH  36  59
ATOM     59  C18 DUQ d   1      -6.931  26.917  -4.130  0.00  0.00    -0.015 A 
ATOM     60  C19 DUQ d   1      -6.450  25.625  -3.804  0.00  0.00    -0.073 A 
ATOM     61  C20 DUQ d   1      -5.040  25.350  -3.660  0.00  0.00    -0.082 A 
ATOM     62  H27 DUQ d   1      -7.161  24.820  -3.659  0.00  0.00     0.084 H 
ATOM     63  C21 DUQ d   1      -4.128  26.382  -3.875  0.00  0.00    -0.083 A 
ATOM     64  H28 DUQ d   1      -4.697  24.358  -3.389  0.00  0.00     0.083 H 
ATOM     65  C22 DUQ d   1      -4.585  27.688  -4.196  0.00  0.00    -0.082 A 
ATOM     66  H29 DUQ d   1      -3.065  26.187  -3.797  0.00  0.00     0.083 H 
ATOM     67  C23 DUQ d   1      -5.969  27.943  -4.314  0.00  0.00    -0.073 A 
ATOM     68  H30 DUQ d   1      -3.871  28.489  -4.350  0.00  0.00     0.083 H 
ATOM     69  H31 DUQ d   1      -6.304  28.946  -4.551  0.00  0.00     0.084 H 
ENDBRANCH  36  59
ENDBRANCH   1  36
TORSDOF 13
