REMARK  10 active torsions:
REMARK  status: ('A' for Active; 'I' for Inactive)
REMARK    1  A    between atoms: C2_2  and  C1_1 
REMARK    2  A    between atoms: C4_4  and  O4_15 
REMARK    3  A    between atoms: N5_12  and  C5_5 
REMARK    4  A    between atoms: C6_6  and  C7_7 
REMARK    5  A    between atoms: C7_7  and  C8_8 
REMARK    6  A    between atoms: C7_7  and  O7_17 
REMARK    7  A    between atoms: C8_8  and  C9_9 
REMARK    8  A    between atoms: C8_8  and  O8_18 
REMARK    9  A    between atoms: C9_9  and  O9_19 
REMARK   10  A    between atoms: C10_10  and  C11_11 
REMARK       I    between atoms: C10_10  and  N5_12 
ROOT
ATOM      1  C2  DAN d   1      14.880 -19.365  43.656  0.00  0.00     0.144 C 
ATOM      2  C3  DAN d   1      13.773 -18.995  42.887  0.00  0.00    -0.035 C 
ATOM      3  C4  DAN d   1      13.991 -18.319  41.505  0.00  0.00     0.076 C 
ATOM      4  C5  DAN d   1      15.344 -18.719  40.914  0.00  0.00     0.068 C 
ATOM      5  C6  DAN d   1      16.447 -18.474  41.972  0.00  0.00     0.094 C 
ATOM      6  O6  DAN d   1      16.163 -19.191  43.217  0.00  0.00    -0.335 OA
ATOM      7  H1  DAN d   1      12.764 -19.179  43.254  0.00  0.00     0.085 H 
ATOM      8  H2  DAN d   1      14.033 -17.234  41.681  0.00  0.00     0.092 H 
ATOM      9  H3  DAN d   1      15.330 -19.787  40.651  0.00  0.00     0.081 H 
ATOM     10  H4  DAN d   1      16.445 -17.395  42.186  0.00  0.00     0.091 H 
ENDROOT
BRANCH   5  11
ATOM     11  C7  DAN d   1      17.873 -18.858  41.540  0.00  0.00     0.089 C 
ATOM     12  H5  DAN d   1      18.171 -18.181  40.726  0.00  0.00     0.091 H 
BRANCH  11  13
ATOM     13  C8  DAN d   1      18.918 -18.743  42.654  0.00  0.00     0.083 C 
ATOM     14  H6  DAN d   1      18.635 -19.407  43.484  0.00  0.00     0.090 H 
BRANCH  13  15
ATOM     15  C9  DAN d   1      20.295 -19.165  42.123  0.00  0.00     0.043 C 
ATOM     16  H7  DAN d   1      20.570 -18.521  41.275  0.00  0.00     0.078 H 
ATOM     17  H8  DAN d   1      20.249 -20.212  41.788  0.00  0.00     0.078 H 
BRANCH  15  18
ATOM     18  O9  DAN d   1      21.282 -19.041  43.147  0.00  0.00    -0.398 OA
ATOM     19  H16 DAN d   1      21.325 -18.137  43.436  0.00  0.00     0.209 HD
ENDBRANCH  15  18
ENDBRANCH  13  15
BRANCH  13  20
ATOM     20  O8  DAN d   1      18.964 -17.394  43.128  0.00  0.00    -0.391 OA
ATOM     21  H15 DAN d   1      19.602 -17.327  43.829  0.00  0.00     0.210 HD
ENDBRANCH  13  20
ENDBRANCH  11  13
BRANCH  11  22
ATOM     22  O7  DAN d   1      17.874 -20.185  41.054  0.00  0.00    -0.390 OA
ATOM     23  H14 DAN d   1      17.659 -20.781  41.762  0.00  0.00     0.210 HD
ENDBRANCH  11  22
ENDBRANCH   5  11
BRANCH   4  24
ATOM     24  N5  DAN d   1      15.583 -17.921  39.687  0.00  0.00    -0.351 N 
ATOM     25  C10 DAN d   1      16.205 -18.427  38.637  0.00  0.00     0.214 C 
ATOM     26  O10 DAN d   1      16.683 -19.570  38.605  0.00  0.00    -0.274 OA
ATOM     27  H12 DAN d   1      15.264 -16.974  39.654  0.00  0.00     0.163 HD
BRANCH  25  28
ATOM     28  C11 DAN d   1      16.349 -17.466  37.438  0.00  0.00    -0.003 C 
ATOM     29  H9  DAN d   1      16.877 -17.977  36.620  0.00  0.00     0.040 H 
ATOM     30  H10 DAN d   1      16.922 -16.579  37.746  0.00  0.00     0.040 H 
ATOM     31  H11 DAN d   1      15.351 -17.157  37.094  0.00  0.00     0.040 H 
ENDBRANCH  25  28
ENDBRANCH   4  24
BRANCH   3  32
ATOM     32  O4  DAN d   1      12.886 -18.543  40.618  0.00  0.00    -0.389 OA
ATOM     33  H13 DAN d   1      13.010 -18.035  39.825  0.00  0.00     0.210 HD
ENDBRANCH   3  32
BRANCH   1  34
ATOM     34  C1  DAN d   1      14.730 -20.015  45.051  0.00  0.00     0.233 C 
ATOM     35  O1A DAN d   1      13.597 -20.251  45.523  0.00  0.00    -0.642 OA
ATOM     36  O1B DAN d   1      15.790 -20.248  45.644  0.00  0.00    -0.642 OA
ENDBRANCH   1  34
TORSDOF 10
