REMARK  10 active torsions:
REMARK  status: ('A' for Active; 'I' for Inactive)
REMARK    1  A    between atoms: C1_1  and  C2_4 
REMARK    2  A    between atoms: C4_6  and  N4_20 
REMARK    3  A    between atoms: C5_7  and  N5_8 
REMARK       I    between atoms: N5_8  and  C10_9 
REMARK    4  A    between atoms: C10_9  and  C11_11 
REMARK    5  A    between atoms: C6_12  and  O7_14 
REMARK    6  A    between atoms: O7_14  and  C8_15 
REMARK    7  A    between atoms: C8_15  and  C9_16 
REMARK    8  A    between atoms: C8_15  and  C81_17 
REMARK    9  A    between atoms: C9_16  and  C91_19 
REMARK   10  A    between atoms: C81_17  and  C82_18 
ROOT
ATOM      1  C2  G39 d   1      15.590 -19.843  43.404  0.00  0.00     0.019 C 
ATOM      2  C3  G39 d   1      14.499 -19.428  42.441  0.00  0.00    -0.006 C 
ATOM      3  C4  G39 d   1      15.074 -18.451  41.404  0.00  0.00     0.126 C 
ATOM      4  C5  G39 d   1      16.284 -19.058  40.721  0.00  0.00     0.068 C 
ATOM      5  C6  G39 d   1      17.397 -19.196  41.750  0.00  0.00     0.077 C 
ATOM      6  C7  G39 d   1      16.889 -19.822  43.040  0.00  0.00    -0.061 C 
ATOM      7  H1  G39 d   1      13.687 -18.936  42.997  0.00  0.00     0.043 H 
ATOM      8  H2  G39 d   1      14.105 -20.318  41.928  0.00  0.00     0.043 H 
ATOM      9  H3  G39 d   1      15.393 -17.535  41.923  0.00  0.00     0.087 H 
ATOM     10  H4  G39 d   1      16.015 -20.055  40.342  0.00  0.00     0.080 H 
ATOM     11  H9  G39 d   1      17.844 -18.213  41.960  0.00  0.00     0.093 H 
ATOM     12  H10 G39 d   1      17.616 -20.280  43.709  0.00  0.00     0.082 H 
ENDROOT
BRANCH   5  13
ATOM     13  O7  G39 d   1      18.354 -20.079  41.195  0.00  0.00    -0.375 OA
BRANCH  13  14
ATOM     14  C8  G39 d   1      19.662 -19.949  41.772  0.00  0.00     0.039 C 
ATOM     15  H11 G39 d   1      19.565 -19.680  42.834  0.00  0.00     0.083 H 
BRANCH  14  16
ATOM     16  C9  G39 d   1      20.474 -18.862  41.062  0.00  0.00    -0.044 C 
ATOM     17  H12 G39 d   1      21.524 -18.939  41.382  0.00  0.00     0.036 H 
ATOM     18  H13 G39 d   1      20.074 -17.878  41.348  0.00  0.00     0.036 H 
BRANCH  16  19
ATOM     19  C91 G39 d   1      20.413 -18.993  39.563  0.00  0.00    -0.074 C 
ATOM     20  H19 G39 d   1      21.009 -18.193  39.100  0.00  0.00     0.027 H 
ATOM     21  H20 G39 d   1      19.368 -18.911  39.230  0.00  0.00     0.027 H 
ATOM     22  H21 G39 d   1      20.817 -19.971  39.264  0.00  0.00     0.027 H 
ENDBRANCH  16  19
ENDBRANCH  14  16
BRANCH  14  23
ATOM     23  C81 G39 d   1      20.364 -21.312  41.653  0.00  0.00    -0.044 C 
ATOM     24  H14 G39 d   1      21.452 -21.171  41.737  0.00  0.00     0.036 H 
ATOM     25  H15 G39 d   1      20.127 -21.760  40.677  0.00  0.00     0.036 H 
BRANCH  23  26
ATOM     26  C82 G39 d   1      19.892 -22.233  42.755  0.00  0.00    -0.074 C 
ATOM     27  H16 G39 d   1      20.399 -23.205  42.663  0.00  0.00     0.027 H 
ATOM     28  H17 G39 d   1      18.805 -22.377  42.672  0.00  0.00     0.027 H 
ATOM     29  H18 G39 d   1      20.129 -21.787  43.732  0.00  0.00     0.027 H 
ENDBRANCH  23  26
ENDBRANCH  14  23
ENDBRANCH  13  14
ENDBRANCH   5  13
BRANCH   4  30
ATOM     30  N5  G39 d   1      16.749 -18.240  39.595  0.00  0.00    -0.352 N 
ATOM     31  C10 G39 d   1      17.047 -18.748  38.396  0.00  0.00     0.214 C 
ATOM     32  O10 G39 d   1      16.822 -19.906  38.058  0.00  0.00    -0.274 OA
ATOM     33  H5  G39 d   1      16.848 -17.254  39.732  0.00  0.00     0.163 HD
BRANCH  31  34
ATOM     34  C11 G39 d   1      17.681 -17.763  37.457  0.00  0.00    -0.003 C 
ATOM     35  H6  G39 d   1      17.894 -18.256  36.497  0.00  0.00     0.040 H 
ATOM     36  H7  G39 d   1      18.619 -17.391  37.895  0.00  0.00     0.040 H 
ATOM     37  H8  G39 d   1      16.994 -16.920  37.291  0.00  0.00     0.040 H 
ENDBRANCH  31  34
ENDBRANCH   4  30
BRANCH   3  38
ATOM     38  N4  G39 d   1      14.047 -18.100  40.440  0.00  0.00    -0.073 N 
ATOM     39  H22 G39 d   1      13.257 -17.700  40.922  0.00  0.00     0.274 HD
ATOM     40  H23 G39 d   1      13.755 -18.927  39.944  0.00  0.00     0.274 HD
ATOM     41  H24 G39 d   1      14.416 -17.429  39.785  0.00  0.00     0.274 HD
ENDBRANCH   3  38
BRANCH   1  42
ATOM     42  C1  G39 d   1      15.263 -20.289  44.764  0.00  0.00     0.205 C 
ATOM     43  O1A G39 d   1      16.174 -20.374  45.635  0.00  0.00    -0.644 OA
ATOM     44  O1B G39 d   1      14.077 -20.556  45.039  0.00  0.00    -0.644 OA
ENDBRANCH   1  42
TORSDOF 10
