REMARK  10 active torsions:
REMARK  status: ('A' for Active; 'I' for Inactive)
REMARK    1  A    between atoms: O4_1  and  C4_2 
REMARK    2  A    between atoms: N1_8  and  C1'_9 
REMARK    3  A    between atoms: C3'_11  and  O3'_12 
REMARK    4  A    between atoms: C4'_14  and  C5'_15 
REMARK    5  A    between atoms: C5'_15  and  O5'_16 
REMARK    6  A    between atoms: O5'_16  and  PA_17 
REMARK    7  A    between atoms: PA_17  and  N3A_20 
REMARK    8  A    between atoms: N3A_20  and  PB_21 
REMARK    9  A    between atoms: PB_21  and  O3B_24 
REMARK   10  A    between atoms: O3B_24  and  PG_25 
ROOT
ATOM      1  C1' DUP d   1     -10.417  30.604  -2.205  0.00  0.00     0.112 C 
ATOM      2  C2' DUP d   1     -10.272  31.976  -1.637  0.00  0.00     0.002 C 
ATOM      3  C3' DUP d   1     -11.601  32.662  -1.804  0.00  0.00     0.066 C 
ATOM      4  O4' DUP d   1     -11.438  30.780  -3.221  0.00  0.00    -0.356 OA
ATOM      5  C4' DUP d   1     -12.340  31.720  -2.707  0.00  0.00     0.087 C 
ATOM      6  H6  DUP d   1     -10.803  29.941  -1.417  0.00  0.00     0.118 H 
ATOM      7  H7  DUP d   1      -9.491  32.529  -2.179  0.00  0.00     0.043 H 
ATOM      8  H8  DUP d   1     -10.008  31.918  -0.571  0.00  0.00     0.043 H 
ATOM      9  H9  DUP d   1     -11.470  33.642  -2.287  0.00  0.00     0.087 H 
ATOM     10  H11 DUP d   1     -13.116  31.214  -2.114  0.00  0.00     0.090 H 
ENDROOT
BRANCH   5  11
ATOM     11  C5' DUP d   1     -12.991  32.364  -3.913  0.00  0.00     0.057 C 
ATOM     12  H12 DUP d   1     -12.235  32.919  -4.487  0.00  0.00     0.079 H 
ATOM     13  H13 DUP d   1     -13.780  33.055  -3.581  0.00  0.00     0.079 H 
BRANCH  11  14
ATOM     14  O5' DUP d   1     -13.565  31.340  -4.738  0.00  0.00    -0.293 OA
BRANCH  14  15
ATOM     15  PA  DUP d   1     -14.453  31.758  -6.061  0.00  0.00     0.368 P 
ATOM     16  O1A DUP d   1     -14.452  30.553  -6.915  0.00  0.00    -0.629 OA
ATOM     17  O2A DUP d   1     -13.883  33.063  -6.569  0.00  0.00    -0.629 OA
BRANCH  15  18
ATOM     18  N3A DUP d   1     -16.044  32.098  -5.657  0.00  0.00    -0.225 N 
ATOM     19  H14 DUP d   1     -16.741  31.488  -6.035  0.00  0.00     0.178 HD
BRANCH  18  20
ATOM     20  PB  DUP d   1     -16.587  33.343  -4.694  0.00  0.00     0.379 P 
ATOM     21  O1B DUP d   1     -15.836  34.727  -4.821  0.00  0.00    -0.629 OA
ATOM     22  O2B DUP d   1     -16.684  32.867  -3.247  0.00  0.00    -0.629 OA
BRANCH  20  23
ATOM     23  O3B DUP d   1     -18.024  33.569  -5.418  0.00  0.00    -0.178 OA
BRANCH  23  24
ATOM     24  PG  DUP d   1     -18.047  33.893  -7.042  0.00  0.00     0.431 P 
ATOM     25  O2G DUP d   1     -18.111  32.577  -7.826  0.00  0.00    -0.616 OA
ATOM     26  O1G DUP d   1     -16.759  34.608  -7.535  0.00  0.00    -0.616 OA
ATOM     27  O3G DUP d   1     -19.270  34.767  -7.064  0.00  0.00    -0.616 OA
ENDBRANCH  23  24
ENDBRANCH  20  23
ENDBRANCH  18  20
ENDBRANCH  15  18
ENDBRANCH  14  15
ENDBRANCH  11  14
ENDBRANCH   5  11
BRANCH   3  28
ATOM     28  O3' DUP d   1     -12.298  32.854  -0.544  0.00  0.00    -0.393 OA
ATOM     29  H10 DUP d   1     -13.127  33.289  -0.705  0.00  0.00     0.210 HD
ENDBRANCH   3  28
BRANCH   1  30
ATOM     30  N1  DUP d   1      -9.200  29.976  -2.715  0.00  0.00    -0.303 N 
ATOM     31  C6  DUP d   1      -9.134  29.600  -4.012  0.00  0.00     0.021 A 
ATOM     32  C5  DUP d   1      -7.988  29.028  -4.501  0.00  0.00    -0.037 A 
ATOM     33  H3  DUP d   1      -9.945  28.875  -4.175  0.00  0.00     0.070 H 
ATOM     34  H4  DUP d   1      -9.321  30.501  -4.614  0.00  0.00     0.070 H 
ATOM     35  C4  DUP d   1      -6.937  28.796  -3.590  0.00  0.00     0.141 A 
ATOM     36  H2  DUP d   1      -7.893  28.763  -5.553  0.00  0.00     0.086 H 
ATOM     37  N3  DUP d   1      -7.056  29.128  -2.286  0.00  0.00    -0.289 N 
ATOM     38  C2  DUP d   1      -8.176  29.701  -1.849  0.00  0.00     0.326 A 
ATOM     39  H5  DUP d   1      -6.306  28.944  -1.651  0.00  0.00     0.172 HD
ATOM     40  O2  DUP d   1      -8.268  30.076  -0.666  0.00  0.00    -0.247 OA
BRANCH  35  41
ATOM     41  O4  DUP d   1      -5.879  28.163  -4.083  0.00  0.00    -0.346 OA
ATOM     42  H1  DUP d   1      -5.784  27.323  -3.650  0.00  0.00     0.219 HD
ENDBRANCH  35  41
ENDBRANCH   1  30
TORSDOF 10
