REMARK  6 active torsions:
REMARK  status: ('A' for Active; 'I' for Inactive)
REMARK    1  A    between atoms: C13_21  and  C14_15 
REMARK    2  A    between atoms: C6_25  and  C7_17 
REMARK    3  A    between atoms: C2_20  and  C1_24 
REMARK       I    between atoms: C5_22  and  N3_30 
REMARK    4  A    between atoms: O2_32  and  C5_22 
REMARK    5  A    between atoms: N3_30  and  C4_23 
REMARK    6  A    between atoms: C6_25  and  O2_32 
ROOT
ATOM      1  C22 WSH d   1       2.468   7.758  17.727  0.00  0.00    -0.082 A 
ATOM      2  C23 WSH d   1       1.303   8.473  17.898  0.00  0.00    -0.081 A 
ATOM      3  C21 WSH d   1       2.987   7.017  18.765  0.00  0.00    -0.069 A 
ATOM      4  C24 WSH d   1       0.653   8.453  19.112  0.00  0.00    -0.056 A 
ATOM      5  C20 WSH d   1       2.341   6.993  19.985  0.00  0.00     0.021 A 
ATOM      6  C25 WSH d   1       1.178   7.717  20.153  0.00  0.00     0.055 A 
ATOM      7  C3  WSH d   1       0.179   6.567  22.135  0.00  0.00     0.179 A 
ATOM      8  C2  WSH d   1      -0.244   8.704  22.013  0.00  0.00     0.131 A 
ATOM      9  C13 WSH d   1       2.922   6.202  21.080  0.00  0.00     0.076 C 
ATOM     10  C4  WSH d   1       0.851   5.278  21.716  0.00  0.00     0.161 C 
ATOM     11  N2  WSH d   1      -0.665   6.865  23.090  0.00  0.00    -0.130 NA
ATOM     12  N1  WSH d   1      -0.935   8.213  23.011  0.00  0.00    -0.135 NA
ATOM     13  N4  WSH d   1       2.303   5.417  21.885  0.00  0.00    -0.254 NA
ATOM     14  N5  WSH d   1       0.477   7.709  21.406  0.00  0.00    -0.280 N 
ATOM     15  H5  WSH d   1       2.978   7.779  16.771  0.00  0.00     0.083 H 
ATOM     16  H8  WSH d   1       0.897   9.052  17.076  0.00  0.00     0.083 H 
ATOM     17  H11 WSH d   1       3.902   6.453  18.625  0.00  0.00     0.085 H 
ATOM     18  H14 WSH d   1      -0.266   9.012  19.248  0.00  0.00     0.087 H 
ATOM     19  H15 WSH d   1       0.607   5.035  20.671  0.00  0.00     0.122 H 
ENDROOT
BRANCH  10  20
ATOM     20  N3  WSH d   1       0.388   4.245  22.600  0.00  0.00    -0.307 N 
ATOM     21  C5  WSH d   1       0.658   2.952  22.360  0.00  0.00     0.362 C 
ATOM     22  O1  WSH d   1       1.290   2.529  21.402  0.00  0.00    -0.238 OA
ATOM     23  H21 WSH d   1      -0.145   4.493  23.409  0.00  0.00     0.167 HD
BRANCH  21  24
ATOM     24  O2  WSH d   1       0.119   2.168  23.336  0.00  0.00    -0.299 OA
BRANCH  24  25
ATOM     25  C6  WSH d   1       0.813   0.932  23.535  0.00  0.00     0.054 C 
ATOM     26  H19 WSH d   1       1.470   0.737  22.674  0.00  0.00     0.082 H 
ATOM     27  H20 WSH d   1       1.418   0.995  24.451  0.00  0.00     0.082 H 
BRANCH  25  28
ATOM     28  C7  WSH d   1      -0.176  -0.177  23.667  0.00  0.00    -0.034 A 
ATOM     29  C12 WSH d   1      -0.708  -0.476  24.899  0.00  0.00    -0.075 A 
ATOM     30  C11 WSH d   1      -1.626  -1.495  25.037  0.00  0.00    -0.082 A 
ATOM     31  H12 WSH d   1      -0.403   0.094  25.769  0.00  0.00     0.084 H 
ATOM     32  C10 WSH d   1      -2.015  -2.220  23.933  0.00  0.00    -0.083 A 
ATOM     33  H6  WSH d   1      -2.041  -1.725  26.012  0.00  0.00     0.083 H 
ATOM     34  C9  WSH d   1      -1.484  -1.925  22.696  0.00  0.00    -0.082 A 
ATOM     35  H2  WSH d   1      -2.738  -3.021  24.037  0.00  0.00     0.083 H 
ATOM     36  C8  WSH d   1      -0.566  -0.904  22.565  0.00  0.00    -0.075 A 
ATOM     37  H7  WSH d   1      -1.788  -2.495  21.826  0.00  0.00     0.083 H 
ATOM     38  H13 WSH d   1      -0.150  -0.673  21.591  0.00  0.00     0.084 H 
ENDBRANCH  25  28
ENDBRANCH  24  25
ENDBRANCH  21  24
ENDBRANCH  10  20
BRANCH   9  39
ATOM     39  C14 WSH d   1       4.400   6.343  21.247  0.00  0.00    -0.007 A 
ATOM     40  C19 WSH d   1       5.020   7.564  21.109  0.00  0.00    -0.071 A 
ATOM     41  C18 WSH d   1       6.382   7.682  21.260  0.00  0.00    -0.082 A 
ATOM     42  H9  WSH d   1       4.428   8.443  20.879  0.00  0.00     0.084 H 
ATOM     43  C17 WSH d   1       7.139   6.574  21.556  0.00  0.00    -0.083 A 
ATOM     44  H3  WSH d   1       6.858   8.649  21.145  0.00  0.00     0.083 H 
ATOM     45  C16 WSH d   1       6.529   5.349  21.697  0.00  0.00    -0.082 A 
ATOM     46  H1  WSH d   1       8.212   6.665  21.678  0.00  0.00     0.083 H 
ATOM     47  C15 WSH d   1       5.163   5.234  21.540  0.00  0.00    -0.071 A 
ATOM     48  H4  WSH d   1       7.122   4.473  21.932  0.00  0.00     0.083 H 
ATOM     49  H10 WSH d   1       4.688   4.266  21.648  0.00  0.00     0.084 H 
ENDBRANCH   9  39
BRANCH   8  50
ATOM     50  C1  WSH d   1      -0.222  10.105  21.561  0.00  0.00    -0.019 C 
ATOM     51  H16 WSH d   1      -0.878  10.708  22.205  0.00  0.00     0.037 H 
ATOM     52  H17 WSH d   1      -0.577  10.161  20.521  0.00  0.00     0.037 H 
ATOM     53  H18 WSH d   1       0.806  10.493  21.619  0.00  0.00     0.037 H 
ENDBRANCH   8  50
TORSDOF 6
