REMARK  8 active torsions:
REMARK  status: ('A' for Active; 'I' for Inactive)
REMARK    1  A    between atoms: C7_7  and  C6_8 
REMARK    2  A    between atoms: C15_14  and  O2_15 
REMARK    3  A    between atoms: O2_15  and  C16_16 
REMARK    4  A    between atoms: C20_22  and  C21_23 
REMARK    5  A    between atoms: C5_24  and  C4_25 
REMARK    6  A    between atoms: C4_25  and  C3_26 
REMARK       I    between atoms: C3_26  and  N1_28 
REMARK    7  A    between atoms: N1_28  and  C2_29 
REMARK    8  A    between atoms: C2_29  and  C1_30 
ROOT
ATOM      1  C6  EAM d   1      20.341  11.414 -11.120  0.00  0.00     0.074 C 
ATOM      2  N2  EAM d   1      21.452  10.849 -11.426  0.00  0.00    -0.275 NA
ATOM      3  C13 EAM d   1      19.071  10.735 -10.777  0.00  0.00     0.023 A 
ATOM      4  C19 EAM d   1      19.027   9.632  -9.932  0.00  0.00     0.055 A 
ATOM      5  C18 EAM d   1      17.811   9.041  -9.647  0.00  0.00    -0.053 A 
ATOM      6  C17 EAM d   1      16.636   9.536 -10.175  0.00  0.00    -0.049 A 
ATOM      7  C15 EAM d   1      16.702  10.638 -11.006  0.00  0.00     0.069 A 
ATOM      8  C14 EAM d   1      17.902  11.242 -11.307  0.00  0.00    -0.036 A 
ATOM      9  N3  EAM d   1      20.233   9.082  -9.368  0.00  0.00    -0.282 N 
ATOM     10  C22 EAM d   1      21.388   8.871 -10.089  0.00  0.00     0.160 A 
ATOM     11  N5  EAM d   1      22.250   8.217  -9.350  0.00  0.00    -0.132 NA
ATOM     12  N4  EAM d   1      21.682   7.977  -8.141  0.00  0.00    -0.135 NA
ATOM     13  C20 EAM d   1      20.473   8.493  -8.153  0.00  0.00     0.131 A 
ATOM     14  C5  EAM d   1      21.507   9.385 -11.508  0.00  0.00     0.100 C 
ATOM     15  H5  EAM d   1      17.779   8.174  -8.998  0.00  0.00     0.087 H 
ATOM     16  H6  EAM d   1      15.684   9.072  -9.943  0.00  0.00     0.087 H 
ATOM     17  H10 EAM d   1      17.928  12.110 -11.956  0.00  0.00     0.089 H 
ATOM     18  H14 EAM d   1      20.662   9.002 -12.100  0.00  0.00     0.089 H 
ENDROOT
BRANCH  14  19
ATOM     19  C4  EAM d   1      22.821   9.005 -12.217  0.00  0.00     0.036 C 
ATOM     20  H15 EAM d   1      22.920   7.911 -12.275  0.00  0.00     0.051 H 
ATOM     21  H16 EAM d   1      23.681   9.422 -11.673  0.00  0.00     0.051 H 
BRANCH  19  22
ATOM     22  C3  EAM d   1      22.742   9.595 -13.598  0.00  0.00     0.220 C 
ATOM     23  O1  EAM d   1      21.666   9.738 -14.160  0.00  0.00    -0.274 OA
ATOM     24  N1  EAM d   1      23.899   9.938 -14.150  0.00  0.00    -0.361 N 
ATOM     25  H17 EAM d   1      24.732   9.830 -13.608  0.00  0.00     0.162 HD
BRANCH  24  26
ATOM     26  C2  EAM d   1      24.019  10.459 -15.491  0.00  0.00    -0.008 C 
ATOM     27  H18 EAM d   1      23.965  11.557 -15.474  0.00  0.00     0.063 H 
ATOM     28  H19 EAM d   1      23.211  10.061 -16.123  0.00  0.00     0.063 H 
BRANCH  26  29
ATOM     29  C1  EAM d   1      25.357  10.017 -16.025  0.00  0.00    -0.061 C 
ATOM     30  H20 EAM d   1      25.486  10.396 -17.049  0.00  0.00     0.029 H 
ATOM     31  H21 EAM d   1      25.404   8.918 -16.032  0.00  0.00     0.029 H 
ATOM     32  H22 EAM d   1      26.157  10.414 -15.383  0.00  0.00     0.029 H 
ENDBRANCH  26  29
ENDBRANCH  24  26
ENDBRANCH  19  22
ENDBRANCH  14  19
BRANCH   1  33
ATOM     33  C7  EAM d   1      20.339  12.901 -11.135  0.00  0.00    -0.007 A 
ATOM     34  C8  EAM d   1      19.758  13.642 -10.124  0.00  0.00    -0.069 A 
ATOM     35  C9  EAM d   1      19.770  15.007 -10.173  0.00  0.00    -0.061 A 
ATOM     36  H2  EAM d   1      19.290  13.137  -9.287  0.00  0.00     0.085 H 
ATOM     37  C10 EAM d   1      20.380  15.603 -11.250  0.00  0.00     0.034 A 
ATOM     38  H1  EAM d   1      19.314  15.600  -9.389  0.00  0.00     0.086 H 
ATOM     39 CL   EAM d   1      20.409  17.337 -11.306  0.00  0.00    -0.084 Cl
ATOM     40  C11 EAM d   1      20.964  14.904 -12.279  0.00  0.00    -0.061 A 
ATOM     41  C12 EAM d   1      20.927  13.537 -12.204  0.00  0.00    -0.069 A 
ATOM     42  H3  EAM d   1      21.433  15.412 -13.114  0.00  0.00     0.086 H 
ATOM     43  H4  EAM d   1      21.368  12.947 -12.999  0.00  0.00     0.085 H 
ENDBRANCH   1  33
BRANCH  13  44
ATOM     44  C21 EAM d   1      19.527   8.452  -7.032  0.00  0.00    -0.019 C 
ATOM     45  H11 EAM d   1      19.984   7.917  -6.186  0.00  0.00     0.037 H 
ATOM     46  H12 EAM d   1      18.611   7.929  -7.344  0.00  0.00     0.037 H 
ATOM     47  H13 EAM d   1      19.277   9.478  -6.725  0.00  0.00     0.037 H 
ENDBRANCH  13  44
BRANCH   7  48
ATOM     48  O2  EAM d   1      15.567  11.203 -11.580  0.00  0.00    -0.356 OA
BRANCH  48  49
ATOM     49  C16 EAM d   1      14.292  10.765 -11.125  0.00  0.00     0.010 C 
ATOM     50  H7  EAM d   1      13.503  11.302 -11.672  0.00  0.00     0.066 H 
ATOM     51  H8  EAM d   1      14.197  10.970 -10.049  0.00  0.00     0.066 H 
ATOM     52  H9  EAM d   1      14.191   9.684 -11.303  0.00  0.00     0.066 H 
ENDBRANCH  48  49
ENDBRANCH   7  48
TORSDOF 8
