REMARK  6 active torsions:
REMARK  status: ('A' for Active; 'I' for Inactive)
REMARK    1  A    between atoms: C13_21  and  C14_15 
REMARK    2  A    between atoms: C6_25  and  C7_17 
REMARK    3  A    between atoms: C2_20  and  C1_24 
REMARK       I    between atoms: C5_22  and  N3_30 
REMARK    4  A    between atoms: O2_32  and  C5_22 
REMARK    5  A    between atoms: N3_30  and  C4_23 
REMARK    6  A    between atoms: C6_25  and  O2_32 
ROOT
ATOM      1  C22 WSH d   1      -8.257  -7.123  -0.032  0.00  0.00    -0.082 A 
ATOM      2  C23 WSH d   1      -8.910  -6.712  -1.174  0.00  0.00    -0.081 A 
ATOM      3  C21 WSH d   1      -8.838  -6.960   1.201  0.00  0.00    -0.069 A 
ATOM      4  C24 WSH d   1     -10.155  -6.129  -1.084  0.00  0.00    -0.056 A 
ATOM      5  C20 WSH d   1     -10.087  -6.374   1.288  0.00  0.00     0.021 A 
ATOM      6  C25 WSH d   1     -10.751  -5.956   0.148  0.00  0.00     0.055 A 
ATOM      7  C3  WSH d   1     -13.107  -5.776   0.933  0.00  0.00     0.179 A 
ATOM      8  C2  WSH d   1     -12.566  -4.312  -0.584  0.00  0.00     0.131 A 
ATOM      9  C13 WSH d   1     -10.692  -6.196   2.638  0.00  0.00     0.076 C 
ATOM     10  C4  WSH d   1     -12.848  -6.886   1.930  0.00  0.00     0.161 C 
ATOM     11  N2  WSH d   1     -14.189  -5.100   0.626  0.00  0.00    -0.130 NA
ATOM     12  N1  WSH d   1     -13.848  -4.179  -0.339  0.00  0.00    -0.135 NA
ATOM     13  N4  WSH d   1     -11.923  -6.380   2.951  0.00  0.00    -0.254 NA
ATOM     14  N5  WSH d   1     -12.046  -5.323   0.195  0.00  0.00    -0.280 N 
ATOM     15  H5  WSH d   1      -7.276  -7.579  -0.108  0.00  0.00     0.083 H 
ATOM     16  H8  WSH d   1      -8.444  -6.848  -2.143  0.00  0.00     0.083 H 
ATOM     17  H11 WSH d   1      -8.323  -7.287   2.097  0.00  0.00     0.085 H 
ATOM     18  H14 WSH d   1     -10.667  -5.806  -1.983  0.00  0.00     0.087 H 
ATOM     19  H15 WSH d   1     -12.444  -7.781   1.434  0.00  0.00     0.122 H 
ENDROOT
BRANCH  10  20
ATOM     20  N3  WSH d   1     -14.095  -7.168   2.591  0.00  0.00    -0.307 N 
ATOM     21  C5  WSH d   1     -14.258  -8.263   3.354  0.00  0.00     0.362 C 
ATOM     22  O1  WSH d   1     -15.280  -8.560   3.960  0.00  0.00    -0.238 OA
ATOM     23  H21 WSH d   1     -14.860  -6.533   2.480  0.00  0.00     0.167 HD
BRANCH  21  24
ATOM     24  O2  WSH d   1     -13.120  -8.999   3.343  0.00  0.00    -0.299 OA
BRANCH  24  25
ATOM     25  C6  WSH d   1     -13.008 -10.099   4.230  0.00  0.00     0.054 C 
ATOM     26  H19 WSH d   1     -13.178  -9.774   5.267  0.00  0.00     0.082 H 
ATOM     27  H20 WSH d   1     -13.737 -10.880   3.966  0.00  0.00     0.082 H 
BRANCH  25  28
ATOM     28  C7  WSH d   1     -11.614 -10.612   4.067  0.00  0.00    -0.034 A 
ATOM     29  C12 WSH d   1     -11.354 -11.945   3.848  0.00  0.00    -0.075 A 
ATOM     30  C11 WSH d   1     -10.057 -12.389   3.702  0.00  0.00    -0.082 A 
ATOM     31  H12 WSH d   1     -12.175 -12.651   3.790  0.00  0.00     0.084 H 
ATOM     32  C10 WSH d   1      -9.016 -11.492   3.767  0.00  0.00    -0.083 A 
ATOM     33  H6  WSH d   1      -9.858 -13.442   3.537  0.00  0.00     0.083 H 
ATOM     34  C9  WSH d   1      -9.278 -10.157   3.981  0.00  0.00    -0.082 A 
ATOM     35  H2  WSH d   1      -7.994 -11.834   3.650  0.00  0.00     0.083 H 
ATOM     36  C8  WSH d   1     -10.570  -9.718   4.132  0.00  0.00    -0.075 A 
ATOM     37  H7  WSH d   1      -8.459  -9.448   4.030  0.00  0.00     0.083 H 
ATOM     38  H13 WSH d   1     -10.768  -8.666   4.303  0.00  0.00     0.084 H 
ENDBRANCH  25  28
ENDBRANCH  24  25
ENDBRANCH  21  24
ENDBRANCH  10  20
BRANCH   9  39
ATOM     39  C14 WSH d   1      -9.825  -5.688   3.745  0.00  0.00    -0.007 A 
ATOM     40  C19 WSH d   1      -8.716  -4.920   3.464  0.00  0.00    -0.071 A 
ATOM     41  C18 WSH d   1      -7.928  -4.438   4.483  0.00  0.00    -0.082 A 
ATOM     42  H9  WSH d   1      -8.463  -4.694   2.434  0.00  0.00     0.084 H 
ATOM     43  C17 WSH d   1      -8.237  -4.720   5.794  0.00  0.00    -0.083 A 
ATOM     44  H3  WSH d   1      -7.059  -3.833   4.252  0.00  0.00     0.083 H 
ATOM     45  C16 WSH d   1      -9.336  -5.487   6.082  0.00  0.00    -0.082 A 
ATOM     46  H1  WSH d   1      -7.614  -4.338   6.595  0.00  0.00     0.083 H 
ATOM     47  C15 WSH d   1     -10.128  -5.968   5.062  0.00  0.00    -0.071 A 
ATOM     48  H4  WSH d   1      -9.582  -5.715   7.113  0.00  0.00     0.083 H 
ATOM     49  H10 WSH d   1     -10.997  -6.572   5.296  0.00  0.00     0.084 H 
ENDBRANCH   9  39
BRANCH   8  50
ATOM     50  C1  WSH d   1     -11.776  -3.510  -1.552  0.00  0.00    -0.019 C 
ATOM     51  H16 WSH d   1     -12.432  -2.773  -2.039  0.00  0.00     0.037 H 
ATOM     52  H17 WSH d   1     -11.344  -4.176  -2.313  0.00  0.00     0.037 H 
ATOM     53  H18 WSH d   1     -10.967  -2.986  -1.021  0.00  0.00     0.037 H 
ENDBRANCH   8  50
TORSDOF 6
