REMARK  4 active torsions:
REMARK  status: ('A' for Active; 'I' for Inactive)
REMARK    1  A    between atoms: C1_1  and  C2_4 
REMARK    2  A    between atoms: C2_4  and  O2_5 
REMARK    3  A    between atoms: C2_4  and  C3_6 
REMARK    4  A    between atoms: C3_6  and  C4_7 
ROOT
ATOM      1  C2  LMR d   1     -61.638  27.225  18.980  0.00  0.00     0.128 C 
ATOM      2  H1  LMR d   1     -62.106  26.558  19.719  0.00  0.00     0.100 H 
ENDROOT
BRANCH   1   3
ATOM      3  C1  LMR d   1     -60.161  27.027  18.984  0.00  0.00     0.203 C 
ATOM      4  O1A LMR d   1     -59.413  28.013  18.757  0.00  0.00    -0.646 OA
ATOM      5  O1B LMR d   1     -59.691  25.887  19.248  0.00  0.00    -0.646 OA
ENDBRANCH   1   3
BRANCH   1   6
ATOM      6  O2  LMR d   1     -61.878  28.570  19.334  0.00  0.00    -0.384 OA
ATOM      7  H2  LMR d   1     -61.520  28.738  20.198  0.00  0.00     0.210 HD
ENDBRANCH   1   6
BRANCH   1   8
ATOM      8  C3  LMR d   1     -62.205  26.916  17.599  0.00  0.00     0.049 C 
ATOM      9  H3  LMR d   1     -62.018  25.860  17.355  0.00  0.00     0.053 H 
ATOM     10  H4  LMR d   1     -61.716  27.558  16.851  0.00  0.00     0.053 H 
BRANCH   8  11
ATOM     11  C4  LMR d   1     -63.690  27.177  17.590  0.00  0.00     0.175 C 
ATOM     12  O4A LMR d   1     -64.208  27.876  16.690  0.00  0.00    -0.648 OA
ATOM     13  O4B LMR d   1     -64.424  26.699  18.484  0.00  0.00    -0.648 OA
ENDBRANCH   8  11
ENDBRANCH   1   8
TORSDOF 4
