REMARK  7 active torsions:
REMARK  status: ('A' for Active; 'I' for Inactive)
REMARK    1  A    between atoms: C17_7  and  C21_10 
REMARK    2  A    between atoms: C21_10  and  C1_11 
REMARK    3  A    between atoms: C21_10  and  O27_12 
REMARK    4  A    between atoms: O27_12  and  C15_13 
REMARK    5  A    between atoms: C19_15  and  N22_16 
REMARK    6  A    between atoms: C14_19  and  C16_20 
REMARK    7  A    between atoms: N26_23  and  C20_25 
ROOT
ATOM      1  C15 VGH d   1      30.075  44.298   9.031  0.00  0.00     0.116 A 
ATOM      2  C4  VGH d   1      29.967  45.533   8.304  0.00  0.00    -0.035 A 
ATOM      3  C19 VGH d   1      29.021  44.025   9.964  0.00  0.00     0.154 A 
ATOM      4  N23 VGH d   1      27.964  44.848  10.184  0.00  0.00    -0.240 NA
ATOM      5  C5  VGH d   1      27.892  46.012   9.479  0.00  0.00     0.015 A 
ATOM      6  C14 VGH d   1      28.871  46.416   8.518  0.00  0.00    -0.003 A 
ATOM      7  H7  VGH d   1      30.732  45.796   7.582  0.00  0.00     0.089 H 
ATOM      8  H10 VGH d   1      27.047  46.667   9.656  0.00  0.00     0.116 H 
ENDROOT
BRANCH   6   9
ATOM      9  C16 VGH d   1      28.763  47.718   7.745  0.00  0.00     0.012 A 
ATOM     10  C6  VGH d   1      29.828  48.430   7.031  0.00  0.00     0.034 A 
ATOM     11  N24 VGH d   1      29.334  49.494   6.499  0.00  0.00    -0.184 NA
ATOM     12  H11 VGH d   1      30.867  48.111   6.962  0.00  0.00     0.118 H 
ATOM     13  N26 VGH d   1      28.076  49.574   6.772  0.00  0.00    -0.276 N 
ATOM     14  C7  VGH d   1      27.627  48.495   7.557  0.00  0.00     0.011 A 
ATOM     15  H12 VGH d   1      26.621  48.312   7.931  0.00  0.00     0.115 H 
BRANCH  13  16
ATOM     16  C20 VGH d   1      27.235  50.696   6.291  0.00  0.00     0.037 C 
ATOM     17  C8  VGH d   1      26.894  51.649   7.455  0.00  0.00    -0.022 C 
ATOM     18  C10 VGH d   1      26.017  52.809   6.929  0.00  0.00     0.084 C 
ATOM     19  H14 VGH d   1      27.823  52.055   7.881  0.00  0.00     0.038 H 
ATOM     20  H15 VGH d   1      26.345  51.097   8.232  0.00  0.00     0.038 H 
ATOM     21  N25 VGH d   1      24.788  52.320   6.239  0.00  0.00    -0.075 N 
ATOM     22  H16 VGH d   1      26.608  53.406   6.219  0.00  0.00     0.075 H 
ATOM     23  H17 VGH d   1      25.718  53.440   7.779  0.00  0.00     0.075 H 
ATOM     24  C11 VGH d   1      25.088  51.361   5.138  0.00  0.00     0.084 C 
ATOM     25  H18 VGH d   1      24.299  53.112   5.852  0.00  0.00     0.277 HD
ATOM     26  H19 VGH d   1      24.200  51.860   6.916  0.00  0.00     0.277 HD
ATOM     27  C9  VGH d   1      25.941  50.167   5.624  0.00  0.00    -0.022 C 
ATOM     28  H20 VGH d   1      25.638  51.891   4.346  0.00  0.00     0.075 H 
ATOM     29  H21 VGH d   1      24.140  50.978   4.733  0.00  0.00     0.075 H 
ATOM     30  H22 VGH d   1      25.366  49.578   6.354  0.00  0.00     0.038 H 
ATOM     31  H23 VGH d   1      26.204  49.531   4.766  0.00  0.00     0.038 H 
ATOM     32  H13 VGH d   1      27.806  51.259   5.538  0.00  0.00     0.076 H 
ENDBRANCH  13  16
ENDBRANCH   6   9
BRANCH   1  33
ATOM     33  O27 VGH d   1      31.097  43.355   8.878  0.00  0.00    -0.338 OA
BRANCH  33  34
ATOM     34  C21 VGH d   1      32.385  43.580   8.202  0.00  0.00     0.070 C 
ATOM     35  H3  VGH d   1      32.186  43.893   7.166  0.00  0.00     0.091 H 
BRANCH  34  36
ATOM     36  C17 VGH d   1      33.298  44.672   8.863  0.00  0.00     0.017 A 
ATOM     37  C13 VGH d   1      33.697  45.839   8.091  0.00  0.00     0.044 A 
ATOM     38 CL   VGH d   1      33.207  46.107   6.444  0.00  0.00    -0.084 Cl
ATOM     39  C3  VGH d   1      34.530  46.834   8.678  0.00  0.00    -0.058 A 
ATOM     40  C2  VGH d   1      34.987  46.712  10.014  0.00  0.00    -0.042 A 
ATOM     41  H1  VGH d   1      34.819  47.699   8.093  0.00  0.00     0.086 H 
ATOM     42  C12 VGH d   1      34.621  45.589  10.803  0.00  0.00     0.138 A 
ATOM     43  H2  VGH d   1      35.621  47.482  10.437  0.00  0.00     0.088 H 
ATOM     44  F   VGH d   1      35.076  45.508  12.065  0.00  0.00    -0.204 F 
ATOM     45  C18 VGH d   1      33.780  44.563  10.249  0.00  0.00     0.083 A 
ATOM     46 CL2  VGH d   1      33.379  43.219  11.297  0.00  0.00    -0.080 Cl
ENDBRANCH  34  36
BRANCH  34  47
ATOM     47  C1  VGH d   1      33.100  42.219   8.198  0.00  0.00    -0.048 C 
ATOM     48  H4  VGH d   1      32.449  41.464   7.732  0.00  0.00     0.031 H 
ATOM     49  H5  VGH d   1      33.326  41.920   9.232  0.00  0.00     0.031 H 
ATOM     50  H6  VGH d   1      34.036  42.298   7.626  0.00  0.00     0.031 H 
ENDBRANCH  34  47
ENDBRANCH  33  34
ENDBRANCH   1  33
BRANCH   3  51
ATOM     51  N22 VGH d   1      29.060  42.827  10.707  0.00  0.00    -0.382 N 
ATOM     52  H8  VGH d   1      28.311  42.615  11.382  0.00  0.00     0.157 HD
ATOM     53  H9  VGH d   1      29.837  42.164  10.575  0.00  0.00     0.157 HD
ENDBRANCH   3  51
TORSDOF 7
