REMARK  13 active torsions:
REMARK  status: ('A' for Active; 'I' for Inactive)
REMARK    1  A    between atoms: C6_6  and  O25_25 
REMARK    2  A    between atoms: C8_8  and  C27_27 
REMARK    3  A    between atoms: C10_10  and  O28_28 
REMARK    4  A    between atoms: C11_11  and  O30_30 
REMARK    5  A    between atoms: C12_12  and  C31_31 
REMARK    6  A    between atoms: C14_14  and  C32_32 
REMARK    7  A    between atoms: C15_15  and  O33_33 
REMARK    8  A    between atoms: C16_16  and  O37_37 
REMARK    9  A    between atoms: C20_20  and  C39_39 
REMARK   10  A    between atoms: O25_25  and  C26_26 
REMARK   11  A    between atoms: O28_28  and  C29_29 
REMARK   12  A    between atoms: O33_33  and  C34_34 
REMARK       I    between atoms: C34_34  and  N36_36 
REMARK   13  A    between atoms: O37_37  and  C38_38 
ROOT
ATOM      1  C1  GDM d   1      25.894 -34.136  -5.636  0.00  0.00     0.042 A 
ATOM      2  C2  GDM d   1      26.024 -33.919  -4.129  0.00  0.00     0.183 A 
ATOM      3  C3  GDM d   1      25.439 -32.657  -3.495  0.00  0.00     0.085 A 
ATOM      4  C4  GDM d   1      24.768 -31.641  -4.310  0.00  0.00    -0.007 A 
ATOM      5  C5  GDM d   1      24.650 -31.848  -5.822  0.00  0.00     0.181 A 
ATOM      6  C6  GDM d   1      25.217 -33.124  -6.449  0.00  0.00     0.109 A 
ATOM      7  C7  GDM d   1      25.931 -35.585  -6.141  0.00  0.00    -0.049 C 
ATOM      8  C8  GDM d   1      24.492 -36.083  -5.944  0.00  0.00    -0.054 C 
ATOM      9  C9  GDM d   1      23.789 -36.146  -7.314  0.00  0.00    -0.035 C 
ATOM     10  C10 GDM d   1      22.519 -37.000  -7.199  0.00  0.00     0.063 C 
ATOM     11  C11 GDM d   1      21.550 -36.524  -8.295  0.00  0.00     0.067 C 
ATOM     12  C12 GDM d   1      21.041 -35.092  -8.000  0.00  0.00    -0.014 C 
ATOM     13  C13 GDM d   1      20.362 -35.026  -6.623  0.00  0.00    -0.092 C 
ATOM     14  C14 GDM d   1      20.380 -33.824  -5.787  0.00  0.00    -0.055 C 
ATOM     15  C15 GDM d   1      19.633 -33.895  -4.450  0.00  0.00     0.096 C 
ATOM     16  C16 GDM d   1      20.646 -33.873  -3.295  0.00  0.00     0.067 C 
ATOM     17  C17 GDM d   1      21.113 -35.298  -2.990  0.00  0.00    -0.038 C 
ATOM     18  C18 GDM d   1      22.214 -35.448  -2.029  0.00  0.00    -0.062 C 
ATOM     19  C19 GDM d   1      23.498 -34.667  -2.308  0.00  0.00    -0.054 C 
ATOM     20  C20 GDM d   1      24.651 -34.750  -1.402  0.00  0.00     0.020 C 
ATOM     21  C21 GDM d   1      25.294 -33.412  -1.028  0.00  0.00     0.226 C 
ATOM     22  N22 GDM d   1      25.562 -32.420  -2.059  0.00  0.00    -0.324 N 
ATOM     23  O23 GDM d   1      26.571 -34.751  -3.449  0.00  0.00    -0.290 OA
ATOM     24  O24 GDM d   1      24.103 -31.037  -6.511  0.00  0.00    -0.290 OA
ATOM     25  O40 GDM d   1      25.560 -33.145   0.110  0.00  0.00    -0.273 OA
ATOM     26  H1  GDM d   1      26.924 -33.862  -5.908  0.00  0.00     0.057 H 
ATOM     27  H2  GDM d   1      24.357 -30.747  -3.844  0.00  0.00     0.093 H 
ATOM     28  H3  GDM d   1      24.257 -33.638  -6.296  0.00  0.00     0.097 H 
ATOM     29  H4  GDM d   1      26.637 -36.187  -5.551  0.00  0.00     0.034 H 
ATOM     30  H5  GDM d   1      26.216 -35.622  -7.203  0.00  0.00     0.034 H 
ATOM     31  H6  GDM d   1      23.950 -35.365  -5.312  0.00  0.00     0.039 H 
ATOM     32  H7  GDM d   1      24.467 -36.596  -8.054  0.00  0.00     0.037 H 
ATOM     33  H8  GDM d   1      23.519 -35.129  -7.635  0.00  0.00     0.037 H 
ATOM     34  H9  GDM d   1      22.059 -36.898  -6.205  0.00  0.00     0.087 H 
ATOM     35  H10 GDM d   1      20.695 -37.213  -8.365  0.00  0.00     0.087 H 
ATOM     36  H11 GDM d   1      21.882 -34.384  -8.042  0.00  0.00     0.049 H 
ATOM     37  H12 GDM d   1      19.846 -35.911  -6.253  0.00  0.00     0.078 H 
ATOM     38  H13 GDM d   1      19.028 -34.813  -4.411  0.00  0.00     0.095 H 
ATOM     39  H14 GDM d   1      21.503 -33.236  -3.557  0.00  0.00     0.087 H 
ATOM     40  H15 GDM d   1      21.437 -35.751  -3.939  0.00  0.00     0.036 H 
ATOM     41  H16 GDM d   1      20.249 -35.853  -2.594  0.00  0.00     0.036 H 
ATOM     42  H17 GDM d   1      22.478 -36.515  -1.992  0.00  0.00     0.033 H 
ATOM     43  H18 GDM d   1      21.840 -35.129  -1.045  0.00  0.00     0.033 H 
ATOM     44  H19 GDM d   1      23.213 -33.605  -2.354  0.00  0.00     0.034 H 
ATOM     45  H20 GDM d   1      23.854 -34.995  -3.296  0.00  0.00     0.034 H 
ATOM     46  H21 GDM d   1      25.397 -35.087  -2.136  0.00  0.00     0.054 H 
ATOM     47  H22 GDM d   1      25.851 -31.510  -1.762  0.00  0.00     0.169 HD
ENDROOT
BRANCH  15  48
ATOM     48  O33 GDM d   1      18.798 -32.745  -4.292  0.00  0.00    -0.292 OA
BRANCH  48  49
ATOM     49  C34 GDM d   1      17.640 -32.715  -5.123  0.00  0.00     0.359 C 
ATOM     50  O35 GDM d   1      17.361 -33.610  -5.869  0.00  0.00    -0.239 OA
ATOM     51  N36 GDM d   1      16.784 -31.531  -5.020  0.00  0.00    -0.346 N 
ATOM     52  H39 GDM d   1      15.959 -31.460  -5.581  0.00  0.00     0.161 HD
ATOM     53  H40 GDM d   1      17.024 -30.794  -4.389  0.00  0.00     0.161 HD
ENDBRANCH  48  49
ENDBRANCH  15  48
BRANCH  14  54
ATOM     54  C32 GDM d   1      21.088 -32.522  -6.213  0.00  0.00    -0.052 C 
ATOM     55  H36 GDM d   1      21.564 -32.667  -7.194  0.00  0.00     0.033 H 
ATOM     56  H37 GDM d   1      21.855 -32.261  -5.469  0.00  0.00     0.033 H 
ATOM     57  H38 GDM d   1      20.351 -31.709  -6.280  0.00  0.00     0.033 H 
ENDBRANCH  14  54
BRANCH  16  58
ATOM     58  O37 GDM d   1      19.995 -33.384  -2.121  0.00  0.00    -0.388 OA
BRANCH  58  59
ATOM     59  C38 GDM d   1      18.976 -34.305  -1.710  0.00  0.00     0.005 C 
ATOM     60  H41 GDM d   1      18.479 -33.923  -0.806  0.00  0.00     0.066 H 
ATOM     61  H42 GDM d   1      19.431 -35.282  -1.492  0.00  0.00     0.066 H 
ATOM     62  H43 GDM d   1      18.236 -34.416  -2.516  0.00  0.00     0.066 H 
ENDBRANCH  58  59
ENDBRANCH  16  58
BRANCH  12  63
ATOM     63  C31 GDM d   1      19.967 -34.717  -9.041  0.00  0.00    -0.067 C 
ATOM     64  H33 GDM d   1      19.599 -33.700  -8.839  0.00  0.00     0.028 H 
ATOM     65  H34 GDM d   1      19.131 -35.428  -8.977  0.00  0.00     0.028 H 
ATOM     66  H35 GDM d   1      20.405 -34.755 -10.049  0.00  0.00     0.028 H 
ENDBRANCH  12  63
BRANCH  11  67
ATOM     67  O30 GDM d   1      22.282 -36.509  -9.527  0.00  0.00    -0.392 OA
ATOM     68  H32 GDM d   1      22.599 -37.384  -9.717  0.00  0.00     0.210 HD
ENDBRANCH  11  67
BRANCH  10  69
ATOM     69  O28 GDM d   1      22.908 -38.366  -7.442  0.00  0.00    -0.388 OA
BRANCH  69  70
ATOM     70  C29 GDM d   1      21.775 -39.236  -7.485  0.00  0.00     0.005 C 
ATOM     71  H29 GDM d   1      22.111 -40.267  -7.672  0.00  0.00     0.066 H 
ATOM     72  H30 GDM d   1      21.099 -38.919  -8.293  0.00  0.00     0.066 H 
ATOM     73  H31 GDM d   1      21.243 -39.193  -6.523  0.00  0.00     0.066 H 
ENDBRANCH  69  70
ENDBRANCH  10  69
BRANCH  20  74
ATOM     74  C39 GDM d   1      24.792 -35.922  -0.425  0.00  0.00    -0.065 C 
ATOM     75  H44 GDM d   1      25.715 -35.802   0.161  0.00  0.00     0.028 H 
ATOM     76  H45 GDM d   1      24.836 -36.866  -0.988  0.00  0.00     0.028 H 
ATOM     77  H46 GDM d   1      23.927 -35.940   0.254  0.00  0.00     0.028 H 
ENDBRANCH  20  74
BRANCH   8  78
ATOM     78  C27 GDM d   1      24.512 -37.434  -5.222  0.00  0.00    -0.073 C 
ATOM     79  H26 GDM d   1      25.025 -37.325  -4.255  0.00  0.00     0.028 H 
ATOM     80  H27 GDM d   1      25.046 -38.172  -5.839  0.00  0.00     0.028 H 
ATOM     81  H28 GDM d   1      23.480 -37.775  -5.054  0.00  0.00     0.028 H 
ENDBRANCH   8  78
BRANCH   6  82
ATOM     82  O25 GDM d   1      25.107 -33.296  -7.849  0.00  0.00    -0.382 OA
BRANCH  82  83
ATOM     83  C26 GDM d   1      26.233 -32.621  -8.422  0.00  0.00     0.005 C 
ATOM     84  H23 GDM d   1      26.202 -32.721  -9.517  0.00  0.00     0.066 H 
ATOM     85  H24 GDM d   1      27.162 -33.068  -8.040  0.00  0.00     0.066 H 
ATOM     86  H25 GDM d   1      26.200 -31.556  -8.150  0.00  0.00     0.066 H 
ENDBRANCH  82  83
ENDBRANCH   6  82
TORSDOF 13
