REMARK  6 active torsions:
REMARK  status: ('A' for Active; 'I' for Inactive)
REMARK    1  A    between atoms: C3_3  and  C6_5 
REMARK    2  A    between atoms: C4_4  and  C7_6 
REMARK    3  A    between atoms: C14_9  and  O33_19 
REMARK    4  A    between atoms: C21_12  and  O30_18 
REMARK    5  A    between atoms: C23_14  and  O29_17 
REMARK    6  A    between atoms: O33_19  and  C34_21 
ROOT
ATOM      1  N1  YI0 d   1      30.123   9.024  28.013  0.00  0.00    -0.110 NA
ATOM      2  N2  YI0 d   1      30.009   9.918  27.077  0.00  0.00    -0.141 NA
ATOM      3  C3  YI0 d   1      30.821   9.608  26.027  0.00  0.00     0.112 A 
ATOM      4  C4  YI0 d   1      31.609   8.449  26.171  0.00  0.00     0.067 A 
ATOM      5  S1  YI0 d   1      31.167   7.815  27.750  0.00  0.00     0.037 SA
ENDROOT
BRANCH   4   6
ATOM      6  C7  YI0 d   1      32.556   7.824  25.341  0.00  0.00    -0.015 A 
ATOM      7  C12 YI0 d   1      32.205   7.414  24.078  0.00  0.00    -0.069 A 
ATOM      8  C13 YI0 d   1      33.039   6.812  23.184  0.00  0.00    -0.050 A 
ATOM      9  H1  YI0 d   1      31.180   7.583  23.767  0.00  0.00     0.085 H 
ATOM     10  C14 YI0 d   1      34.376   6.692  23.511  0.00  0.00     0.068 A 
ATOM     11  H2  YI0 d   1      32.663   6.436  22.239  0.00  0.00     0.087 H 
ATOM     12  C15 YI0 d   1      34.802   7.088  24.770  0.00  0.00    -0.050 A 
ATOM     13  C16 YI0 d   1      33.894   7.647  25.649  0.00  0.00    -0.069 A 
ATOM     14  H3  YI0 d   1      35.838   6.960  25.062  0.00  0.00     0.087 H 
ATOM     15  H4  YI0 d   1      34.246   7.962  26.625  0.00  0.00     0.085 H 
BRANCH  10  16
ATOM     16  O33 YI0 d   1      35.339   6.107  22.755  0.00  0.00    -0.356 OA
BRANCH  16  17
ATOM     17  C34 YI0 d   1      34.962   5.745  21.402  0.00  0.00     0.010 C 
ATOM     18  H9  YI0 d   1      35.821   5.283  20.893  0.00  0.00     0.066 H 
ATOM     19  H10 YI0 d   1      34.653   6.647  20.854  0.00  0.00     0.066 H 
ATOM     20  H11 YI0 d   1      34.126   5.031  21.433  0.00  0.00     0.066 H 
ENDBRANCH  16  17
ENDBRANCH  10  16
ENDBRANCH   4   6
BRANCH   3  21
ATOM     21  C6  YI0 d   1      30.882  10.436  24.848  0.00  0.00     0.031 C 
ATOM     22  C21 YI0 d   1      29.744  10.838  24.178  0.00  0.00     0.081 C 
ATOM     23  C22 YI0 d   1      29.738  11.592  22.957  0.00  0.00    -0.017 C 
ATOM     24  C23 YI0 d   1      31.004  12.083  22.596  0.00  0.00     0.090 C 
ATOM     25  H5  YI0 d   1      28.843  11.766  22.370  0.00  0.00     0.092 H 
ATOM     26  C24 YI0 d   1      32.132  11.689  23.322  0.00  0.00     0.068 C 
ATOM     27  C25 YI0 d   1      32.159  10.908  24.424  0.00  0.00    -0.044 C 
ATOM     28 CL   YI0 d   1      33.721  12.374  22.791  0.00  0.00    -0.081 Cl
ATOM     29  H6  YI0 d   1      33.077  10.660  24.944  0.00  0.00     0.087 H 
BRANCH  22  30
ATOM     30  O30 YI0 d   1      28.537  10.435  24.606  0.00  0.00    -0.360 OA
ATOM     31  H8  YI0 d   1      27.987  11.194  24.759  0.00  0.00     0.217 HD
ENDBRANCH  22  30
BRANCH  24  32
ATOM     32  O29 YI0 d   1      31.140  12.729  21.409  0.00  0.00    -0.359 OA
ATOM     33  H7  YI0 d   1      30.280  12.921  21.054  0.00  0.00     0.217 HD
ENDBRANCH  24  32
ENDBRANCH   3  21
TORSDOF 6
