REMARK  2 active torsions:
REMARK  status: ('A' for Active; 'I' for Inactive)
REMARK    1  A    between atoms: C2_3  and  C6_8 
REMARK    2  A    between atoms: N2_7  and  C10_12 
ROOT
ATOM      1  N2  NCT d   1     -21.971   0.816   1.439  0.00  0.00    -0.067 N 
ATOM      2  C6  NCT d   1     -20.969   1.582   0.646  0.00  0.00     0.130 C 
ATOM      3  C7  NCT d   1     -20.902   0.726  -0.651  0.00  0.00    -0.033 C 
ATOM      4  C8  NCT d   1     -20.768  -0.692  -0.043  0.00  0.00    -0.040 C 
ATOM      5  C9  NCT d   1     -21.488  -0.570   1.322  0.00  0.00     0.084 C 
ATOM      6  H5  NCT d   1     -22.912   0.938   1.098  0.00  0.00     0.280 HD
ATOM      7  H6  NCT d   1     -20.000   1.564   1.165  0.00  0.00     0.092 H 
ATOM      8  H7  NCT d   1     -20.029   0.989  -1.267  0.00  0.00     0.036 H 
ATOM      9  H8  NCT d   1     -21.818   0.826  -1.252  0.00  0.00     0.036 H 
ATOM     10  H9  NCT d   1     -19.711  -0.963   0.093  0.00  0.00     0.035 H 
ATOM     11  H10 NCT d   1     -21.259  -1.441  -0.681  0.00  0.00     0.035 H 
ATOM     12  H11 NCT d   1     -22.336  -1.269   1.364  0.00  0.00     0.076 H 
ATOM     13  H12 NCT d   1     -20.787  -0.795   2.139  0.00  0.00     0.076 H 
ENDROOT
BRANCH   2  14
ATOM     14  C2  NCT d   1     -21.302   3.036   0.363  0.00  0.00    -0.010 A 
ATOM     15  C1  NCT d   1     -20.264   3.898   0.049  0.00  0.00     0.010 A 
ATOM     16  N1  NCT d   1     -20.471   5.174  -0.232  0.00  0.00    -0.273 NA
ATOM     17  H1  NCT d   1     -19.250   3.515   0.033  0.00  0.00     0.115 H 
ATOM     18  C5  NCT d   1     -21.701   5.696  -0.200  0.00  0.00     0.002 A 
ATOM     19  C4  NCT d   1     -22.807   4.891   0.110  0.00  0.00    -0.065 A 
ATOM     20  H4  NCT d   1     -21.845   6.749  -0.415  0.00  0.00     0.114 H 
ATOM     21  C3  NCT d   1     -22.614   3.548   0.399  0.00  0.00    -0.072 A 
ATOM     22  H3  NCT d   1     -23.805   5.315   0.124  0.00  0.00     0.085 H 
ATOM     23  H2  NCT d   1     -23.453   2.908   0.647  0.00  0.00     0.084 H 
ENDBRANCH   2  14
BRANCH   1  24
ATOM     24  C10 NCT d   1     -21.849   1.189   2.863  0.00  0.00     0.067 C 
ATOM     25  H13 NCT d   1     -22.200   2.222   3.003  0.00  0.00     0.068 H 
ATOM     26  H14 NCT d   1     -20.796   1.114   3.173  0.00  0.00     0.068 H 
ATOM     27  H15 NCT d   1     -22.460   0.509   3.474  0.00  0.00     0.068 H 
ENDBRANCH   1  24
TORSDOF 2
