REMARK  6 active torsions:
REMARK  status: ('A' for Active; 'I' for Inactive)
REMARK    1  A    between atoms: P_1  and  O5'_4 
REMARK    2  A    between atoms: O5'_4  and  C5'_5 
REMARK    3  A    between atoms: C5'_5  and  C4'_6 
REMARK    4  A    between atoms: C3'_8  and  O3'_9 
REMARK    5  A    between atoms: C2'_10  and  O2'_11 
REMARK    6  A    between atoms: C1'_12  and  N1_13 
ROOT
ATOM      1  C4'   U d   1      -1.292  -6.803 -11.190  0.00  0.00     0.089 C 
ATOM      2  O4'   U d   1      -1.863  -7.810 -12.057  0.00  0.00    -0.353 OA
ATOM      3  C3'   U d   1      -0.010  -6.456 -11.920  0.00  0.00     0.091 C 
ATOM      4  C2'   U d   1       0.505  -7.854 -12.248  0.00  0.00     0.105 C 
ATOM      5  C1'   U d   1      -0.824  -8.594 -12.574  0.00  0.00     0.141 C 
ATOM      6  H4    U d   1      -1.032  -7.244 -10.216  0.00  0.00     0.090 H 
ATOM      7  H5    U d   1      -0.239  -5.909 -12.846  0.00  0.00     0.091 H 
ATOM      8  H7    U d   1       1.209  -7.855 -13.094  0.00  0.00     0.093 H 
ATOM      9  H9    U d   1      -0.822  -9.583 -12.092  0.00  0.00     0.123 H 
ENDROOT
BRANCH   5  10
ATOM     10  N1    U d   1      -1.018  -8.768 -14.036  0.00  0.00    -0.280 N 
ATOM     11  C2    U d   1      -0.806 -10.033 -14.561  0.00  0.00     0.331 A 
ATOM     12  O2    U d   1      -0.604 -10.972 -13.833  0.00  0.00    -0.246 OA
ATOM     13  N3    U d   1      -0.907 -10.139 -15.914  0.00  0.00    -0.275 N 
ATOM     14  C4    U d   1      -1.141  -9.138 -16.808  0.00  0.00     0.250 A 
ATOM     15  H10   U d   1      -0.797 -11.057 -16.296  0.00  0.00     0.173 HD
ATOM     16  O4    U d   1      -1.153  -9.408 -18.011  0.00  0.00    -0.268 OA
ATOM     17  C5    U d   1      -1.307  -7.853 -16.203  0.00  0.00    -0.002 A 
ATOM     18  C6    U d   1      -1.237  -7.708 -14.880  0.00  0.00    -0.008 A 
ATOM     19  H11   U d   1      -1.493  -6.983 -16.831  0.00  0.00     0.094 H 
ATOM     20  H12   U d   1      -1.358  -6.713 -14.454  0.00  0.00     0.112 H 
ENDBRANCH   5  10
BRANCH   4  21
ATOM     21  O2'   U d   1       1.100  -8.440 -11.092  0.00  0.00    -0.388 OA
ATOM     22  H8    U d   1       1.826  -7.900 -10.802  0.00  0.00     0.210 HD
ENDBRANCH   4  21
BRANCH   1  23
ATOM     23  C5'   U d   1      -2.280  -5.707 -10.921  0.00  0.00     0.056 C 
ATOM     24  H2    U d   1      -3.212  -6.151 -10.542  0.00  0.00     0.079 H 
ATOM     25  H3    U d   1      -1.863  -5.028 -10.163  0.00  0.00     0.079 H 
BRANCH  23  26
ATOM     26  O5'   U d   1      -2.560  -4.982 -12.071  0.00  0.00    -0.311 OA
BRANCH  26  27
ATOM     27  P     U d   1      -3.018  -3.463 -11.972  0.00  0.00     0.240 P 
ATOM     28  OP1   U d   1      -2.891  -2.863 -13.273  0.00  0.00    -0.648 OA
ATOM     29  OP2   U d   1      -2.413  -2.810 -10.809  0.00  0.00    -0.648 OA
ATOM     30  H1    U d   1      -4.007  -3.466 -11.778  0.00  0.00     0.164 HD
ENDBRANCH  26  27
ENDBRANCH  23  26
ENDBRANCH   1  23
BRANCH   3  31
ATOM     31  O3'   U d   1       0.914  -5.651 -11.160  0.00  0.00    -0.390 OA
ATOM     32  H6    U d   1       1.163  -6.117 -10.371  0.00  0.00     0.210 HD
ENDBRANCH   3  31
TORSDOF 6
