REMARK  4 active torsions:
REMARK  status: ('A' for Active; 'I' for Inactive)
REMARK    1  A    between atoms: C12_2  and  C14_3 
REMARK       I    between atoms: C12_2  and  N11_13 
REMARK    2  A    between atoms: N16_10  and  C17_11 
REMARK    3  A    between atoms: N11_13  and  C09_14 
REMARK    4  A    between atoms: N02_19  and  C01_20 
ROOT
ATOM      1  C09 CWB d   1     -11.272  70.689   5.028  0.00  0.00     0.016 C 
ATOM      2  C10 CWB d   1     -10.307  69.632   5.136  0.00  0.00    -0.019 C 
ATOM      3  C03 CWB d   1      -8.852  70.006   5.210  0.00  0.00     0.106 C 
ATOM      4  C08 CWB d   1     -10.798  72.105   5.203  0.00  0.00    -0.019 C 
ATOM      5  C07 CWB d   1      -9.328  72.359   5.226  0.00  0.00     0.106 C 
ATOM      6  N02 CWB d   1      -8.525  71.328   4.639  0.00  0.00    -0.066 N 
ATOM      7  C06 CWB d   1      -8.836  72.556   6.668  0.00  0.00    -0.038 C 
ATOM      8  C05 CWB d   1      -8.879  71.226   7.430  0.00  0.00    -0.061 C 
ATOM      9  C04 CWB d   1      -8.381  70.055   6.612  0.00  0.00    -0.038 C 
ATOM     10  H9  CWB d   1     -11.991  70.515   5.842  0.00  0.00     0.072 H 
ATOM     11  H10 CWB d   1     -10.433  68.983   4.257  0.00  0.00     0.039 H 
ATOM     12  H11 CWB d   1     -10.545  69.064   6.048  0.00  0.00     0.039 H 
ATOM     13  H12 CWB d   1      -8.286  69.238   4.663  0.00  0.00     0.084 H 
ATOM     14  H13 CWB d   1     -11.207  72.470   6.157  0.00  0.00     0.039 H 
ATOM     15  H14 CWB d   1     -11.218  72.694   4.374  0.00  0.00     0.039 H 
ATOM     16  H15 CWB d   1      -9.150  73.287   4.662  0.00  0.00     0.084 H 
ATOM     17  H16 CWB d   1      -8.857  71.256   3.690  0.00  0.00     0.280 HD
ATOM     18  H20 CWB d   1      -9.483  73.286   7.176  0.00  0.00     0.036 H 
ATOM     19  H21 CWB d   1      -7.802  72.931   6.651  0.00  0.00     0.036 H 
ATOM     20  H22 CWB d   1      -9.919  71.027   7.728  0.00  0.00     0.033 H 
ATOM     21  H23 CWB d   1      -8.251  71.317   8.329  0.00  0.00     0.033 H 
ATOM     22  H24 CWB d   1      -7.282  70.095   6.598  0.00  0.00     0.036 H 
ATOM     23  H25 CWB d   1      -8.708  69.131   7.111  0.00  0.00     0.036 H 
ENDROOT
BRANCH   1  24
ATOM     24  N11 CWB d   1     -12.011  70.574   3.764  0.00  0.00    -0.351 N 
ATOM     25  C12 CWB d   1     -11.430  70.844   2.444  0.00  0.00     0.273 C 
ATOM     26  O13 CWB d   1     -10.195  70.859   2.268  0.00  0.00    -0.266 OA
ATOM     27  H8  CWB d   1     -12.970  70.294   3.806  0.00  0.00     0.163 HD
BRANCH  25  28
ATOM     28  C14 CWB d   1     -12.371  70.923   1.213  0.00  0.00     0.157 A 
ATOM     29  C23 CWB d   1     -11.956  71.049  -0.217  0.00  0.00     0.028 A 
ATOM     30  C22 CWB d   1     -10.724  71.121  -0.890  0.00  0.00    -0.068 A 
ATOM     31  C18 CWB d   1     -13.179  71.099  -0.955  0.00  0.00     0.065 A 
ATOM     32  C21 CWB d   1     -10.701  71.242  -2.300  0.00  0.00    -0.082 A 
ATOM     33  H1  CWB d   1      -9.796  71.084  -0.332  0.00  0.00     0.085 H 
ATOM     34  C20 CWB d   1     -11.912  71.290  -3.029  0.00  0.00    -0.081 A 
ATOM     35  H2  CWB d   1      -9.753  71.298  -2.822  0.00  0.00     0.083 H 
ATOM     36  C19 CWB d   1     -13.149  71.219  -2.353  0.00  0.00    -0.055 A 
ATOM     37  H3  CWB d   1     -11.890  71.382  -4.109  0.00  0.00     0.083 H 
ATOM     38  H4  CWB d   1     -14.076  71.257  -2.914  0.00  0.00     0.087 H 
ATOM     39  N16 CWB d   1     -14.218  71.008  -0.040  0.00  0.00    -0.273 N 
ATOM     40  N15 CWB d   1     -13.721  70.908   1.219  0.00  0.00    -0.166 NA
BRANCH  39  41
ATOM     41  C17 CWB d   1     -15.643  71.024  -0.381  0.00  0.00     0.003 C 
ATOM     42  H5  CWB d   1     -16.241  70.937   0.538  0.00  0.00     0.059 H 
ATOM     43  H6  CWB d   1     -15.870  70.179  -1.048  0.00  0.00     0.059 H 
ATOM     44  H7  CWB d   1     -15.888  71.968  -0.890  0.00  0.00     0.059 H 
ENDBRANCH  39  41
ENDBRANCH  25  28
ENDBRANCH   1  24
BRANCH   6  45
ATOM     45  C01 CWB d   1      -7.173  71.718   4.470  0.00  0.00     0.067 C 
ATOM     46  H17 CWB d   1      -6.607  70.891   4.017  0.00  0.00     0.068 H 
ATOM     47  H18 CWB d   1      -6.738  71.968   5.449  0.00  0.00     0.068 H 
ATOM     48  H19 CWB d   1      -7.125  72.598   3.812  0.00  0.00     0.068 H 
ENDBRANCH   6  45
TORSDOF 4
