REMARK  4 active torsions:
REMARK  status: ('A' for Active; 'I' for Inactive)
REMARK    1  A    between atoms: N_1  and  CA_2 
REMARK    2  A    between atoms: CA_2  and  C_3 
REMARK    3  A    between atoms: CA_2  and  CB_5 
REMARK    4  A    between atoms: CB_5  and  CG_6 
ROOT
ATOM      1  CB  PHE d   1      82.010 -62.306  19.708  0.00  0.00    -0.005 C 
ATOM      2  H5  PHE d   1      81.411 -62.376  20.628  0.00  0.00     0.044 H 
ATOM      3  H6  PHE d   1      83.078 -62.257  19.968  0.00  0.00     0.044 H 
ENDROOT
BRANCH   1   4
ATOM      4  CA  PHE d   1      81.635 -61.005  18.994  0.00  0.00     0.186 C 
ATOM      5  H4  PHE d   1      81.728 -60.181  19.717  0.00  0.00     0.101 H 
BRANCH   4   6
ATOM      6  N   PHE d   1      80.206 -61.060  18.526  0.00  0.00    -0.065 N 
ATOM      7  H1  PHE d   1      79.603 -61.251  19.311  0.00  0.00     0.275 HD
ATOM      8  H2  PHE d   1      80.105 -61.791  17.839  0.00  0.00     0.275 HD
ATOM      9  H3  PHE d   1      79.953 -60.175  18.115  0.00  0.00     0.275 HD
ENDBRANCH   4   6
BRANCH   4  10
ATOM     10  C   PHE d   1      82.586 -60.714  17.818  0.00  0.00     0.204 C 
ATOM     11  O   PHE d   1      83.676 -60.147  18.024  0.00  0.00    -0.646 OA
ATOM     12  OXT PHE d   1      82.308 -61.038  16.625  0.00  0.00    -0.646 OA
ENDBRANCH   4  10
ENDBRANCH   1   4
BRANCH   1  13
ATOM     13  CG  PHE d   1      81.782 -63.557  18.907  0.00  0.00    -0.056 A 
ATOM     14  CD1 PHE d   1      82.803 -64.065  18.126  0.00  0.00    -0.077 A 
ATOM     15  CE1 PHE d   1      82.588 -65.230  17.390  0.00  0.00    -0.082 A 
ATOM     16  H7  PHE d   1      83.763 -63.562  18.086  0.00  0.00     0.084 H 
ATOM     17  CZ  PHE d   1      81.395 -65.941  17.499  0.00  0.00    -0.083 A 
ATOM     18  H9  PHE d   1      83.362 -65.588  16.722  0.00  0.00     0.083 H 
ATOM     19  CE2 PHE d   1      80.415 -65.476  18.331  0.00  0.00    -0.082 A 
ATOM     20  H11 PHE d   1      81.246 -66.852  16.931  0.00  0.00     0.083 H 
ATOM     21  CD2 PHE d   1      80.617 -64.306  19.060  0.00  0.00    -0.077 A 
ATOM     22  H10 PHE d   1      79.481 -66.018  18.424  0.00  0.00     0.083 H 
ATOM     23  H8  PHE d   1      79.856 -63.973  19.757  0.00  0.00     0.084 H 
ENDBRANCH   1  13
TORSDOF 4
