REMARK  18 active torsions:
REMARK  status: ('A' for Active; 'I' for Inactive)
REMARK    1  A    between atoms: N33_2  and  C33_4 
REMARK    2  A    between atoms: C32_5  and  N35_6 
REMARK    3  A    between atoms: N35_6  and  C36_7 
REMARK    4  A    between atoms: C36_7  and  C41_8 
REMARK    5  A    between atoms: C36_7  and  C37_16 
REMARK    6  A    between atoms: C41_8  and  S42_9 
REMARK    7  A    between atoms: S42_9  and  C43_10 
REMARK    8  A    between atoms: C37_16  and  C38_17 
REMARK    9  A    between atoms: C38_17  and  N39_18 
REMARK   10  A    between atoms: N39_18  and  C40_19 
REMARK   11  A    between atoms: N39_18  and  C39_20 
REMARK   12  A    between atoms: C29_24  and  S28_25 
REMARK   13  A    between atoms: S28_25  and  N27_28 
REMARK       I    between atoms: N27_28  and  C26_29 
REMARK   14  A    between atoms: C26_29  and  C23_31 
REMARK   15  A    between atoms: C20_36  and  N17_37 
REMARK   16  A    between atoms: N14_42  and  C13_43 
REMARK   17  A    between atoms: C13_43  and  C12_44 
REMARK   18  A    between atoms: C7_49  and  C4_50 
ROOT
ATOM      1  N27 N3C d   1     -12.622 -11.163  10.549  0.00  0.00    -0.246 N 
ATOM      2  C26 N3C d   1     -12.302 -11.729  11.729  0.00  0.00     0.265 C 
ATOM      3  O26 N3C d   1     -11.893 -11.127  12.717  0.00  0.00    -0.267 OA
ATOM      4  H23 N3C d   1     -12.950 -11.766   9.822  0.00  0.00     0.182 HD
ENDROOT
BRANCH   1   5
ATOM      5  S28 N3C d   1     -12.522  -9.656  10.232  0.00  0.00     0.265 S 
ATOM      6  O28 N3C d   1     -13.301  -8.893  11.158  0.00  0.00    -0.200 OA
ATOM      7  O29 N3C d   1     -12.961  -9.401   8.878  0.00  0.00    -0.200 OA
BRANCH   5   8
ATOM      8  C29 N3C d   1     -10.926  -9.306  10.364  0.00  0.00     0.082 A 
ATOM      9  C30 N3C d   1     -10.320  -8.793  11.534  0.00  0.00    -0.058 A 
ATOM     10  C31 N3C d   1      -8.939  -8.537  11.580  0.00  0.00    -0.054 A 
ATOM     11  H21 N3C d   1     -10.930  -8.594  12.408  0.00  0.00     0.086 H 
ATOM     12  C32 N3C d   1      -8.115  -8.800  10.473  0.00  0.00     0.061 A 
ATOM     13  H20 N3C d   1      -8.502  -8.130  12.485  0.00  0.00     0.087 H 
ATOM     14  C33 N3C d   1      -8.705  -9.352   9.311  0.00  0.00     0.130 A 
ATOM     15  C34 N3C d   1     -10.084  -9.586   9.280  0.00  0.00    -0.026 A 
ATOM     16  H22 N3C d   1     -10.520 -10.002   8.379  0.00  0.00     0.089 H 
BRANCH  12  17
ATOM     17  N35 N3C d   1      -6.753  -8.616  10.515  0.00  0.00    -0.383 N 
ATOM     18  H1  N3C d   1      -6.245  -8.683   9.621  0.00  0.00     0.160 HD
BRANCH  17  19
ATOM     19  C36 N3C d   1      -5.950  -8.331  11.723  0.00  0.00     0.019 C 
ATOM     20  H2  N3C d   1      -6.416  -7.484  12.248  0.00  0.00     0.073 H 
BRANCH  19  21
ATOM     21  C41 N3C d   1      -5.872  -9.519  12.708  0.00  0.00     0.000 C 
ATOM     22  H3  N3C d   1      -6.877  -9.722  13.106  0.00  0.00     0.052 H 
ATOM     23  H4  N3C d   1      -5.196  -9.257  13.535  0.00  0.00     0.052 H 
BRANCH  21  24
ATOM     24  S42 N3C d   1      -5.262 -10.977  11.901  0.00  0.00    -0.128 SA
BRANCH  24  25
ATOM     25  C43 N3C d   1      -6.558 -11.927  11.324  0.00  0.00     0.000 A 
ATOM     26  C48 N3C d   1      -7.551 -12.399  12.202  0.00  0.00    -0.067 A 
ATOM     27  C47 N3C d   1      -8.604 -13.167  11.708  0.00  0.00    -0.082 A 
ATOM     28  H5  N3C d   1      -7.497 -12.166  13.259  0.00  0.00     0.085 H 
ATOM     29  C46 N3C d   1      -8.675 -13.476  10.348  0.00  0.00    -0.083 A 
ATOM     30  H6  N3C d   1      -9.372 -13.526  12.383  0.00  0.00     0.083 H 
ATOM     31  C45 N3C d   1      -7.696 -13.002   9.477  0.00  0.00    -0.082 A 
ATOM     32  H7  N3C d   1      -9.490 -14.083   9.971  0.00  0.00     0.083 H 
ATOM     33  C44 N3C d   1      -6.637 -12.229   9.963  0.00  0.00    -0.067 A 
ATOM     34  H8  N3C d   1      -7.756 -13.233   8.420  0.00  0.00     0.083 H 
ATOM     35  H9  N3C d   1      -5.877 -11.864   9.282  0.00  0.00     0.085 H 
ENDBRANCH  24  25
ENDBRANCH  21  24
ENDBRANCH  19  21
BRANCH  19  36
ATOM     36  C37 N3C d   1      -4.522  -7.930  11.301  0.00  0.00    -0.023 C 
ATOM     37  H10 N3C d   1      -4.266  -8.434  10.357  0.00  0.00     0.038 H 
ATOM     38  H11 N3C d   1      -3.812  -8.234  12.084  0.00  0.00     0.038 H 
BRANCH  36  39
ATOM     39  C38 N3C d   1      -4.442  -6.413  11.104  0.00  0.00     0.085 C 
ATOM     40  H12 N3C d   1      -4.382  -5.929  12.090  0.00  0.00     0.076 H 
ATOM     41  H13 N3C d   1      -5.350  -6.074  10.584  0.00  0.00     0.076 H 
BRANCH  39  42
ATOM     42  N39 N3C d   1      -3.255  -6.019  10.304  0.00  0.00    -0.079 N 
ATOM     43  H46 N3C d   1      -3.283  -6.514   9.427  0.00  0.00     0.278 HD
BRANCH  42  44
ATOM     44  C40 N3C d   1      -3.328  -4.560  10.032  0.00  0.00     0.066 C 
ATOM     45  H14 N3C d   1      -2.454  -4.253   9.439  0.00  0.00     0.068 H 
ATOM     46  H15 N3C d   1      -3.337  -4.009  10.984  0.00  0.00     0.068 H 
ATOM     47  H16 N3C d   1      -4.248  -4.337   9.471  0.00  0.00     0.068 H 
ENDBRANCH  42  44
BRANCH  42  48
ATOM     48  C39 N3C d   1      -1.981  -6.361  10.984  0.00  0.00     0.066 C 
ATOM     49  H17 N3C d   1      -1.947  -7.444  11.176  0.00  0.00     0.068 H 
ATOM     50  H18 N3C d   1      -1.917  -5.817  11.938  0.00  0.00     0.068 H 
ATOM     51  H19 N3C d   1      -1.135  -6.076  10.342  0.00  0.00     0.068 H 
ENDBRANCH  42  48
ENDBRANCH  39  42
ENDBRANCH  36  39
ENDBRANCH  19  36
ENDBRANCH  17  19
ENDBRANCH  12  17
BRANCH  14  52
ATOM     52  N33 N3C d   1      -7.996  -9.665   8.116  0.00  0.00    -0.113 N 
ATOM     53  O34 N3C d   1      -6.821  -9.349   7.891  0.00  0.00    -0.532 OA
ATOM     54  O33 N3C d   1      -8.591 -10.268   7.232  0.00  0.00    -0.532 OA
ENDBRANCH  14  52
ENDBRANCH   5   8
ENDBRANCH   1   5
BRANCH   2  55
ATOM     55  C23 N3C d   1     -12.346 -13.218  11.850  0.00  0.00     0.033 A 
ATOM     56  C22 N3C d   1     -11.828 -13.834  12.990  0.00  0.00    -0.066 A 
ATOM     57  C21 N3C d   1     -11.818 -15.221  13.095  0.00  0.00    -0.056 A 
ATOM     58  H24 N3C d   1     -11.432 -13.229  13.797  0.00  0.00     0.085 H 
ATOM     59  C20 N3C d   1     -12.293 -16.033  12.046  0.00  0.00     0.030 A 
ATOM     60  H25 N3C d   1     -11.439 -15.685  13.998  0.00  0.00     0.086 H 
ATOM     61  C25 N3C d   1     -12.790 -15.394  10.906  0.00  0.00    -0.056 A 
ATOM     62  C24 N3C d   1     -12.805 -14.003  10.809  0.00  0.00    -0.066 A 
ATOM     63  H27 N3C d   1     -13.170 -15.990  10.084  0.00  0.00     0.086 H 
ATOM     64  H26 N3C d   1     -13.181 -13.532   9.908  0.00  0.00     0.085 H 
BRANCH  59  65
ATOM     65  N17 N3C d   1     -12.281 -17.441  12.144  0.00  0.00    -0.378 N 
ATOM     66  C16 N3C d   1     -11.789 -18.046  13.381  0.00  0.00     0.018 C 
ATOM     67  C15 N3C d   1     -12.166 -19.506  13.510  0.00  0.00     0.098 C 
ATOM     68  H28 N3C d   1     -12.214 -17.497  14.234  0.00  0.00     0.066 H 
ATOM     69  H29 N3C d   1     -10.692 -17.963  13.401  0.00  0.00     0.066 H 
ATOM     70  N14 N3C d   1     -12.059 -20.250  12.252  0.00  0.00    -0.064 N 
ATOM     71  H30 N3C d   1     -13.206 -19.567  13.864  0.00  0.00     0.078 H 
ATOM     72  H31 N3C d   1     -11.499 -19.974  14.249  0.00  0.00     0.078 H 
ATOM     73  C19 N3C d   1     -12.917 -19.668  11.222  0.00  0.00     0.098 C 
ATOM     74  H47 N3C d   1     -11.108 -20.183  11.924  0.00  0.00     0.280 HD
ATOM     75  C18 N3C d   1     -12.711 -18.201  10.977  0.00  0.00     0.018 C 
ATOM     76  H34 N3C d   1     -12.727 -20.201  10.279  0.00  0.00     0.078 H 
ATOM     77  H35 N3C d   1     -13.964 -19.820  11.525  0.00  0.00     0.078 H 
ATOM     78  H32 N3C d   1     -11.946 -18.089  10.195  0.00  0.00     0.066 H 
ATOM     79  H33 N3C d   1     -13.662 -17.776  10.623  0.00  0.00     0.066 H 
BRANCH  70  80
ATOM     80  C13 N3C d   1     -12.347 -21.688  12.530  0.00  0.00     0.108 C 
ATOM     81  H36 N3C d   1     -12.904 -21.750  13.476  0.00  0.00     0.083 H 
ATOM     82  H37 N3C d   1     -11.388 -22.217  12.633  0.00  0.00     0.083 H 
BRANCH  80  83
ATOM     83  C12 N3C d   1     -13.152 -22.379  11.465  0.00  0.00    -0.021 A 
ATOM     84  C11 N3C d   1     -14.556 -22.398  11.651  0.00  0.00    -0.074 A 
ATOM     85  C10 N3C d   1     -15.374 -22.993  10.700  0.00  0.00    -0.082 A 
ATOM     86  H38 N3C d   1     -14.992 -21.948  12.536  0.00  0.00     0.084 H 
ATOM     87  C9  N3C d   1     -14.800 -23.564   9.574  0.00  0.00    -0.082 A 
ATOM     88  H39 N3C d   1     -16.449 -23.011  10.836  0.00  0.00     0.083 H 
ATOM     89  C8  N3C d   1     -13.428 -23.582   9.400  0.00  0.00    -0.072 A 
ATOM     90  H40 N3C d   1     -15.438 -24.004   8.816  0.00  0.00     0.083 H 
ATOM     91  C7  N3C d   1     -12.566 -22.983  10.337  0.00  0.00    -0.018 A 
ATOM     92  H41 N3C d   1     -13.009 -24.067   8.525  0.00  0.00     0.084 H 
BRANCH  91  93
ATOM     93  C4  N3C d   1     -11.199 -23.045  10.042  0.00  0.00    -0.025 A 
ATOM     94  C3  N3C d   1     -10.340 -23.809  10.826  0.00  0.00    -0.071 A 
ATOM     95  C2  N3C d   1      -8.983 -23.897  10.519  0.00  0.00    -0.061 A 
ATOM     96  H42 N3C d   1     -10.730 -24.342  11.685  0.00  0.00     0.084 H 
ATOM     97  C1  N3C d   1      -8.469 -23.255   9.405  0.00  0.00     0.034 A 
ATOM     98  H43 N3C d   1      -8.324 -24.473  11.158  0.00  0.00     0.086 H 
ATOM     99  C6  N3C d   1      -9.325 -22.503   8.601  0.00  0.00    -0.061 A 
ATOM    100 CL1  N3C d   1      -6.718 -23.383   8.991  0.00  0.00    -0.084 Cl
ATOM    101  C5  N3C d   1     -10.685 -22.407   8.908  0.00  0.00    -0.071 A 
ATOM    102  H45 N3C d   1      -8.932 -21.989   7.731  0.00  0.00     0.086 H 
ATOM    103  H44 N3C d   1     -11.345 -21.836   8.265  0.00  0.00     0.084 H 
ENDBRANCH  91  93
ENDBRANCH  80  83
ENDBRANCH  70  80
ENDBRANCH  59  65
ENDBRANCH   2  55
TORSDOF 18
