REMARK  15 active torsions:
REMARK  status: ('A' for Active; 'I' for Inactive)
REMARK    1  A    between atoms: S8_10  and  C5_7 
REMARK    2  A    between atoms: N11_13  and  S8_10 
REMARK    3  A    between atoms: N11_13  and  C12_14 
REMARK    4  A    between atoms: C16_18  and  N11_13 
REMARK    5  A    between atoms: C12_14  and  C13_15 
REMARK    6  A    between atoms: C13_15  and  C14_16 
REMARK    7  A    between atoms: C13_15  and  C15_17 
REMARK    8  A    between atoms: C17_19  and  C16_18 
REMARK    9  A    between atoms: C17_19  and  O18_20 
REMARK   10  A    between atoms: C19_21  and  C17_19 
REMARK   11  A    between atoms: C19_21  and  N20_22 
REMARK   12  A    between atoms: C32_34  and  C19_21 
REMARK       I    between atoms: N20_22  and  C21_23 
REMARK   13  A    between atoms: C21_23  and  O23_25 
REMARK   14  A    between atoms: O23_25  and  C24_26 
REMARK   15  A    between atoms: C38_40  and  C32_34 
ROOT
ATOM      1  C17 065 d   1      15.415  23.993  18.042  0.00  0.00     0.067 C 
ATOM      2  H17 065 d   1      15.750  23.554  18.993  0.00  0.00     0.088 H 
ENDROOT
BRANCH   1   3
ATOM      3  C16 065 d   1      16.561  24.869  17.534  0.00  0.00     0.019 C 
ATOM      4  H15 065 d   1      16.340  25.205  16.510  0.00  0.00     0.061 H 
ATOM      5  H16 065 d   1      16.673  25.744  18.191  0.00  0.00     0.061 H 
BRANCH   3   6
ATOM      6  N11 065 d   1      17.800  24.095  17.537  0.00  0.00    -0.204 NA
BRANCH   6   7
ATOM      7  S8  065 d   1      18.441  23.876  16.041  0.00  0.00     0.243 S 
ATOM      8  O9  065 d   1      17.327  23.619  15.093  0.00  0.00    -0.206 OA
ATOM      9  O10 065 d   1      19.426  22.751  16.167  0.00  0.00    -0.206 OA
BRANCH   7  10
ATOM     10  C5  065 d   1      19.332  25.318  15.598  0.00  0.00     0.077 A 
ATOM     11  C4  065 d   1      20.694  25.393  15.897  0.00  0.00    -0.026 A 
ATOM     12  C3  065 d   1      21.438  26.520  15.588  0.00  0.00     0.106 A 
ATOM     13  H3  065 d   1      21.179  24.553  16.381  0.00  0.00     0.090 H 
ATOM     14  C2  065 d   1      20.815  27.584  14.949  0.00  0.00     0.105 A 
ATOM     15  O41 065 d   1      22.760  26.834  15.770  0.00  0.00    -0.323 OA
ATOM     16  O39 065 d   1      21.742  28.579  14.780  0.00  0.00    -0.323 OA
ATOM     17  C7  065 d   1      19.459  27.516  14.639  0.00  0.00    -0.046 A 
ATOM     18  C40 065 d   1      22.923  28.122  15.326  0.00  0.00     0.115 A 
ATOM     19  H1  065 d   1      23.209  28.766  16.171  0.00  0.00     0.118 H 
ATOM     20  H2  065 d   1      23.713  28.148  14.561  0.00  0.00     0.118 H 
ATOM     21  C6  065 d   1      18.727  26.384  14.970  0.00  0.00    -0.058 A 
ATOM     22  H5  065 d   1      18.975  28.347  14.139  0.00  0.00     0.087 H 
ATOM     23  H4  065 d   1      17.670  26.339  14.732  0.00  0.00     0.086 H 
ENDBRANCH   7  10
ENDBRANCH   6   7
BRANCH   6  24
ATOM     24  C12 065 d   1      18.745  24.482  18.568  0.00  0.00    -0.004 C 
ATOM     25  H6  065 d   1      18.729  25.578  18.666  0.00  0.00     0.058 H 
ATOM     26  H7  065 d   1      19.750  24.155  18.264  0.00  0.00     0.058 H 
BRANCH  24  27
ATOM     27  C13 065 d   1      18.420  23.863  19.931  0.00  0.00    -0.049 C 
ATOM     28  H8  065 d   1      17.444  24.250  20.260  0.00  0.00     0.040 H 
BRANCH  27  29
ATOM     29  C14 065 d   1      18.337  22.348  19.861  0.00  0.00    -0.072 C 
ATOM     30  H9  065 d   1      18.103  21.947  20.858  0.00  0.00     0.028 H 
ATOM     31  H10 065 d   1      19.302  21.943  19.521  0.00  0.00     0.028 H 
ATOM     32  H11 065 d   1      17.547  22.056  19.154  0.00  0.00     0.028 H 
ENDBRANCH  27  29
BRANCH  27  33
ATOM     33  C15 065 d   1      19.483  24.259  20.966  0.00  0.00    -0.072 C 
ATOM     34  H12 065 d   1      19.549  25.356  21.023  0.00  0.00     0.028 H 
ATOM     35  H13 065 d   1      20.458  23.848  20.666  0.00  0.00     0.028 H 
ATOM     36  H14 065 d   1      19.203  23.857  21.951  0.00  0.00     0.028 H 
ENDBRANCH  27  33
ENDBRANCH  24  27
ENDBRANCH   6  24
ENDBRANCH   3   6
ENDBRANCH   1   3
BRANCH   1  37
ATOM     37  O18 065 d   1      14.242  24.749  18.323  0.00  0.00    -0.392 OA
ATOM     38  H18 065 d   1      13.951  25.186  17.531  0.00  0.00     0.210 HD
ENDBRANCH   1  37
BRANCH   1  39
ATOM     39  C19 065 d   1      15.105  22.831  17.099  0.00  0.00     0.044 C 
ATOM     40  H19 065 d   1      16.042  22.320  16.835  0.00  0.00     0.077 H 
BRANCH  39  41
ATOM     41  N20 065 d   1      14.216  21.920  17.820  0.00  0.00    -0.329 N 
ATOM     42  C21 065 d   1      14.461  20.674  18.187  0.00  0.00     0.361 C 
ATOM     43  O22 065 d   1      15.512  20.092  17.921  0.00  0.00    -0.238 OA
ATOM     44  H20 065 d   1      13.317  22.283  18.064  0.00  0.00     0.165 HD
BRANCH  42  45
ATOM     45  O23 065 d   1      13.437  20.099  18.873  0.00  0.00    -0.296 OA
BRANCH  45  46
ATOM     46  C24 065 d   1      13.583  18.699  19.076  0.00  0.00     0.078 C 
ATOM     47  C25 065 d   1      13.000  18.380  20.456  0.00  0.00     0.048 C 
ATOM     48  O26 065 d   1      11.579  18.501  20.259  0.00  0.00    -0.358 OA
ATOM     49  H22 065 d   1      13.355  19.100  21.208  0.00  0.00     0.078 H 
ATOM     50  H23 065 d   1      13.268  17.360  20.769  0.00  0.00     0.078 H 
ATOM     51  C27 065 d   1      11.292  18.012  18.955  0.00  0.00     0.137 C 
ATOM     52  O28 065 d   1      10.405  18.888  18.263  0.00  0.00    -0.361 OA
ATOM     53  C31 065 d   1      12.599  17.937  18.186  0.00  0.00     0.023 C 
ATOM     54  H24 065 d   1      10.838  17.013  19.027  0.00  0.00     0.129 H 
ATOM     55  C29 065 d   1      11.164  19.619  17.319  0.00  0.00     0.023 C 
ATOM     56  C30 065 d   1      12.251  18.625  16.870  0.00  0.00    -0.035 C 
ATOM     57  H25 065 d   1      11.615  20.509  17.783  0.00  0.00     0.074 H 
ATOM     58  H26 065 d   1      10.539  19.927  16.468  0.00  0.00     0.074 H 
ATOM     59  H27 065 d   1      13.122  19.147  16.447  0.00  0.00     0.037 H 
ATOM     60  H28 065 d   1      11.860  17.908  16.133  0.00  0.00     0.037 H 
ATOM     61  H29 065 d   1      12.946  16.908  18.012  0.00  0.00     0.051 H 
ATOM     62  H21 065 d   1      14.626  18.373  18.948  0.00  0.00     0.088 H 
ENDBRANCH  45  46
ENDBRANCH  42  45
ENDBRANCH  39  41
BRANCH  39  63
ATOM     63  C32 065 d   1      14.399  23.265  15.821  0.00  0.00    -0.020 C 
ATOM     64  H30 065 d   1      15.071  23.922  15.249  0.00  0.00     0.043 H 
ATOM     65  H31 065 d   1      13.487  23.818  16.089  0.00  0.00     0.043 H 
BRANCH  63  66
ATOM     66  C38 065 d   1      14.014  22.073  14.947  0.00  0.00    -0.056 A 
ATOM     67  C33 065 d   1      12.691  21.703  14.775  0.00  0.00    -0.077 A 
ATOM     68  C34 065 d   1      12.337  20.589  14.015  0.00  0.00    -0.082 A 
ATOM     69  H32 065 d   1      11.912  22.294  15.242  0.00  0.00     0.084 H 
ATOM     70  C35 065 d   1      13.309  19.842  13.361  0.00  0.00    -0.083 A 
ATOM     71  H33 065 d   1      11.294  20.303  13.934  0.00  0.00     0.083 H 
ATOM     72  C36 065 d   1      14.638  20.232  13.514  0.00  0.00    -0.082 A 
ATOM     73  H34 065 d   1      13.043  18.985  12.753  0.00  0.00     0.083 H 
ATOM     74  C37 065 d   1      14.988  21.323  14.293  0.00  0.00    -0.077 A 
ATOM     75  H35 065 d   1      15.416  19.669  13.012  0.00  0.00     0.083 H 
ATOM     76  H36 065 d   1      16.032  21.596  14.395  0.00  0.00     0.084 H 
ENDBRANCH  63  66
ENDBRANCH  39  63
ENDBRANCH   1  39
TORSDOF 15
