REMARK  3 active torsions:
REMARK  status: ('A' for Active; 'I' for Inactive)
REMARK    1  A    between atoms: C2_2  and  S15_8 
REMARK    2  A    between atoms: C3_3  and  S17_9 
REMARK    3  A    between atoms: C5_5  and  C13_7 
ROOT
ATOM      1  C1  TLD d   1      18.501  -6.013  26.112  0.00  0.00    -0.065 A 
ATOM      2  C2  TLD d   1      17.774  -5.473  24.926  0.00  0.00     0.014 A 
ATOM      3  C3  TLD d   1      17.925  -4.135  24.566  0.00  0.00     0.014 A 
ATOM      4  C4  TLD d   1      18.810  -3.255  25.375  0.00  0.00    -0.060 A 
ATOM      5  C5  TLD d   1      19.465  -3.765  26.460  0.00  0.00    -0.061 A 
ATOM      6  C6  TLD d   1      19.301  -5.204  26.846  0.00  0.00    -0.076 A 
ATOM      7  H1  TLD d   1      18.388  -7.056  26.387  0.00  0.00     0.085 H 
ATOM      8  H2  TLD d   1      18.935  -2.213  25.105  0.00  0.00     0.086 H 
ATOM      9  H3  TLD d   1      19.822  -5.596  27.712  0.00  0.00     0.084 H 
ENDROOT
BRANCH   5  10
ATOM     10  C13 TLD d   1      20.353  -2.875  27.282  0.00  0.00    -0.051 C 
ATOM     11  H4  TLD d   1      20.353  -1.861  26.855  0.00  0.00     0.033 H 
ATOM     12  H5  TLD d   1      21.378  -3.275  27.278  0.00  0.00     0.033 H 
ATOM     13  H6  TLD d   1      19.978  -2.837  28.316  0.00  0.00     0.033 H 
ENDBRANCH   5  10
BRANCH   3  14
ATOM     14  S17 TLD d   1      17.064  -3.426  23.155  0.00  0.00    -0.142 SA
ATOM     15  H8  TLD d   1      17.738  -3.065  22.498  0.00  0.00     0.107 HD
ENDBRANCH   3  14
BRANCH   2  16
ATOM     16  S15 TLD d   1      16.718  -6.595  23.998  0.00  0.00    -0.142 SA
ATOM     17  H7  TLD d   1      16.748  -7.510  24.421  0.00  0.00     0.107 HD
ENDBRANCH   2  16
TORSDOF 3
