REMARK  5 active torsions:
REMARK  status: ('A' for Active; 'I' for Inactive)
REMARK    1  A    between atoms: C6_6  and  C30_30 
REMARK       I    between atoms: N22_12  and  C15_15 
REMARK    2  A    between atoms: C15_15  and  C32_16 
REMARK    3  A    between atoms: C18_18  and  C21_21 
REMARK    4  A    between atoms: C22_22  and  C46_23 
REMARK    5  A    between atoms: C30_30  and  N64_31 
ROOT
ATOM      1  C1  2FF d   1      22.237  77.627  83.003  0.00  0.00    -0.066 A 
ATOM      2  C2  2FF d   1      22.730  78.201  84.183  0.00  0.00    -0.013 A 
ATOM      3  C3  2FF d   1      21.806  78.703  85.215  0.00  0.00     0.075 A 
ATOM      4  C4  2FF d   1      20.428  78.614  85.028  0.00  0.00    -0.050 A 
ATOM      5  C5  2FF d   1      19.918  78.038  83.835  0.00  0.00    -0.073 A 
ATOM      6  C6  2FF d   1      20.825  77.528  82.820  0.00  0.00    -0.032 A 
ATOM      7  O13 2FF d   1      22.584  79.251  86.321  0.00  0.00    -0.349 OA
ATOM      8  C8  2FF d   1      23.934  79.437  85.882  0.00  0.00     0.037 C 
ATOM      9  C7  2FF d   1      24.117  78.498  84.708  0.00  0.00     0.015 C 
ATOM     10  C10 2FF d   1      24.609  77.069  85.095  0.00  0.00    -0.037 C 
ATOM     11  C11 2FF d   1      26.106  77.101  85.452  0.00  0.00    -0.001 C 
ATOM     12  N22 2FF d   1      26.823  77.927  84.493  0.00  0.00    -0.346 N 
ATOM     13  C13 2FF d   1      26.367  79.279  84.149  0.00  0.00    -0.001 C 
ATOM     14  C14 2FF d   1      24.961  79.130  83.575  0.00  0.00    -0.037 C 
ATOM     15  C15 2FF d   1      27.722  77.335  83.529  0.00  0.00     0.277 C 
ATOM     16  O61 2FF d   1      28.071  77.971  82.598  0.00  0.00    -0.265 OA
ATOM     17  H1  2FF d   1      22.918  77.264  82.241  0.00  0.00     0.085 H 
ATOM     18  H2  2FF d   1      19.750  78.982  85.789  0.00  0.00     0.087 H 
ATOM     19  H3  2FF d   1      18.847  77.978  83.680  0.00  0.00     0.084 H 
ATOM     20  H4  2FF d   1      24.638  79.184  86.689  0.00  0.00     0.076 H 
ATOM     21  H5  2FF d   1      24.095  80.479  85.568  0.00  0.00     0.076 H 
ATOM     22  H6  2FF d   1      24.453  76.388  84.245  0.00  0.00     0.037 H 
ATOM     23  H7  2FF d   1      24.036  76.710  85.963  0.00  0.00     0.037 H 
ATOM     24  H8  2FF d   1      26.510  76.078  85.427  0.00  0.00     0.064 H 
ATOM     25  H9  2FF d   1      26.232  77.520  86.461  0.00  0.00     0.064 H 
ATOM     26  H10 2FF d   1      27.037  79.727  83.401  0.00  0.00     0.064 H 
ATOM     27  H11 2FF d   1      26.345  79.913  85.048  0.00  0.00     0.064 H 
ATOM     28  H12 2FF d   1      24.554  80.113  83.295  0.00  0.00     0.037 H 
ATOM     29  H13 2FF d   1      24.974  78.473  82.693  0.00  0.00     0.037 H 
ENDROOT
BRANCH  15  30
ATOM     30  C32 2FF d   1      28.233  75.921  83.633  0.00  0.00     0.144 A 
ATOM     31  O35 2FF d   1      28.402  75.186  82.459  0.00  0.00    -0.296 OA
ATOM     32  C18 2FF d   1      28.940  73.934  82.824  0.00  0.00     0.130 A 
ATOM     33  C19 2FF d   1      29.103  73.890  84.225  0.00  0.00    -0.039 A 
ATOM     34  C20 2FF d   1      28.672  75.153  84.743  0.00  0.00    -0.041 A 
ATOM     35  H14 2FF d   1      29.486  73.051  84.805  0.00  0.00     0.088 H 
ATOM     36  H15 2FF d   1      28.680  75.464  85.787  0.00  0.00     0.088 H 
BRANCH  32  37
ATOM     37  C21 2FF d   1      29.203  72.861  81.793  0.00  0.00    -0.036 C 
ATOM     38  C22 2FF d   1      29.418  72.113  80.919  0.00  0.00    -0.059 C 
BRANCH  38  39
ATOM     39  C46 2FF d   1      29.737  71.053  79.883  0.00  0.00     0.018 A 
ATOM     40  C24 2FF d   1      29.885  71.435  78.538  0.00  0.00    -0.065 A 
ATOM     41  C25 2FF d   1      30.161  70.466  77.554  0.00  0.00    -0.082 A 
ATOM     42  H16 2FF d   1      29.787  72.478  78.258  0.00  0.00     0.085 H 
ATOM     43  C26 2FF d   1      30.271  69.108  77.947  0.00  0.00    -0.083 A 
ATOM     44  H17 2FF d   1      30.287  70.753  76.516  0.00  0.00     0.083 H 
ATOM     45  C27 2FF d   1      30.101  68.719  79.298  0.00  0.00    -0.082 A 
ATOM     46  H18 2FF d   1      30.489  68.354  77.200  0.00  0.00     0.083 H 
ATOM     47  C28 2FF d   1      29.825  69.691  80.279  0.00  0.00    -0.065 A 
ATOM     48  H19 2FF d   1      30.183  67.675  79.577  0.00  0.00     0.083 H 
ATOM     49  H20 2FF d   1      29.683  69.406  81.315  0.00  0.00     0.085 H 
ENDBRANCH  38  39
ENDBRANCH  32  37
ENDBRANCH  15  30
BRANCH   6  50
ATOM     50  C30 2FF d   1      20.245  76.911  81.532  0.00  0.00     0.103 C 
ATOM     51  H21 2FF d   1      19.175  76.691  81.661  0.00  0.00     0.082 H 
ATOM     52  H22 2FF d   1      20.781  75.985  81.276  0.00  0.00     0.082 H 
BRANCH  50  53
ATOM     53  N64 2FF d   1      20.435  77.910  80.493  0.00  0.00    -0.075 N 
ATOM     54  H23 2FF d   1      20.072  77.560  79.620  0.00  0.00     0.274 HD
ATOM     55  H24 2FF d   1      21.418  78.108  80.393  0.00  0.00     0.274 HD
ATOM     56  H25 2FF d   1      19.946  78.755  80.746  0.00  0.00     0.274 HD
ENDBRANCH  50  53
ENDBRANCH   6  50
TORSDOF 5
