REMARK  7 active torsions:
REMARK  status: ('A' for Active; 'I' for Inactive)
REMARK       I    between atoms: C17_2  and  N3_3 
REMARK    1  A    between atoms: C17_2  and  C14_8 
REMARK    2  A    between atoms: N3_3  and  C18_4 
REMARK    3  A    between atoms: C18_4  and  C19_5 
REMARK    4  A    between atoms: C11_13  and  C9_14 
REMARK    5  A    between atoms: C7_15  and  C8_16 
REMARK    6  A    between atoms: C4_20  and  C3_21 
REMARK    7  A    between atoms: C2_25  and  C1_26 
ROOT
ATOM      1  C14 GK4 d   1      44.442  32.944  32.048  0.00  0.00     0.032 A 
ATOM      2  C13 GK4 d   1      44.417  31.567  31.772  0.00  0.00    -0.067 A 
ATOM      3  C12 GK4 d   1      43.207  30.876  31.683  0.00  0.00    -0.071 A 
ATOM      4  C15 GK4 d   1      43.234  33.604  32.262  0.00  0.00    -0.067 A 
ATOM      5  C16 GK4 d   1      42.036  32.915  32.184  0.00  0.00    -0.071 A 
ATOM      6  C11 GK4 d   1      42.000  31.566  31.869  0.00  0.00    -0.025 A 
ATOM      7  H9  GK4 d   1      45.349  31.034  31.626  0.00  0.00     0.085 H 
ATOM      8  H10 GK4 d   1      43.200  29.813  31.471  0.00  0.00     0.084 H 
ATOM      9  H11 GK4 d   1      43.232  34.663  32.491  0.00  0.00     0.085 H 
ATOM     10  H12 GK4 d   1      41.107  33.441  32.373  0.00  0.00     0.084 H 
ENDROOT
BRANCH   6  11
ATOM     11  C9  GK4 d   1      40.756  30.935  31.833  0.00  0.00    -0.019 A 
ATOM     12  C7  GK4 d   1      39.759  31.138  30.878  0.00  0.00    -0.051 A 
ATOM     13  C6  GK4 d   1      38.543  30.458  30.987  0.00  0.00    -0.075 A 
ATOM     14  C5  GK4 d   1      38.301  29.592  32.046  0.00  0.00    -0.068 A 
ATOM     15  H16 GK4 d   1      37.778  30.608  30.234  0.00  0.00     0.084 H 
ATOM     16  C4  GK4 d   1      39.291  29.386  33.007  0.00  0.00     0.020 A 
ATOM     17  H17 GK4 d   1      37.349  29.080  32.125  0.00  0.00     0.085 H 
ATOM     18  C10 GK4 d   1      40.493  30.069  32.894  0.00  0.00    -0.058 A 
ATOM     19  H18 GK4 d   1      41.252  29.925  33.654  0.00  0.00     0.086 H 
BRANCH  12  20
ATOM     20  C8  GK4 d   1      39.951  32.067  29.718  0.00  0.00    -0.050 C 
ATOM     21  H13 GK4 d   1      39.042  32.072  29.098  0.00  0.00     0.033 H 
ATOM     22  H14 GK4 d   1      40.805  31.728  29.114  0.00  0.00     0.033 H 
ATOM     23  H15 GK4 d   1      40.146  33.083  30.091  0.00  0.00     0.033 H 
ENDBRANCH  12  20
BRANCH  16  24
ATOM     24  C3  GK4 d   1      39.115  28.532  34.101  0.00  0.00     0.202 A 
ATOM     25  N2  GK4 d   1      40.038  28.315  35.072  0.00  0.00    -0.121 NA
ATOM     26  N1  GK4 d   1      39.492  27.405  35.982  0.00  0.00    -0.127 NA
ATOM     27  C2  GK4 d   1      38.292  27.183  35.437  0.00  0.00     0.165 A 
ATOM     28  O1  GK4 d   1      38.099  27.840  34.374  0.00  0.00    -0.273 OA
BRANCH  27  29
ATOM     29  C1  GK4 d   1      37.147  26.311  35.880  0.00  0.00    -0.013 C 
ATOM     30  H19 GK4 d   1      37.422  25.789  36.809  0.00  0.00     0.038 H 
ATOM     31  H20 GK4 d   1      36.924  25.572  35.096  0.00  0.00     0.038 H 
ATOM     32  H21 GK4 d   1      36.259  26.935  36.059  0.00  0.00     0.038 H 
ENDBRANCH  27  29
ENDBRANCH  16  24
ENDBRANCH   6  11
BRANCH   1  33
ATOM     33  C17 GK4 d   1      45.743  33.718  32.195  0.00  0.00     0.251 C 
ATOM     34  O2  GK4 d   1      45.720  34.896  32.582  0.00  0.00    -0.268 OA
ATOM     35  N3  GK4 d   1      46.913  33.092  31.988  0.00  0.00    -0.356 N 
ATOM     36  H1  GK4 d   1      46.931  32.132  31.709  0.00  0.00     0.162 HD
BRANCH  35  37
ATOM     37  C18 GK4 d   1      48.154  33.829  32.175  0.00  0.00    -0.001 C 
ATOM     38  H2  GK4 d   1      48.399  33.862  33.247  0.00  0.00     0.064 H 
ATOM     39  H3  GK4 d   1      48.028  34.854  31.796  0.00  0.00     0.064 H 
BRANCH  37  40
ATOM     40  C19 GK4 d   1      49.280  33.155  31.426  0.00  0.00    -0.039 A 
ATOM     41  C21 GK4 d   1      49.278  33.672  29.993  0.00  0.00    -0.060 A 
ATOM     42  C20 GK4 d   1      50.291  34.205  31.004  0.00  0.00    -0.060 A 
ATOM     43  H5  GK4 d   1      48.459  34.317  29.641  0.00  0.00     0.033 H 
ATOM     44  H6  GK4 d   1      49.610  33.020  29.172  0.00  0.00     0.033 H 
ATOM     45  H7  GK4 d   1      51.354  33.938  30.910  0.00  0.00     0.033 H 
ATOM     46  H8  GK4 d   1      50.203  35.235  31.380  0.00  0.00     0.033 H 
ATOM     47  H4  GK4 d   1      49.523  32.127  31.734  0.00  0.00     0.042 H 
ENDBRANCH  37  40
ENDBRANCH  35  37
ENDBRANCH   1  33
TORSDOF 7
