REMARK  7 active torsions:
REMARK  status: ('A' for Active; 'I' for Inactive)
REMARK    1  A    between atoms: C1_1  and  C2_3 
REMARK    2  A    between atoms: C1_1  and  C16_21 
REMARK    3  A    between atoms: C2_3  and  N1_2 
REMARK    4  A    between atoms: C2_3  and  C3_4 
REMARK       I    between atoms: C3_4  and  N2_6 
REMARK    5  A    between atoms: C7_10  and  C8_11 
REMARK       I    between atoms: C8_11  and  N3_12 
REMARK    6  A    between atoms: N3_12  and  C9_13 
REMARK    7  A    between atoms: C9_13  and  C10_14 
ROOT
ATOM      1  C3  22U d   1      17.449 -13.609  22.727  0.00  0.00     0.251 C 
ATOM      2  O1  22U d   1      16.468 -12.982  23.144  0.00  0.00    -0.271 OA
ATOM      3  N2  22U d   1      18.133 -13.163  21.657  0.00  0.00    -0.337 N 
ATOM      4  C4  22U d   1      19.207 -13.915  20.981  0.00  0.00    -0.001 C 
ATOM      5  C5  22U d   1      19.973 -12.730  20.352  0.00  0.00    -0.048 C 
ATOM      6  C6  22U d   1      18.824 -11.777  19.917  0.00  0.00    -0.036 C 
ATOM      7  C7  22U d   1      17.836 -11.846  21.112  0.00  0.00     0.091 C 
ATOM      8  H7  22U d   1      18.812 -14.602  20.218  0.00  0.00     0.064 H 
ATOM      9  H8  22U d   1      19.829 -14.476  21.694  0.00  0.00     0.064 H 
ATOM     10  H9  22U d   1      20.568 -13.056  19.486  0.00  0.00     0.035 H 
ATOM     11  H10 22U d   1      20.632 -12.247  21.089  0.00  0.00     0.035 H 
ATOM     12  H11 22U d   1      18.348 -12.130  18.990  0.00  0.00     0.036 H 
ATOM     13  H12 22U d   1      19.195 -10.752  19.771  0.00  0.00     0.036 H 
ATOM     14  H13 22U d   1      18.034 -11.052  21.847  0.00  0.00     0.087 H 
ENDROOT
BRANCH   1  15
ATOM     15  C2  22U d   1      17.627 -15.016  23.287  0.00  0.00     0.179 C 
ATOM     16  H6  22U d   1      18.349 -15.564  22.663  0.00  0.00     0.099 H 
BRANCH  15  17
ATOM     17  C1  22U d   1      18.165 -14.964  24.731  0.00  0.00    -0.006 C 
ATOM     18  H1  22U d   1      18.219 -15.989  25.126  0.00  0.00     0.043 H 
ATOM     19  H2  22U d   1      17.473 -14.370  25.346  0.00  0.00     0.043 H 
BRANCH  17  20
ATOM     20  C16 22U d   1      19.564 -14.330  24.808  0.00  0.00    -0.056 C 
ATOM     21  C17 22U d   1      20.664 -14.853  24.110  0.00  0.00    -0.077 C 
ATOM     22  C18 22U d   1      21.917 -14.234  24.232  0.00  0.00    -0.082 C 
ATOM     23  H21 22U d   1      20.546 -15.728  23.482  0.00  0.00     0.084 H 
ATOM     24  C19 22U d   1      22.073 -13.083  24.991  0.00  0.00    -0.083 C 
ATOM     25  H22 22U d   1      22.775 -14.661  23.726  0.00  0.00     0.083 H 
ATOM     26  C20 22U d   1      20.996 -12.589  25.757  0.00  0.00    -0.082 C 
ATOM     27  H23 22U d   1      23.024 -12.562  24.995  0.00  0.00     0.083 H 
ATOM     28  C21 22U d   1      19.744 -13.180  25.586  0.00  0.00    -0.077 C 
ATOM     29  H24 22U d   1      21.137 -11.774  26.458  0.00  0.00     0.083 H 
ATOM     30  H25 22U d   1      18.883 -12.735  26.071  0.00  0.00     0.084 H 
ENDBRANCH  17  20
ENDBRANCH  15  17
BRANCH  15  31
ATOM     31  N1  22U d   1      16.305 -15.714  23.232  0.00  0.00    -0.066 N 
ATOM     32  H3  22U d   1      15.975 -15.735  22.280  0.00  0.00     0.275 HD
ATOM     33  H4  22U d   1      15.640 -15.220  23.807  0.00  0.00     0.275 HD
ATOM     34  H5  22U d   1      16.409 -16.657  23.572  0.00  0.00     0.275 HD
ENDBRANCH  15  31
ENDBRANCH   1  15
BRANCH   7  35
ATOM     35  C8  22U d   1      16.402 -11.750  20.634  0.00  0.00     0.240 C 
ATOM     36  N3  22U d   1      15.726 -10.608  20.932  0.00  0.00    -0.355 N 
ATOM     37  H14 22U d   1      16.133  -9.903  21.514  0.00  0.00     0.162 HD
ATOM     38  O2  22U d   1      15.885 -12.672  20.014  0.00  0.00    -0.271 OA
BRANCH  36  39
ATOM     39  C9  22U d   1      14.369 -10.443  20.367  0.00  0.00     0.019 C 
ATOM     40  H15 22U d   1      14.133 -11.303  19.724  0.00  0.00     0.071 H 
ATOM     41  H16 22U d   1      14.329  -9.518  19.772  0.00  0.00     0.071 H 
BRANCH  39  42
ATOM     42  C10 22U d   1      13.341 -10.361  21.513  0.00  0.00    -0.039 A 
ATOM     43  C11 22U d   1      13.288  -9.259  22.386  0.00  0.00    -0.054 A 
ATOM     44  C12 22U d   1      12.335  -9.234  23.410  0.00  0.00     0.034 A 
ATOM     45  H17 22U d   1      13.981  -8.434  22.266  0.00  0.00     0.086 H 
ATOM     46  C13 22U d   1      11.438 -10.295  23.561  0.00  0.00    -0.062 A 
ATOM     47 CL1  22U d   1      12.241  -7.883  24.526  0.00  0.00    -0.084 Cl
ATOM     48  C14 22U d   1      11.512 -11.390  22.701  0.00  0.00    -0.081 A 
ATOM     49  H18 22U d   1      10.688 -10.267  24.343  0.00  0.00     0.086 H 
ATOM     50  C15 22U d   1      12.444 -11.403  21.672  0.00  0.00    -0.075 A 
ATOM     51  H19 22U d   1      10.842 -12.231  22.836  0.00  0.00     0.083 H 
ATOM     52  H20 22U d   1      12.470 -12.240  20.984  0.00  0.00     0.084 H 
ENDBRANCH  39  42
ENDBRANCH  36  39
ENDBRANCH   7  35
TORSDOF 7
