REMARK  7 active torsions:
REMARK  status: ('A' for Active; 'I' for Inactive)
REMARK    1  A    between atoms: CAT_6  and  CAU_7 
REMARK    2  A    between atoms: CAS_12  and  CAQ_13 
REMARK    3  A    between atoms: CAQ_13  and  CAP_14 
REMARK    4  A    between atoms: CAP_14  and  CAR_15 
REMARK    5  A    between atoms: CAR_15  and  CAV_16 
REMARK    6  A    between atoms: CAV_16  and  PAW_17 
REMARK    7  A    between atoms: CAV_16  and  SAX_21 
ROOT
ATOM      1  CAU B70 d   1      57.068  17.459  52.922  0.00  0.00    -0.026 A 
ATOM      2  CAO B70 d   1      56.210  17.151  51.872  0.00  0.00    -0.072 A 
ATOM      3  CAM B70 d   1      55.865  15.829  51.610  0.00  0.00    -0.076 A 
ATOM      4  CAN B70 d   1      57.574  16.436  53.715  0.00  0.00    -0.072 A 
ATOM      5  CAL B70 d   1      57.230  15.114  53.451  0.00  0.00    -0.076 A 
ATOM      6  CAS B70 d   1      56.377  14.805  52.396  0.00  0.00    -0.058 A 
ATOM      7  H6  B70 d   1      55.808  17.946  51.254  0.00  0.00     0.084 H 
ATOM      8  H7  B70 d   1      55.195  15.598  50.790  0.00  0.00     0.084 H 
ATOM      9  H8  B70 d   1      58.237  16.668  54.540  0.00  0.00     0.084 H 
ATOM     10  H9  B70 d   1      57.629  14.320  54.071  0.00  0.00     0.084 H 
ENDROOT
BRANCH   6  11
ATOM     11  CAQ B70 d   1      56.030  13.350  52.071  0.00  0.00    -0.041 C 
ATOM     12  H10 B70 d   1      55.392  13.326  51.176  0.00  0.00     0.040 H 
ATOM     13  H11 B70 d   1      55.486  12.913  52.921  0.00  0.00     0.040 H 
BRANCH  11  14
ATOM     14  CAP B70 d   1      57.291  12.521  51.807  0.00  0.00    -0.059 C 
ATOM     15  H12 B70 d   1      57.900  12.498  52.723  0.00  0.00     0.033 H 
ATOM     16  H13 B70 d   1      57.865  12.995  50.997  0.00  0.00     0.033 H 
BRANCH  14  17
ATOM     17  CAR B70 d   1      56.953  11.084  51.400  0.00  0.00    -0.034 C 
ATOM     18  H14 B70 d   1      57.890  10.550  51.182  0.00  0.00     0.036 H 
ATOM     19  H15 B70 d   1      56.328  11.112  50.495  0.00  0.00     0.036 H 
BRANCH  17  20
ATOM     20  CAV B70 d   1      56.198  10.324  52.494  0.00  0.00     0.169 C 
ATOM     21  H16 B70 d   1      55.299  10.905  52.745  0.00  0.00     0.090 H 
BRANCH  20  22
ATOM     22  PAW B70 d   1      57.218  10.169  54.014  0.00  0.00     0.281 P 
ATOM     23  OAB B70 d   1      57.028   8.674  54.582  0.00  0.00    -0.639 OA
ATOM     24  OAC B70 d   1      58.746  10.262  53.516  0.00  0.00    -0.639 OA
ATOM     25  OAA B70 d   1      56.865  11.197  55.019  0.00  0.00    -0.639 OA
ENDBRANCH  20  22
BRANCH  20  26
ATOM     26  SAX B70 d   1      55.657   8.669  51.924  0.00  0.00     0.119 S 
ATOM     27  OAF B70 d   1      54.628   8.825  50.941  0.00  0.00    -0.594 OA
ATOM     28  OAE B70 d   1      55.113   7.869  53.072  0.00  0.00    -0.594 OA
ATOM     29  OAD B70 d   1      56.819   7.934  51.324  0.00  0.00    -0.594 OA
ENDBRANCH  20  26
ENDBRANCH  17  20
ENDBRANCH  14  17
ENDBRANCH  11  14
ENDBRANCH   6  11
BRANCH   1  30
ATOM     30  CAT B70 d   1      57.405  18.785  53.167  0.00  0.00    -0.026 A 
ATOM     31  CAJ B70 d   1      57.921  19.169  54.400  0.00  0.00    -0.072 A 
ATOM     32  CAH B70 d   1      58.190  20.508  54.662  0.00  0.00    -0.082 A 
ATOM     33  H1  B70 d   1      58.114  18.421  55.160  0.00  0.00     0.084 H 
ATOM     34  CAG B70 d   1      57.948  21.474  53.691  0.00  0.00    -0.083 A 
ATOM     35  H2  B70 d   1      58.590  20.800  55.626  0.00  0.00     0.083 H 
ATOM     36  CAI B70 d   1      57.442  21.090  52.455  0.00  0.00    -0.082 A 
ATOM     37  H3  B70 d   1      58.153  22.518  53.897  0.00  0.00     0.083 H 
ATOM     38  CAK B70 d   1      57.174  19.750  52.193  0.00  0.00    -0.072 A 
ATOM     39  H4  B70 d   1      57.255  21.837  51.692  0.00  0.00     0.083 H 
ATOM     40  H5  B70 d   1      56.783  19.457  51.225  0.00  0.00     0.084 H 
ENDBRANCH   1  30
TORSDOF 7
