REMARK  9 active torsions:
REMARK  status: ('A' for Active; 'I' for Inactive)
REMARK       I    between atoms: N1_1  and  C14_19 
REMARK    1  A    between atoms: C1_2  and  C7_3 
REMARK       I    between atoms: C7_3  and  N23_5 
REMARK    2  A    between atoms: N23_5  and  C24_6 
REMARK    3  A    between atoms: C24_6  and  C25_7 
REMARK    4  A    between atoms: C28_10  and  C21_11 
REMARK    5  A    between atoms: C21_11  and  N46_12 
REMARK    6  A    between atoms: C14_19  and  C5_20 
REMARK    7  A    between atoms: C5_20  and  N13_21 
REMARK    8  A    between atoms: C5_20  and  C33_22 
REMARK    9  A    between atoms: C33_22  and  C6_24 
ROOT
ATOM      1  N1  32U d   1      18.534 -13.495  21.702  0.00  0.00    -0.337 N 
ATOM      2  C1  32U d   1      18.402 -12.188  21.106  0.00  0.00     0.091 C 
ATOM      3  C2  32U d   1      19.493 -12.258  19.996  0.00  0.00    -0.036 C 
ATOM      4  C3  32U d   1      20.554 -13.151  20.684  0.00  0.00    -0.048 C 
ATOM      5  C4  32U d   1      19.715 -14.279  21.340  0.00  0.00    -0.001 C 
ATOM      6  C14 32U d   1      17.642 -13.900  22.652  0.00  0.00     0.251 C 
ATOM      7  O32 32U d   1      16.747 -13.138  23.007  0.00  0.00    -0.271 OA
ATOM      8  H1  32U d   1      18.552 -11.366  21.821  0.00  0.00     0.087 H 
ATOM      9  H13 32U d   1      19.895 -11.261  19.760  0.00  0.00     0.036 H 
ATOM     10  H14 32U d   1      19.106 -12.724  19.078  0.00  0.00     0.036 H 
ATOM     11  H15 32U d   1      21.111 -12.584  21.444  0.00  0.00     0.035 H 
ATOM     12  H16 32U d   1      21.258 -13.564  19.946  0.00  0.00     0.035 H 
ATOM     13  H17 32U d   1      19.476 -15.083  20.629  0.00  0.00     0.064 H 
ATOM     14  H18 32U d   1      20.214 -14.706  22.222  0.00  0.00     0.064 H 
ENDROOT
BRANCH   2  15
ATOM     15  C7  32U d   1      17.055 -12.099  20.411  0.00  0.00     0.240 C 
ATOM     16  O22 32U d   1      16.607 -13.059  19.798  0.00  0.00    -0.271 OA
ATOM     17  N23 32U d   1      16.440 -10.894  20.488  0.00  0.00    -0.355 N 
ATOM     18  H2  32U d   1      16.817 -10.121  20.998  0.00  0.00     0.162 HD
BRANCH  17  19
ATOM     19  C24 32U d   1      15.161 -10.826  19.749  0.00  0.00     0.019 C 
ATOM     20  H3  32U d   1      15.050 -11.703  19.095  0.00  0.00     0.071 H 
ATOM     21  H4  32U d   1      15.117  -9.909  19.143  0.00  0.00     0.071 H 
BRANCH  19  22
ATOM     22  C25 32U d   1      14.056 -10.814  20.821  0.00  0.00    -0.040 A 
ATOM     23  C26 32U d   1      13.633 -12.011  21.385  0.00  0.00    -0.074 A 
ATOM     24  C27 32U d   1      12.636 -12.028  22.357  0.00  0.00    -0.069 A 
ATOM     25  H5  32U d   1      14.085 -12.943  21.065  0.00  0.00     0.084 H 
ATOM     26  C28 32U d   1      12.038 -10.838  22.783  0.00  0.00     0.007 A 
ATOM     27  H6  32U d   1      12.321 -12.972  22.787  0.00  0.00     0.085 H 
ATOM     28  C29 32U d   1      12.472  -9.648  22.210  0.00  0.00    -0.069 A 
ATOM     29  C30 32U d   1      13.472  -9.623  21.235  0.00  0.00    -0.074 A 
ATOM     30  H11 32U d   1      12.022  -8.714  22.528  0.00  0.00     0.085 H 
ATOM     31  H12 32U d   1      13.790  -8.681  20.804  0.00  0.00     0.084 H 
BRANCH  26  32
ATOM     32  C21 32U d   1      10.885 -10.829  23.903  0.00  0.00     0.102 C 
ATOM     33  N47 32U d   1      10.235 -11.934  24.195  0.00  0.00    -0.385 N 
ATOM     34  H9  32U d   1      10.464 -12.811  23.706  0.00  0.00     0.157 HD
ATOM     35  H10 32U d   1       9.496 -11.923  24.913  0.00  0.00     0.157 HD
BRANCH  32  36
ATOM     36  N46 32U d   1      10.595  -9.697  24.528  0.00  0.00    -0.385 N 
ATOM     37  H7  32U d   1       9.858  -9.680  25.247  0.00  0.00     0.157 HD
ATOM     38  H8  32U d   1      11.107  -8.834  24.294  0.00  0.00     0.157 HD
ENDBRANCH  32  36
ENDBRANCH  26  32
ENDBRANCH  19  22
ENDBRANCH  17  19
ENDBRANCH   2  15
BRANCH   6  39
ATOM     39  C5  32U d   1      17.707 -15.263  23.293  0.00  0.00     0.179 C 
ATOM     40  H19 32U d   1      18.441 -15.857  22.730  0.00  0.00     0.099 H 
BRANCH  39  41
ATOM     41  N13 32U d   1      16.407 -15.969  23.217  0.00  0.00    -0.066 N 
ATOM     42  H20 32U d   1      16.490 -16.873  23.654  0.00  0.00     0.275 HD
ATOM     43  H21 32U d   1      16.144 -16.086  22.251  0.00  0.00     0.275 HD
ATOM     44  H22 32U d   1      15.703 -15.428  23.694  0.00  0.00     0.275 HD
ENDBRANCH  39  41
BRANCH  39  45
ATOM     45  C33 32U d   1      18.200 -15.178  24.766  0.00  0.00    -0.006 C 
ATOM     46  H23 32U d   1      18.146 -16.178  25.222  0.00  0.00     0.043 H 
ATOM     47  H24 32U d   1      17.552 -14.486  25.323  0.00  0.00     0.043 H 
BRANCH  45  48
ATOM     48  C6  32U d   1      19.633 -14.678  24.832  0.00  0.00    -0.056 A 
ATOM     49  C8  32U d   1      20.702 -15.489  24.440  0.00  0.00    -0.077 A 
ATOM     50  C9  32U d   1      22.008 -15.006  24.509  0.00  0.00    -0.082 A 
ATOM     51  H25 32U d   1      20.515 -16.495  24.082  0.00  0.00     0.084 H 
ATOM     52  C10 32U d   1      22.270 -13.718  24.967  0.00  0.00    -0.083 A 
ATOM     53  H26 32U d   1      22.830 -15.642  24.202  0.00  0.00     0.083 H 
ATOM     54  C11 32U d   1      21.197 -12.907  25.362  0.00  0.00    -0.082 A 
ATOM     55  H27 32U d   1      23.288 -13.348  25.017  0.00  0.00     0.083 H 
ATOM     56  C12 32U d   1      19.899 -13.391  25.291  0.00  0.00    -0.077 A 
ATOM     57  H28 32U d   1      21.382 -11.902  25.723  0.00  0.00     0.083 H 
ATOM     58  H29 32U d   1      19.077 -12.755  25.599  0.00  0.00     0.084 H 
ENDBRANCH  45  48
ENDBRANCH  39  45
ENDBRANCH   6  39
TORSDOF 9
