REMARK  8 active torsions:
REMARK  status: ('A' for Active; 'I' for Inactive)
REMARK       I    between atoms: N1_1  and  C14_19 
REMARK    1  A    between atoms: C1_2  and  C7_3 
REMARK       I    between atoms: C7_3  and  N23_5 
REMARK    2  A    between atoms: N23_5  and  C24_6 
REMARK    3  A    between atoms: C24_6  and  C25_7 
REMARK    4  A    between atoms: C28_10  and  C21_11 
REMARK    5  A    between atoms: C21_11  and  N46_12 
REMARK    6  A    between atoms: C14_19  and  C5_20 
REMARK    7  A    between atoms: C5_20  and  C43_21 
REMARK    8  A    between atoms: C43_21  and  C44_22 
ROOT
ATOM      1  N1  50U d   1     -28.218   1.166  15.629  0.00  0.00    -0.339 N 
ATOM      2  C1  50U d   1     -27.360   0.692  14.566  0.00  0.00     0.091 C 
ATOM      3  C2  50U d   1     -28.404   0.679  13.429  0.00  0.00    -0.036 C 
ATOM      4  C3  50U d   1     -29.801   0.659  14.061  0.00  0.00    -0.048 C 
ATOM      5  C4  50U d   1     -29.664   1.257  15.484  0.00  0.00    -0.001 C 
ATOM      6  C14 50U d   1     -27.711   1.418  16.793  0.00  0.00     0.220 C 
ATOM      7  O32 50U d   1     -26.533   1.218  17.032  0.00  0.00    -0.273 OA
ATOM      8  H1  50U d   1     -26.938  -0.303  14.773  0.00  0.00     0.087 H 
ATOM      9  H13 50U d   1     -28.265  -0.217  12.806  0.00  0.00     0.036 H 
ATOM     10  H14 50U d   1     -28.289   1.580  12.808  0.00  0.00     0.036 H 
ATOM     11  H15 50U d   1     -30.174  -0.374  14.120  0.00  0.00     0.035 H 
ATOM     12  H16 50U d   1     -30.495   1.266  13.462  0.00  0.00     0.035 H 
ATOM     13  H17 50U d   1     -30.019   2.297  15.530  0.00  0.00     0.064 H 
ATOM     14  H18 50U d   1     -30.193   0.655  16.237  0.00  0.00     0.064 H 
ENDROOT
BRANCH   2  15
ATOM     15  C7  50U d   1     -26.258   1.672  14.255  0.00  0.00     0.240 C 
ATOM     16  O22 50U d   1     -26.449   2.883  14.299  0.00  0.00    -0.271 OA
ATOM     17  N23 50U d   1     -25.172   1.084  13.954  0.00  0.00    -0.355 N 
ATOM     18  H2  50U d   1     -25.118   0.087  14.010  0.00  0.00     0.162 HD
BRANCH  17  19
ATOM     19  C24 50U d   1     -24.016   1.837  13.533  0.00  0.00     0.019 C 
ATOM     20  H3  50U d   1     -24.280   2.902  13.450  0.00  0.00     0.071 H 
ATOM     21  H4  50U d   1     -23.671   1.467  12.556  0.00  0.00     0.071 H 
BRANCH  19  22
ATOM     22  C25 50U d   1     -22.891   1.663  14.579  0.00  0.00    -0.040 A 
ATOM     23  C26 50U d   1     -23.128   2.008  15.913  0.00  0.00    -0.074 A 
ATOM     24  C27 50U d   1     -22.106   1.850  16.866  0.00  0.00    -0.069 A 
ATOM     25  H5  50U d   1     -24.095   2.396  16.211  0.00  0.00     0.084 H 
ATOM     26  C28 50U d   1     -20.855   1.352  16.484  0.00  0.00     0.007 A 
ATOM     27  H6  50U d   1     -22.288   2.115  17.901  0.00  0.00     0.085 H 
ATOM     28  C29 50U d   1     -20.619   1.004  15.134  0.00  0.00    -0.069 A 
ATOM     29  C30 50U d   1     -21.650   1.167  14.196  0.00  0.00    -0.074 A 
ATOM     30  H11 50U d   1     -19.654   0.616  14.828  0.00  0.00     0.085 H 
ATOM     31  H12 50U d   1     -21.477   0.903  13.159  0.00  0.00     0.084 H 
BRANCH  26  32
ATOM     32  C21 50U d   1     -19.711   1.155  17.445  0.00  0.00     0.102 C 
ATOM     33  N47 50U d   1     -18.921   0.165  17.241  0.00  0.00    -0.385 N 
ATOM     34  H9  50U d   1     -19.079  -0.464  16.441  0.00  0.00     0.157 HD
ATOM     35  H10 50U d   1     -18.128  -0.001  17.877  0.00  0.00     0.157 HD
BRANCH  32  36
ATOM     36  N46 50U d   1     -19.540   1.956  18.433  0.00  0.00    -0.385 N 
ATOM     37  H7  50U d   1     -18.755   1.811  19.083  0.00  0.00     0.157 HD
ATOM     38  H8  50U d   1     -20.188   2.744  18.576  0.00  0.00     0.157 HD
ENDBRANCH  32  36
ENDBRANCH  26  32
ENDBRANCH  19  22
ENDBRANCH  17  19
ENDBRANCH   2  15
BRANCH   6  39
ATOM     39  C5  50U d   1     -28.515   2.016  17.948  0.00  0.00     0.010 C 
ATOM     40  H19 50U d   1     -29.553   2.181  17.623  0.00  0.00     0.047 H 
ATOM     41  H20 50U d   1     -28.067   2.975  18.246  0.00  0.00     0.047 H 
BRANCH  39  42
ATOM     42  C43 50U d   1     -28.504   1.049  19.155  0.00  0.00    -0.054 C 
ATOM     43  H21 50U d   1     -29.093   1.506  19.964  0.00  0.00     0.034 H 
ATOM     44  H22 50U d   1     -27.462   0.927  19.485  0.00  0.00     0.034 H 
BRANCH  42  45
ATOM     45  C44 50U d   1     -29.088  -0.362  18.872  0.00  0.00    -0.054 C 
ATOM     46  C49 50U d   1     -28.773  -1.379  19.977  0.00  0.00    -0.062 C 
ATOM     47  C48 50U d   1     -29.174  -2.844  19.631  0.00  0.00    -0.065 C 
ATOM     48  H24 50U d   1     -29.314  -1.079  20.886  0.00  0.00     0.033 H 
ATOM     49  H25 50U d   1     -27.690  -1.354  20.170  0.00  0.00     0.033 H 
ATOM     50  C47 50U d   1     -30.615  -2.933  19.127  0.00  0.00    -0.065 C 
ATOM     51  H26 50U d   1     -29.074  -3.464  20.534  0.00  0.00     0.033 H 
ATOM     52  H27 50U d   1     -28.499  -3.223  18.849  0.00  0.00     0.033 H 
ATOM     53  C46 50U d   1     -31.091  -1.779  18.242  0.00  0.00    -0.065 C 
ATOM     54  H28 50U d   1     -31.276  -2.978  20.005  0.00  0.00     0.033 H 
ATOM     55  H29 50U d   1     -30.712  -3.863  18.547  0.00  0.00     0.033 H 
ATOM     56  C45 50U d   1     -30.599  -0.364  18.568  0.00  0.00    -0.062 C 
ATOM     57  H30 50U d   1     -32.190  -1.762  18.292  0.00  0.00     0.033 H 
ATOM     58  H31 50U d   1     -30.774  -2.005  17.213  0.00  0.00     0.033 H 
ATOM     59  H32 50U d   1     -30.794   0.292  17.707  0.00  0.00     0.033 H 
ATOM     60  H33 50U d   1     -31.143   0.013  19.447  0.00  0.00     0.033 H 
ATOM     61  H23 50U d   1     -28.585  -0.720  17.961  0.00  0.00     0.040 H 
ENDBRANCH  42  45
ENDBRANCH  39  42
ENDBRANCH   6  39
TORSDOF 8
