REMARK  8 active torsions:
REMARK  status: ('A' for Active; 'I' for Inactive)
REMARK    1  A    between atoms: C14_2  and  C5_3 
REMARK       I    between atoms: C14_2  and  N1_10 
REMARK    2  A    between atoms: C5_3  and  O21_4 
REMARK    3  A    between atoms: O21_4  and  C44_5 
REMARK    4  A    between atoms: C1_11  and  C7_15 
REMARK       I    between atoms: C7_15  and  N23_17 
REMARK    5  A    between atoms: N23_17  and  C24_18 
REMARK    6  A    between atoms: C24_18  and  C25_19 
REMARK    7  A    between atoms: C28_22  and  C21_23 
REMARK    8  A    between atoms: C21_23  and  N46_24 
ROOT
ATOM      1  O32 45U d   1     -27.114   1.250  17.312  0.00  0.00    -0.271 OA
ATOM      2  C14 45U d   1     -28.289   1.268  16.975  0.00  0.00     0.244 C 
ATOM      3  N1  45U d   1     -28.600   1.076  15.680  0.00  0.00    -0.337 N 
ATOM      4  C1  45U d   1     -27.631   0.537  14.742  0.00  0.00     0.091 C 
ATOM      5  C2  45U d   1     -28.442   0.419  13.456  0.00  0.00    -0.036 C 
ATOM      6  C3  45U d   1     -29.810   1.051  13.661  0.00  0.00    -0.048 C 
ATOM      7  C4  45U d   1     -30.045   1.076  15.160  0.00  0.00    -0.001 C 
ATOM      8  H12 45U d   1     -27.195  -0.421  15.062  0.00  0.00     0.087 H 
ATOM      9  H13 45U d   1     -28.564  -0.643  13.195  0.00  0.00     0.036 H 
ATOM     10  H14 45U d   1     -27.916   0.939  12.642  0.00  0.00     0.036 H 
ATOM     11  H15 45U d   1     -30.586   0.451  13.164  0.00  0.00     0.035 H 
ATOM     12  H16 45U d   1     -29.822   2.074  13.256  0.00  0.00     0.035 H 
ATOM     13  H17 45U d   1     -30.586   1.982  15.470  0.00  0.00     0.064 H 
ATOM     14  H18 45U d   1     -30.596   0.186  15.498  0.00  0.00     0.064 H 
ENDROOT
BRANCH   4  15
ATOM     15  C7  45U d   1     -26.588   1.607  14.567  0.00  0.00     0.240 C 
ATOM     16  O22 45U d   1     -26.765   2.784  14.801  0.00  0.00    -0.271 OA
ATOM     17  N23 45U d   1     -25.448   1.195  14.089  0.00  0.00    -0.355 N 
ATOM     18  H19 45U d   1     -25.295   0.207  14.081  0.00  0.00     0.162 HD
BRANCH  17  19
ATOM     19  C24 45U d   1     -24.367   2.032  13.562  0.00  0.00     0.019 C 
ATOM     20  H20 45U d   1     -24.683   3.082  13.474  0.00  0.00     0.071 H 
ATOM     21  H21 45U d   1     -24.023   1.669  12.582  0.00  0.00     0.071 H 
BRANCH  19  22
ATOM     22  C25 45U d   1     -23.271   1.866  14.635  0.00  0.00    -0.040 A 
ATOM     23  C26 45U d   1     -22.006   1.378  14.365  0.00  0.00    -0.074 A 
ATOM     24  C27 45U d   1     -20.968   1.207  15.315  0.00  0.00    -0.069 A 
ATOM     25  H22 45U d   1     -21.789   1.103  13.339  0.00  0.00     0.084 H 
ATOM     26  C28 45U d   1     -21.035   1.497  16.672  0.00  0.00     0.007 A 
ATOM     27  H23 45U d   1     -20.029   0.811  14.946  0.00  0.00     0.085 H 
ATOM     28  C29 45U d   1     -22.287   1.978  16.934  0.00  0.00    -0.069 A 
ATOM     29  C30 45U d   1     -23.358   2.161  15.991  0.00  0.00    -0.074 A 
ATOM     30  H28 45U d   1     -22.495   2.251  17.962  0.00  0.00     0.085 H 
ATOM     31  H29 45U d   1     -24.297   2.556  16.363  0.00  0.00     0.084 H 
BRANCH  26  32
ATOM     32  C21 45U d   1     -19.877   1.289  17.645  0.00  0.00     0.102 C 
ATOM     33  N47 45U d   1     -19.714   2.050  18.720  0.00  0.00    -0.385 N 
ATOM     34  H26 45U d   1     -20.380   2.810  18.919  0.00  0.00     0.157 HD
ATOM     35  H27 45U d   1     -18.922   1.880  19.356  0.00  0.00     0.157 HD
BRANCH  32  36
ATOM     36  N46 45U d   1     -19.061   0.287  17.318  0.00  0.00    -0.385 N 
ATOM     37  H24 45U d   1     -18.250   0.068  17.913  0.00  0.00     0.157 HD
ATOM     38  H25 45U d   1     -19.242  -0.269  16.470  0.00  0.00     0.157 HD
ENDBRANCH  32  36
ENDBRANCH  26  32
ENDBRANCH  19  22
ENDBRANCH  17  19
ENDBRANCH   4  15
BRANCH   2  39
ATOM     39  C5  45U d   1     -29.201   1.524  18.166  0.00  0.00     0.093 C 
ATOM     40  H1  45U d   1     -29.663   2.515  18.046  0.00  0.00     0.089 H 
ATOM     41  H2  45U d   1     -28.592   1.512  19.082  0.00  0.00     0.089 H 
BRANCH  39  42
ATOM     42  O21 45U d   1     -30.210   0.579  18.295  0.00  0.00    -0.377 OA
BRANCH  42  43
ATOM     43  C44 45U d   1     -30.421  -0.513  19.154  0.00  0.00     0.039 C 
ATOM     44  C49 45U d   1     -29.046  -1.222  19.219  0.00  0.00    -0.041 C 
ATOM     45  C48 45U d   1     -29.277  -2.699  19.530  0.00  0.00    -0.063 C 
ATOM     46  H4  45U d   1     -28.431  -0.768  20.010  0.00  0.00     0.036 H 
ATOM     47  H5  45U d   1     -28.531  -1.123  18.252  0.00  0.00     0.036 H 
ATOM     48  C47 45U d   1     -30.717  -2.998  19.228  0.00  0.00    -0.063 C 
ATOM     49  H6  45U d   1     -29.066  -2.898  20.591  0.00  0.00     0.033 H 
ATOM     50  H7  45U d   1     -28.623  -3.323  18.903  0.00  0.00     0.033 H 
ATOM     51  C45 45U d   1     -31.239  -1.715  18.513  0.00  0.00    -0.041 C 
ATOM     52  H8  45U d   1     -31.279  -3.182  20.155  0.00  0.00     0.033 H 
ATOM     53  H9  45U d   1     -30.802  -3.873  18.567  0.00  0.00     0.033 H 
ATOM     54  H10 45U d   1     -31.052  -1.774  17.431  0.00  0.00     0.036 H 
ATOM     55  H11 45U d   1     -32.317  -1.586  18.692  0.00  0.00     0.036 H 
ATOM     56  H3  45U d   1     -30.826  -0.190  20.124  0.00  0.00     0.083 H 
ENDBRANCH  42  43
ENDBRANCH  39  42
ENDBRANCH   2  39
TORSDOF 8
