REMARK  8 active torsions:
REMARK  status: ('A' for Active; 'I' for Inactive)
REMARK    1  A    between atoms: C14_2  and  C5_3 
REMARK       I    between atoms: C14_2  and  N1_11 
REMARK    2  A    between atoms: C5_3  and  O21_4 
REMARK    3  A    between atoms: O21_4  and  C44_5 
REMARK    4  A    between atoms: C1_12  and  C7_16 
REMARK       I    between atoms: C7_16  and  N23_18 
REMARK    5  A    between atoms: N23_18  and  C24_19 
REMARK    6  A    between atoms: C24_19  and  C25_20 
REMARK    7  A    between atoms: C28_23  and  C21_24 
REMARK    8  A    between atoms: C21_24  and  N46_25 
ROOT
ATOM      1  O32 46U d   1     -26.663   1.152  17.146  0.00  0.00    -0.271 OA
ATOM      2  C14 46U d   1     -27.821   1.210  16.765  0.00  0.00     0.244 C 
ATOM      3  N1  46U d   1     -28.221   0.945  15.578  0.00  0.00    -0.337 N 
ATOM      4  C1  46U d   1     -27.195   0.507  14.636  0.00  0.00     0.091 C 
ATOM      5  C2  46U d   1     -27.816   0.281  13.254  0.00  0.00    -0.036 C 
ATOM      6  C3  46U d   1     -29.225   0.826  13.431  0.00  0.00    -0.048 C 
ATOM      7  C4  46U d   1     -29.564   0.842  14.921  0.00  0.00    -0.001 C 
ATOM      8  H14 46U d   1     -26.755  -0.424  15.023  0.00  0.00     0.087 H 
ATOM      9  H15 46U d   1     -27.833  -0.788  12.996  0.00  0.00     0.036 H 
ATOM     10  H16 46U d   1     -27.270   0.837  12.477  0.00  0.00     0.036 H 
ATOM     11  H17 46U d   1     -29.940   0.183  12.896  0.00  0.00     0.035 H 
ATOM     12  H18 46U d   1     -29.279   1.848  13.029  0.00  0.00     0.035 H 
ATOM     13  H19 46U d   1     -30.194   1.708  15.173  0.00  0.00     0.064 H 
ATOM     14  H20 46U d   1     -30.078  -0.084  15.218  0.00  0.00     0.064 H 
ENDROOT
BRANCH   4  15
ATOM     15  C7  46U d   1     -26.080   1.508  14.332  0.00  0.00     0.240 C 
ATOM     16  O22 46U d   1     -26.229   2.727  14.425  0.00  0.00    -0.271 OA
ATOM     17  N23 46U d   1     -24.847   1.086  13.949  0.00  0.00    -0.355 N 
ATOM     18  H21 46U d   1     -24.716   0.099  13.852  0.00  0.00     0.162 HD
BRANCH  17  19
ATOM     19  C24 46U d   1     -23.684   1.944  13.663  0.00  0.00     0.019 C 
ATOM     20  H22 46U d   1     -24.006   2.996  13.678  0.00  0.00     0.071 H 
ATOM     21  H23 46U d   1     -23.295   1.694  12.665  0.00  0.00     0.071 H 
BRANCH  19  22
ATOM     22  C25 46U d   1     -22.575   1.754  14.685  0.00  0.00    -0.040 A 
ATOM     23  C26 46U d   1     -21.352   1.248  14.239  0.00  0.00    -0.074 A 
ATOM     24  C27 46U d   1     -20.319   1.063  15.151  0.00  0.00    -0.069 A 
ATOM     25  H24 46U d   1     -21.210   1.002  13.193  0.00  0.00     0.084 H 
ATOM     26  C28 46U d   1     -20.469   1.368  16.497  0.00  0.00     0.007 A 
ATOM     27  H25 46U d   1     -19.371   0.670  14.802  0.00  0.00     0.085 H 
ATOM     28  C29 46U d   1     -21.654   1.863  16.954  0.00  0.00    -0.069 A 
ATOM     29  C30 46U d   1     -22.700   2.054  16.050  0.00  0.00    -0.074 A 
ATOM     30  H30 46U d   1     -21.782   2.104  18.003  0.00  0.00     0.085 H 
ATOM     31  H31 46U d   1     -23.642   2.448  16.415  0.00  0.00     0.084 H 
BRANCH  26  32
ATOM     32  C21 46U d   1     -19.328   1.153  17.444  0.00  0.00     0.102 C 
ATOM     33  N47 46U d   1     -19.132   1.936  18.491  0.00  0.00    -0.385 N 
ATOM     34  H28 46U d   1     -19.773   2.721  18.674  0.00  0.00     0.157 HD
ATOM     35  H29 46U d   1     -18.338   1.761  19.123  0.00  0.00     0.157 HD
BRANCH  32  36
ATOM     36  N46 46U d   1     -18.504   0.150  17.214  0.00  0.00    -0.385 N 
ATOM     37  H26 46U d   1     -17.711  -0.021  17.849  0.00  0.00     0.157 HD
ATOM     38  H27 46U d   1     -18.653  -0.463  16.399  0.00  0.00     0.157 HD
ENDBRANCH  32  36
ENDBRANCH  26  32
ENDBRANCH  19  22
ENDBRANCH  17  19
ENDBRANCH   4  15
BRANCH   2  39
ATOM     39  C5  46U d   1     -28.779   1.675  17.873  0.00  0.00     0.093 C 
ATOM     40  H1  46U d   1     -29.489   2.370  17.400  0.00  0.00     0.089 H 
ATOM     41  H2  46U d   1     -28.166   2.219  18.607  0.00  0.00     0.089 H 
BRANCH  39  42
ATOM     42  O21 46U d   1     -29.547   0.756  18.600  0.00  0.00    -0.377 OA
BRANCH  42  43
ATOM     43  C44 46U d   1     -29.323  -0.609  18.721  0.00  0.00     0.039 C 
ATOM     44  C49 46U d   1     -30.590  -1.447  18.764  0.00  0.00    -0.041 C 
ATOM     45  C48 46U d   1     -30.437  -2.930  18.992  0.00  0.00    -0.063 C 
ATOM     46  H4  46U d   1     -31.106  -1.313  17.802  0.00  0.00     0.036 H 
ATOM     47  H5  46U d   1     -31.219  -1.052  19.576  0.00  0.00     0.036 H 
ATOM     48  C47 46U d   1     -29.792  -2.994  20.318  0.00  0.00    -0.065 C 
ATOM     49  H6  46U d   1     -29.800  -3.386  18.220  0.00  0.00     0.033 H 
ATOM     50  H7  46U d   1     -31.416  -3.432  19.003  0.00  0.00     0.033 H 
ATOM     51  C46 46U d   1     -28.484  -2.266  20.364  0.00  0.00    -0.063 C 
ATOM     52  H8  46U d   1     -29.616  -4.050  20.572  0.00  0.00     0.033 H 
ATOM     53  H9  46U d   1     -30.469  -2.546  21.060  0.00  0.00     0.033 H 
ATOM     54  C45 46U d   1     -28.689  -0.830  20.027  0.00  0.00    -0.041 C 
ATOM     55  H10 46U d   1     -27.791  -2.715  19.637  0.00  0.00     0.033 H 
ATOM     56  H11 46U d   1     -28.058  -2.346  21.375  0.00  0.00     0.033 H 
ATOM     57  H12 46U d   1     -29.327  -0.380  20.802  0.00  0.00     0.036 H 
ATOM     58  H13 46U d   1     -27.708  -0.332  20.024  0.00  0.00     0.036 H 
ATOM     59  H3  46U d   1     -28.676  -0.948  17.898  0.00  0.00     0.083 H 
ENDBRANCH  42  43
ENDBRANCH  39  42
ENDBRANCH   2  39
TORSDOF 8
