REMARK  8 active torsions:
REMARK  status: ('A' for Active; 'I' for Inactive)
REMARK    1  A    between atoms: C44_3  and  C21_6 
REMARK    2  A    between atoms: C21_6  and  C5_7 
REMARK    3  A    between atoms: C5_7  and  C14_8 
REMARK       I    between atoms: C14_8  and  N1_10 
REMARK    4  A    between atoms: C1_11  and  C7_12 
REMARK       I    between atoms: C7_12  and  N23_17 
REMARK    5  A    between atoms: N23_17  and  C24_18 
REMARK    6  A    between atoms: C24_18  and  C25_19 
REMARK    7  A    between atoms: C28_22  and  C9_23 
REMARK    8  A    between atoms: C9_23  and  N46_24 
ROOT
ATOM      1  C14 49U d   1     -27.626   1.341  16.897  0.00  0.00     0.220 C 
ATOM      2  O32 49U d   1     -26.413   1.222  17.033  0.00  0.00    -0.273 OA
ATOM      3  N1  49U d   1     -28.190   1.202  15.702  0.00  0.00    -0.339 N 
ATOM      4  C1  49U d   1     -27.416   0.793  14.537  0.00  0.00     0.091 C 
ATOM      5  C2  49U d   1     -28.451   0.952  13.443  0.00  0.00    -0.036 C 
ATOM      6  C3  49U d   1     -29.848   0.925  14.015  0.00  0.00    -0.048 C 
ATOM      7  C4  49U d   1     -29.615   1.453  15.415  0.00  0.00    -0.001 C 
ATOM      8  H14 49U d   1     -27.090  -0.253  14.631  0.00  0.00     0.087 H 
ATOM      9  H15 49U d   1     -28.341   0.129  12.721  0.00  0.00     0.036 H 
ATOM     10  H16 49U d   1     -28.290   1.912  12.931  0.00  0.00     0.036 H 
ATOM     11  H17 49U d   1     -30.254  -0.097  14.034  0.00  0.00     0.035 H 
ATOM     12  H18 49U d   1     -30.527   1.579  13.447  0.00  0.00     0.035 H 
ATOM     13  H19 49U d   1     -29.832   2.530  15.460  0.00  0.00     0.064 H 
ATOM     14  H20 49U d   1     -30.252   0.921  16.137  0.00  0.00     0.064 H 
ENDROOT
BRANCH   4  15
ATOM     15  C7  49U d   1     -26.218   1.649  14.279  0.00  0.00     0.240 C 
ATOM     16  O22 49U d   1     -26.263   2.855  14.452  0.00  0.00    -0.271 OA
ATOM     17  N23 49U d   1     -25.084   1.145  13.896  0.00  0.00    -0.355 N 
ATOM     18  H21 49U d   1     -25.052   0.149  13.809  0.00  0.00     0.162 HD
BRANCH  17  19
ATOM     19  C24 49U d   1     -23.887   1.835  13.587  0.00  0.00     0.019 C 
ATOM     20  H22 49U d   1     -24.120   2.905  13.481  0.00  0.00     0.071 H 
ATOM     21  H23 49U d   1     -23.500   1.448  12.633  0.00  0.00     0.071 H 
BRANCH  19  22
ATOM     22  C25 49U d   1     -22.833   1.687  14.612  0.00  0.00    -0.040 A 
ATOM     23  C30 49U d   1     -23.026   1.973  15.929  0.00  0.00    -0.074 A 
ATOM     24  C29 49U d   1     -21.987   1.810  16.838  0.00  0.00    -0.069 A 
ATOM     25  H24 49U d   1     -23.992   2.329  16.269  0.00  0.00     0.084 H 
ATOM     26  C28 49U d   1     -20.741   1.360  16.456  0.00  0.00     0.007 A 
ATOM     27  H25 49U d   1     -22.162   2.045  17.882  0.00  0.00     0.085 H 
ATOM     28  C27 49U d   1     -20.560   1.073  15.109  0.00  0.00    -0.069 A 
ATOM     29  C26 49U d   1     -21.591   1.231  14.180  0.00  0.00    -0.074 A 
ATOM     30  H30 49U d   1     -19.594   0.717  14.770  0.00  0.00     0.085 H 
ATOM     31  H31 49U d   1     -21.426   1.001  13.134  0.00  0.00     0.084 H 
BRANCH  26  32
ATOM     32  C9  49U d   1     -19.616   1.183  17.436  0.00  0.00     0.102 C 
ATOM     33  N47 49U d   1     -18.765   0.181  17.291  0.00  0.00    -0.385 N 
ATOM     34  H28 49U d   1     -18.874  -0.478  16.507  0.00  0.00     0.157 HD
ATOM     35  H29 49U d   1     -17.993   0.060  17.962  0.00  0.00     0.157 HD
BRANCH  32  36
ATOM     36  N46 49U d   1     -19.474   2.030  18.445  0.00  0.00    -0.385 N 
ATOM     37  H26 49U d   1     -18.702   1.907  19.116  0.00  0.00     0.157 HD
ATOM     38  H27 49U d   1     -20.136   2.811  18.558  0.00  0.00     0.157 HD
ENDBRANCH  32  36
ENDBRANCH  26  32
ENDBRANCH  19  22
ENDBRANCH  17  19
ENDBRANCH   4  15
BRANCH   1  39
ATOM     39  C5  49U d   1     -28.549   1.647  18.020  0.00  0.00     0.010 C 
ATOM     40  H12 49U d   1     -28.288   2.633  18.432  0.00  0.00     0.047 H 
ATOM     41  H13 49U d   1     -29.578   1.672  17.633  0.00  0.00     0.047 H 
BRANCH  39  42
ATOM     42  C21 49U d   1     -28.474   0.634  19.118  0.00  0.00    -0.054 C 
ATOM     43  H10 49U d   1     -27.423   0.419  19.362  0.00  0.00     0.034 H 
ATOM     44  H11 49U d   1     -28.989   1.010  20.014  0.00  0.00     0.034 H 
BRANCH  42  45
ATOM     45  C44 49U d   1     -29.164  -0.634  18.610  0.00  0.00    -0.054 C 
ATOM     46  C45 49U d   1     -30.681  -0.541  18.260  0.00  0.00    -0.062 C 
ATOM     47  C47 49U d   1     -31.294  -1.902  18.711  0.00  0.00    -0.065 C 
ATOM     48  H3  49U d   1     -31.151   0.292  18.804  0.00  0.00     0.033 H 
ATOM     49  H4  49U d   1     -30.818  -0.397  17.178  0.00  0.00     0.033 H 
ATOM     50  C48 49U d   1     -30.229  -2.677  19.483  0.00  0.00    -0.065 C 
ATOM     51  H1  49U d   1     -31.607  -2.479  17.828  0.00  0.00     0.033 H 
ATOM     52  H2  49U d   1     -32.164  -1.721  19.359  0.00  0.00     0.033 H 
ATOM     53  C49 49U d   1     -29.117  -1.655  19.775  0.00  0.00    -0.062 C 
ATOM     54  H8  49U d   1     -29.840  -3.507  18.875  0.00  0.00     0.033 H 
ATOM     55  H9  49U d   1     -30.645  -3.073  20.421  0.00  0.00     0.033 H 
ATOM     56  H6  49U d   1     -29.303  -1.150  20.734  0.00  0.00     0.033 H 
ATOM     57  H7  49U d   1     -28.137  -2.154  19.808  0.00  0.00     0.033 H 
ATOM     58  H5  49U d   1     -28.615  -1.003  17.731  0.00  0.00     0.040 H 
ENDBRANCH  42  45
ENDBRANCH  39  42
ENDBRANCH   1  39
TORSDOF 8
