REMARK  7 active torsions:
REMARK  status: ('A' for Active; 'I' for Inactive)
REMARK       I    between atoms: N1_1  and  C14_11 
REMARK    1  A    between atoms: C7_3  and  C12_15 
REMARK       I    between atoms: N23_16  and  C7_3 
REMARK    2  A    between atoms: C15_4  and  C1_9 
REMARK    3  A    between atoms: C15_4  and  N_10 
REMARK    4  A    between atoms: C14_11  and  C15_4 
REMARK    5  A    between atoms: C1_9  and  C17_5 
REMARK    6  A    between atoms: C24_6  and  N23_16 
REMARK    7  A    between atoms: C25_17  and  C24_6 
ROOT
ATOM      1  N1  19U d   1      18.112 -13.104  21.460  0.00  0.00    -0.337 N 
ATOM      2  C4  19U d   1      19.417 -13.646  21.065  0.00  0.00    -0.001 C 
ATOM      3  C14 19U d   1      17.384 -13.671  22.460  0.00  0.00     0.251 C 
ATOM      4  O32 19U d   1      16.375 -13.140  22.914  0.00  0.00    -0.271 OA
ATOM      5  C3  19U d   1      19.993 -12.447  20.264  0.00  0.00    -0.048 C 
ATOM      6  C2  19U d   1      18.704 -11.801  19.680  0.00  0.00    -0.036 C 
ATOM      7  C12 19U d   1      17.782 -11.787  20.929  0.00  0.00     0.091 C 
ATOM      8  H1  19U d   1      19.311 -14.541  20.435  0.00  0.00     0.064 H 
ATOM      9  H2  19U d   1      20.039 -13.885  21.940  0.00  0.00     0.064 H 
ATOM     10  H16 19U d   1      20.667 -12.787  19.464  0.00  0.00     0.035 H 
ATOM     11  H17 19U d   1      20.528 -11.747  20.922  0.00  0.00     0.035 H 
ATOM     12  H18 19U d   1      18.278 -12.412  18.871  0.00  0.00     0.036 H 
ATOM     13  H19 19U d   1      18.895 -10.783  19.309  0.00  0.00     0.036 H 
ATOM     14  H20 19U d   1      18.061 -10.988  21.631  0.00  0.00     0.087 H 
ENDROOT
BRANCH   7  15
ATOM     15  C7  19U d   1      16.329 -11.634  20.572  0.00  0.00     0.240 C 
ATOM     16  N23 19U d   1      15.692 -10.455  20.800  0.00  0.00    -0.355 N 
ATOM     17  H21 19U d   1      16.154  -9.690  21.248  0.00  0.00     0.162 HD
ATOM     18  O22 19U d   1      15.731 -12.594  20.103  0.00  0.00    -0.271 OA
BRANCH  16  19
ATOM     19  C24 19U d   1      14.302 -10.357  20.361  0.00  0.00     0.019 C 
ATOM     20  H7  19U d   1      14.078 -11.216  19.711  0.00  0.00     0.071 H 
ATOM     21  H8  19U d   1      14.179  -9.424  19.791  0.00  0.00     0.071 H 
BRANCH  19  22
ATOM     22  C25 19U d   1      13.307 -10.353  21.524  0.00  0.00    -0.039 A 
ATOM     23  C26 19U d   1      12.458 -11.456  21.675  0.00  0.00    -0.075 A 
ATOM     24  C27 19U d   1      11.531 -11.506  22.718  0.00  0.00    -0.081 A 
ATOM     25  H9  19U d   1      12.521 -12.281  20.974  0.00  0.00     0.084 H 
ATOM     26  C28 19U d   1      11.444 -10.445  23.626  0.00  0.00    -0.062 A 
ATOM     27  H23 19U d   1      10.880 -12.366  22.824  0.00  0.00     0.083 H 
ATOM     28  C29 19U d   1      12.286  -9.332  23.490  0.00  0.00     0.034 A 
ATOM     29  H10 19U d   1      10.725 -10.483  24.436  0.00  0.00     0.086 H 
ATOM     30  C30 19U d   1      13.211  -9.295  22.438  0.00  0.00    -0.054 A 
ATOM     31 CL21 19U d   1      12.158  -8.008  24.645  0.00  0.00    -0.084 Cl
ATOM     32  H22 19U d   1      13.862  -8.435  22.330  0.00  0.00     0.086 H 
ENDBRANCH  19  22
ENDBRANCH  16  19
ENDBRANCH   7  15
BRANCH   3  33
ATOM     33  C15 19U d   1      17.746 -15.006  23.098  0.00  0.00     0.175 C 
ATOM     34  H3  19U d   1      18.458 -15.544  22.454  0.00  0.00     0.099 H 
BRANCH  33  35
ATOM     35  C1  19U d   1      18.383 -14.722  24.487  0.00  0.00    -0.034 C 
ATOM     36  H11 19U d   1      18.419 -15.653  25.071  0.00  0.00     0.036 H 
ATOM     37  H12 19U d   1      17.777 -13.976  25.023  0.00  0.00     0.036 H 
BRANCH  35  38
ATOM     38  C17 19U d   1      19.813 -14.181  24.295  0.00  0.00    -0.074 C 
ATOM     39  H4  19U d   1      20.264 -13.980  25.278  0.00  0.00     0.027 H 
ATOM     40  H5  19U d   1      19.777 -13.250  23.711  0.00  0.00     0.027 H 
ATOM     41  H6  19U d   1      20.419 -14.927  23.759  0.00  0.00     0.027 H 
ENDBRANCH  35  38
ENDBRANCH  33  35
BRANCH  33  42
ATOM     42  N   19U d   1      16.537 -15.836  23.310  0.00  0.00    -0.067 N 
ATOM     43  H13 19U d   1      16.105 -16.034  22.421  0.00  0.00     0.275 HD
ATOM     44  H14 19U d   1      15.886 -15.338  23.896  0.00  0.00     0.275 HD
ATOM     45  H15 19U d   1      16.797 -16.701  23.757  0.00  0.00     0.275 HD
ENDBRANCH  33  42
ENDBRANCH   3  33
TORSDOF 7
