REMARK  8 active torsions:
REMARK  status: ('A' for Active; 'I' for Inactive)
REMARK    1  A    between atoms: C14_1  and  C5_3 
REMARK       I    between atoms: C14_1  and  N1_12 
REMARK    2  A    between atoms: C5_3  and  N21_4 
REMARK    3  A    between atoms: N21_4  and  C49_5 
REMARK    4  A    between atoms: C1_13  and  C7_14 
REMARK       I    between atoms: C7_14  and  N23_19 
REMARK    5  A    between atoms: N23_19  and  C24_20 
REMARK    6  A    between atoms: C24_20  and  C25_21 
REMARK    7  A    between atoms: C28_24  and  C9_25 
REMARK    8  A    between atoms: C9_25  and  N10_26 
ROOT
ATOM      1  C14 12U d   1      28.633  -1.033  16.723  0.00  0.00     0.246 C 
ATOM      2  O32 12U d   1      27.526  -0.784  17.209  0.00  0.00    -0.272 OA
ATOM      3  N1  12U d   1      28.702  -1.040  15.427  0.00  0.00    -0.337 N 
ATOM      4  C1  12U d   1      27.744  -0.794  14.631  0.00  0.00     0.091 C 
ATOM      5  C2  12U d   1      28.343  -0.620  13.231  0.00  0.00    -0.036 C 
ATOM      6  C3  12U d   1      29.659  -1.335  13.278  0.00  0.00    -0.048 C 
ATOM      7  C4  12U d   1      29.993  -1.317  14.763  0.00  0.00    -0.001 C 
ATOM      8  H18 12U d   1      27.321   0.168  14.957  0.00  0.00     0.087 H 
ATOM      9  H19 12U d   1      28.491   0.446  13.004  0.00  0.00     0.036 H 
ATOM     10  H20 12U d   1      27.686  -1.069  12.471  0.00  0.00     0.036 H 
ATOM     11  H21 12U d   1      30.422  -0.801  12.693  0.00  0.00     0.035 H 
ATOM     12  H22 12U d   1      29.565  -2.365  12.905  0.00  0.00     0.035 H 
ATOM     13  H23 12U d   1      30.395  -2.290  15.083  0.00  0.00     0.064 H 
ATOM     14  H24 12U d   1      30.724  -0.526  14.988  0.00  0.00     0.064 H 
ENDROOT
BRANCH   1  15
ATOM     15  C5  12U d   1      29.783  -1.245  17.673  0.00  0.00     0.154 C 
ATOM     16  H1  12U d   1      30.712  -0.879  17.210  0.00  0.00     0.090 H 
ATOM     17  H2  12U d   1      29.881  -2.318  17.894  0.00  0.00     0.090 H 
BRANCH  15  18
ATOM     18  N21 12U d   1      29.533  -0.500  18.937  0.00  0.00    -0.063 N 
ATOM     19  H3  12U d   1      30.085  -0.932  19.661  0.00  0.00     0.278 HD
ATOM     20  H4  12U d   1      28.554  -0.595  19.160  0.00  0.00     0.278 HD
BRANCH  18  21
ATOM     21  C49 12U d   1      29.854   0.944  18.928  0.00  0.00     0.102 C 
ATOM     22  C48 12U d   1      31.279   1.199  19.294  0.00  0.00    -0.038 C 
ATOM     23  C47 12U d   1      31.391   1.280  20.799  0.00  0.00    -0.063 C 
ATOM     24  H6  12U d   1      31.611   2.148  18.848  0.00  0.00     0.036 H 
ATOM     25  H7  12U d   1      31.909   0.378  18.921  0.00  0.00     0.036 H 
ATOM     26  C46 12U d   1      31.225   2.648  21.389  0.00  0.00    -0.065 C 
ATOM     27  H8  12U d   1      32.386   0.907  21.085  0.00  0.00     0.033 H 
ATOM     28  H9  12U d   1      30.617   0.629  21.231  0.00  0.00     0.033 H 
ATOM     29  C52 12U d   1      29.908   3.221  21.143  0.00  0.00    -0.065 C 
ATOM     30  H10 12U d   1      31.983   3.313  20.950  0.00  0.00     0.033 H 
ATOM     31  H11 12U d   1      31.380   2.582  22.476  0.00  0.00     0.033 H 
ATOM     32  C51 12U d   1      29.417   2.777  19.842  0.00  0.00    -0.063 C 
ATOM     33  H12 12U d   1      29.979   4.319  21.153  0.00  0.00     0.033 H 
ATOM     34  H13 12U d   1      29.212   2.891  21.929  0.00  0.00     0.033 H 
ATOM     35  C50 12U d   1      28.769   1.496  19.565  0.00  0.00    -0.038 C 
ATOM     36  H14 12U d   1      30.292   2.809  19.176  0.00  0.00     0.033 H 
ATOM     37  H15 12U d   1      28.691   3.542  19.530  0.00  0.00     0.033 H 
ATOM     38  H16 12U d   1      28.486   0.953  20.479  0.00  0.00     0.036 H 
ATOM     39  H17 12U d   1      27.891   1.593  18.910  0.00  0.00     0.036 H 
ATOM     40  H5  12U d   1      29.788   1.298  17.889  0.00  0.00     0.084 H 
ENDBRANCH  18  21
ENDBRANCH  15  18
ENDBRANCH   1  15
BRANCH   4  41
ATOM     41  C7  12U d   1      26.610  -1.709  14.500  0.00  0.00     0.240 C 
ATOM     42  O22 12U d   1      26.679  -2.894  14.824  0.00  0.00    -0.271 OA
ATOM     43  N23 12U d   1      25.470  -1.326  14.011  0.00  0.00    -0.355 N 
ATOM     44  H25 12U d   1      25.365  -0.343  13.864  0.00  0.00     0.162 HD
BRANCH  43  45
ATOM     45  C24 12U d   1      24.347  -2.135  13.657  0.00  0.00     0.019 C 
ATOM     46  H26 12U d   1      24.665  -3.186  13.586  0.00  0.00     0.071 H 
ATOM     47  H27 12U d   1      23.954  -1.804  12.684  0.00  0.00     0.071 H 
BRANCH  45  48
ATOM     48  C25 12U d   1      23.252  -2.012  14.709  0.00  0.00    -0.040 A 
ATOM     49  C30 12U d   1      23.309  -2.408  16.024  0.00  0.00    -0.074 A 
ATOM     50  C29 12U d   1      22.186  -2.211  16.855  0.00  0.00    -0.069 A 
ATOM     51  H28 12U d   1      24.208  -2.867  16.419  0.00  0.00     0.084 H 
ATOM     52  C28 12U d   1      20.965  -1.634  16.479  0.00  0.00     0.007 A 
ATOM     53  H29 12U d   1      22.276  -2.538  17.885  0.00  0.00     0.085 H 
ATOM     54  C27 12U d   1      20.913  -1.238  15.166  0.00  0.00    -0.069 A 
ATOM     55  C26 12U d   1      22.030  -1.431  14.326  0.00  0.00    -0.074 A 
ATOM     56  H34 12U d   1      20.014  -0.777  14.774  0.00  0.00     0.085 H 
ATOM     57  H35 12U d   1      21.938  -1.103  13.297  0.00  0.00     0.084 H 
BRANCH  52  58
ATOM     58  C9  12U d   1      19.840  -1.482  17.486  0.00  0.00     0.102 C 
ATOM     59  N11 12U d   1      19.682  -2.311  18.507  0.00  0.00    -0.385 N 
ATOM     60  H32 12U d   1      20.336  -3.095  18.640  0.00  0.00     0.157 HD
ATOM     61  H33 12U d   1      18.905  -2.171  19.168  0.00  0.00     0.157 HD
BRANCH  58  62
ATOM     62  N10 12U d   1      19.016  -0.467  17.291  0.00  0.00    -0.385 N 
ATOM     63  H30 12U d   1      18.231  -0.309  17.939  0.00  0.00     0.157 HD
ATOM     64  H31 12U d   1      19.159   0.166  16.491  0.00  0.00     0.157 HD
ENDBRANCH  58  62
ENDBRANCH  52  58
ENDBRANCH  45  48
ENDBRANCH  43  45
ENDBRANCH   4  41
TORSDOF 8
