REMARK  8 active torsions:
REMARK  status: ('A' for Active; 'I' for Inactive)
REMARK       I    between atoms: N1_1  and  C14_2 
REMARK    1  A    between atoms: C14_2  and  C15_4 
REMARK    2  A    between atoms: C15_4  and  N16_22 
REMARK    3  A    between atoms: C2_8  and  C7_9 
REMARK       I    between atoms: C7_9  and  N23_10 
REMARK    4  A    between atoms: N23_10  and  C24_11 
REMARK    5  A    between atoms: C24_11  and  C25_12 
REMARK    6  A    between atoms: C28_15  and  C31_16 
REMARK    7  A    between atoms: C31_16  and  N49_17 
REMARK    8  A    between atoms: N16_22  and  C17_23 
ROOT
ATOM      1  N1  10U d   1     -28.649   0.858  15.720  0.00  0.00    -0.337 N 
ATOM      2  C14 10U d   1     -28.416   0.912  17.043  0.00  0.00     0.246 C 
ATOM      3  O32 10U d   1     -27.276   0.866  17.514  0.00  0.00    -0.272 OA
ATOM      4  C5  10U d   1     -29.972   1.127  15.108  0.00  0.00    -0.001 C 
ATOM      5  C4  10U d   1     -29.786   1.104  13.595  0.00  0.00    -0.048 C 
ATOM      6  C3  10U d   1     -28.460   0.390  13.490  0.00  0.00    -0.036 C 
ATOM      7  C2  10U d   1     -27.623   0.507  14.756  0.00  0.00     0.091 C 
ATOM      8  H3  10U d   1     -30.340   2.113  15.427  0.00  0.00     0.064 H 
ATOM      9  H4  10U d   1     -30.691   0.351  15.410  0.00  0.00     0.064 H 
ATOM     10  H5  10U d   1     -29.734   2.120  13.177  0.00  0.00     0.035 H 
ATOM     11  H6  10U d   1     -30.590   0.543  13.096  0.00  0.00     0.035 H 
ATOM     12  H7  10U d   1     -27.893   0.824  12.653  0.00  0.00     0.036 H 
ATOM     13  H8  10U d   1     -28.649  -0.675  13.292  0.00  0.00     0.036 H 
ATOM     14  H9  10U d   1     -27.173  -0.460  15.024  0.00  0.00     0.087 H 
ENDROOT
BRANCH   7  15
ATOM     15  C7  10U d   1     -26.522   1.488  14.572  0.00  0.00     0.240 C 
ATOM     16  N23 10U d   1     -25.369   1.176  14.064  0.00  0.00    -0.355 N 
ATOM     17  H10 10U d   1     -25.257   0.214  13.816  0.00  0.00     0.162 HD
ATOM     18  O22 10U d   1     -26.645   2.658  14.898  0.00  0.00    -0.271 OA
BRANCH  16  19
ATOM     19  C24 10U d   1     -24.252   1.997  13.811  0.00  0.00     0.019 C 
ATOM     20  H11 10U d   1     -24.591   3.043  13.807  0.00  0.00     0.071 H 
ATOM     21  H12 10U d   1     -23.855   1.737  12.819  0.00  0.00     0.071 H 
BRANCH  19  22
ATOM     22  C25 10U d   1     -23.156   1.875  14.789  0.00  0.00    -0.040 A 
ATOM     23  C30 10U d   1     -23.250   2.258  16.081  0.00  0.00    -0.074 A 
ATOM     24  C29 10U d   1     -22.176   2.116  16.955  0.00  0.00    -0.069 A 
ATOM     25  H13 10U d   1     -24.179   2.684  16.444  0.00  0.00     0.084 H 
ATOM     26  C28 10U d   1     -20.965   1.581  16.560  0.00  0.00     0.007 A 
ATOM     27  H14 10U d   1     -22.294   2.437  17.984  0.00  0.00     0.085 H 
ATOM     28  C27 10U d   1     -20.871   1.184  15.221  0.00  0.00    -0.069 A 
ATOM     29  C26 10U d   1     -21.947   1.324  14.334  0.00  0.00    -0.074 A 
ATOM     30  H19 10U d   1     -19.942   0.757  14.861  0.00  0.00     0.085 H 
ATOM     31  H20 10U d   1     -21.847   1.008  13.302  0.00  0.00     0.084 H 
BRANCH  26  32
ATOM     32  C31 10U d   1     -19.828   1.444  17.538  0.00  0.00     0.102 C 
ATOM     33  N48 10U d   1     -19.021   0.394  17.433  0.00  0.00    -0.385 N 
ATOM     34  H17 10U d   1     -19.180  -0.305  16.694  0.00  0.00     0.157 HD
ATOM     35  H18 10U d   1     -18.237   0.279  18.091  0.00  0.00     0.157 HD
BRANCH  32  36
ATOM     36  N49 10U d   1     -19.641   2.361  18.487  0.00  0.00    -0.385 N 
ATOM     37  H15 10U d   1     -18.861   2.261  19.153  0.00  0.00     0.157 HD
ATOM     38  H16 10U d   1     -20.276   3.169  18.555  0.00  0.00     0.157 HD
ENDBRANCH  32  36
ENDBRANCH  26  32
ENDBRANCH  19  22
ENDBRANCH  16  19
ENDBRANCH   7  15
BRANCH   2  39
ATOM     39  C15 10U d   1     -29.609   1.024  17.938  0.00  0.00     0.154 C 
ATOM     40  H1  10U d   1     -30.456   0.499  17.472  0.00  0.00     0.090 H 
ATOM     41  H2  10U d   1     -29.861   2.087  18.066  0.00  0.00     0.090 H 
BRANCH  39  42
ATOM     42  N16 10U d   1     -29.356   0.447  19.227  0.00  0.00    -0.063 N 
ATOM     43  H21 10U d   1     -29.657   1.109  19.924  0.00  0.00     0.278 HD
ATOM     44  H22 10U d   1     -28.362   0.302  19.309  0.00  0.00     0.278 HD
BRANCH  42  45
ATOM     45  C17 10U d   1     -30.014  -0.822  19.507  0.00  0.00     0.102 C 
ATOM     46  C21 10U d   1     -29.085  -1.614  20.456  0.00  0.00    -0.038 C 
ATOM     47  C20 10U d   1     -29.593  -3.066  20.426  0.00  0.00    -0.063 C 
ATOM     48  H24 10U d   1     -29.145  -1.208  21.477  0.00  0.00     0.036 H 
ATOM     49  H25 10U d   1     -28.045  -1.565  20.102  0.00  0.00     0.036 H 
ATOM     50  C19 10U d   1     -30.047  -3.267  18.971  0.00  0.00    -0.063 C 
ATOM     51  H26 10U d   1     -30.435  -3.201  21.121  0.00  0.00     0.033 H 
ATOM     52  H27 10U d   1     -28.787  -3.768  20.685  0.00  0.00     0.033 H 
ATOM     53  C18 10U d   1     -30.389  -1.863  18.381  0.00  0.00    -0.038 C 
ATOM     54  H28 10U d   1     -30.938  -3.912  18.942  0.00  0.00     0.033 H 
ATOM     55  H29 10U d   1     -29.239  -3.732  18.387  0.00  0.00     0.033 H 
ATOM     56  H30 10U d   1     -29.798  -1.675  17.473  0.00  0.00     0.036 H 
ATOM     57  H31 10U d   1     -31.461  -1.799  18.141  0.00  0.00     0.036 H 
ATOM     58  H23 10U d   1     -30.951  -0.570  20.025  0.00  0.00     0.084 H 
ENDBRANCH  42  45
ENDBRANCH  39  42
ENDBRANCH   2  39
TORSDOF 8
