REMARK  9 active torsions:
REMARK  status: ('A' for Active; 'I' for Inactive)
REMARK       I    between atoms: N1_1  and  C14_19 
REMARK    1  A    between atoms: C1_2  and  C7_3 
REMARK       I    between atoms: C7_3  and  N23_5 
REMARK    2  A    between atoms: N23_5  and  C24_6 
REMARK    3  A    between atoms: C24_6  and  C25_7 
REMARK    4  A    between atoms: C28_10  and  C21_11 
REMARK    5  A    between atoms: C21_11  and  N46_12 
REMARK    6  A    between atoms: C14_19  and  C5_20 
REMARK    7  A    between atoms: C5_20  and  N13_21 
REMARK    8  A    between atoms: C5_20  and  C33_22 
REMARK    9  A    between atoms: C33_22  and  C48_23 
ROOT
ATOM      1  N1  29U d   1      18.413 -13.330  21.644  0.00  0.00    -0.337 N 
ATOM      2  C1  29U d   1      18.327 -12.022  21.017  0.00  0.00     0.091 C 
ATOM      3  C2  29U d   1      19.493 -12.077  19.982  0.00  0.00    -0.036 C 
ATOM      4  C3  29U d   1      20.471 -13.042  20.698  0.00  0.00    -0.048 C 
ATOM      5  C4  29U d   1      19.528 -14.168  21.192  0.00  0.00    -0.001 C 
ATOM      6  C14 29U d   1      17.436 -13.749  22.488  0.00  0.00     0.251 C 
ATOM      7  O32 29U d   1      16.468 -13.033  22.769  0.00  0.00    -0.271 OA
ATOM      8  H1  29U d   1      18.443 -11.201  21.740  0.00  0.00     0.087 H 
ATOM      9  H13 29U d   1      19.944 -11.086  19.827  0.00  0.00     0.036 H 
ATOM     10  H14 29U d   1      19.158 -12.483  19.016  0.00  0.00     0.036 H 
ATOM     11  H15 29U d   1      20.973 -12.546  21.541  0.00  0.00     0.035 H 
ATOM     12  H16 29U d   1      21.226 -13.433  20.000  0.00  0.00     0.035 H 
ATOM     13  H17 29U d   1      19.233 -14.848  20.380  0.00  0.00     0.064 H 
ATOM     14  H18 29U d   1      19.971 -14.749  22.015  0.00  0.00     0.064 H 
ENDROOT
BRANCH   2  15
ATOM     15  C7  29U d   1      17.018 -11.911  20.272  0.00  0.00     0.240 C 
ATOM     16  O22 29U d   1      16.634 -12.875  19.644  0.00  0.00    -0.271 OA
ATOM     17  N23 29U d   1      16.371 -10.724  20.337  0.00  0.00    -0.355 N 
ATOM     18  H2  29U d   1      16.761  -9.942  20.823  0.00  0.00     0.162 HD
BRANCH  17  19
ATOM     19  C24 29U d   1      15.079 -10.637  19.665  0.00  0.00     0.019 C 
ATOM     20  H3  29U d   1      14.943 -11.501  18.998  0.00  0.00     0.071 H 
ATOM     21  H4  29U d   1      15.021  -9.708  19.079  0.00  0.00     0.071 H 
BRANCH  19  22
ATOM     22  C25 29U d   1      13.992 -10.639  20.758  0.00  0.00    -0.040 A 
ATOM     23  C26 29U d   1      13.404  -9.443  21.160  0.00  0.00    -0.074 A 
ATOM     24  C27 29U d   1      12.421  -9.450  22.148  0.00  0.00    -0.069 A 
ATOM     25  H5  29U d   1      13.710  -8.508  20.705  0.00  0.00     0.084 H 
ATOM     26  C28 29U d   1      12.012 -10.650  22.748  0.00  0.00     0.007 A 
ATOM     27  H6  29U d   1      11.966  -8.516  22.457  0.00  0.00     0.085 H 
ATOM     28  C29 29U d   1      12.606 -11.845  22.340  0.00  0.00    -0.069 A 
ATOM     29  C30 29U d   1      13.586 -11.830  21.354  0.00  0.00    -0.074 A 
ATOM     30  H11 29U d   1      12.304 -12.783  22.791  0.00  0.00     0.085 H 
ATOM     31  H12 29U d   1      14.043 -12.763  21.044  0.00  0.00     0.084 H 
BRANCH  26  32
ATOM     32  C21 29U d   1      10.881 -10.645  23.879  0.00  0.00     0.102 C 
ATOM     33  N47 29U d   1      10.648  -9.550  24.556  0.00  0.00    -0.385 N 
ATOM     34  H9  29U d   1      11.192  -8.697  24.359  0.00  0.00     0.157 HD
ATOM     35  H10 29U d   1       9.921  -9.540  25.286  0.00  0.00     0.157 HD
BRANCH  32  36
ATOM     36  N46 29U d   1      10.206 -11.763  24.099  0.00  0.00    -0.385 N 
ATOM     37  H7  29U d   1       9.472 -11.788  24.821  0.00  0.00     0.157 HD
ATOM     38  H8  29U d   1      10.415 -12.608  23.548  0.00  0.00     0.157 HD
ENDBRANCH  32  36
ENDBRANCH  26  32
ENDBRANCH  19  22
ENDBRANCH  17  19
ENDBRANCH   2  15
BRANCH   6  39
ATOM     39  C5  29U d   1      17.422 -15.103  23.179  0.00  0.00     0.175 C 
ATOM     40  H19 29U d   1      18.203 -15.752  22.755  0.00  0.00     0.099 H 
BRANCH  39  41
ATOM     41  N13 29U d   1      16.093 -15.744  23.079  0.00  0.00    -0.067 N 
ATOM     42  H20 29U d   1      16.115 -16.637  23.545  0.00  0.00     0.275 HD
ATOM     43  H21 29U d   1      15.856 -15.877  22.108  0.00  0.00     0.275 HD
ATOM     44  H22 29U d   1      15.402 -15.154  23.515  0.00  0.00     0.275 HD
ENDBRANCH  39  41
BRANCH  39  45
ATOM     45  C33 29U d   1      17.635 -14.879  24.711  0.00  0.00    -0.034 C 
ATOM     46  H23 29U d   1      17.372 -15.833  25.191  0.00  0.00     0.036 H 
ATOM     47  H24 29U d   1      16.906 -14.108  25.003  0.00  0.00     0.036 H 
BRANCH  45  48
ATOM     48  C48 29U d   1      18.973 -14.449  25.343  0.00  0.00    -0.074 C 
ATOM     49  H25 29U d   1      18.853 -14.363  26.433  0.00  0.00     0.027 H 
ATOM     50  H26 29U d   1      19.278 -13.476  24.930  0.00  0.00     0.027 H 
ATOM     51  H27 29U d   1      19.744 -15.201  25.117  0.00  0.00     0.027 H 
ENDBRANCH  45  48
ENDBRANCH  39  45
ENDBRANCH   6  39
TORSDOF 9
