REMARK  9 active torsions:
REMARK  status: ('A' for Active; 'I' for Inactive)
REMARK    1  A    between atoms: O3A_8  and  PB_1 
REMARK    2  A    between atoms: PA_5  and  O3A_8 
REMARK    3  A    between atoms: PA_5  and  O5'_9 
REMARK    4  A    between atoms: O5'_9  and  C5'_10 
REMARK    5  A    between atoms: C5'_10  and  C4'_11 
REMARK    6  A    between atoms: C3'_13  and  O3'_14 
REMARK    7  A    between atoms: C2'_15  and  O2'_16 
REMARK    8  A    between atoms: C1'_17  and  N9_18 
REMARK    9  A    between atoms: C6_22  and  N6_23 
ROOT
ATOM      1  C4' ADP d   1     -17.306   5.084  27.765  0.00  0.00     0.089 C 
ATOM      2  O4' ADP d   1     -16.077   5.649  27.280  0.00  0.00    -0.353 OA
ATOM      3  C3' ADP d   1     -18.091   6.285  28.320  0.00  0.00     0.091 C 
ATOM      4  C2' ADP d   1     -16.952   7.127  28.920  0.00  0.00     0.105 C 
ATOM      5  C1' ADP d   1     -15.706   6.792  28.078  0.00  0.00     0.139 C 
ATOM      6  H3  ADP d   1     -17.088   4.386  28.587  0.00  0.00     0.090 H 
ATOM      7  H4  ADP d   1     -18.602   6.836  27.517  0.00  0.00     0.091 H 
ATOM      8  H6  ADP d   1     -17.180   8.202  28.966  0.00  0.00     0.093 H 
ATOM      9  H8  ADP d   1     -14.817   6.607  28.699  0.00  0.00     0.122 H 
ENDROOT
BRANCH   5  10
ATOM     10  N9  ADP d   1     -15.507   7.882  27.138  0.00  0.00    -0.294 N 
ATOM     11  C8  ADP d   1     -15.896   7.851  25.844  0.00  0.00     0.071 A 
ATOM     12  N7  ADP d   1     -15.548   8.999  25.273  0.00  0.00    -0.236 NA
ATOM     13  H9  ADP d   1     -16.408   7.025  25.353  0.00  0.00     0.144 H 
ATOM     14  C5  ADP d   1     -15.002   9.781  26.232  0.00  0.00     0.149 A 
ATOM     15  C6  ADP d   1     -14.456  11.119  26.287  0.00  0.00     0.155 A 
ATOM     16  C4  ADP d   1     -14.962   9.032  27.462  0.00  0.00     0.167 A 
ATOM     17  N1  ADP d   1     -13.955  11.532  27.467  0.00  0.00    -0.222 NA
ATOM     18  C2  ADP d   1     -13.962  10.793  28.577  0.00  0.00     0.091 A 
ATOM     19  N3  ADP d   1     -14.434   9.558  28.616  0.00  0.00    -0.222 NA
ATOM     20  H12 ADP d   1     -13.563  11.224  29.488  0.00  0.00     0.146 H 
BRANCH  15  21
ATOM     21  N6  ADP d   1     -14.464  11.925  25.159  0.00  0.00    -0.382 N 
ATOM     22  H10 ADP d   1     -14.074  12.877  25.204  0.00  0.00     0.157 HD
ATOM     23  H11 ADP d   1     -14.860  11.572  24.276  0.00  0.00     0.157 HD
ENDBRANCH  15  21
ENDBRANCH   5  10
BRANCH   4  24
ATOM     24  O2' ADP d   1     -16.677   6.546  30.185  0.00  0.00    -0.388 OA
ATOM     25  H7  ADP d   1     -17.458   6.582  30.725  0.00  0.00     0.210 HD
ENDBRANCH   4  24
BRANCH   1  26
ATOM     26  C5' ADP d   1     -18.064   4.296  26.671  0.00  0.00     0.058 C 
ATOM     27  H1  ADP d   1     -17.404   3.506  26.284  0.00  0.00     0.079 H 
ATOM     28  H2  ADP d   1     -18.958   3.839  27.120  0.00  0.00     0.079 H 
BRANCH  26  29
ATOM     29  O5' ADP d   1     -18.473   5.131  25.579  0.00  0.00    -0.287 OA
BRANCH  29  30
ATOM     30  PA  ADP d   1     -19.560   4.526  24.623  0.00  0.00     0.418 P 
ATOM     31  O1A ADP d   1     -19.782   5.663  23.715  0.00  0.00    -0.624 OA
ATOM     32  O2A ADP d   1     -18.973   3.165  24.171  0.00  0.00    -0.624 OA
BRANCH  30  33
ATOM     33  O3A ADP d   1     -20.796   4.177  25.637  0.00  0.00    -0.173 OA
BRANCH  33  34
ATOM     34  PB  ADP d   1     -21.673   5.281  26.514  0.00  0.00     0.431 P 
ATOM     35  O1B ADP d   1     -21.093   5.284  27.914  0.00  0.00    -0.616 OA
ATOM     36  O2B ADP d   1     -23.138   4.792  26.416  0.00  0.00    -0.616 OA
ATOM     37  O3B ADP d   1     -21.570   6.546  25.829  0.00  0.00    -0.616 OA
ENDBRANCH  33  34
ENDBRANCH  30  33
ENDBRANCH  29  30
ENDBRANCH  26  29
ENDBRANCH   1  26
BRANCH   3  38
ATOM     38  O3' ADP d   1     -19.084   5.849  29.300  0.00  0.00    -0.390 OA
ATOM     39  H5  ADP d   1     -19.694   5.249  28.886  0.00  0.00     0.210 HD
ENDBRANCH   3  38
TORSDOF 9
