REMARK  8 active torsions:
REMARK  status: ('A' for Active; 'I' for Inactive)
REMARK    1  A    between atoms: N1_7  and  C1_1 
REMARK       I    between atoms: C2_2  and  N1_7 
REMARK       I    between atoms: N2_24  and  C2_2 
REMARK    2  A    between atoms: N2_24  and  C3_3 
REMARK    3  A    between atoms: C7_8  and  C9_11 
REMARK    4  A    between atoms: C11_13  and  O4_28 
REMARK    5  A    between atoms: C12_14  and  C13_15 
REMARK    6  A    between atoms: C14_16  and  C15_17 
REMARK    7  A    between atoms: O4_28  and  C14_16 
REMARK    8  A    between atoms: C16_18  and  N2_24 
ROOT
ATOM      1  C3  35B d   1      47.321   9.403   0.350  0.00  0.00     0.040 A 
ATOM      2  C4  35B d   1      46.234   8.667  -0.141  0.00  0.00    -0.057 A 
ATOM      3  C5  35B d   1      44.957   9.231  -0.153  0.00  0.00    -0.080 A 
ATOM      4  C6  35B d   1      44.746  10.524   0.324  0.00  0.00    -0.072 A 
ATOM      5  C7  35B d   1      45.818  11.274   0.815  0.00  0.00    -0.015 A 
ATOM      6  C8  35B d   1      47.097  10.707   0.826  0.00  0.00    -0.046 A 
ATOM      7  H4  35B d   1      46.385   7.660  -0.511  0.00  0.00     0.086 H 
ATOM      8  H5  35B d   1      44.121   8.658  -0.537  0.00  0.00     0.083 H 
ATOM      9  H6  35B d   1      43.748  10.948   0.314  0.00  0.00     0.084 H 
ATOM     10  H8  35B d   1      47.931  11.284   1.209  0.00  0.00     0.088 H 
ENDROOT
BRANCH   1  11
ATOM     11  N2  35B d   1      48.656   8.864   0.380  0.00  0.00    -0.295 N 
ATOM     12  C2  35B d   1      49.641   9.277  -0.553  0.00  0.00     0.322 C 
ATOM     13  N1  35B d   1      49.195  10.214  -1.483  0.00  0.00    -0.347 N 
ATOM     14  O1  35B d   1      50.801   8.858  -0.566  0.00  0.00    -0.247 OA
ATOM     15  H7  35B d   1      48.245  10.524  -1.439  0.00  0.00     0.163 HD
BRANCH  13  16
ATOM     16  C1  35B d   1      50.057  10.754  -2.509  0.00  0.00    -0.017 C 
ATOM     17  H1  35B d   1      49.492  11.471  -3.123  0.00  0.00     0.056 H 
ATOM     18  H2  35B d   1      50.425   9.937  -3.146  0.00  0.00     0.056 H 
ATOM     19  H3  35B d   1      50.910  11.266  -2.039  0.00  0.00     0.056 H 
ENDBRANCH  13  16
BRANCH  11  20
ATOM     20  C16 35B d   1      48.996   7.873   1.445  0.00  0.00     0.021 C 
ATOM     21  C17 35B d   1      48.867   6.400   1.009  0.00  0.00    -0.045 C 
ATOM     22  C18 35B d   1      48.075   5.573   2.021  0.00  0.00    -0.063 C 
ATOM     23  H12 35B d   1      49.874   5.969   0.909  0.00  0.00     0.036 H 
ATOM     24  H13 35B d   1      48.353   6.361   0.037  0.00  0.00     0.036 H 
ATOM     25  C19 35B d   1      48.602   5.717   3.448  0.00  0.00    -0.065 C 
ATOM     26  H14 35B d   1      48.133   4.514   1.731  0.00  0.00     0.033 H 
ATOM     27  H15 35B d   1      47.026   5.902   1.999  0.00  0.00     0.033 H 
ATOM     28  C20 35B d   1      48.784   7.176   3.862  0.00  0.00    -0.063 C 
ATOM     29  H16 35B d   1      49.574   5.207   3.518  0.00  0.00     0.033 H 
ATOM     30  H17 35B d   1      47.888   5.242   4.137  0.00  0.00     0.033 H 
ATOM     31  C21 35B d   1      48.294   8.143   2.784  0.00  0.00    -0.045 C 
ATOM     32  H18 35B d   1      49.852   7.362   4.047  0.00  0.00     0.033 H 
ATOM     33  H19 35B d   1      48.215   7.356   4.786  0.00  0.00     0.033 H 
ATOM     34  H20 35B d   1      47.209   8.017   2.654  0.00  0.00     0.036 H 
ATOM     35  H21 35B d   1      48.508   9.174   3.101  0.00  0.00     0.036 H 
ATOM     36  H11 35B d   1      50.068   8.024   1.641  0.00  0.00     0.073 H 
ENDBRANCH  11  20
ENDBRANCH   1  11
BRANCH   5  37
ATOM     37  C9  35B d   1      45.611  12.634   1.310  0.00  0.00     0.036 A 
ATOM     38  C10 35B d   1      46.175  13.316   2.368  0.00  0.00     0.064 A 
ATOM     39  C11 35B d   1      45.683  14.645   2.520  0.00  0.00     0.112 A 
ATOM     40 BR1  35B d   1      47.423  12.586   3.586  0.00  0.00    -0.047 Br
ATOM     41  C12 35B d   1      44.793  14.956   1.508  0.00  0.00     0.117 A 
ATOM     42  S1  35B d   1      44.522  13.642   0.452  0.00  0.00    -0.078 SA
BRANCH  39  43
ATOM     43  O4  35B d   1      46.074  15.520   3.491  0.00  0.00    -0.338 OA
BRANCH  43  44
ATOM     44  C14 35B d   1      47.322  16.189   3.257  0.00  0.00     0.106 C 
ATOM     45  H9  35B d   1      48.118  15.451   3.077  0.00  0.00     0.091 H 
ATOM     46  H10 35B d   1      47.236  16.855   2.386  0.00  0.00     0.091 H 
BRANCH  44  47
ATOM     47  C15 35B d   1      47.636  17.007   4.518  0.00  0.00     0.198 C 
ATOM     48  O5  35B d   1      46.751  17.008   5.422  0.00  0.00    -0.646 OA
ATOM     49  O6  35B d   1      48.758  17.588   4.516  0.00  0.00    -0.646 OA
ENDBRANCH  44  47
ENDBRANCH  43  44
ENDBRANCH  39  43
BRANCH  41  50
ATOM     50  C13 35B d   1      44.037  16.311   1.273  0.00  0.00     0.219 C 
ATOM     51  O2  35B d   1      43.898  17.105   2.249  0.00  0.00    -0.643 OA
ATOM     52  O3  35B d   1      43.633  16.493   0.083  0.00  0.00    -0.643 OA
ENDBRANCH  41  50
ENDBRANCH   5  37
TORSDOF 8
