REMARK  8 active torsions:
REMARK  status: ('A' for Active; 'I' for Inactive)
REMARK    1  A    between atoms: C4_4  and  C7_7 
REMARK       I    between atoms: C7_7  and  N1_9 
REMARK    2  A    between atoms: N1_9  and  C8_10 
REMARK    3  A    between atoms: N1_9  and  C21_30 
REMARK    4  A    between atoms: C12_14  and  C14_16 
REMARK    5  A    between atoms: C16_18  and  O4_24 
REMARK    6  A    between atoms: C17_19  and  C18_21 
REMARK    7  A    between atoms: O4_24  and  C19_25 
REMARK    8  A    between atoms: C19_25  and  C20_26 
ROOT
ATOM      1  C7  410 d   1      49.554   9.519  -0.299  0.00  0.00     0.258 C 
ATOM      2  O1  410 d   1      50.698   9.063  -0.296  0.00  0.00    -0.267 OA
ATOM      3  N1  410 d   1      48.554   9.115   0.602  0.00  0.00    -0.309 N 
ENDROOT
BRANCH   3   4
ATOM      4  C8  410 d   1      47.242   9.699   0.570  0.00  0.00     0.038 A 
ATOM      5  C9  410 d   1      46.124   9.036   0.056  0.00  0.00    -0.057 A 
ATOM      6  C10 410 d   1      44.878   9.667   0.057  0.00  0.00    -0.080 A 
ATOM      7  H6  410 d   1      46.224   8.033  -0.343  0.00  0.00     0.086 H 
ATOM      8  C11 410 d   1      44.728  10.963   0.567  0.00  0.00    -0.072 A 
ATOM      9  H7  410 d   1      44.015   9.147  -0.342  0.00  0.00     0.083 H 
ATOM     10  C12 410 d   1      45.838  11.651   1.087  0.00  0.00    -0.015 A 
ATOM     11  H8  410 d   1      43.753  11.437   0.561  0.00  0.00     0.084 H 
ATOM     12  C13 410 d   1      47.087  11.005   1.080  0.00  0.00    -0.046 A 
ATOM     13  H9  410 d   1      47.952  11.524   1.476  0.00  0.00     0.088 H 
BRANCH  10  14
ATOM     14  C14 410 d   1      45.712  13.019   1.606  0.00  0.00     0.036 A 
ATOM     15  C15 410 d   1      46.297  13.640   2.697  0.00  0.00     0.064 A 
ATOM     16  C16 410 d   1      45.919  15.002   2.862  0.00  0.00     0.112 A 
ATOM     17 BR1  410 d   1      47.509  12.818   3.906  0.00  0.00    -0.047 Br
ATOM     18  C17 410 d   1      45.022  15.370   1.874  0.00  0.00     0.117 A 
ATOM     19  S1  410 d   1      44.683  14.106   0.768  0.00  0.00    -0.078 SA
BRANCH  16  20
ATOM     20  O4  410 d   1      46.351  15.808   3.884  0.00  0.00    -0.338 OA
BRANCH  20  21
ATOM     21  C19 410 d   1      47.549  16.559   3.640  0.00  0.00     0.106 C 
ATOM     22  H10 410 d   1      47.385  17.292   2.836  0.00  0.00     0.091 H 
ATOM     23  H11 410 d   1      48.373  15.886   3.360  0.00  0.00     0.091 H 
BRANCH  21  24
ATOM     24  C20 410 d   1      47.872  17.279   4.965  0.00  0.00     0.198 C 
ATOM     25  O5  410 d   1      48.977  17.870   5.020  0.00  0.00    -0.646 OA
ATOM     26  O6  410 d   1      47.002  17.199   5.878  0.00  0.00    -0.646 OA
ENDBRANCH  21  24
ENDBRANCH  20  21
ENDBRANCH  16  20
BRANCH  18  27
ATOM     27  C18 410 d   1      44.341  16.758   1.649  0.00  0.00     0.219 C 
ATOM     28  O2  410 d   1      43.831  16.897   0.499  0.00  0.00    -0.643 OA
ATOM     29  O3  410 d   1      44.333  17.591   2.597  0.00  0.00    -0.643 OA
ENDBRANCH  18  27
ENDBRANCH  10  14
ENDBRANCH   3   4
BRANCH   3  30
ATOM     30  C21 410 d   1      48.873   8.087   1.643  0.00  0.00     0.020 C 
ATOM     31  C22 410 d   1      48.131   6.761   1.428  0.00  0.00    -0.045 C 
ATOM     32  C23 410 d   1      48.610   5.715   2.425  0.00  0.00    -0.063 C 
ATOM     33  H13 410 d   1      48.321   6.401   0.406  0.00  0.00     0.036 H 
ATOM     34  H14 410 d   1      47.052   6.924   1.564  0.00  0.00     0.036 H 
ATOM     35  C24 410 d   1      48.307   6.191   3.842  0.00  0.00    -0.065 C 
ATOM     36  H15 410 d   1      49.694   5.568   2.311  0.00  0.00     0.033 H 
ATOM     37  H16 410 d   1      48.090   4.764   2.238  0.00  0.00     0.033 H 
ATOM     38  C25 410 d   1      49.025   7.509   4.134  0.00  0.00    -0.063 C 
ATOM     39  H17 410 d   1      48.645   5.429   4.559  0.00  0.00     0.033 H 
ATOM     40  H18 410 d   1      47.222   6.339   3.949  0.00  0.00     0.033 H 
ATOM     41  C26 410 d   1      48.735   8.594   3.087  0.00  0.00    -0.045 C 
ATOM     42  H19 410 d   1      50.109   7.321   4.153  0.00  0.00     0.033 H 
ATOM     43  H20 410 d   1      48.699   7.875   5.118  0.00  0.00     0.033 H 
ATOM     44  H21 410 d   1      47.707   8.957   3.234  0.00  0.00     0.036 H 
ATOM     45  H22 410 d   1      49.442   9.423   3.236  0.00  0.00     0.036 H 
ATOM     46  H12 410 d   1      49.941   7.858   1.510  0.00  0.00     0.073 H 
ENDBRANCH   3  30
BRANCH   1  47
ATOM     47  C4  410 d   1      49.225  10.542  -1.341  0.00  0.00     0.032 A 
ATOM     48  C3  410 d   1      48.305  10.214  -2.352  0.00  0.00    -0.068 A 
ATOM     49  C2  410 d   1      47.977  11.146  -3.345  0.00  0.00    -0.082 A 
ATOM     50  H3  410 d   1      47.846   9.232  -2.363  0.00  0.00     0.085 H 
ATOM     51  C1  410 d   1      48.559  12.416  -3.340  0.00  0.00    -0.083 A 
ATOM     52  H2  410 d   1      47.268  10.880  -4.121  0.00  0.00     0.083 H 
ATOM     53  C6  410 d   1      49.475  12.743  -2.336  0.00  0.00    -0.082 A 
ATOM     54  H1  410 d   1      48.303  13.139  -4.106  0.00  0.00     0.083 H 
ATOM     55  C5  410 d   1      49.807  11.816  -1.341  0.00  0.00    -0.068 A 
ATOM     56  H5  410 d   1      49.933  13.725  -2.328  0.00  0.00     0.083 H 
ATOM     57  H4  410 d   1      50.517  12.085  -0.568  0.00  0.00     0.085 H 
ENDBRANCH   1  47
TORSDOF 8
