REMARK  23 active torsions:
REMARK  status: ('A' for Active; 'I' for Inactive)
REMARK    1  A    between atoms: N4B_18  and  C1A_1 
REMARK    2  A    between atoms: C2A_2  and  O2A_8 
REMARK    3  A    between atoms: C3A_3  and  O3A_9 
REMARK    4  A    between atoms: C4A_4  and  O4A_10 
REMARK    5  A    between atoms: C5A_5  and  C6A_6 
REMARK    6  A    between atoms: C6A_6  and  O6A_11 
REMARK    7  A    between atoms: O4C_30  and  C1B_12 
REMARK    8  A    between atoms: C2B_13  and  O2B_19 
REMARK    9  A    between atoms: C3B_14  and  O3B_20 
REMARK   10  A    between atoms: C4B_15  and  N4B_18 
REMARK   11  A    between atoms: C5B_16  and  C6B_17 
REMARK   12  A    between atoms: O4D_42  and  C1C_22 
REMARK   13  A    between atoms: C2C_23  and  O2C_28 
REMARK   14  A    between atoms: C3C_24  and  O3C_29 
REMARK   15  A    between atoms: C4C_25  and  O4C_30 
REMARK   16  A    between atoms: C5C_26  and  C6C_27 
REMARK   17  A    between atoms: C6C_27  and  O6C_32 
REMARK   18  A    between atoms: C1D_33  and  O1D_39 
REMARK   19  A    between atoms: C2D_34  and  O2D_40 
REMARK   20  A    between atoms: C3D_35  and  O3D_41 
REMARK   21  A    between atoms: C4D_36  and  O4D_42 
REMARK   22  A    between atoms: C5D_37  and  C6D_38 
REMARK   23  A    between atoms: C6D_38  and  O6D_44 
ROOT
ATOM      1  C1B ACR d   1      29.021  56.295  37.225  0.00  0.00     0.159 C 
ATOM      2  C2B ACR d   1      30.555  56.275  37.142  0.00  0.00     0.110 C 
ATOM      3  C3B ACR d   1      31.026  55.262  36.078  0.00  0.00     0.094 C 
ATOM      4  C4B ACR d   1      30.481  53.854  36.480  0.00  0.00     0.154 C 
ATOM      5  C5B ACR d   1      28.912  53.946  36.487  0.00  0.00     0.068 C 
ATOM      6  O5B ACR d   1      28.478  54.951  37.468  0.00  0.00    -0.351 OA
ATOM      7  H12 ACR d   1      28.746  56.926  38.083  0.00  0.00     0.133 H 
ATOM      8  H13 ACR d   1      30.960  55.964  38.116  0.00  0.00     0.094 H 
ATOM      9  H14 ACR d   1      30.631  55.542  35.090  0.00  0.00     0.090 H 
ATOM     10  H15 ACR d   1      30.841  53.589  37.485  0.00  0.00     0.092 H 
ATOM     11  H16 ACR d   1      28.576  54.245  35.483  0.00  0.00     0.086 H 
ENDROOT
BRANCH   1  12
ATOM     12  O4C ACR d   1      28.427  56.875  36.053  0.00  0.00    -0.348 OA
BRANCH  12  13
ATOM     13  C4C ACR d   1      27.616  58.015  36.396  0.00  0.00     0.096 C 
ATOM     14  C3C ACR d   1      27.964  59.170  35.441  0.00  0.00     0.092 C 
ATOM     15  C2C ACR d   1      27.116  60.399  35.802  0.00  0.00     0.110 C 
ATOM     16  H26 ACR d   1      27.751  58.866  34.406  0.00  0.00     0.091 H 
ATOM     17  C1C ACR d   1      25.609  60.058  35.711  0.00  0.00     0.159 C 
ATOM     18  H25 ACR d   1      27.353  60.699  36.834  0.00  0.00     0.094 H 
ATOM     19  O5C ACR d   1      25.286  58.900  36.565  0.00  0.00    -0.348 OA
ATOM     20  H24 ACR d   1      25.058  60.925  36.105  0.00  0.00     0.133 H 
ATOM     21  C5C ACR d   1      26.085  57.692  36.229  0.00  0.00     0.089 C 
ATOM     22  H28 ACR d   1      25.896  57.406  35.184  0.00  0.00     0.090 H 
ATOM     23  H27 ACR d   1      27.820  58.310  37.436  0.00  0.00     0.091 H 
BRANCH  14  24
ATOM     24  O3C ACR d   1      29.352  59.503  35.565  0.00  0.00    -0.390 OA
ATOM     25  H32 ACR d   1      29.880  58.744  35.345  0.00  0.00     0.210 HD
ENDBRANCH  14  24
BRANCH  15  26
ATOM     26  O2C ACR d   1      27.409  61.499  34.919  0.00  0.00    -0.388 OA
ATOM     27  H31 ACR d   1      28.328  61.727  34.994  0.00  0.00     0.210 HD
ENDBRANCH  15  26
BRANCH  17  28
ATOM     28  O4D ACR d   1      25.144  59.841  34.351  0.00  0.00    -0.348 OA
BRANCH  28  29
ATOM     29  C4D ACR d   1      23.777  60.320  34.185  0.00  0.00     0.096 C 
ATOM     30  C3D ACR d   1      23.782  61.493  33.191  0.00  0.00     0.092 C 
ATOM     31  C2D ACR d   1      22.350  62.035  33.019  0.00  0.00     0.110 C 
ATOM     32  H36 ACR d   1      24.150  61.137  32.217  0.00  0.00     0.091 H 
ATOM     33  C1D ACR d   1      21.396  60.904  32.512  0.00  0.00     0.156 C 
ATOM     34  H35 ACR d   1      21.987  62.393  33.994  0.00  0.00     0.094 H 
ATOM     35  O5D ACR d   1      21.436  59.765  33.463  0.00  0.00    -0.349 OA
ATOM     36  H34 ACR d   1      20.370  61.299  32.469  0.00  0.00     0.133 H 
ATOM     37  C5D ACR d   1      22.802  59.203  33.658  0.00  0.00     0.089 C 
ATOM     38  H38 ACR d   1      23.183  58.824  32.698  0.00  0.00     0.090 H 
ATOM     39  H37 ACR d   1      23.409  60.672  35.160  0.00  0.00     0.091 H 
BRANCH  30  40
ATOM     40  O3D ACR d   1      24.651  62.534  33.666  0.00  0.00    -0.390 OA
ATOM     41  H43 ACR d   1      25.533  62.193  33.753  0.00  0.00     0.210 HD
ENDBRANCH  30  40
BRANCH  31  42
ATOM     42  O2D ACR d   1      22.354  63.137  32.090  0.00  0.00    -0.388 OA
ATOM     43  H42 ACR d   1      22.914  63.828  32.423  0.00  0.00     0.210 HD
ENDBRANCH  31  42
BRANCH  33  44
ATOM     44  O1D ACR d   1      21.771  60.462  31.204  0.00  0.00    -0.369 OA
ATOM     45  H41 ACR d   1      22.652  60.107  31.231  0.00  0.00     0.212 HD
ENDBRANCH  33  44
BRANCH  37  46
ATOM     46  C6D ACR d   1      22.696  58.034  34.660  0.00  0.00     0.043 C 
ATOM     47  H39 ACR d   1      23.706  57.657  34.880  0.00  0.00     0.078 H 
ATOM     48  H40 ACR d   1      22.093  57.230  34.212  0.00  0.00     0.078 H 
BRANCH  46  49
ATOM     49  O6D ACR d   1      22.077  58.458  35.883  0.00  0.00    -0.398 OA
ATOM     50  H44 ACR d   1      21.203  58.782  35.699  0.00  0.00     0.209 HD
ENDBRANCH  46  49
ENDBRANCH  37  46
ENDBRANCH  28  29
ENDBRANCH  17  28
BRANCH  21  51
ATOM     51  C6C ACR d   1      25.635  56.544  37.152  0.00  0.00     0.043 C 
ATOM     52  H29 ACR d   1      26.208  55.637  36.909  0.00  0.00     0.078 H 
ATOM     53  H30 ACR d   1      24.563  56.353  36.998  0.00  0.00     0.078 H 
BRANCH  51  54
ATOM     54  O6C ACR d   1      25.861  56.894  38.525  0.00  0.00    -0.398 OA
ATOM     55  H33 ACR d   1      25.366  57.676  38.737  0.00  0.00     0.209 HD
ENDBRANCH  51  54
ENDBRANCH  21  51
ENDBRANCH  12  13
ENDBRANCH   1  12
BRANCH   2  56
ATOM     56  O2B ACR d   1      31.014  57.603  36.858  0.00  0.00    -0.388 OA
ATOM     57  H22 ACR d   1      30.677  57.880  36.014  0.00  0.00     0.210 HD
ENDBRANCH   2  56
BRANCH   3  58
ATOM     58  O3B ACR d   1      32.455  55.269  36.038  0.00  0.00    -0.391 OA
ATOM     59  H23 ACR d   1      32.760  56.135  35.792  0.00  0.00     0.210 HD
ENDBRANCH   3  58
BRANCH   5  60
ATOM     60  C6B ACR d   1      28.246  52.613  36.857  0.00  0.00    -0.050 C 
ATOM     61  H17 ACR d   1      27.153  52.734  36.847  0.00  0.00     0.031 H 
ATOM     62  H18 ACR d   1      28.572  52.307  37.862  0.00  0.00     0.031 H 
ATOM     63  H19 ACR d   1      28.537  51.843  36.127  0.00  0.00     0.031 H 
ENDBRANCH   5  60
BRANCH   4  64
ATOM     64  N4B ACR d   1      30.942  52.835  35.519  0.00  0.00    -0.056 N 
ATOM     65  H20 ACR d   1      30.132  52.363  35.148  0.00  0.00     0.278 HD
ATOM     66  H21 ACR d   1      31.429  53.305  34.772  0.00  0.00     0.278 HD
BRANCH  64  67
ATOM     67  C1A ACR d   1      31.866  51.796  36.102  0.00  0.00     0.146 C 
ATOM     68  C2A ACR d   1      32.329  50.695  35.056  0.00  0.00     0.093 C 
ATOM     69  C3A ACR d   1      31.234  49.643  34.682  0.00  0.00     0.091 C 
ATOM     70  H2  ACR d   1      33.164  50.130  35.495  0.00  0.00     0.090 H 
ATOM     71  C4A ACR d   1      30.763  48.851  35.986  0.00  0.00     0.086 C 
ATOM     72  H3  ACR d   1      30.363  50.150  34.242  0.00  0.00     0.091 H 
ATOM     73  C5A ACR d   1      30.806  49.676  37.312  0.00  0.00    -0.027 C 
ATOM     74  H4  ACR d   1      31.449  48.005  36.140  0.00  0.00     0.094 H 
ATOM     75  C7A ACR d   1      31.295  51.012  37.346  0.00  0.00    -0.064 C 
ATOM     76  H7  ACR d   1      31.273  51.532  38.303  0.00  0.00     0.080 H 
ATOM     77  H1  ACR d   1      32.762  52.339  36.437  0.00  0.00     0.095 H 
BRANCH  68  78
ATOM     78  O2A ACR d   1      32.823  51.442  33.964  0.00  0.00    -0.390 OA
ATOM     79  H8  ACR d   1      32.108  51.919  33.559  0.00  0.00     0.210 HD
ENDBRANCH  68  78
BRANCH  69  80
ATOM     80  O3A ACR d   1      31.806  48.800  33.736  0.00  0.00    -0.390 OA
ATOM     81  H9  ACR d   1      32.071  49.309  32.979  0.00  0.00     0.210 HD
ENDBRANCH  69  80
BRANCH  71  82
ATOM     82  O4A ACR d   1      29.494  48.322  35.613  0.00  0.00    -0.388 OA
ATOM     83  H10 ACR d   1      29.183  47.738  36.295  0.00  0.00     0.210 HD
ENDBRANCH  71  82
BRANCH  73  84
ATOM     84  C6A ACR d   1      30.344  48.985  38.569  0.00  0.00     0.039 C 
ATOM     85  H5  ACR d   1      29.512  48.332  38.266  0.00  0.00     0.081 H 
ATOM     86  H6  ACR d   1      29.964  49.780  39.228  0.00  0.00     0.081 H 
BRANCH  84  87
ATOM     87  O6A ACR d   1      31.198  48.179  39.381  0.00  0.00    -0.397 OA
ATOM     88  H11 ACR d   1      31.923  48.706  39.696  0.00  0.00     0.209 HD
ENDBRANCH  84  87
ENDBRANCH  73  84
ENDBRANCH  64  67
ENDBRANCH   4  64
TORSDOF 23
