REMARK  8 active torsions:
REMARK  status: ('A' for Active; 'I' for Inactive)
REMARK    1  A    between atoms: C14_1  and  C5_3 
REMARK       I    between atoms: C14_1  and  N1_13 
REMARK    2  A    between atoms: C5_3  and  N21_4 
REMARK    3  A    between atoms: N21_4  and  C49_5 
REMARK    4  A    between atoms: C1_14  and  C7_15 
REMARK       I    between atoms: C7_15  and  N23_20 
REMARK    5  A    between atoms: N23_20  and  C24_21 
REMARK    6  A    between atoms: C24_21  and  C25_22 
REMARK    7  A    between atoms: C28_25  and  C21_26 
REMARK    8  A    between atoms: C21_26  and  N46_27 
ROOT
ATOM      1  C14 13U d   1      18.144  -9.216  12.088  0.00  0.00     0.246 C 
ATOM      2  O32 13U d   1      18.209  -8.355  11.186  0.00  0.00    -0.272 OA
ATOM      3  N1  13U d   1      17.077  -9.169  12.929  0.00  0.00    -0.337 N 
ATOM      4  C1  13U d   1      16.124  -8.123  12.888  0.00  0.00     0.091 C 
ATOM      5  C2  13U d   1      15.270  -8.301  14.144  0.00  0.00    -0.036 C 
ATOM      6  C3  13U d   1      15.635  -9.620  14.805  0.00  0.00    -0.048 C 
ATOM      7  C4  13U d   1      16.980  -9.981  14.193  0.00  0.00    -0.001 C 
ATOM      8  H20 13U d   1      15.503  -8.251  11.989  0.00  0.00     0.087 H 
ATOM      9  H21 13U d   1      14.205  -8.308  13.868  0.00  0.00     0.036 H 
ATOM     10  H22 13U d   1      15.462  -7.473  14.842  0.00  0.00     0.036 H 
ATOM     11  H23 13U d   1      14.884 -10.391  14.579  0.00  0.00     0.035 H 
ATOM     12  H24 13U d   1      15.721  -9.500  15.895  0.00  0.00     0.035 H 
ATOM     13  H25 13U d   1      17.798  -9.721  14.881  0.00  0.00     0.064 H 
ATOM     14  H26 13U d   1      17.022 -11.056  13.964  0.00  0.00     0.064 H 
ENDROOT
BRANCH   1  15
ATOM     15  C5  13U d   1      19.136 -10.368  12.349  0.00  0.00     0.154 C 
ATOM     16  H1  13U d   1      18.648 -11.045  13.066  0.00  0.00     0.090 H 
ATOM     17  H2  13U d   1      20.023  -9.916  12.817  0.00  0.00     0.090 H 
BRANCH  15  18
ATOM     18  N21 13U d   1      19.617 -11.192  11.271  0.00  0.00    -0.063 N 
ATOM     19  H3  13U d   1      20.534 -11.498  11.556  0.00  0.00     0.278 HD
ATOM     20  H4  13U d   1      19.700 -10.575  10.478  0.00  0.00     0.278 HD
BRANCH  18  21
ATOM     21  C49 13U d   1      18.948 -12.384  10.768  0.00  0.00     0.102 C 
ATOM     22  C48 13U d   1      17.464 -12.273  11.076  0.00  0.00    -0.038 C 
ATOM     23  C47 13U d   1      16.405 -12.645  10.070  0.00  0.00    -0.063 C 
ATOM     24  H6  13U d   1      17.283 -11.220  11.337  0.00  0.00     0.036 H 
ATOM     25  H7  13U d   1      17.285 -12.906  11.958  0.00  0.00     0.036 H 
ATOM     26  C46 13U d   1      15.869 -13.996   9.621  0.00  0.00    -0.065 C 
ATOM     27  H8  13U d   1      16.758 -12.182   9.137  0.00  0.00     0.033 H 
ATOM     28  H9  13U d   1      15.509 -12.115  10.427  0.00  0.00     0.033 H 
ATOM     29  C45 13U d   1      16.748 -14.818   8.680  0.00  0.00    -0.065 C 
ATOM     30  H10 13U d   1      14.912 -13.819   9.109  0.00  0.00     0.033 H 
ATOM     31  H11 13U d   1      15.696 -14.600  10.524  0.00  0.00     0.033 H 
ATOM     32  C44 13U d   1      18.182 -14.897   9.188  0.00  0.00    -0.065 C 
ATOM     33  H12 13U d   1      16.746 -14.348   7.686  0.00  0.00     0.033 H 
ATOM     34  H13 13U d   1      16.338 -15.836   8.605  0.00  0.00     0.033 H 
ATOM     35  C43 13U d   1      19.241 -13.945   8.607  0.00  0.00    -0.063 C 
ATOM     36  H14 13U d   1      18.534 -15.922   8.998  0.00  0.00     0.033 H 
ATOM     37  H15 13U d   1      18.148 -14.716  10.273  0.00  0.00     0.033 H 
ATOM     38  C42 13U d   1      19.517 -12.634   9.373  0.00  0.00    -0.038 C 
ATOM     39  H16 13U d   1      18.917 -13.672   7.592  0.00  0.00     0.033 H 
ATOM     40  H17 13U d   1      20.189 -14.500   8.552  0.00  0.00     0.033 H 
ATOM     41  H18 13U d   1      20.610 -12.555   9.466  0.00  0.00     0.036 H 
ATOM     42  H19 13U d   1      19.143 -11.819   8.736  0.00  0.00     0.036 H 
ATOM     43  H5  13U d   1      19.287 -13.242  11.367  0.00  0.00     0.084 H 
ENDBRANCH  18  21
ENDBRANCH  15  18
ENDBRANCH   1  15
BRANCH   4  44
ATOM     44  C7  13U d   1      16.677  -6.716  12.873  0.00  0.00     0.240 C 
ATOM     45  O22 13U d   1      17.651  -6.437  13.574  0.00  0.00    -0.271 OA
ATOM     46  N23 13U d   1      16.094  -5.829  12.106  0.00  0.00    -0.355 N 
ATOM     47  H27 13U d   1      15.332  -6.130  11.533  0.00  0.00     0.162 HD
BRANCH  46  48
ATOM     48  C24 13U d   1      16.483  -4.456  12.040  0.00  0.00     0.019 C 
ATOM     49  H28 13U d   1      17.188  -4.230  12.853  0.00  0.00     0.071 H 
ATOM     50  H29 13U d   1      15.596  -3.813  12.135  0.00  0.00     0.071 H 
BRANCH  48  51
ATOM     51  C25 13U d   1      17.140  -4.218  10.721  0.00  0.00    -0.040 A 
ATOM     52  C30 13U d   1      18.283  -4.934  10.364  0.00  0.00    -0.074 A 
ATOM     53  C29 13U d   1      18.874  -4.705   9.149  0.00  0.00    -0.069 A 
ATOM     54  H30 13U d   1      18.701  -5.667  11.044  0.00  0.00     0.084 H 
ATOM     55  C28 13U d   1      18.367  -3.772   8.244  0.00  0.00     0.007 A 
ATOM     56  H31 13U d   1      19.763  -5.266   8.883  0.00  0.00     0.085 H 
ATOM     57  C27 13U d   1      17.222  -3.065   8.612  0.00  0.00    -0.069 A 
ATOM     58  C26 13U d   1      16.620  -3.292   9.843  0.00  0.00    -0.074 A 
ATOM     59  H36 13U d   1      16.799  -2.334   7.933  0.00  0.00     0.085 H 
ATOM     60  H37 13U d   1      15.731  -2.735  10.116  0.00  0.00     0.084 H 
BRANCH  55  61
ATOM     61  C21 13U d   1      19.008  -3.505   6.891  0.00  0.00     0.102 C 
ATOM     62  N47 13U d   1      20.318  -3.639   6.717  0.00  0.00    -0.385 N 
ATOM     63  H34 13U d   1      20.915  -3.928   7.505  0.00  0.00     0.157 HD
ATOM     64  H35 13U d   1      20.737  -3.454   5.794  0.00  0.00     0.157 HD
BRANCH  61  65
ATOM     65  N46 13U d   1      18.194  -3.133   5.902  0.00  0.00    -0.385 N 
ATOM     66  H32 13U d   1      18.576  -2.940   4.965  0.00  0.00     0.157 HD
ATOM     67  H33 13U d   1      17.183  -3.039   6.075  0.00  0.00     0.157 HD
ENDBRANCH  61  65
ENDBRANCH  55  61
ENDBRANCH  48  51
ENDBRANCH  46  48
ENDBRANCH   4  44
TORSDOF 8
