REMARK  7 active torsions:
REMARK  status: ('A' for Active; 'I' for Inactive)
REMARK    1  A    between atoms: CAP_9  and  CAO_10 
REMARK       I    between atoms: CAO_10  and  NAL_12 
REMARK    2  A    between atoms: NAL_12  and  CAK_13 
REMARK    3  A    between atoms: CAK_13  and  CAT_14 
REMARK    4  A    between atoms: CAS_16  and  CAA_17 
REMARK    5  A    between atoms: CAU_18  and  OAC_19 
REMARK    6  A    between atoms: CAW_20  and  OAE_21 
REMARK    7  A    between atoms: CAV_22  and  OAD_23 
ROOT
ATOM      1  CAT ZX8 d   1      -1.412  26.771  25.914  0.00  0.00     0.144 C 
ATOM      2  NAM ZX8 d   1       0.010  27.151  25.876  0.00  0.00    -0.060 N 
ATOM      3  CAS ZX8 d   1       0.222  28.292  24.968  0.00  0.00     0.126 C 
ATOM      4  CAU ZX8 d   1      -0.250  28.005  23.535  0.00  0.00     0.089 C 
ATOM      5  CAW ZX8 d   1      -1.720  27.587  23.581  0.00  0.00     0.089 C 
ATOM      6  CAV ZX8 d   1      -1.830  26.367  24.497  0.00  0.00     0.091 C 
ATOM      7  H9  ZX8 d   1      -2.008  27.640  26.229  0.00  0.00     0.091 H 
ATOM      8  H10 ZX8 d   1       0.553  26.366  25.553  0.00  0.00     0.278 HD
ATOM      9  H11 ZX8 d   1       0.309  27.407  26.804  0.00  0.00     0.278 HD
ATOM     10  H12 ZX8 d   1      -0.360  29.144  25.348  0.00  0.00     0.087 H 
ATOM     11  H16 ZX8 d   1      -0.133  28.909  22.919  0.00  0.00     0.090 H 
ATOM     12  H18 ZX8 d   1      -2.322  28.414  23.986  0.00  0.00     0.091 H 
ATOM     13  H20 ZX8 d   1      -1.162  25.572  24.135  0.00  0.00     0.090 H 
ENDROOT
BRANCH   1  14
ATOM     14  CAK ZX8 d   1      -1.651  25.632  26.913  0.00  0.00     0.025 C 
ATOM     15  H7  ZX8 d   1      -2.702  25.313  26.850  0.00  0.00     0.067 H 
ATOM     16  H8  ZX8 d   1      -0.996  24.786  26.658  0.00  0.00     0.067 H 
BRANCH  14  17
ATOM     17  NAL ZX8 d   1      -1.362  26.066  28.285  0.00  0.00    -0.353 N 
ATOM     18  CAO ZX8 d   1      -1.193  25.198  29.291  0.00  0.00     0.275 C 
ATOM     19  OAB ZX8 d   1      -1.221  23.980  29.171  0.00  0.00    -0.265 OA
ATOM     20  H6  ZX8 d   1      -1.289  27.045  28.476  0.00  0.00     0.162 HD
BRANCH  18  21
ATOM     21  CAP ZX8 d   1      -0.863  25.811  30.653  0.00  0.00     0.144 A 
ATOM     22  CAJ ZX8 d   1      -1.011  27.088  30.992  0.00  0.00    -0.032 A 
ATOM     23  CAQ ZX8 d   1      -0.221  27.330  32.042  0.00  0.00     0.001 A 
ATOM     24  H1  ZX8 d   1      -1.662  27.810  30.500  0.00  0.00     0.089 H 
ATOM     25  CAH ZX8 d   1       0.101  28.498  32.709  0.00  0.00    -0.070 A 
ATOM     26  CAR ZX8 d   1       0.433  26.144  32.383  0.00  0.00     0.086 A 
ATOM     27  CAF ZX8 d   1       1.077  28.483  33.706  0.00  0.00    -0.082 A 
ATOM     28  H2  ZX8 d   1      -0.404  29.424  32.458  0.00  0.00     0.084 H 
ATOM     29  CAG ZX8 d   1       1.727  27.302  34.040  0.00  0.00    -0.080 A 
ATOM     30  H3  ZX8 d   1       1.330  29.401  34.224  0.00  0.00     0.083 H 
ATOM     31  CAI ZX8 d   1       1.402  26.122  33.378  0.00  0.00    -0.049 A 
ATOM     32  H4  ZX8 d   1       2.486  27.299  34.814  0.00  0.00     0.083 H 
ATOM     33  H5  ZX8 d   1       1.900  25.195  33.636  0.00  0.00     0.087 H 
ATOM     34  OAN ZX8 d   1       0.006  25.192  31.507  0.00  0.00    -0.304 OA
ENDBRANCH  18  21
ENDBRANCH  14  17
ENDBRANCH   1  14
BRANCH   6  35
ATOM     35  OAD ZX8 d   1      -3.177  25.894  24.478  0.00  0.00    -0.391 OA
ATOM     36  H21 ZX8 d   1      -3.414  25.652  23.590  0.00  0.00     0.210 HD
ENDBRANCH   6  35
BRANCH   3  37
ATOM     37  CAA ZX8 d   1       1.702  28.669  24.989  0.00  0.00    -0.047 C 
ATOM     38  H13 ZX8 d   1       1.873  29.521  24.314  0.00  0.00     0.030 H 
ATOM     39  H14 ZX8 d   1       2.304  27.811  24.656  0.00  0.00     0.030 H 
ATOM     40  H15 ZX8 d   1       1.995  28.947  26.012  0.00  0.00     0.030 H 
ENDBRANCH   3  37
BRANCH   5  41
ATOM     41  OAE ZX8 d   1      -2.208  27.245  22.282  0.00  0.00    -0.390 OA
ATOM     42  H19 ZX8 d   1      -2.126  27.996  21.706  0.00  0.00     0.210 HD
ENDBRANCH   5  41
BRANCH   4  43
ATOM     43  OAC ZX8 d   1       0.501  26.929  22.961  0.00  0.00    -0.391 OA
ATOM     44  H17 ZX8 d   1       0.195  26.767  22.076  0.00  0.00     0.210 HD
ENDBRANCH   4  43
TORSDOF 7
