REMARK  12 active torsions:
REMARK  status: ('A' for Active; 'I' for Inactive)
REMARK    1  A    between atoms: P_2  and  C1_4 
REMARK    2  A    between atoms: P_2  and  C3_7 
REMARK    3  A    between atoms: C1_4  and  N1_5 
REMARK    4  A    between atoms: C1_4  and  C2_6 
REMARK    5  A    between atoms: C3_7  and  C4_8 
REMARK    6  A    between atoms: C4_8  and  C6_9 
REMARK    7  A    between atoms: C4_8  and  C5_16 
REMARK    8  A    between atoms: C6_9  and  C7_10 
REMARK       I    between atoms: C5_16  and  N2_18 
REMARK    9  A    between atoms: N2_18  and  C13_19 
REMARK   10  A    between atoms: C13_19  and  C14_20 
REMARK   11  A    between atoms: C13_19  and  C15_23 
REMARK   12  A    between atoms: C15_23  and  C16_24 
ROOT
ATOM      1  C4  S23 d   1      72.878  48.179   5.716  0.00  0.00     0.036 C 
ATOM      2  H10 S23 d   1      73.855  47.757   5.994  0.00  0.00     0.056 H 
ENDROOT
BRANCH   1   3
ATOM      3  C3  S23 d   1      71.848  47.615   6.741  0.00  0.00     0.021 C 
ATOM      4  H8  S23 d   1      71.794  48.334   7.571  0.00  0.00     0.050 H 
ATOM      5  H9  S23 d   1      70.875  47.572   6.229  0.00  0.00     0.050 H 
BRANCH   3   6
ATOM      6  P   S23 d   1      72.101  46.177   7.385  0.00  0.00     0.137 P 
ATOM      7  O2  S23 d   1      71.870  45.112   6.461  0.00  0.00    -0.666 OA
ATOM      8  O1  S23 d   1      73.493  46.030   7.798  0.00  0.00    -0.666 OA
BRANCH   6   9
ATOM      9  C1  S23 d   1      71.158  45.965   8.667  0.00  0.00     0.170 C 
ATOM     10  H1  S23 d   1      70.132  45.864   8.284  0.00  0.00     0.100 H 
BRANCH   9  11
ATOM     11  N1  S23 d   1      71.482  44.780   9.469  0.00  0.00    -0.066 N 
ATOM     12  H2  S23 d   1      70.848  44.719  10.250  0.00  0.00     0.275 HD
ATOM     13  H3  S23 d   1      72.428  44.853   9.809  0.00  0.00     0.275 HD
ATOM     14  H4  S23 d   1      71.393  43.954   8.899  0.00  0.00     0.275 HD
ENDBRANCH   9  11
BRANCH   9  15
ATOM     15  C2  S23 d   1      71.184  47.100   9.702  0.00  0.00    -0.041 C 
ATOM     16  H5  S23 d   1      70.507  46.854  10.533  0.00  0.00     0.031 H 
ATOM     17  H6  S23 d   1      70.856  48.037   9.227  0.00  0.00     0.031 H 
ATOM     18  H7  S23 d   1      72.207  47.222  10.086  0.00  0.00     0.031 H 
ENDBRANCH   9  15
ENDBRANCH   6   9
ENDBRANCH   3   6
ENDBRANCH   1   3
BRANCH   1  19
ATOM     19  C6  S23 d   1      72.578  47.744   4.259  0.00  0.00    -0.029 C 
ATOM     20  H11 S23 d   1      71.612  48.167   3.947  0.00  0.00     0.041 H 
ATOM     21  H12 S23 d   1      72.530  46.646   4.212  0.00  0.00     0.041 H 
BRANCH  19  22
ATOM     22  C7  S23 d   1      73.669  48.239   3.316  0.00  0.00    -0.057 A 
ATOM     23  C8  S23 d   1      74.796  47.440   3.091  0.00  0.00    -0.077 A 
ATOM     24  C10 S23 d   1      75.813  47.881   2.243  0.00  0.00    -0.082 A 
ATOM     25  H13 S23 d   1      74.879  46.475   3.577  0.00  0.00     0.084 H 
ATOM     26  C12 S23 d   1      75.701  49.130   1.635  0.00  0.00    -0.083 A 
ATOM     27  H14 S23 d   1      76.681  47.258   2.059  0.00  0.00     0.083 H 
ATOM     28  C11 S23 d   1      74.593  49.947   1.861  0.00  0.00    -0.082 A 
ATOM     29  H15 S23 d   1      76.489  49.473   0.975  0.00  0.00     0.083 H 
ATOM     30  C9  S23 d   1      73.565  49.497   2.700  0.00  0.00    -0.077 A 
ATOM     31  H16 S23 d   1      74.528  50.922   1.391  0.00  0.00     0.083 H 
ATOM     32  H17 S23 d   1      72.693  50.117   2.873  0.00  0.00     0.084 H 
ENDBRANCH  19  22
ENDBRANCH   1  19
BRANCH   1  33
ATOM     33  C5  S23 d   1      73.018  49.696   5.737  0.00  0.00     0.223 C 
ATOM     34  O3  S23 d   1      72.074  50.440   5.517  0.00  0.00    -0.273 OA
ATOM     35  N2  S23 d   1      74.250  50.171   5.982  0.00  0.00    -0.346 N 
ATOM     36  H18 S23 d   1      74.950  49.533   6.303  0.00  0.00     0.163 HD
BRANCH  35  37
ATOM     37  C13 S23 d   1      74.618  51.571   5.803  0.00  0.00     0.100 C 
ATOM     38  H19 S23 d   1      73.823  52.072   5.230  0.00  0.00     0.090 H 
BRANCH  37  39
ATOM     39  C14 S23 d   1      75.913  51.674   5.044  0.00  0.00     0.197 C 
ATOM     40  O4  S23 d   1      76.094  52.674   4.306  0.00  0.00    -0.646 OA
ATOM     41  O5  S23 d   1      76.757  50.760   5.165  0.00  0.00    -0.646 OA
ENDBRANCH  37  39
BRANCH  37  42
ATOM     42  C15 S23 d   1      74.783  52.283   7.147  0.00  0.00    -0.013 C 
ATOM     43  H20 S23 d   1      75.091  53.322   6.959  0.00  0.00     0.043 H 
ATOM     44  H21 S23 d   1      75.564  51.767   7.725  0.00  0.00     0.043 H 
BRANCH  42  45
ATOM     45  C16 S23 d   1      73.506  52.297   7.964  0.00  0.00    -0.056 A 
ATOM     46  C17 S23 d   1      72.577  53.328   7.784  0.00  0.00    -0.077 A 
ATOM     47  C19 S23 d   1      71.400  53.355   8.539  0.00  0.00    -0.082 A 
ATOM     48  H22 S23 d   1      72.770  54.108   7.057  0.00  0.00     0.084 H 
ATOM     49  C21 S23 d   1      71.152  52.349   9.476  0.00  0.00    -0.083 A 
ATOM     50  H23 S23 d   1      70.682  54.155   8.397  0.00  0.00     0.083 H 
ATOM     51  C20 S23 d   1      72.071  51.301   9.636  0.00  0.00    -0.082 A 
ATOM     52  H24 S23 d   1      70.251  52.378  10.078  0.00  0.00     0.083 H 
ATOM     53  C18 S23 d   1      73.258  51.282   8.893  0.00  0.00    -0.077 A 
ATOM     54  H25 S23 d   1      71.861  50.502  10.338  0.00  0.00     0.083 H 
ATOM     55  H26 S23 d   1      73.979  50.486   9.037  0.00  0.00     0.084 H 
ENDBRANCH  42  45
ENDBRANCH  37  42
ENDBRANCH  35  37
ENDBRANCH   1  33
TORSDOF 12
