REMARK  8 active torsions:
REMARK  status: ('A' for Active; 'I' for Inactive)
REMARK    1  A    between atoms: CAV_6  and  OAS_7 
REMARK    2  A    between atoms: OAS_7  and  CAW_8 
REMARK    3  A    between atoms: CAU_13  and  CAP_14 
REMARK    4  A    between atoms: CAP_14  and  CAN_15 
REMARK    5  A    between atoms: CAN_15  and  CAO_16 
REMARK    6  A    between atoms: CAO_16  and  NAR_17 
REMARK       I    between atoms: NAR_17  and  CAT_18 
REMARK    7  A    between atoms: CAT_18  and  CAQ_20 
REMARK    8  A    between atoms: CAQ_20  and  PAX_21 
ROOT
ATOM      1  CAW 830 d   1      15.187  56.708  38.048  0.00  0.00     0.076 A 
ATOM      2  CAM 830 d   1      16.044  56.759  36.954  0.00  0.00    -0.044 A 
ATOM      3  CAL 830 d   1      14.853  55.480  38.605  0.00  0.00    -0.050 A 
ATOM      4  CAH 830 d   1      15.385  54.310  38.068  0.00  0.00    -0.080 A 
ATOM      5  CAI 830 d   1      16.245  54.365  36.977  0.00  0.00    -0.077 A 
ATOM      6  CAU 830 d   1      16.580  55.593  36.419  0.00  0.00    -0.055 A 
ATOM      7  H6  830 d   1      16.297  57.717  36.514  0.00  0.00     0.088 H 
ATOM      8  H7  830 d   1      14.181  55.432  39.454  0.00  0.00     0.087 H 
ATOM      9  H8  830 d   1      15.127  53.351  38.503  0.00  0.00     0.083 H 
ATOM     10  H9  830 d   1      16.654  53.451  36.562  0.00  0.00     0.084 H 
ENDROOT
BRANCH   6  11
ATOM     11  CAP 830 d   1      17.564  55.672  35.249  0.00  0.00    -0.040 C 
ATOM     12  H10 830 d   1      17.216  56.446  34.549  0.00  0.00     0.040 H 
ATOM     13  H11 830 d   1      17.582  54.698  34.739  0.00  0.00     0.040 H 
BRANCH  11  14
ATOM     14  CAN 830 d   1      18.990  56.018  35.693  0.00  0.00    -0.047 C 
ATOM     15  H12 830 d   1      18.963  56.954  36.270  0.00  0.00     0.035 H 
ATOM     16  H13 830 d   1      19.615  56.156  34.799  0.00  0.00     0.035 H 
BRANCH  14  17
ATOM     17  CAO 830 d   1      19.610  54.921  36.562  0.00  0.00    -0.004 C 
ATOM     18  H14 830 d   1      19.134  54.918  37.554  0.00  0.00     0.064 H 
ATOM     19  H15 830 d   1      20.690  55.100  36.674  0.00  0.00     0.064 H 
BRANCH  17  20
ATOM     20  NAR 830 d   1      19.385  53.628  35.897  0.00  0.00    -0.361 N 
ATOM     21  CAT 830 d   1      19.390  52.472  36.552  0.00  0.00     0.230 C 
ATOM     22  OAA 830 d   1      19.562  52.368  37.768  0.00  0.00    -0.273 OA
ATOM     23  H16 830 d   1      19.221  53.619  34.910  0.00  0.00     0.162 HD
BRANCH  21  24
ATOM     24  CAQ 830 d   1      19.089  51.251  35.682  0.00  0.00     0.112 C 
ATOM     25  H17 830 d   1      18.630  51.597  34.744  0.00  0.00     0.068 H 
ATOM     26  H18 830 d   1      18.379  50.606  36.221  0.00  0.00     0.068 H 
BRANCH  24  27
ATOM     27  PAX 830 d   1      20.554  50.272  35.274  0.00  0.00     0.268 P 
ATOM     28  OAC 830 d   1      21.278  51.053  34.065  0.00  0.00    -0.639 OA
ATOM     29  OAD 830 d   1      21.488  50.302  36.584  0.00  0.00    -0.639 OA
ATOM     30  OAB 830 d   1      20.123  48.907  34.885  0.00  0.00    -0.639 OA
ENDBRANCH  24  27
ENDBRANCH  21  24
ENDBRANCH  17  20
ENDBRANCH  14  17
ENDBRANCH  11  14
ENDBRANCH   6  11
BRANCH   1  31
ATOM     31  OAS 830 d   1      14.773  57.865  38.640  0.00  0.00    -0.311 OA
BRANCH  31  32
ATOM     32  CAV 830 d   1      13.654  58.440  38.120  0.00  0.00     0.076 A 
ATOM     33  CAJ 830 d   1      13.025  57.930  36.990  0.00  0.00    -0.050 A 
ATOM     34  CAF 830 d   1      11.972  58.631  36.412  0.00  0.00    -0.080 A 
ATOM     35  H1  830 d   1      13.354  56.990  36.561  0.00  0.00     0.087 H 
ATOM     36  CAE 830 d   1      11.546  59.837  36.955  0.00  0.00    -0.083 A 
ATOM     37  H2  830 d   1      11.480  58.234  35.532  0.00  0.00     0.083 H 
ATOM     38  CAG 830 d   1      12.169  60.347  38.091  0.00  0.00    -0.080 A 
ATOM     39  H3  830 d   1      10.729  60.380  36.494  0.00  0.00     0.083 H 
ATOM     40  CAK 830 d   1      13.217  59.644  38.668  0.00  0.00    -0.050 A 
ATOM     41  H4  830 d   1      11.838  61.285  38.521  0.00  0.00     0.083 H 
ATOM     42  H5  830 d   1      13.701  60.036  39.555  0.00  0.00     0.087 H 
ENDBRANCH  31  32
ENDBRANCH   1  31
TORSDOF 8
