REMARK  24 active torsions:
REMARK  status: ('A' for Active; 'I' for Inactive)
REMARK    1  A    between atoms: C2A_2  and  O2A_8 
REMARK    2  A    between atoms: C3A_3  and  O3A_9 
REMARK    3  A    between atoms: C5A_5  and  C6A_6 
REMARK    4  A    between atoms: C6A_6  and  O6A_11 
REMARK    5  A    between atoms: C2B_13  and  O2B_19 
REMARK    6  A    between atoms: C3B_14  and  O3B_20 
REMARK    7  A    between atoms: C5B_16  and  C6B_17 
REMARK    8  A    between atoms: C6B_17  and  O6B_22 
REMARK    9  A    between atoms: C2C_24  and  O2C_30 
REMARK   10  A    between atoms: C3C_25  and  O3C_31 
REMARK   11  A    between atoms: C5C_27  and  C6C_28 
REMARK   12  A    between atoms: C6C_28  and  O6C_33 
REMARK   13  A    between atoms: C2D_35  and  O2D_41 
REMARK   14  A    between atoms: C3D_36  and  O3D_42 
REMARK   15  A    between atoms: C5D_38  and  C6D_39 
REMARK   16  A    between atoms: C6D_39  and  O6D_44 
REMARK   17  A    between atoms: C2E_46  and  O2E_52 
REMARK   18  A    between atoms: C3E_47  and  O3E_53 
REMARK   19  A    between atoms: C5E_49  and  C6E_50 
REMARK   20  A    between atoms: C6E_50  and  O6E_55 
REMARK   21  A    between atoms: C2F_57  and  O2F_63 
REMARK   22  A    between atoms: C3F_58  and  O3F_64 
REMARK   23  A    between atoms: C5F_60  and  C6F_61 
REMARK   24  A    between atoms: C6F_61  and  O6F_66 
ROOT
ATOM      1  C1A ACX d   1      16.591   5.920  12.618  0.00  0.00     0.159 C 
ATOM      2  C2A ACX d   1      15.546   5.896  13.764  0.00  0.00     0.110 C 
ATOM      3  C3A ACX d   1      16.026   4.954  14.869  0.00  0.00     0.092 C 
ATOM      4  C4A ACX d   1      16.149   3.557  14.272  0.00  0.00     0.096 C 
ATOM      5  C5A ACX d   1      17.202   3.605  13.112  0.00  0.00     0.089 C 
ATOM      6  O1A ACX d   1      17.805   6.360  13.175  0.00  0.00    -0.348 OA
ATOM      7  O5A ACX d   1      16.795   4.577  12.096  0.00  0.00    -0.348 OA
ATOM      8  C1B ACX d   1      20.809   9.251  13.153  0.00  0.00     0.159 C 
ATOM      9  C2B ACX d   1      19.349   9.768  13.152  0.00  0.00     0.110 C 
ATOM     10  C3B ACX d   1      18.461   8.628  13.632  0.00  0.00     0.092 C 
ATOM     11  C4B ACX d   1      18.628   7.446  12.692  0.00  0.00     0.096 C 
ATOM     12  C5B ACX d   1      20.099   6.970  12.662  0.00  0.00     0.089 C 
ATOM     13  O1B ACX d   1      21.101   8.817  14.474  0.00  0.00    -0.348 OA
ATOM     14  O5B ACX d   1      20.931   8.089  12.222  0.00  0.00    -0.348 OA
ATOM     15  C1C ACX d   1      23.805   8.334  17.570  0.00  0.00     0.159 C 
ATOM     16  C2C ACX d   1      22.601   9.264  17.842  0.00  0.00     0.110 C 
ATOM     17  C3C ACX d   1      21.563   9.025  16.747  0.00  0.00     0.092 C 
ATOM     18  C4C ACX d   1      22.114   9.307  15.330  0.00  0.00     0.096 C 
ATOM     19  C5C ACX d   1      23.414   8.481  15.108  0.00  0.00     0.089 C 
ATOM     20  O1C ACX d   1      23.377   6.991  17.628  0.00  0.00    -0.348 OA
ATOM     21  O5C ACX d   1      24.323   8.634  16.242  0.00  0.00    -0.348 OA
ATOM     22  C1D ACX d   1      24.354   3.140  18.851  0.00  0.00     0.159 C 
ATOM     23  C2D ACX d   1      24.262   4.213  19.930  0.00  0.00     0.110 C 
ATOM     24  C3D ACX d   1      23.470   5.395  19.354  0.00  0.00     0.092 C 
ATOM     25  C4D ACX d   1      24.217   5.957  18.113  0.00  0.00     0.096 C 
ATOM     26  C5D ACX d   1      24.384   4.862  17.045  0.00  0.00     0.089 C 
ATOM     27  O1D ACX d   1      23.082   2.728  18.558  0.00  0.00    -0.348 OA
ATOM     28  O5D ACX d   1      25.010   3.701  17.673  0.00  0.00    -0.348 OA
ATOM     29  C1E ACX d   1      20.328  -0.360  17.942  0.00  0.00     0.159 C 
ATOM     30  C2E ACX d   1      20.974  -0.221  19.346  0.00  0.00     0.110 C 
ATOM     31  C3E ACX d   1      21.535   1.184  19.509  0.00  0.00     0.092 C 
ATOM     32  C4E ACX d   1      22.564   1.435  18.417  0.00  0.00     0.096 C 
ATOM     33  C5E ACX d   1      21.908   1.305  17.026  0.00  0.00     0.089 C 
ATOM     34  O1E ACX d   1      19.242   0.545  17.805  0.00  0.00    -0.348 OA
ATOM     35  O5E ACX d   1      21.332  -0.070  16.918  0.00  0.00    -0.348 OA
ATOM     36  C1F ACX d   1      15.871   1.488  15.609  0.00  0.00     0.159 C 
ATOM     37  C2F ACX d   1      15.696   1.456  17.140  0.00  0.00     0.110 C 
ATOM     38  C3F ACX d   1      17.097   1.415  17.761  0.00  0.00     0.092 C 
ATOM     39  C4F ACX d   1      17.905   0.190  17.305  0.00  0.00     0.096 C 
ATOM     40  C5F ACX d   1      17.932   0.128  15.739  0.00  0.00     0.089 C 
ATOM     41  O1F ACX d   1      16.596   2.626  15.259  0.00  0.00    -0.348 OA
ATOM     42  O5F ACX d   1      16.575   0.306  15.219  0.00  0.00    -0.348 OA
ATOM     43  H1  ACX d   1      16.262   6.594  11.813  0.00  0.00     0.133 H 
ATOM     44  H2  ACX d   1      14.581   5.539  13.377  0.00  0.00     0.094 H 
ATOM     45  H3  ACX d   1      16.999   5.292  15.255  0.00  0.00     0.091 H 
ATOM     46  H4  ACX d   1      15.173   3.236  13.880  0.00  0.00     0.091 H 
ATOM     47  H5  ACX d   1      18.166   3.913  13.542  0.00  0.00     0.090 H 
ATOM     48  H11 ACX d   1      21.499  10.052  12.849  0.00  0.00     0.133 H 
ATOM     49  H12 ACX d   1      19.063  10.071  12.134  0.00  0.00     0.094 H 
ATOM     50  H13 ACX d   1      18.753   8.330  14.650  0.00  0.00     0.091 H 
ATOM     51  H14 ACX d   1      18.314   7.735  11.678  0.00  0.00     0.091 H 
ATOM     52  H15 ACX d   1      20.403   6.644  13.668  0.00  0.00     0.090 H 
ATOM     53  H21 ACX d   1      24.589   8.505  18.323  0.00  0.00     0.133 H 
ATOM     54  H22 ACX d   1      22.927  10.314  17.816  0.00  0.00     0.094 H 
ATOM     55  H23 ACX d   1      21.266   7.968  16.805  0.00  0.00     0.091 H 
ATOM     56  H24 ACX d   1      22.302  10.379  15.170  0.00  0.00     0.091 H 
ATOM     57  H25 ACX d   1      23.118   7.426  15.016  0.00  0.00     0.090 H 
ATOM     58  H31 ACX d   1      24.941   2.286  19.221  0.00  0.00     0.133 H 
ATOM     59  H32 ACX d   1      25.270   4.548  20.217  0.00  0.00     0.094 H 
ATOM     60  H33 ACX d   1      22.467   5.054  19.057  0.00  0.00     0.091 H 
ATOM     61  H34 ACX d   1      25.203   6.353  18.396  0.00  0.00     0.091 H 
ATOM     62  H35 ACX d   1      23.387   4.588  16.669  0.00  0.00     0.090 H 
ATOM     63  H41 ACX d   1      19.960  -1.389  17.813  0.00  0.00     0.133 H 
ATOM     64  H42 ACX d   1      21.788  -0.953  19.447  0.00  0.00     0.094 H 
ATOM     65  H43 ACX d   1      20.720   1.918  19.425  0.00  0.00     0.091 H 
ATOM     66  H44 ACX d   1      23.378   0.700  18.507  0.00  0.00     0.091 H 
ATOM     67  H45 ACX d   1      21.103   2.049  16.935  0.00  0.00     0.090 H 
ATOM     68  H51 ACX d   1      14.887   1.513  15.118  0.00  0.00     0.133 H 
ATOM     69  H52 ACX d   1      15.130   0.560  17.434  0.00  0.00     0.094 H 
ATOM     70  H53 ACX d   1      17.631   2.321  17.438  0.00  0.00     0.091 H 
ATOM     71  H54 ACX d   1      17.527  -0.751  17.730  0.00  0.00     0.091 H 
ATOM     72  H55 ACX d   1      18.584   0.935  15.374  0.00  0.00     0.090 H 
ENDROOT
BRANCH   5  73
ATOM     73  C6A ACX d   1      17.389   2.291  12.417  0.00  0.00     0.043 C 
ATOM     74  H6  ACX d   1      17.635   1.521  13.163  0.00  0.00     0.078 H 
ATOM     75  H7  ACX d   1      18.215   2.379  11.695  0.00  0.00     0.078 H 
BRANCH  73  76
ATOM     76  O6A ACX d   1      16.203   1.909  11.725  0.00  0.00    -0.398 OA
ATOM     77  H10 ACX d   1      15.989   2.570  11.077  0.00  0.00     0.209 HD
ENDBRANCH  73  76
ENDBRANCH   5  73
BRANCH   3  78
ATOM     78  O3A ACX d   1      15.075   4.913  15.926  0.00  0.00    -0.390 OA
ATOM     79  H9  ACX d   1      15.368   4.301  16.591  0.00  0.00     0.210 HD
ENDBRANCH   3  78
BRANCH   2  80
ATOM     80  O2A ACX d   1      15.393   7.219  14.268  0.00  0.00    -0.388 OA
ATOM     81  H8  ACX d   1      16.228   7.530  14.598  0.00  0.00     0.210 HD
ENDBRANCH   2  80
BRANCH  37  82
ATOM     82  O2F ACX d   1      14.996   2.623  17.576  0.00  0.00    -0.388 OA
ATOM     83  H58 ACX d   1      15.477   3.398  17.310  0.00  0.00     0.210 HD
ENDBRANCH  37  82
BRANCH  38  84
ATOM     84  O3F ACX d   1      17.045   1.405  19.193  0.00  0.00    -0.390 OA
ATOM     85  H59 ACX d   1      16.624   0.606  19.488  0.00  0.00     0.210 HD
ENDBRANCH  38  84
BRANCH  40  86
ATOM     86  C6F ACX d   1      18.417  -1.193  15.170  0.00  0.00     0.043 C 
ATOM     87  H56 ACX d   1      17.756  -2.002  15.513  0.00  0.00     0.078 H 
ATOM     88  H57 ACX d   1      19.443  -1.385  15.518  0.00  0.00     0.078 H 
BRANCH  86  89
ATOM     89  O6F ACX d   1      18.403  -1.144  13.742  0.00  0.00    -0.398 OA
ATOM     90  H60 ACX d   1      18.975  -0.446  13.445  0.00  0.00     0.209 HD
ENDBRANCH  86  89
ENDBRANCH  40  86
BRANCH  10  91
ATOM     91  O3B ACX d   1      17.122   9.077  13.638  0.00  0.00    -0.390 OA
ATOM     92  H19 ACX d   1      16.554   8.372  13.927  0.00  0.00     0.210 HD
ENDBRANCH  10  91
BRANCH  12  93
ATOM     93  C6B ACX d   1      20.280   5.819  11.673  0.00  0.00     0.043 C 
ATOM     94  H16 ACX d   1      20.121   6.197  10.652  0.00  0.00     0.078 H 
ATOM     95  H17 ACX d   1      19.537   5.038  11.894  0.00  0.00     0.078 H 
BRANCH  93  96
ATOM     96  O6B ACX d   1      21.594   5.248  11.758  0.00  0.00    -0.398 OA
ATOM     97  H20 ACX d   1      21.737   4.914  12.636  0.00  0.00     0.209 HD
ENDBRANCH  93  96
ENDBRANCH  12  93
BRANCH   9  98
ATOM     98  O2B ACX d   1      19.190  10.887  14.051  0.00  0.00    -0.388 OA
ATOM     99  H18 ACX d   1      19.445  10.626  14.928  0.00  0.00     0.210 HD
ENDBRANCH   9  98
BRANCH  30 100
ATOM    100  O2E ACX d   1      19.995  -0.464  20.347  0.00  0.00    -0.388 OA
ATOM    101  H48 ACX d   1      20.394  -0.381  21.205  0.00  0.00     0.210 HD
ENDBRANCH  30 100
BRANCH  31 102
ATOM    102  O3E ACX d   1      22.164   1.309  20.797  0.00  0.00    -0.390 OA
ATOM    103  H49 ACX d   1      22.520   2.185  20.891  0.00  0.00     0.210 HD
ENDBRANCH  31 102
BRANCH  33 104
ATOM    104  C6E ACX d   1      22.911   1.533  15.913  0.00  0.00     0.043 C 
ATOM    105  H46 ACX d   1      23.701   0.772  15.997  0.00  0.00     0.078 H 
ATOM    106  H47 ACX d   1      23.350   2.533  16.041  0.00  0.00     0.078 H 
BRANCH 104 107
ATOM    107  O6E ACX d   1      22.349   1.454  14.607  0.00  0.00    -0.398 OA
ATOM    108  H50 ACX d   1      21.974   0.591  14.477  0.00  0.00     0.209 HD
ENDBRANCH 104 107
ENDBRANCH  33 104
BRANCH  17 109
ATOM    109  O3C ACX d   1      20.383   9.839  16.884  0.00  0.00    -0.390 OA
ATOM    110  H29 ACX d   1      20.003   9.702  17.744  0.00  0.00     0.210 HD
ENDBRANCH  17 109
BRANCH  19 111
ATOM    111  C6C ACX d   1      24.237   8.853  13.890  0.00  0.00     0.043 C 
ATOM    112  H26 ACX d   1      23.575   8.892  13.012  0.00  0.00     0.078 H 
ATOM    113  H27 ACX d   1      25.008   8.085  13.734  0.00  0.00     0.078 H 
BRANCH 111 114
ATOM    114  O6C ACX d   1      24.873  10.120  14.045  0.00  0.00    -0.398 OA
ATOM    115  H30 ACX d   1      25.451  10.093  14.798  0.00  0.00     0.209 HD
ENDBRANCH 111 114
ENDBRANCH  19 111
BRANCH  16 116
ATOM    116  O2C ACX d   1      22.054   8.969  19.143  0.00  0.00    -0.388 OA
ATOM    117  H28 ACX d   1      21.782   8.059  19.172  0.00  0.00     0.210 HD
ENDBRANCH  16 116
BRANCH  23 118
ATOM    118  O2D ACX d   1      23.598   3.658  21.076  0.00  0.00    -0.388 OA
ATOM    119  H38 ACX d   1      23.515   4.326  21.747  0.00  0.00     0.210 HD
ENDBRANCH  23 118
BRANCH  24 120
ATOM    120  O3D ACX d   1      23.350   6.425  20.342  0.00  0.00    -0.390 OA
ATOM    121  H39 ACX d   1      22.861   7.154  19.980  0.00  0.00     0.210 HD
ENDBRANCH  24 120
BRANCH  26 122
ATOM    122  C6D ACX d   1      25.249   5.275  15.867  0.00  0.00     0.043 C 
ATOM    123  H36 ACX d   1      26.308   5.110  16.113  0.00  0.00     0.078 H 
ATOM    124  H37 ACX d   1      25.085   6.340  15.645  0.00  0.00     0.078 H 
BRANCH 122 125
ATOM    125  O6D ACX d   1      24.895   4.490  14.728  0.00  0.00    -0.398 OA
ATOM    126  H40 ACX d   1      23.980   4.633  14.518  0.00  0.00     0.209 HD
ENDBRANCH 122 125
ENDBRANCH  26 122
TORSDOF 24
