REMARK  6 active torsions:
REMARK  status: ('A' for Active; 'I' for Inactive)
REMARK    1  A    between atoms: P_2  and  O5'_5 
REMARK    2  A    between atoms: O5'_5  and  C5'_6 
REMARK    3  A    between atoms: C5'_6  and  C4'_7 
REMARK    4  A    between atoms: C3'_8  and  O3'_9 
REMARK    5  A    between atoms: C2'_10  and  O2'_11 
REMARK    6  A    between atoms: C1'_13  and  N1_14 
ROOT
ATOM      1  N1  6CN d   1      27.011 -18.599  14.500  0.00  0.00    -0.287 N 
ATOM      2  C6  6CN d   1      27.375 -19.301  15.628  0.00  0.00     0.110 A 
ATOM      3  C5  6CN d   1      28.737 -19.405  15.967  0.00  0.00     0.041 A 
ATOM      4  C4  6CN d   1      29.678 -18.804  15.142  0.00  0.00     0.228 A 
ATOM      5  O4  6CN d   1      30.934 -18.871  15.324  0.00  0.00    -0.273 OA
ATOM      6  N3  6CN d   1      29.265 -18.135  14.023  0.00  0.00    -0.279 N 
ATOM      7  C2  6CN d   1      27.949 -18.047  13.704  0.00  0.00     0.328 A 
ATOM      8  O2  6CN d   1      27.639 -17.383  12.693  0.00  0.00    -0.247 OA
ATOM      9  C7  6CN d   1      26.750 -20.630  15.630  0.00  0.00     0.085 C 
ATOM     10  N8  6CN d   1      26.372 -21.726  15.517  0.00  0.00    -0.195 NA
ATOM     11  H9  6CN d   1      26.922 -18.743  16.461  0.00  0.00     0.097 H 
ATOM     12  H10 6CN d   1      28.980 -20.477  16.007  0.00  0.00     0.051 H 
ATOM     13  H11 6CN d   1      28.856 -18.965  16.968  0.00  0.00     0.051 H 
ATOM     14  H12 6CN d   1      29.944 -17.703  13.430  0.00  0.00     0.173 HD
ENDROOT
BRANCH   1  15
ATOM     15  C1' 6CN d   1      25.568 -18.516  14.169  0.00  0.00     0.138 C 
ATOM     16  C2' 6CN d   1      25.039 -17.099  14.088  0.00  0.00     0.105 C 
ATOM     17  C3' 6CN d   1      23.878 -17.237  13.091  0.00  0.00     0.091 C 
ATOM     18  H6  6CN d   1      25.807 -16.403  13.719  0.00  0.00     0.093 H 
ATOM     19  C4' 6CN d   1      24.409 -18.273  12.114  0.00  0.00     0.089 C 
ATOM     20  H4  6CN d   1      23.601 -16.284  12.616  0.00  0.00     0.091 H 
ATOM     21  O4' 6CN d   1      25.361 -19.080  12.847  0.00  0.00    -0.354 OA
ATOM     22  H3  6CN d   1      23.581 -18.890  11.733  0.00  0.00     0.090 H 
ATOM     23  H8  6CN d   1      24.997 -19.078  14.923  0.00  0.00     0.122 H 
BRANCH  16  24
ATOM     24  O2' 6CN d   1      24.561 -16.663  15.359  0.00  0.00    -0.388 OA
ATOM     25  H7  6CN d   1      25.292 -16.584  15.961  0.00  0.00     0.210 HD
ENDBRANCH  16  24
BRANCH  17  26
ATOM     26  O3' 6CN d   1      22.750 -17.864  13.777  0.00  0.00    -0.390 OA
ATOM     27  H5  6CN d   1      22.088 -18.105  13.140  0.00  0.00     0.210 HD
ENDBRANCH  17  26
BRANCH  19  28
ATOM     28  C5' 6CN d   1      25.160 -17.632  10.943  0.00  0.00     0.059 C 
ATOM     29  H1  6CN d   1      25.871 -16.872  11.300  0.00  0.00     0.079 H 
ATOM     30  H2  6CN d   1      25.698 -18.392  10.357  0.00  0.00     0.079 H 
BRANCH  28  31
ATOM     31  O5' 6CN d   1      24.117 -17.033  10.169  0.00  0.00    -0.280 OA
BRANCH  31  32
ATOM     32  P   6CN d   1      24.490 -16.155   8.829  0.00  0.00     0.422 P 
ATOM     33  O3P 6CN d   1      25.805 -15.443   9.062  0.00  0.00    -0.617 OA
ATOM     34  O1P 6CN d   1      23.307 -15.240   8.714  0.00  0.00    -0.617 OA
ATOM     35  O2P 6CN d   1      24.593 -17.159   7.689  0.00  0.00    -0.617 OA
ENDBRANCH  31  32
ENDBRANCH  28  31
ENDBRANCH  19  28
ENDBRANCH   1  15
TORSDOF 6
