REMARK  19 active torsions:
REMARK  status: ('A' for Active; 'I' for Inactive)
REMARK    1  A    between atoms: C6_1  and  C7_2 
REMARK    2  A    between atoms: C4_4  and  N1_6 
REMARK    3  A    between atoms: C2_5  and  C1_8 
REMARK    4  A    between atoms: C8_9  and  O1_10 
REMARK    5  A    between atoms: O1_10  and  C9_11 
REMARK    6  A    between atoms: C9_11  and  C10_12 
REMARK       I    between atoms: C10_12  and  N3_14 
REMARK    7  A    between atoms: N3_14  and  C11_15 
REMARK    8  A    between atoms: C11_15  and  C12_16 
REMARK    9  A    between atoms: C11_15  and  C19_23 
REMARK   10  A    between atoms: C12_16  and  C13_17 
REMARK   11  A    between atoms: C19_23  and  O2_24 
REMARK   12  A    between atoms: C19_23  and  C20_25 
REMARK       I    between atoms: C20_25  and  N4_27 
REMARK   13  A    between atoms: C22_30  and  C24_31 
REMARK   14  A    between atoms: C22_30  and  C23_32 
REMARK   15  A    between atoms: C21_33  and  C26_34 
REMARK       I    between atoms: C26_34  and  N5_36 
REMARK   16  A    between atoms: N5_36  and  C27_37 
REMARK   17  A    between atoms: C27_37  and  C28_38 
REMARK   18  A    between atoms: C28_38  and  C30_39 
REMARK   19  A    between atoms: C28_38  and  C29_40 
ROOT
ATOM      1  C11 KNJ d   1      15.137  22.317  17.539  0.00  0.00     0.049 C 
ATOM      2  H14 KNJ d   1      16.145  21.963  17.279  0.00  0.00     0.077 H 
ENDROOT
BRANCH   1   3
ATOM      3  N3  KNJ d   1      14.366  21.179  17.983  0.00  0.00    -0.351 N 
ATOM      4  C10 KNJ d   1      14.922  19.988  18.190  0.00  0.00     0.242 C 
ATOM      5  O6  KNJ d   1      16.137  19.762  18.070  0.00  0.00    -0.271 OA
ATOM      6  H13 KNJ d   1      13.384  21.290  18.140  0.00  0.00     0.163 HD
BRANCH   4   7
ATOM      7  C9  KNJ d   1      14.024  18.815  18.606  0.00  0.00     0.099 C 
ATOM      8  H11 KNJ d   1      13.869  18.148  17.745  0.00  0.00     0.089 H 
ATOM      9  H12 KNJ d   1      14.505  18.256  19.422  0.00  0.00     0.089 H 
BRANCH   7  10
ATOM     10  O1  KNJ d   1      12.777  19.314  19.047  0.00  0.00    -0.341 OA
BRANCH  10  11
ATOM     11  C8  KNJ d   1      11.846  18.315  19.180  0.00  0.00     0.081 A 
ATOM     12  C7  KNJ d   1      10.976  18.091  18.094  0.00  0.00    -0.026 A 
ATOM     13  C5  KNJ d   1      10.022  17.080  18.221  0.00  0.00    -0.049 A 
ATOM     14  C4  KNJ d   1       9.902  16.285  19.357  0.00  0.00     0.026 A 
ATOM     15  H4  KNJ d   1       9.342  16.906  17.395  0.00  0.00     0.087 H 
ATOM     16  C3  KNJ d   1      10.790  16.543  20.380  0.00  0.00    -0.049 A 
ATOM     17  C2  KNJ d   1      11.765  17.547  20.317  0.00  0.00    -0.026 A 
ATOM     18  H7  KNJ d   1      10.731  15.939  21.278  0.00  0.00     0.087 H 
BRANCH  12  19
ATOM     19  C6  KNJ d   1      11.024  18.907  16.834  0.00  0.00    -0.049 C 
ATOM     20  H1  KNJ d   1      10.254  18.549  16.135  0.00  0.00     0.033 H 
ATOM     21  H2  KNJ d   1      12.016  18.806  16.369  0.00  0.00     0.033 H 
ATOM     22  H3  KNJ d   1      10.838  19.964  17.074  0.00  0.00     0.033 H 
ENDBRANCH  12  19
BRANCH  14  23
ATOM     23  N1  KNJ d   1       8.967  15.308  19.453  0.00  0.00    -0.399 N 
ATOM     24  H5  KNJ d   1       8.905  14.737  20.308  0.00  0.00     0.156 HD
ATOM     25  H6  KNJ d   1       8.319  15.137  18.671  0.00  0.00     0.156 HD
ENDBRANCH  14  23
BRANCH  17  26
ATOM     26  C1  KNJ d   1      12.713  17.785  21.451  0.00  0.00    -0.049 C 
ATOM     27  H8  KNJ d   1      12.495  17.079  22.266  0.00  0.00     0.033 H 
ATOM     28  H9  KNJ d   1      12.595  18.815  21.818  0.00  0.00     0.033 H 
ATOM     29  H10 KNJ d   1      13.746  17.636  21.103  0.00  0.00     0.033 H 
ENDBRANCH  17  26
ENDBRANCH  10  11
ENDBRANCH   7  10
ENDBRANCH   4   7
ENDBRANCH   1   3
BRANCH   1  30
ATOM     30  C12 KNJ d   1      14.525  22.934  16.282  0.00  0.00    -0.019 C 
ATOM     31  H15 KNJ d   1      15.204  23.711  15.900  0.00  0.00     0.043 H 
ATOM     32  H16 KNJ d   1      13.558  23.388  16.544  0.00  0.00     0.043 H 
BRANCH  30  33
ATOM     33  C13 KNJ d   1      14.306  21.914  15.210  0.00  0.00    -0.056 A 
ATOM     34  C14 KNJ d   1      15.384  21.400  14.450  0.00  0.00    -0.077 A 
ATOM     35  C15 KNJ d   1      15.157  20.395  13.523  0.00  0.00    -0.082 A 
ATOM     36  H17 KNJ d   1      16.385  21.791  14.593  0.00  0.00     0.084 H 
ATOM     37  C16 KNJ d   1      13.905  19.876  13.350  0.00  0.00    -0.083 A 
ATOM     38  H18 KNJ d   1      15.981  20.017  12.929  0.00  0.00     0.083 H 
ATOM     39  C17 KNJ d   1      12.861  20.375  14.045  0.00  0.00    -0.082 A 
ATOM     40  H19 KNJ d   1      13.750  19.061  12.652  0.00  0.00     0.083 H 
ATOM     41  C18 KNJ d   1      13.029  21.413  14.990  0.00  0.00    -0.077 A 
ATOM     42  H20 KNJ d   1      11.870  19.970  13.874  0.00  0.00     0.083 H 
ATOM     43  H21 KNJ d   1      12.178  21.810  15.532  0.00  0.00     0.084 H 
ENDBRANCH  30  33
ENDBRANCH   1  30
BRANCH   1  44
ATOM     44  C19 KNJ d   1      15.281  23.349  18.688  0.00  0.00     0.132 C 
ATOM     45  H22 KNJ d   1      15.325  22.814  19.648  0.00  0.00     0.101 H 
BRANCH  44  46
ATOM     46  O2  KNJ d   1      14.164  24.182  18.692  0.00  0.00    -0.384 OA
ATOM     47  H23 KNJ d   1      14.246  24.817  19.394  0.00  0.00     0.210 HD
ENDBRANCH  44  46
BRANCH  44  48
ATOM     48  C20 KNJ d   1      16.569  24.132  18.514  0.00  0.00     0.252 C 
ATOM     49  O4  KNJ d   1      16.597  25.177  17.848  0.00  0.00    -0.270 OA
ATOM     50  N4  KNJ d   1      17.686  23.637  19.054  0.00  0.00    -0.326 N 
ATOM     51  C25 KNJ d   1      17.746  22.422  19.890  0.00  0.00     0.040 C 
ATOM     52  C21 KNJ d   1      18.955  24.356  18.885  0.00  0.00     0.108 C 
ATOM     53  S2  KNJ d   1      19.483  22.070  20.124  0.00  0.00    -0.137 SA
ATOM     54  H24 KNJ d   1      17.251  21.582  19.380  0.00  0.00     0.081 H 
ATOM     55  H25 KNJ d   1      17.258  22.601  20.860  0.00  0.00     0.081 H 
ATOM     56  C22 KNJ d   1      19.873  23.838  20.024  0.00  0.00     0.032 C 
ATOM     57  H32 KNJ d   1      18.795  25.435  19.027  0.00  0.00     0.090 H 
BRANCH  56  58
ATOM     58  C24 KNJ d   1      19.478  24.550  21.329  0.00  0.00    -0.058 C 
ATOM     59  H26 KNJ d   1      19.721  25.620  21.251  0.00  0.00     0.029 H 
ATOM     60  H27 KNJ d   1      20.033  24.108  22.170  0.00  0.00     0.029 H 
ATOM     61  H28 KNJ d   1      18.398  24.431  21.499  0.00  0.00     0.029 H 
ENDBRANCH  56  58
BRANCH  56  62
ATOM     62  C23 KNJ d   1      21.342  24.034  19.727  0.00  0.00    -0.058 C 
ATOM     63  H29 KNJ d   1      21.564  25.110  19.669  0.00  0.00     0.029 H 
ATOM     64  H30 KNJ d   1      21.589  23.557  18.767  0.00  0.00     0.029 H 
ATOM     65  H31 KNJ d   1      21.942  23.578  20.528  0.00  0.00     0.029 H 
ENDBRANCH  56  62
BRANCH  52  66
ATOM     66  C26 KNJ d   1      19.478  24.145  17.467  0.00  0.00     0.242 C 
ATOM     67  O5  KNJ d   1      19.248  23.111  16.840  0.00  0.00    -0.271 OA
ATOM     68  N5  KNJ d   1      20.156  25.171  16.961  0.00  0.00    -0.355 N 
ATOM     69  H33 KNJ d   1      20.302  25.978  17.534  0.00  0.00     0.162 HD
BRANCH  68  70
ATOM     70  C27 KNJ d   1      20.701  25.169  15.594  0.00  0.00     0.014 C 
ATOM     71  H34 KNJ d   1      20.736  24.136  15.218  0.00  0.00     0.070 H 
ATOM     72  H35 KNJ d   1      21.717  25.590  15.607  0.00  0.00     0.070 H 
BRANCH  70  73
ATOM     73  C28 KNJ d   1      19.826  26.003  14.683  0.00  0.00    -0.075 C 
BRANCH  73  74
ATOM     74  C30 KNJ d   1      18.437  25.516  14.455  0.00  0.00    -0.054 C 
ATOM     75  H36 KNJ d   1      17.912  26.208  13.780  0.00  0.00     0.033 H 
ATOM     76  H37 KNJ d   1      17.904  25.466  15.416  0.00  0.00     0.033 H 
ATOM     77  H38 KNJ d   1      18.469  24.515  14.001  0.00  0.00     0.033 H 
ENDBRANCH  73  74
BRANCH  73  78
ATOM     78  C29 KNJ d   1      20.338  27.131  14.125  0.00  0.00    -0.118 C 
ATOM     79  H39 KNJ d   1      21.364  27.426  14.338  0.00  0.00     0.067 H 
ATOM     80  H40 KNJ d   1      19.722  27.740  13.465  0.00  0.00     0.067 H 
ENDBRANCH  73  78
ENDBRANCH  70  73
ENDBRANCH  68  70
ENDBRANCH  52  66
ENDBRANCH  44  48
ENDBRANCH   1  44
TORSDOF 19
