REMARK  15 active torsions:
REMARK  status: ('A' for Active; 'I' for Inactive)
REMARK    1  A    between atoms: NZ_1  and  CE_2 
REMARK    2  A    between atoms: CE_2  and  CD_3 
REMARK    3  A    between atoms: CD_3  and  CG_4 
REMARK    4  A    between atoms: CG_4  and  CB_5 
REMARK    5  A    between atoms: CB_5  and  CA_6 
REMARK    6  A    between atoms: CA_6  and  N_7 
REMARK    7  A    between atoms: CA_6  and  C_8 
REMARK       I    between atoms: C_8  and  N8_10 
REMARK    8  A    between atoms: N8_10  and  S1_11 
REMARK    9  A    between atoms: S1_11  and  O5'_14 
REMARK   10  A    between atoms: O5'_14  and  C5'_15 
REMARK   11  A    between atoms: C5'_15  and  C4'_16 
REMARK   12  A    between atoms: C3'_18  and  O3'_19 
REMARK   13  A    between atoms: C2'_20  and  O2'_21 
REMARK   14  A    between atoms: C1'_22  and  N9_23 
REMARK   15  A    between atoms: C6_31  and  N6_32 
ROOT
ATOM      1  O5' KAA d   1       0.027  -0.433  -4.155  0.00  0.00    -0.257 OA
ENDROOT
BRANCH   1   2
ATOM      2  S1  KAA d   1      -1.309   0.080  -4.070  0.00  0.00     0.364 S 
ATOM      3  O1S KAA d   1      -2.027  -0.245  -5.345  0.00  0.00    -0.175 OA
ATOM      4  O2S KAA d   1      -1.265   1.570  -3.901  0.00  0.00    -0.175 OA
BRANCH   2   5
ATOM      5  N8  KAA d   1      -2.092  -0.569  -2.796  0.00  0.00    -0.230 N 
ATOM      6  C   KAA d   1      -2.245  -1.886  -2.897  0.00  0.00     0.263 C 
ATOM      7  O   KAA d   1      -1.777  -2.552  -3.819  0.00  0.00    -0.270 OA
ATOM      8  H16 KAA d   1      -2.423  -0.033  -2.019  0.00  0.00     0.183 HD
BRANCH   6   9
ATOM      9  CA  KAA d   1      -3.041  -2.578  -1.789  0.00  0.00     0.177 C 
ATOM     10  H12 KAA d   1      -4.012  -2.076  -1.669  0.00  0.00     0.099 H 
BRANCH   9  11
ATOM     11  CB  KAA d   1      -2.250  -2.479  -0.483  0.00  0.00    -0.030 C 
ATOM     12  H10 KAA d   1      -1.379  -3.148  -0.542  0.00  0.00     0.036 H 
ATOM     13  H11 KAA d   1      -1.907  -1.442  -0.352  0.00  0.00     0.036 H 
BRANCH  11  14
ATOM     14  CG  KAA d   1      -3.098  -2.876   0.726  0.00  0.00    -0.061 C 
ATOM     15  H8  KAA d   1      -3.994  -2.240   0.767  0.00  0.00     0.033 H 
ATOM     16  H9  KAA d   1      -3.400  -3.929   0.629  0.00  0.00     0.033 H 
BRANCH  14  17
ATOM     17  CD  KAA d   1      -2.290  -2.697   2.013  0.00  0.00    -0.043 C 
ATOM     18  H6  KAA d   1      -1.479  -3.440   2.030  0.00  0.00     0.035 H 
ATOM     19  H7  KAA d   1      -1.861  -1.684   2.026  0.00  0.00     0.035 H 
BRANCH  17  20
ATOM     20  CE  KAA d   1      -3.159  -2.883   3.259  0.00  0.00     0.080 C 
ATOM     21  H4  KAA d   1      -2.544  -2.733   4.159  0.00  0.00     0.075 H 
ATOM     22  H5  KAA d   1      -3.977  -2.147   3.247  0.00  0.00     0.075 H 
BRANCH  20  23
ATOM     23  NZ  KAA d   1      -3.724  -4.239   3.276  0.00  0.00    -0.079 N 
ATOM     24  H1  KAA d   1      -4.295  -4.355   4.099  0.00  0.00     0.274 HD
ATOM     25  H2  KAA d   1      -2.976  -4.915   3.288  0.00  0.00     0.274 HD
ATOM     26  H3  KAA d   1      -4.289  -4.378   2.453  0.00  0.00     0.274 HD
ENDBRANCH  20  23
ENDBRANCH  17  20
ENDBRANCH  14  17
ENDBRANCH  11  14
ENDBRANCH   9  11
BRANCH   9  27
ATOM     27  N   KAA d   1      -3.267  -3.991  -2.128  0.00  0.00    -0.066 N 
ATOM     28  H13 KAA d   1      -3.788  -4.051  -2.989  0.00  0.00     0.275 HD
ATOM     29  H14 KAA d   1      -3.788  -4.435  -1.388  0.00  0.00     0.275 HD
ATOM     30  H15 KAA d   1      -2.380  -4.456  -2.240  0.00  0.00     0.275 HD
ENDBRANCH   9  27
ENDBRANCH   6   9
ENDBRANCH   2   5
ENDBRANCH   1   2
BRANCH   1  31
ATOM     31  C5' KAA d   1       1.008  -0.096  -3.169  0.00  0.00     0.066 C 
ATOM     32  H17 KAA d   1       1.268  -1.001  -2.600  0.00  0.00     0.080 H 
ATOM     33  H18 KAA d   1       0.586   0.657  -2.488  0.00  0.00     0.080 H 
BRANCH  31  34
ATOM     34  C4' KAA d   1       2.278   0.470  -3.810  0.00  0.00     0.090 C 
ATOM     35  O4' KAA d   1       2.742  -0.370  -4.875  0.00  0.00    -0.353 OA
ATOM     36  C1' KAA d   1       3.591   0.443  -5.704  0.00  0.00     0.139 C 
ATOM     37  C2' KAA d   1       3.320   1.904  -5.330  0.00  0.00     0.105 C 
ATOM     38  H24 KAA d   1       4.652   0.201  -5.544  0.00  0.00     0.122 H 
ATOM     39  C3' KAA d   1       2.029   1.803  -4.516  0.00  0.00     0.091 C 
ATOM     40  H22 KAA d   1       3.188   2.538  -6.219  0.00  0.00     0.093 H 
ATOM     41  H20 KAA d   1       1.122   1.807  -5.138  0.00  0.00     0.091 H 
ATOM     42  H19 KAA d   1       3.050   0.581  -3.035  0.00  0.00     0.090 H 
BRANCH  36  43
ATOM     43  N9  KAA d   1       3.208   0.163  -7.104  0.00  0.00    -0.294 N 
ATOM     44  C8  KAA d   1       1.973  -0.065  -7.545  0.00  0.00     0.071 A 
ATOM     45  N7  KAA d   1       2.011  -0.308  -8.853  0.00  0.00    -0.236 NA
ATOM     46  H25 KAA d   1       1.073  -0.054  -6.932  0.00  0.00     0.144 H 
ATOM     47  C5  KAA d   1       3.279  -0.236  -9.248  0.00  0.00     0.149 A 
ATOM     48  C4  KAA d   1       4.044   0.070  -8.133  0.00  0.00     0.167 A 
ATOM     49  C6  KAA d   1       3.925  -0.395 -10.468  0.00  0.00     0.155 A 
ATOM     50  N3  KAA d   1       5.371   0.211  -8.261  0.00  0.00    -0.222 NA
ATOM     51  C2  KAA d   1       5.950   0.060  -9.439  0.00  0.00     0.091 A 
ATOM     52  N1  KAA d   1       5.255  -0.237 -10.522  0.00  0.00    -0.222 NA
ATOM     53  H26 KAA d   1       7.024   0.183  -9.519  0.00  0.00     0.146 H 
BRANCH  49  54
ATOM     54  N6  KAA d   1       3.239  -0.712 -11.563  0.00  0.00    -0.382 N 
ATOM     55  H27 KAA d   1       3.728  -0.827 -12.462  0.00  0.00     0.157 HD
ATOM     56  H28 KAA d   1       2.219  -0.842 -11.512  0.00  0.00     0.157 HD
ENDBRANCH  49  54
ENDBRANCH  36  43
BRANCH  37  57
ATOM     57  O2' KAA d   1       4.402   2.394  -4.531  0.00  0.00    -0.388 OA
ATOM     58  H23 KAA d   1       4.184   3.258  -4.200  0.00  0.00     0.210 HD
ENDBRANCH  37  57
BRANCH  39  59
ATOM     59  O3' KAA d   1       1.994   2.843  -3.535  0.00  0.00    -0.390 OA
ATOM     60  H21 KAA d   1       1.840   3.676  -3.964  0.00  0.00     0.210 HD
ENDBRANCH  39  59
ENDBRANCH  31  34
ENDBRANCH   1  31
TORSDOF 15
