REMARK  6 active torsions:
REMARK  status: ('A' for Active; 'I' for Inactive)
REMARK    1  A    between atoms: P_2  and  O5'_5 
REMARK    2  A    between atoms: O5'_5  and  C5'_6 
REMARK    3  A    between atoms: C5'_6  and  C4'_7 
REMARK    4  A    between atoms: C3'_9  and  O3'_10 
REMARK    5  A    between atoms: C1'_12  and  N9_13 
REMARK    6  A    between atoms: C2_20  and  N2_21 
ROOT
ATOM      1  C4' 8OG d   1      -7.953  -1.144  26.007  0.00  0.00     0.087 C 
ATOM      2  O4' 8OG d   1      -6.584  -1.490  26.307  0.00  0.00    -0.356 OA
ATOM      3  C3' 8OG d   1      -8.457  -0.303  27.175  0.00  0.00     0.066 C 
ATOM      4  C2' 8OG d   1      -7.213   0.258  27.786  0.00  0.00     0.003 C 
ATOM      5  C1' 8OG d   1      -6.180  -0.832  27.525  0.00  0.00     0.119 C 
ATOM      6  H3  8OG d   1      -8.556  -2.062  25.937  0.00  0.00     0.090 H 
ATOM      7  H4  8OG d   1      -9.109   0.509  26.821  0.00  0.00     0.087 H 
ATOM      8  H6  8OG d   1      -7.344   0.428  28.865  0.00  0.00     0.043 H 
ATOM      9  H7  8OG d   1      -6.924   1.201  27.299  0.00  0.00     0.043 H 
ATOM     10  H8  8OG d   1      -6.178  -1.551  28.357  0.00  0.00     0.119 H 
ENDROOT
BRANCH   5  11
ATOM     11  N9  8OG d   1      -4.820  -0.256  27.380  0.00  0.00    -0.252 N 
ATOM     12  C8  8OG d   1      -3.815  -0.428  28.299  0.00  0.00     0.353 A 
ATOM     13  N7  8OG d   1      -2.715   0.140  28.014  0.00  0.00    -0.184 NA
ATOM     14  O8  8OG d   1      -4.032  -1.102  29.322  0.00  0.00    -0.244 OA
ATOM     15  C5  8OG d   1      -2.930   0.776  26.787  0.00  0.00     0.177 A 
ATOM     16  C6  8OG d   1      -2.081   1.577  25.957  0.00  0.00     0.292 A 
ATOM     17  C4  8OG d   1      -4.258   0.531  26.376  0.00  0.00     0.190 A 
ATOM     18  O6  8OG d   1      -0.913   1.894  26.152  0.00  0.00    -0.265 OA
ATOM     19  N1  8OG d   1      -2.743   2.011  24.788  0.00  0.00    -0.151 N 
ATOM     20  C2  8OG d   1      -4.068   1.719  24.449  0.00  0.00     0.724 A 
ATOM     21  H9  8OG d   1      -2.220   2.575  24.148  0.00  0.00     0.188 HD
ATOM     22  N3  8OG d   1      -4.879   0.969  25.230  0.00  0.00    -0.042 NA
BRANCH  20  23
ATOM     23  N2  8OG d   1      -4.522   2.216  23.295  0.00  0.00    -0.116 NA
ATOM     24  H10 8OG d   1      -5.470   2.034  23.006  0.00  0.00     0.206 HD
ENDBRANCH  20  23
ENDBRANCH   5  11
BRANCH   1  25
ATOM     25  C5' 8OG d   1      -8.049  -0.402  24.669  0.00  0.00     0.059 C 
ATOM     26  H1  8OG d   1      -7.772   0.651  24.822  0.00  0.00     0.079 H 
ATOM     27  H2  8OG d   1      -7.354  -0.864  23.952  0.00  0.00     0.079 H 
BRANCH  25  28
ATOM     28  O5' 8OG d   1      -9.379  -0.463  24.137  0.00  0.00    -0.280 OA
BRANCH  28  29
ATOM     29  P   8OG d   1     -10.075   0.826  23.477  0.00  0.00     0.422 P 
ATOM     30  OP3 8OG d   1     -11.528   0.538  23.417  0.00  0.00    -0.617 OA
ATOM     31  OP1 8OG d   1      -9.892   1.988  24.375  0.00  0.00    -0.617 OA
ATOM     32  OP2 8OG d   1      -9.593   0.935  22.086  0.00  0.00    -0.617 OA
ENDBRANCH  28  29
ENDBRANCH  25  28
ENDBRANCH   1  25
BRANCH   3  33
ATOM     33  O3' 8OG d   1      -9.188  -1.133  28.093  0.00  0.00    -0.393 OA
ATOM     34  H5  8OG d   1      -9.928  -1.524  27.644  0.00  0.00     0.210 HD
ENDBRANCH   3  33
TORSDOF 6
