REMARK  7 active torsions:
REMARK  status: ('A' for Active; 'I' for Inactive)
REMARK    1  A    between atoms: N_1  and  CA_2 
REMARK    2  A    between atoms: CA_2  and  C_3 
REMARK    3  A    between atoms: CA_2  and  CB_5 
REMARK    4  A    between atoms: CB_5  and  CG_6 
REMARK    5  A    between atoms: CG_6  and  CD_7 
REMARK    6  A    between atoms: CD_7  and  CE_8 
REMARK    7  A    between atoms: CE_8  and  NZ_9 
ROOT
ATOM      1  CG  LYS d   1      27.956  18.919   3.011  0.00  0.00    -0.061 C 
ATOM      2  H7  LYS d   1      27.817  20.010   3.048  0.00  0.00     0.033 H 
ATOM      3  H8  LYS d   1      28.593  18.659   2.153  0.00  0.00     0.033 H 
ENDROOT
BRANCH   1   4
ATOM      4  CB  LYS d   1      26.605  18.230   2.879  0.00  0.00    -0.029 C 
ATOM      5  H5  LYS d   1      26.772  17.145   2.955  0.00  0.00     0.036 H 
ATOM      6  H6  LYS d   1      25.974  18.564   3.716  0.00  0.00     0.036 H 
BRANCH   4   7
ATOM      7  CA  LYS d   1      25.843  18.494   1.589  0.00  0.00     0.182 C 
ATOM      8  H4  LYS d   1      25.755  19.578   1.425  0.00  0.00     0.101 H 
BRANCH   7   9
ATOM      9  N   LYS d   1      24.472  17.870   1.686  0.00  0.00    -0.065 N 
ATOM     10  H1  LYS d   1      23.969  18.283   2.456  0.00  0.00     0.275 HD
ATOM     11  H2  LYS d   1      24.564  16.878   1.838  0.00  0.00     0.275 HD
ATOM     12  H3  LYS d   1      23.967  18.033   0.829  0.00  0.00     0.275 HD
ENDBRANCH   7   9
BRANCH   7  13
ATOM     13  C   LYS d   1      26.572  17.845   0.415  0.00  0.00     0.204 C 
ATOM     14  O   LYS d   1      26.197  16.764  -0.049  0.00  0.00    -0.646 OA
ATOM     15  OXT LYS d   1      27.551  18.408  -0.092  0.00  0.00    -0.646 OA
ENDBRANCH   7  13
ENDBRANCH   4   7
ENDBRANCH   1   4
BRANCH   1  16
ATOM     16  CD  LYS d   1      28.608  18.433   4.310  0.00  0.00    -0.043 C 
ATOM     17  H9  LYS d   1      28.926  17.388   4.183  0.00  0.00     0.035 H 
ATOM     18  H10 LYS d   1      27.874  18.497   5.127  0.00  0.00     0.035 H 
BRANCH  16  19
ATOM     19  CE  LYS d   1      29.812  19.276   4.662  0.00  0.00     0.080 C 
ATOM     20  H11 LYS d   1      29.542  20.341   4.604  0.00  0.00     0.075 H 
ATOM     21  H12 LYS d   1      30.625  19.065   3.952  0.00  0.00     0.075 H 
BRANCH  19  22
ATOM     22  NZ  LYS d   1      30.273  18.951   6.065  0.00  0.00    -0.079 N 
ATOM     23  H13 LYS d   1      31.076  19.516   6.294  0.00  0.00     0.274 HD
ATOM     24  H14 LYS d   1      30.522  17.976   6.120  0.00  0.00     0.274 HD
ATOM     25  H15 LYS d   1      29.529  19.145   6.717  0.00  0.00     0.274 HD
ENDBRANCH  19  22
ENDBRANCH  16  19
ENDBRANCH   1  16
TORSDOF 7
