REMARK  9 active torsions:
REMARK  status: ('A' for Active; 'I' for Inactive)
REMARK       I    between atoms: CAB_2  and  NAA_1 
REMARK       I    between atoms: NAC_3  and  CAB_2 
REMARK    1  A    between atoms: CAD_4  and  NAC_3 
REMARK    2  A    between atoms: CAI_9  and  NAJ_10 
REMARK       I    between atoms: NAJ_10  and  CAK_11 
REMARK       I    between atoms: CAK_11  and  NAL_12 
REMARK    3  A    between atoms: CAW_23  and  CAO_15 
REMARK    4  A    between atoms: CAP_16  and  OAQ_17 
REMARK    5  A    between atoms: CAS_19  and  OAR_18 
REMARK    6  A    between atoms: CBB_28  and  CAT_20 
REMARK    7  A    between atoms: CAY_25  and  NAX_24 
REMARK    8  A    between atoms: CAZ_26  and  CAY_25 
REMARK    9  A    between atoms: NBA_27  and  CBB_28 
ROOT
ATOM      1  CAY GZC d   1      -1.700  20.759  21.191  0.00  0.00     0.044 C 
ATOM      2  H20 GZC d   1      -0.918  21.351  20.693  0.00  0.00     0.075 H 
ATOM      3  H21 GZC d   1      -2.473  21.433  21.589  0.00  0.00     0.075 H 
ENDROOT
BRANCH   1   4
ATOM      4  NAX GZC d   1      -1.107  19.981  22.290  0.00  0.00    -0.296 NA
ATOM      5  CAW GZC d   1      -0.657  20.232  23.382  0.00  0.00     0.009 C 
ATOM      6  H19 GZC d   1      -0.834  21.280  23.619  0.00  0.00     0.115 H 
BRANCH   5   7
ATOM      7  CAO GZC d   1       0.013  19.620  24.435  0.00  0.00     0.016 A 
ATOM      8  CAN GZC d   1       0.371  20.341  25.566  0.00  0.00    -0.043 A 
ATOM      9  CAD GZC d   1       0.921  19.698  26.671  0.00  0.00     0.050 A 
ATOM     10  H13 GZC d   1       0.221  21.414  25.589  0.00  0.00     0.088 H 
ATOM     11  CAE GZC d   1       1.106  18.320  26.636  0.00  0.00    -0.054 A 
ATOM     12  CAF GZC d   1       0.756  17.595  25.506  0.00  0.00    -0.048 A 
ATOM     13  H4  GZC d   1       1.526  17.810  27.496  0.00  0.00     0.087 H 
ATOM     14  CAP GZC d   1       0.221  18.248  24.403  0.00  0.00     0.077 A 
ATOM     15  H5  GZC d   1       0.900  16.521  25.484  0.00  0.00     0.087 H 
BRANCH   9  16
ATOM     16  NAC GZC d   1       1.332  20.361  27.749  0.00  0.00    -0.193 N 
ATOM     17  CAB GZC d   1       0.565  20.560  28.772  0.00  0.00     0.669 C 
ATOM     18  NAA GZC d   1      -0.067  21.643  29.213  0.00  0.00    -0.235 N 
ATOM     19  NAM GZC d   1       0.385  19.402  29.399  0.00  0.00    -0.235 N 
ATOM     20  H1  GZC d   1      -0.641  21.592  30.067  0.00  0.00     0.174 HD
ATOM     21  H2  GZC d   1       0.018  22.533  28.701  0.00  0.00     0.174 HD
ATOM     22  H11 GZC d   1      -0.202  19.360  30.244  0.00  0.00     0.174 HD
ATOM     23  H12 GZC d   1       0.833  18.547  29.040  0.00  0.00     0.174 HD
ATOM     24  H3  GZC d   1       2.294  20.729  27.770  0.00  0.00     0.184 HD
ENDBRANCH   9  16
BRANCH  14  25
ATOM     25  OAQ GZC d   1      -0.014  17.543  23.267  0.00  0.00    -0.360 OA
ATOM     26  H14 GZC d   1       0.178  16.625  23.420  0.00  0.00     0.217 HD
ENDBRANCH  14  25
ENDBRANCH   5   7
ENDBRANCH   1   4
BRANCH   1  27
ATOM     27  CAZ GZC d   1      -2.271  19.878  20.281  0.00  0.00    -0.004 C 
ATOM     28  NBA GZC d   1      -1.588  18.841  19.826  0.00  0.00    -0.299 NA
ATOM     29  H22 GZC d   1      -3.292  20.043  19.939  0.00  0.00     0.110 H 
BRANCH  28  30
ATOM     30  CBB GZC d   1      -2.240  17.906  18.926  0.00  0.00     0.041 C 
ATOM     31  H23 GZC d   1      -3.252  17.712  19.310  0.00  0.00     0.074 H 
ATOM     32  H24 GZC d   1      -2.308  18.377  17.934  0.00  0.00     0.074 H 
BRANCH  30  33
ATOM     33  CAT GZC d   1      -1.526  16.561  18.765  0.00  0.00    -0.003 A 
ATOM     34  CAS GZC d   1      -0.646  16.003  19.689  0.00  0.00     0.073 A 
ATOM     35  CAG GZC d   1      -0.095  14.745  19.476  0.00  0.00    -0.048 A 
ATOM     36  CAH GZC d   1      -0.416  14.024  18.332  0.00  0.00    -0.054 A 
ATOM     37  H6  GZC d   1       0.588  14.324  20.205  0.00  0.00     0.087 H 
ATOM     38  CAI GZC d   1      -1.289  14.570  17.396  0.00  0.00     0.050 A 
ATOM     39  H7  GZC d   1       0.012  13.041  18.170  0.00  0.00     0.087 H 
ATOM     40  CAU GZC d   1      -1.832  15.830  17.622  0.00  0.00    -0.046 A 
ATOM     41  H16 GZC d   1      -2.510  16.253  16.890  0.00  0.00     0.088 H 
BRANCH  34  42
ATOM     42  OAR GZC d   1      -0.320  16.693  20.815  0.00  0.00    -0.360 OA
ATOM     43  H15 GZC d   1      -0.578  16.191  21.579  0.00  0.00     0.217 HD
ENDBRANCH  34  42
BRANCH  38  44
ATOM     44  NAJ GZC d   1      -1.604  13.840  16.329  0.00  0.00    -0.193 N 
ATOM     45  CAK GZC d   1      -2.246  14.305  15.259  0.00  0.00     0.669 C 
ATOM     46  NAL GZC d   1      -2.765  13.447  14.384  0.00  0.00    -0.235 N 
ATOM     47  NAV GZC d   1      -2.343  15.611  15.030  0.00  0.00    -0.235 N 
ATOM     48  H9  GZC d   1      -3.263  13.797  13.553  0.00  0.00     0.174 HD
ATOM     49  H10 GZC d   1      -2.668  12.433  14.537  0.00  0.00     0.174 HD
ATOM     50  H17 GZC d   1      -1.944  16.283  15.701  0.00  0.00     0.174 HD
ATOM     51  H18 GZC d   1      -2.817  15.951  14.181  0.00  0.00     0.174 HD
ATOM     52  H8  GZC d   1      -1.332  12.846  16.331  0.00  0.00     0.184 HD
ENDBRANCH  38  44
ENDBRANCH  30  33
ENDBRANCH  28  30
ENDBRANCH   1  27
TORSDOF 9
