REMARK  11 active torsions:
REMARK  status: ('A' for Active; 'I' for Inactive)
REMARK    1  A    between atoms: CAW_23  and  CAB_2 
REMARK    2  A    between atoms: CAW_23  and  CAC_3 
REMARK    3  A    between atoms: CAM_13  and  CAD_4 
REMARK    4  A    between atoms: CAU_21  and  CAM_13 
REMARK    5  A    between atoms: CAN_14  and  CAO_15 
REMARK    6  A    between atoms: CAP_16  and  CAN_14 
REMARK    7  A    between atoms: CAO_15  and  NAQ_17 
REMARK    8  A    between atoms: OAR_18  and  CAP_16 
REMARK    9  A    between atoms: NAQ_17  and  CAW_23 
REMARK   10  A    between atoms: CAV_22  and  OAR_18 
REMARK   11  A    between atoms: CAS_19  and  CAT_20 
ROOT
ATOM      1  CAJ 673 d   1      56.372  17.978  51.846  0.00  0.00    -0.070 A 
ATOM      2  CAK 673 d   1      55.835  16.696  51.720  0.00  0.00    -0.049 A 
ATOM      3  CAL 673 d   1      56.821  17.511  54.143  0.00  0.00    -0.063 A 
ATOM      4  CAT 673 d   1      56.894  18.393  53.066  0.00  0.00    -0.025 A 
ATOM      5  CAU 673 d   1      56.280  16.226  54.049  0.00  0.00    -0.021 A 
ATOM      6  CAV 673 d   1      55.802  15.816  52.803  0.00  0.00     0.075 A 
ATOM      7  H15 673 d   1      56.382  18.649  50.995  0.00  0.00     0.085 H 
ATOM      8  H16 673 d   1      55.436  16.378  50.764  0.00  0.00     0.087 H 
ATOM      9  H17 673 d   1      57.204  17.839  55.103  0.00  0.00     0.085 H 
ENDROOT
BRANCH   6  10
ATOM     10  OAR 673 d   1      55.229  14.583  52.674  0.00  0.00    -0.351 OA
BRANCH  10  11
ATOM     11  CAP 673 d   1      55.913  13.592  51.926  0.00  0.00     0.028 C 
ATOM     12  H24 673 d   1      56.132  13.977  50.919  0.00  0.00     0.075 H 
ATOM     13  H25 673 d   1      56.855  13.334  52.432  0.00  0.00     0.075 H 
BRANCH  11  14
ATOM     14  CAN 673 d   1      55.034  12.345  51.816  0.00  0.00    -0.022 C 
ATOM     15  H20 673 d   1      54.141  12.582  51.219  0.00  0.00     0.038 H 
ATOM     16  H21 673 d   1      55.602  11.543  51.322  0.00  0.00     0.038 H 
BRANCH  14  17
ATOM     17  CAO 673 d   1      54.601  11.874  53.207  0.00  0.00     0.084 C 
ATOM     18  H22 673 d   1      54.058  12.682  53.718  0.00  0.00     0.075 H 
ATOM     19  H23 673 d   1      55.488  11.598  53.796  0.00  0.00     0.075 H 
BRANCH  17  20
ATOM     20  NAQ 673 d   1      53.721  10.703  53.061  0.00  0.00    -0.072 N 
ATOM     21  H26 673 d   1      54.166  10.057  52.429  0.00  0.00     0.277 HD
ATOM     22  H27 673 d   1      52.850  11.017  52.663  0.00  0.00     0.277 HD
BRANCH  20  23
ATOM     23  CAW 673 d   1      53.415   9.979  54.311  0.00  0.00     0.095 C 
ATOM     24  H28 673 d   1      54.346   9.711  54.833  0.00  0.00     0.083 H 
BRANCH  23  25
ATOM     25  CAB 673 d   1      52.654   8.707  53.929  0.00  0.00    -0.050 C 
ATOM     26  H3  673 d   1      52.408   8.140  54.839  0.00  0.00     0.030 H 
ATOM     27  H4  673 d   1      53.281   8.089  53.270  0.00  0.00     0.030 H 
ATOM     28  H5  673 d   1      51.726   8.978  53.404  0.00  0.00     0.030 H 
ENDBRANCH  23  25
BRANCH  23  29
ATOM     29  CAC 673 d   1      52.575  10.884  55.205  0.00  0.00    -0.050 C 
ATOM     30  H6  673 d   1      53.151  11.786  55.459  0.00  0.00     0.030 H 
ATOM     31  H7  673 d   1      52.311  10.346  56.127  0.00  0.00     0.030 H 
ATOM     32  H8  673 d   1      51.656  11.174  54.674  0.00  0.00     0.030 H 
ENDBRANCH  23  29
ENDBRANCH  20  23
ENDBRANCH  17  20
ENDBRANCH  14  17
ENDBRANCH  11  14
ENDBRANCH  10  11
ENDBRANCH   6  10
BRANCH   5  33
ATOM     33  CAM 673 d   1      56.224  15.303  55.283  0.00  0.00    -0.024 C 
ATOM     34  H18 673 d   1      55.169  15.197  55.577  0.00  0.00     0.046 H 
ATOM     35  H19 673 d   1      56.623  14.321  54.989  0.00  0.00     0.046 H 
BRANCH  33  36
ATOM     36  CAD 673 d   1      56.943  15.741  56.407  0.00  0.00    -0.108 C 
ATOM     37  CAA 673 d   1      56.378  16.293  57.543  0.00  0.00    -0.124 C 
ATOM     38  H1  673 d   1      57.014  16.606  58.370  0.00  0.00     0.066 H 
ATOM     39  H2  673 d   1      55.298  16.414  57.610  0.00  0.00     0.066 H 
ATOM     40  H9  673 d   1      58.027  15.639  56.383  0.00  0.00     0.076 H 
ENDBRANCH  33  36
ENDBRANCH   5  33
BRANCH   4  41
ATOM     41  CAS 673 d   1      57.381  19.703  53.254  0.00  0.00    -0.026 A 
ATOM     42  CAH 673 d   1      57.047  20.773  52.415  0.00  0.00    -0.072 A 
ATOM     43  CAF 673 d   1      57.463  22.076  52.632  0.00  0.00    -0.082 A 
ATOM     44  H13 673 d   1      56.429  20.570  51.548  0.00  0.00     0.084 H 
ATOM     45  CAE 673 d   1      58.242  22.358  53.727  0.00  0.00    -0.083 A 
ATOM     46  H11 673 d   1      57.177  22.864  51.945  0.00  0.00     0.083 H 
ATOM     47  CAG 673 d   1      58.546  21.331  54.609  0.00  0.00    -0.082 A 
ATOM     48  H10 673 d   1      58.612  23.362  53.899  0.00  0.00     0.083 H 
ATOM     49  CAI 673 d   1      58.122  20.027  54.381  0.00  0.00    -0.072 A 
ATOM     50  H12 673 d   1      59.128  21.551  55.497  0.00  0.00     0.083 H 
ATOM     51  H14 673 d   1      58.374  19.251  55.095  0.00  0.00     0.084 H 
ENDBRANCH   4  41
TORSDOF 11
