REMARK  32 active torsions:
REMARK  status: ('A' for Active; 'I' for Inactive)
REMARK    1  A    between atoms: C6_6  and  N6_7 
REMARK    2  A    between atoms: CCJ_19  and  N9_10 
REMARK    3  A    between atoms: CCG_16  and  OAN_12 
REMARK    4  A    between atoms: CCH_17  and  OAO_13 
REMARK    5  A    between atoms: CBY_15  and  CCI_18 
REMARK       I    between atoms: NBN_27  and  CBY_15 
REMARK    6  A    between atoms: CBV_20  and  CBD_22 
REMARK       I    between atoms: N_28  and  CBV_20 
REMARK    7  A    between atoms: CBD_22  and  CAV_23 
REMARK    8  A    between atoms: CAV_23  and  CAR_24 
REMARK    9  A    between atoms: CAR_24  and  CAU_25 
REMARK   10  A    between atoms: CAU_25  and  CBA_26 
REMARK   11  A    between atoms: CBA_26  and  NBN_27 
REMARK   12  A    between atoms: CA_29  and  N_28 
REMARK   13  A    between atoms: CA_29  and  CB_30 
REMARK   14  A    between atoms: C_31  and  CA_29 
REMARK       I    between atoms: NBM_40  and  C_31 
REMARK   15  A    between atoms: CBE_35  and  CBW_33 
REMARK       I    between atoms: CBW_33  and  NBP_41 
REMARK   16  A    between atoms: CAW_36  and  CBE_35 
REMARK   17  A    between atoms: CAS_37  and  CAW_36 
REMARK   18  A    between atoms: CAT_38  and  CAS_37 
REMARK   19  A    between atoms: CAZ_39  and  CAT_38 
REMARK   20  A    between atoms: CAZ_39  and  NBM_40 
REMARK   21  A    between atoms: NBP_41  and  CCF_42 
REMARK   22  A    between atoms: CCF_42  and  CBG_43 
REMARK   23  A    between atoms: CCF_42  and  CBZ_50 
REMARK   24  A    between atoms: CBG_43  and  CAY_44 
REMARK   25  A    between atoms: CAY_44  and  CBC_45 
REMARK   26  A    between atoms: CBC_45  and  NBL_46 
REMARK       I    between atoms: NBL_46  and  CBT_47 
REMARK       I    between atoms: CBT_47  and  NAC_48 
REMARK       I    between atoms: CBT_47  and  NAE_49 
REMARK       I    between atoms: CBZ_50  and  NBQ_52 
REMARK   27  A    between atoms: NBQ_52  and  CCE_53 
REMARK   28  A    between atoms: CCE_53  and  CBF_54 
REMARK   29  A    between atoms: CCE_53  and  CBU_61 
REMARK   30  A    between atoms: CBF_54  and  CAX_55 
REMARK   31  A    between atoms: CAX_55  and  CBB_56 
REMARK   32  A    between atoms: CBB_56  and  NBK_57 
REMARK       I    between atoms: NBK_57  and  CBS_58 
REMARK       I    between atoms: CBS_58  and  NAB_59 
REMARK       I    between atoms: CBU_61  and  NAF_63 
ROOT
ATOM      1  CAT A03 d   1     -16.255   8.279  14.891  0.00  0.00    -0.050 C 
ATOM      2  H33 A03 d   1     -16.685   7.341  14.510  0.00  0.00     0.035 H 
ATOM      3  H34 A03 d   1     -15.168   8.163  15.008  0.00  0.00     0.035 H 
ENDROOT
BRANCH   1   4
ATOM      4  CAS A03 d   1     -16.865   8.573  16.265  0.00  0.00    -0.063 C 
ATOM      5  H31 A03 d   1     -16.343   7.978  17.029  0.00  0.00     0.033 H 
ATOM      6  H32 A03 d   1     -16.750   9.643  16.492  0.00  0.00     0.033 H 
BRANCH   4   7
ATOM      7  CAW A03 d   1     -18.351   8.212  16.272  0.00  0.00    -0.057 C 
ATOM      8  H29 A03 d   1     -18.934   9.120  16.058  0.00  0.00     0.033 H 
ATOM      9  H30 A03 d   1     -18.534   7.465  15.486  0.00  0.00     0.033 H 
BRANCH   7  10
ATOM     10  CBE A03 d   1     -18.813   7.642  17.599  0.00  0.00     0.009 C 
ATOM     11  H27 A03 d   1     -17.940   7.289  18.167  0.00  0.00     0.047 H 
ATOM     12  H28 A03 d   1     -19.331   8.426  18.172  0.00  0.00     0.047 H 
BRANCH  10  13
ATOM     13  CBW A03 d   1     -19.776   6.465  17.360  0.00  0.00     0.218 C 
ATOM     14  OAJ A03 d   1     -19.462   5.298  17.722  0.00  0.00    -0.274 OA
ATOM     15  NBP A03 d   1     -20.928   6.809  16.738  0.00  0.00    -0.348 N 
ATOM     16  H38 A03 d   1     -21.061   7.767  16.483  0.00  0.00     0.163 HD
BRANCH  15  17
ATOM     17  CCF A03 d   1     -22.007   5.837  16.413  0.00  0.00     0.089 C 
ATOM     18  H39 A03 d   1     -21.679   5.209  15.571  0.00  0.00     0.087 H 
BRANCH  17  19
ATOM     19  CBG A03 d   1     -23.258   6.622  16.006  0.00  0.00    -0.036 C 
ATOM     20  H40 A03 d   1     -23.389   7.473  16.691  0.00  0.00     0.036 H 
ATOM     21  H41 A03 d   1     -24.135   5.962  16.071  0.00  0.00     0.036 H 
BRANCH  19  22
ATOM     22  CAY A03 d   1     -23.128   7.146  14.572  0.00  0.00    -0.048 C 
ATOM     23  H42 A03 d   1     -22.097   7.487  14.396  0.00  0.00     0.035 H 
ATOM     24  H43 A03 d   1     -23.823   7.985  14.421  0.00  0.00     0.035 H 
BRANCH  22  25
ATOM     25  CBC A03 d   1     -23.469   6.014  13.595  0.00  0.00     0.009 C 
ATOM     26  H44 A03 d   1     -24.481   6.169  13.193  0.00  0.00     0.064 H 
ATOM     27  H45 A03 d   1     -23.428   5.049  14.122  0.00  0.00     0.064 H 
BRANCH  25  28
ATOM     28  NBL A03 d   1     -22.502   6.012  12.497  0.00  0.00    -0.227 N 
ATOM     29  CBT A03 d   1     -22.388   5.003  11.628  0.00  0.00     0.665 C 
ATOM     30  NAC A03 d   1     -21.491   5.131  10.638  0.00  0.00    -0.235 N 
ATOM     31  NAE A03 d   1     -23.165   3.926  11.729  0.00  0.00    -0.235 N 
ATOM     32  H47 A03 d   1     -21.374   4.375   9.948  0.00  0.00     0.174 HD
ATOM     33  H48 A03 d   1     -20.920   5.985  10.568  0.00  0.00     0.174 HD
ATOM     34  H49 A03 d   1     -23.846   3.852  12.499  0.00  0.00     0.174 HD
ATOM     35  H50 A03 d   1     -23.085   3.167  11.037  0.00  0.00     0.174 HD
ATOM     36  H46 A03 d   1     -21.880   6.826  12.389  0.00  0.00     0.177 HD
ENDBRANCH  25  28
ENDBRANCH  22  25
ENDBRANCH  19  22
ENDBRANCH  17  19
BRANCH  17  37
ATOM     37  CBZ A03 d   1     -22.341   4.930  17.600  0.00  0.00     0.241 C 
ATOM     38  OAM A03 d   1     -22.332   5.390  18.735  0.00  0.00    -0.271 OA
ATOM     39  NBQ A03 d   1     -22.623   3.653  17.307  0.00  0.00    -0.346 N 
ATOM     40  H51 A03 d   1     -22.623   3.376  16.346  0.00  0.00     0.163 HD
BRANCH  39  41
ATOM     41  CCE A03 d   1     -22.933   2.637  18.328  0.00  0.00     0.089 C 
ATOM     42  H52 A03 d   1     -22.777   3.083  19.322  0.00  0.00     0.087 H 
BRANCH  41  43
ATOM     43  CBF A03 d   1     -22.017   1.418  18.168  0.00  0.00    -0.036 C 
ATOM     44  H53 A03 d   1     -22.312   0.881  17.254  0.00  0.00     0.036 H 
ATOM     45  H54 A03 d   1     -22.158   0.763  19.040  0.00  0.00     0.036 H 
BRANCH  43  46
ATOM     46  CAX A03 d   1     -20.522   1.767  18.062  0.00  0.00    -0.048 C 
ATOM     47  H55 A03 d   1     -20.257   2.520  18.819  0.00  0.00     0.035 H 
ATOM     48  H56 A03 d   1     -20.297   2.160  17.059  0.00  0.00     0.035 H 
BRANCH  46  49
ATOM     49  CBB A03 d   1     -19.728   0.467  18.310  0.00  0.00     0.009 C 
ATOM     50  H57 A03 d   1     -20.258  -0.155  19.047  0.00  0.00     0.064 H 
ATOM     51  H58 A03 d   1     -18.726   0.713  18.691  0.00  0.00     0.064 H 
BRANCH  49  52
ATOM     52  NBK A03 d   1     -19.607  -0.272  17.028  0.00  0.00    -0.227 N 
ATOM     53  CBS A03 d   1     -19.875  -1.579  16.975  0.00  0.00     0.665 C 
ATOM     54  NAB A03 d   1     -20.281  -2.242  18.056  0.00  0.00    -0.235 N 
ATOM     55  NAD A03 d   1     -19.732  -2.232  15.829  0.00  0.00    -0.235 N 
ATOM     56  H60 A03 d   1     -20.483  -3.250  17.996  0.00  0.00     0.174 HD
ATOM     57  H61 A03 d   1     -20.393  -1.747  18.952  0.00  0.00     0.174 HD
ATOM     58  H62 A03 d   1     -19.419  -1.730  14.986  0.00  0.00     0.174 HD
ATOM     59  H63 A03 d   1     -19.934  -3.241  15.782  0.00  0.00     0.174 HD
ATOM     60  H59 A03 d   1     -19.315   0.226  16.175  0.00  0.00     0.177 HD
ENDBRANCH  49  52
ENDBRANCH  46  49
ENDBRANCH  43  46
ENDBRANCH  41  43
BRANCH  41  61
ATOM     61  CBU A03 d   1     -24.387   2.140  18.223  0.00  0.00     0.238 C 
ATOM     62  OAH A03 d   1     -25.069   2.352  17.222  0.00  0.00    -0.271 OA
ATOM     63  NAF A03 d   1     -24.818   1.457  19.266  0.00  0.00    -0.368 N 
ATOM     64  H64 A03 d   1     -25.751   1.098  19.278  0.00  0.00     0.159 HD
ATOM     65  H65 A03 d   1     -24.211   1.298  20.045  0.00  0.00     0.159 HD
ENDBRANCH  41  61
ENDBRANCH  39  41
ENDBRANCH  17  37
ENDBRANCH  15  17
ENDBRANCH  10  13
ENDBRANCH   7  10
ENDBRANCH   4   7
ENDBRANCH   1   4
BRANCH   1  66
ATOM     66  CAZ A03 d   1     -16.518   9.381  13.875  0.00  0.00    -0.005 C 
ATOM     67  H35 A03 d   1     -17.158  10.155  14.324  0.00  0.00     0.064 H 
ATOM     68  H36 A03 d   1     -17.018   8.959  12.991  0.00  0.00     0.064 H 
BRANCH  66  69
ATOM     69  NBM A03 d   1     -15.231   9.970  13.482  0.00  0.00    -0.359 N 
ATOM     70  C   A03 d   1     -14.743  11.053  14.080  0.00  0.00     0.240 C 
ATOM     71  O   A03 d   1     -15.305  11.635  15.007  0.00  0.00    -0.271 OA
ATOM     72  H37 A03 d   1     -14.707   9.545  12.744  0.00  0.00     0.162 HD
BRANCH  70  73
ATOM     73  CA  A03 d   1     -13.363  11.525  13.587  0.00  0.00     0.086 C 
ATOM     74  H23 A03 d   1     -13.146  12.496  14.057  0.00  0.00     0.086 H 
BRANCH  73  75
ATOM     75  N   A03 d   1     -13.368  11.716  12.143  0.00  0.00    -0.348 N 
ATOM     76  CBV A03 d   1     -14.052  12.715  11.564  0.00  0.00     0.218 C 
ATOM     77  OAI A03 d   1     -14.738  13.531  12.173  0.00  0.00    -0.274 OA
ATOM     78  H22 A03 d   1     -12.848  11.085  11.567  0.00  0.00     0.163 HD
BRANCH  76  79
ATOM     79  CBD A03 d   1     -13.936  12.793  10.038  0.00  0.00     0.009 C 
ATOM     80  H11 A03 d   1     -13.075  12.188   9.716  0.00  0.00     0.047 H 
ATOM     81  H12 A03 d   1     -13.776  13.842   9.748  0.00  0.00     0.047 H 
BRANCH  79  82
ATOM     82  CAV A03 d   1     -15.195  12.273   9.336  0.00  0.00    -0.057 C 
ATOM     83  H13 A03 d   1     -15.096  12.418   8.250  0.00  0.00     0.033 H 
ATOM     84  H14 A03 d   1     -16.073  12.825   9.701  0.00  0.00     0.033 H 
BRANCH  82  85
ATOM     85  CAR A03 d   1     -15.367  10.783   9.638  0.00  0.00    -0.063 C 
ATOM     86  H15 A03 d   1     -15.287  10.639  10.726  0.00  0.00     0.033 H 
ATOM     87  H16 A03 d   1     -14.559  10.232   9.134  0.00  0.00     0.033 H 
BRANCH  85  88
ATOM     88  CAU A03 d   1     -16.702  10.208   9.174  0.00  0.00    -0.050 C 
ATOM     89  H17 A03 d   1     -16.810  10.332   8.086  0.00  0.00     0.035 H 
ATOM     90  H18 A03 d   1     -17.532  10.717   9.685  0.00  0.00     0.035 H 
BRANCH  88  91
ATOM     91  CBA A03 d   1     -16.692   8.718   9.538  0.00  0.00    -0.005 C 
ATOM     92  H19 A03 d   1     -16.830   8.608  10.624  0.00  0.00     0.064 H 
ATOM     93  H20 A03 d   1     -15.727   8.279   9.245  0.00  0.00     0.064 H 
BRANCH  91  94
ATOM     94  NBN A03 d   1     -17.779   8.017   8.836  0.00  0.00    -0.359 N 
ATOM     95  CBY A03 d   1     -17.633   7.501   7.613  0.00  0.00     0.249 C 
ATOM     96  OAL A03 d   1     -16.582   7.541   6.964  0.00  0.00    -0.271 OA
ATOM     97  H21 A03 d   1     -18.663   7.923   9.294  0.00  0.00     0.162 HD
BRANCH  95  98
ATOM     98  CCI A03 d   1     -18.872   6.842   7.006  0.00  0.00     0.144 C 
ATOM     99  OBR A03 d   1     -19.102   7.415   5.686  0.00  0.00    -0.346 OA
ATOM    100  CCJ A03 d   1     -19.426   6.339   4.753  0.00  0.00     0.140 C 
ATOM    101  CCH A03 d   1     -19.605   5.090   5.595  0.00  0.00     0.105 C 
ATOM    102  H10 A03 d   1     -20.377   6.569   4.250  0.00  0.00     0.123 H 
ATOM    103  CCG A03 d   1     -18.652   5.360   6.777  0.00  0.00     0.098 C 
ATOM    104  H8  A03 d   1     -19.335   4.168   5.060  0.00  0.00     0.093 H 
ATOM    105  H7  A03 d   1     -17.608   5.124   6.524  0.00  0.00     0.091 H 
ATOM    106  H9  A03 d   1     -19.740   7.004   7.662  0.00  0.00     0.102 H 
BRANCH 100 107
ATOM    107  N9  A03 d   1     -18.375   6.194   3.704  0.00  0.00    -0.294 N 
ATOM    108  C4  A03 d   1     -18.589   5.853   2.436  0.00  0.00     0.167 A 
ATOM    109  N3  A03 d   1     -19.694   5.528   1.734  0.00  0.00    -0.222 NA
ATOM    110  C5  A03 d   1     -17.351   5.849   1.804  0.00  0.00     0.149 A 
ATOM    111  C2  A03 d   1     -19.591   5.226   0.445  0.00  0.00     0.091 A 
ATOM    112  N1  A03 d   1     -18.422   5.221  -0.190  0.00  0.00    -0.222 NA
ATOM    113  H1  A03 d   1     -20.489   4.975  -0.108  0.00  0.00     0.146 H 
ATOM    114  C6  A03 d   1     -17.279   5.512   0.451  0.00  0.00     0.155 A 
ATOM    115  N7  A03 d   1     -16.440   6.177   2.713  0.00  0.00    -0.236 NA
ATOM    116  C8  A03 d   1     -17.065   6.389   3.866  0.00  0.00     0.071 A 
ATOM    117  H4  A03 d   1     -16.583   6.677   4.799  0.00  0.00     0.144 H 
BRANCH 114 118
ATOM    118  N6  A03 d   1     -16.102   5.498  -0.193  0.00  0.00    -0.382 N 
ATOM    119  H2  A03 d   1     -15.235   5.724   0.314  0.00  0.00     0.157 HD
ATOM    120  H3  A03 d   1     -16.066   5.261  -1.195  0.00  0.00     0.157 HD
ENDBRANCH 114 118
ENDBRANCH 100 107
BRANCH 101 121
ATOM    121  OAO A03 d   1     -20.976   5.068   5.980  0.00  0.00    -0.388 OA
ATOM    122  H6  A03 d   1     -21.112   4.383   6.624  0.00  0.00     0.210 HD
ENDBRANCH 101 121
BRANCH 103 123
ATOM    123  OAN A03 d   1     -19.049   4.660   7.931  0.00  0.00    -0.390 OA
ATOM    124  H5  A03 d   1     -19.048   3.727   7.750  0.00  0.00     0.210 HD
ENDBRANCH 103 123
ENDBRANCH  95  98
ENDBRANCH  91  94
ENDBRANCH  88  91
ENDBRANCH  85  88
ENDBRANCH  82  85
ENDBRANCH  79  82
ENDBRANCH  76  79
ENDBRANCH  73  75
BRANCH  73 125
ATOM    125  CB  A03 d   1     -12.262  10.530  14.017  0.00  0.00    -0.049 C 
ATOM    126  H24 A03 d   1     -12.285  10.408  15.110  0.00  0.00     0.030 H 
ATOM    127  H25 A03 d   1     -11.279  10.917  13.712  0.00  0.00     0.030 H 
ATOM    128  H26 A03 d   1     -12.439   9.557  13.536  0.00  0.00     0.030 H 
ENDBRANCH  73 125
ENDBRANCH  70  73
ENDBRANCH  66  69
ENDBRANCH   1  66
TORSDOF 32
