REMARK  2 active torsions:
REMARK  status: ('A' for Active; 'I' for Inactive)
REMARK    1  A    between atoms: C1_1  and  N1_2 
REMARK    2  A    between atoms: C4_9  and  O3_8 
ROOT
ATOM      1  C1  HNQ d   1     -35.277 -12.125 -47.116  0.00  0.00     0.115 A 
ATOM      2  C2  HNQ d   1     -34.566 -11.570 -47.952  0.00  0.00    -0.047 A 
ATOM      3  N2  HNQ d   1     -34.693 -10.225 -44.245  0.00  0.00    -0.257 NA
ATOM      4  C3  HNQ d   1     -33.809 -10.503 -47.616  0.00  0.00    -0.046 A 
ATOM      5  C4  HNQ d   1     -33.855 -10.043 -46.377  0.00  0.00     0.095 A 
ATOM      6  C5  HNQ d   1     -34.649 -10.674 -45.507  0.00  0.00     0.102 A 
ATOM      7  C6  HNQ d   1     -35.462 -10.820 -43.439  0.00  0.00     0.003 A 
ATOM      8  C7  HNQ d   1     -36.217 -11.878 -43.794  0.00  0.00    -0.065 A 
ATOM      9  C8  HNQ d   1     -36.164 -12.311 -44.966  0.00  0.00    -0.067 A 
ATOM     10  C9  HNQ d   1     -35.353 -11.701 -45.882  0.00  0.00     0.029 A 
ATOM     11  H1  HNQ d   1     -34.547 -11.941 -48.970  0.00  0.00     0.087 H 
ATOM     12  H2  HNQ d   1     -33.171 -10.029 -48.353  0.00  0.00     0.087 H 
ATOM     13  H4  HNQ d   1     -35.517 -10.464 -42.417  0.00  0.00     0.114 H 
ATOM     14  H5  HNQ d   1     -36.867 -12.351 -43.067  0.00  0.00     0.085 H 
ATOM     15  H6  HNQ d   1     -36.760 -13.169 -45.255  0.00  0.00     0.085 H 
ENDROOT
BRANCH   1  16
ATOM     16  N1  HNQ d   1     -35.926 -13.197 -47.494  0.00  0.00    -0.115 N 
ATOM     17  O1  HNQ d   1     -35.741 -14.206 -46.977  0.00  0.00    -0.532 OA
ATOM     18  O2  HNQ d   1     -36.593 -13.061 -48.211  0.00  0.00    -0.532 OA
ENDBRANCH   1  16
BRANCH   5  19
ATOM     19  O3  HNQ d   1     -33.110  -8.935 -45.984  0.00  0.00    -0.358 OA
ATOM     20  H3  HNQ d   1     -33.365  -8.182 -46.504  0.00  0.00     0.217 HD
ENDBRANCH   5  19
TORSDOF 2
