REMARK  17 active torsions:
REMARK  status: ('A' for Active; 'I' for Inactive)
REMARK    1  A    between atoms: C1_1  and  O4_5 
REMARK    2  A    between atoms: C1_1  and  C4_4 
REMARK    3  A    between atoms: C1_1  and  C3_3 
REMARK    4  A    between atoms: C1_1  and  C2_2 
REMARK    5  A    between atoms: O4_5  and  C30_6 
REMARK       I    between atoms: C30_6  and  N1_8 
REMARK    6  A    between atoms: N1_8  and  C5_9 
REMARK    7  A    between atoms: C5_9  and  C13_17 
REMARK    8  A    between atoms: C5_9  and  C6_10 
REMARK    9  A    between atoms: C6_10  and  C7_11 
REMARK   10  A    between atoms: C13_17  and  C14_19 
REMARK   11  A    between atoms: C13_17  and  O1_18 
REMARK   12  A    between atoms: C14_19  and  N2_20 
REMARK   13  A    between atoms: N2_20  and  N3_29 
REMARK   14  A    between atoms: N2_20  and  C15_22 
REMARK   15  A    between atoms: N2_20  and  C22_21 
REMARK   16  A    between atoms: C15_22  and  C16_23 
REMARK       I    between atoms: N3_29  and  C23_30 
REMARK   17  A    between atoms: C23_30  and  C27_32 
ROOT
ATOM      1  C13 ARQ d   1       5.642  -0.319  14.998  0.00  0.00     0.081 C 
ATOM      2  H19 ARQ d   1       6.646  -0.679  15.268  0.00  0.00     0.088 H 
ENDROOT
BRANCH   1   3
ATOM      3  C5  ARQ d   1       5.716   0.269  13.558  0.00  0.00     0.044 C 
ATOM      4  H11 ARQ d   1       5.808  -0.584  12.869  0.00  0.00     0.077 H 
BRANCH   3   5
ATOM      5  N1  ARQ d   1       4.497   0.994  13.193  0.00  0.00    -0.329 N 
ATOM      6  C30 ARQ d   1       3.511   0.571  12.400  0.00  0.00     0.361 C 
ATOM      7  O3  ARQ d   1       3.399  -0.533  11.970  0.00  0.00    -0.238 OA
ATOM      8  H10 ARQ d   1       4.392   1.909  13.582  0.00  0.00     0.165 HD
BRANCH   6   9
ATOM      9  O4  ARQ d   1       2.664   1.554  12.108  0.00  0.00    -0.294 OA
BRANCH   9  10
ATOM     10  C1  ARQ d   1       1.474   1.321  11.354  0.00  0.00     0.061 C 
BRANCH  10  11
ATOM     11  C4  ARQ d   1       1.852   1.006   9.891  0.00  0.00    -0.048 C 
ATOM     12  H7  ARQ d   1       0.938   0.826   9.307  0.00  0.00     0.031 H 
ATOM     13  H8  ARQ d   1       2.489   0.109   9.862  0.00  0.00     0.031 H 
ATOM     14  H9  ARQ d   1       2.399   1.858   9.462  0.00  0.00     0.031 H 
ENDBRANCH  10  11
BRANCH  10  15
ATOM     15  C3  ARQ d   1       0.675   2.633  11.410  0.00  0.00    -0.048 C 
ATOM     16  H4  ARQ d   1      -0.261   2.517  10.843  0.00  0.00     0.031 H 
ATOM     17  H5  ARQ d   1       1.272   3.445  10.970  0.00  0.00     0.031 H 
ATOM     18  H6  ARQ d   1       0.441   2.876  12.457  0.00  0.00     0.031 H 
ENDBRANCH  10  15
BRANCH  10  19
ATOM     19  C2  ARQ d   1       0.562   0.252  12.036  0.00  0.00    -0.048 C 
ATOM     20  H1  ARQ d   1      -0.342   0.100  11.428  0.00  0.00     0.031 H 
ATOM     21  H2  ARQ d   1       0.275   0.601  13.039  0.00  0.00     0.031 H 
ATOM     22  H3  ARQ d   1       1.111  -0.698  12.121  0.00  0.00     0.031 H 
ENDBRANCH  10  19
ENDBRANCH   9  10
ENDBRANCH   6   9
ENDBRANCH   3   5
BRANCH   3  23
ATOM     23  C6  ARQ d   1       6.953   1.163  13.346  0.00  0.00    -0.020 C 
ATOM     24  H12 ARQ d   1       7.856   0.542  13.447  0.00  0.00     0.043 H 
ATOM     25  H13 ARQ d   1       6.957   1.945  14.120  0.00  0.00     0.043 H 
BRANCH  23  26
ATOM     26  C7  ARQ d   1       6.975   1.824  11.998  0.00  0.00    -0.056 A 
ATOM     27  C11 ARQ d   1       7.114   3.232  11.941  0.00  0.00    -0.077 A 
ATOM     28  C12 ARQ d   1       7.085   3.888  10.692  0.00  0.00    -0.082 A 
ATOM     29  H17 ARQ d   1       7.242   3.804  12.853  0.00  0.00     0.084 H 
ATOM     30  C10 ARQ d   1       6.927   3.110   9.519  0.00  0.00    -0.083 A 
ATOM     31  H18 ARQ d   1       7.182   4.966  10.631  0.00  0.00     0.083 H 
ATOM     32  C9  ARQ d   1       6.791   1.701   9.574  0.00  0.00    -0.082 A 
ATOM     33  H16 ARQ d   1       6.910   3.605   8.555  0.00  0.00     0.083 H 
ATOM     34  C8  ARQ d   1       6.815   1.051  10.826  0.00  0.00    -0.077 A 
ATOM     35  H15 ARQ d   1       6.670   1.127   8.662  0.00  0.00     0.083 H 
ATOM     36  H14 ARQ d   1       6.712  -0.026  10.888  0.00  0.00     0.084 H 
ENDBRANCH  23  26
ENDBRANCH   3  23
ENDBRANCH   1   3
BRANCH   1  37
ATOM     37  C14 ARQ d   1       4.669  -1.525  15.008  0.00  0.00     0.131 C 
ATOM     38  H21 ARQ d   1       4.621  -1.918  13.982  0.00  0.00     0.084 H 
ATOM     39  H22 ARQ d   1       3.679  -1.147  15.303  0.00  0.00     0.084 H 
BRANCH  37  40
ATOM     40  N2  ARQ d   1       4.998  -2.669  15.910  0.00  0.00     0.017 N 
BRANCH  40  41
ATOM     41  N3  ARQ d   1       6.121  -3.333  15.291  0.00  0.00    -0.181 N 
ATOM     42  C23 ARQ d   1       6.067  -4.033  14.140  0.00  0.00     0.275 C 
ATOM     43  O2  ARQ d   1       5.015  -4.224  13.523  0.00  0.00    -0.266 OA
ATOM     44  H33 ARQ d   1       7.006  -3.269  15.751  0.00  0.00     0.197 HD
BRANCH  42  45
ATOM     45  C27 ARQ d   1       7.360  -4.579  13.674  0.00  0.00     0.033 A 
ATOM     46  C28 ARQ d   1       8.593  -4.222  14.279  0.00  0.00    -0.068 A 
ATOM     47  C29 ARQ d   1       9.781  -4.839  13.838  0.00  0.00    -0.082 A 
ATOM     48  H37 ARQ d   1       8.621  -3.483  15.072  0.00  0.00     0.085 H 
ATOM     49  C24 ARQ d   1       9.714  -5.796  12.796  0.00  0.00    -0.083 A 
ATOM     50  H38 ARQ d   1      10.733  -4.585  14.290  0.00  0.00     0.083 H 
ATOM     51  C25 ARQ d   1       8.521  -6.101  12.123  0.00  0.00    -0.082 A 
ATOM     52  H36 ARQ d   1      10.621  -6.314  12.507  0.00  0.00     0.083 H 
ATOM     53  C26 ARQ d   1       7.343  -5.490  12.582  0.00  0.00    -0.068 A 
ATOM     54  H35 ARQ d   1       8.509  -6.783  11.280  0.00  0.00     0.083 H 
ATOM     55  H34 ARQ d   1       6.402  -5.717  12.094  0.00  0.00     0.085 H 
ENDBRANCH  42  45
ENDBRANCH  40  41
BRANCH  40  56
ATOM     56  C15 ARQ d   1       3.718  -3.441  16.024  0.00  0.00     0.129 C 
ATOM     57  H26 ARQ d   1       3.423  -3.740  15.008  0.00  0.00     0.087 H 
ATOM     58  H27 ARQ d   1       2.960  -2.761  16.440  0.00  0.00     0.087 H 
BRANCH  56  59
ATOM     59  C16 ARQ d   1       3.724  -4.695  16.883  0.00  0.00    -0.030 A 
ATOM     60  C20 ARQ d   1       3.386  -4.632  18.248  0.00  0.00    -0.075 A 
ATOM     61  C21 ARQ d   1       3.502  -5.791  19.063  0.00  0.00    -0.082 A 
ATOM     62  H31 ARQ d   1       3.037  -3.700  18.678  0.00  0.00     0.084 H 
ATOM     63  C19 ARQ d   1       3.957  -7.006  18.505  0.00  0.00    -0.083 A 
ATOM     64  H32 ARQ d   1       3.241  -5.742  20.114  0.00  0.00     0.083 H 
ATOM     65  C18 ARQ d   1       4.162  -7.106  17.109  0.00  0.00    -0.082 A 
ATOM     66  H30 ARQ d   1       4.149  -7.860  19.145  0.00  0.00     0.083 H 
ATOM     67  C17 ARQ d   1       4.055  -5.940  16.308  0.00  0.00    -0.075 A 
ATOM     68  H29 ARQ d   1       4.398  -8.062  16.657  0.00  0.00     0.083 H 
ATOM     69  H28 ARQ d   1       4.230  -6.007  15.240  0.00  0.00     0.084 H 
ENDBRANCH  56  59
ENDBRANCH  40  56
BRANCH  40  70
ATOM     70  C22 ARQ d   1       5.441  -2.219  17.249  0.00  0.00     0.088 C 
ATOM     71  H23 ARQ d   1       5.670  -3.095  17.873  0.00  0.00     0.071 H 
ATOM     72  H24 ARQ d   1       4.640  -1.632  17.722  0.00  0.00     0.071 H 
ATOM     73  H25 ARQ d   1       6.342  -1.596  17.147  0.00  0.00     0.071 H 
ENDBRANCH  40  70
ENDBRANCH  37  40
ENDBRANCH   1  37
BRANCH   1  74
ATOM     74  O1  ARQ d   1       5.248   0.651  15.980  0.00  0.00    -0.392 OA
ATOM     75  H20 ARQ d   1       4.371   0.959  15.785  0.00  0.00     0.210 HD
ENDBRANCH   1  74
TORSDOF 17
