REMARK  2 active torsions:
REMARK  status: ('A' for Active; 'I' for Inactive)
REMARK    1  A    between atoms: C2_2  and  C10_10 
REMARK    2  A    between atoms: N12_12  and  C16_16 
ROOT
ATOM      1  C1  AVX d   1       8.518 -22.280  -5.696  0.00  0.00    -0.036 A 
ATOM      2  C2  AVX d   1       9.633 -22.201  -6.578  0.00  0.00    -0.001 A 
ATOM      3  C3  AVX d   1      10.611 -21.211  -6.482  0.00  0.00    -0.051 A 
ATOM      4  C4  AVX d   1      10.543 -20.227  -5.533  0.00  0.00     0.048 A 
ATOM      5  C5  AVX d   1       9.421 -20.235  -4.600  0.00  0.00     0.122 A 
ATOM      6  C6  AVX d   1       8.427 -21.281  -4.708  0.00  0.00     0.107 A 
ATOM      7  O7  AVX d   1       7.540 -21.006  -3.710  0.00  0.00    -0.323 OA
ATOM      8  C8  AVX d   1       7.995 -19.921  -2.875  0.00  0.00     0.115 C 
ATOM      9  O9  AVX d   1       9.133 -19.387  -3.567  0.00  0.00    -0.322 OA
ATOM     10 BR15 AVX d   1      11.810 -18.885  -5.354  0.00  0.00    -0.048 Br
ATOM     11  H1  AVX d   1       7.778 -23.068  -5.781  0.00  0.00     0.089 H 
ATOM     12  H2  AVX d   1      11.444 -21.221  -7.175  0.00  0.00     0.087 H 
ATOM     13  H3  AVX d   1       8.284 -20.291  -1.880  0.00  0.00     0.118 H 
ATOM     14  H4  AVX d   1       7.211 -19.157  -2.769  0.00  0.00     0.118 H 
ENDROOT
BRANCH   2  15
ATOM     15  C10 AVX d   1       9.950 -23.189  -7.647  0.00  0.00     0.091 A 
ATOM     16  N11 AVX d   1      11.249 -23.636  -7.774  0.00  0.00    -0.171 NA
ATOM     17  N12 AVX d   1      11.257 -24.553  -8.827  0.00  0.00    -0.258 N 
ATOM     18  C13 AVX d   1      10.007 -24.632  -9.280  0.00  0.00     0.119 A 
ATOM     19  C14 AVX d   1       9.116 -23.812  -8.590  0.00  0.00    -0.009 A 
ATOM     20  N17 AVX d   1       9.661 -25.445 -10.317  0.00  0.00    -0.384 N 
ATOM     21  H5  AVX d   1       8.045 -23.686  -8.743  0.00  0.00     0.093 H 
ATOM     22  H9  AVX d   1       8.684 -25.480 -10.640  0.00  0.00     0.157 HD
ATOM     23  H10 AVX d   1      10.377 -26.025 -10.778  0.00  0.00     0.157 HD
BRANCH  17  24
ATOM     24  C16 AVX d   1      12.570 -25.182  -9.168  0.00  0.00     0.004 C 
ATOM     25  H6  AVX d   1      12.435 -25.878 -10.009  0.00  0.00     0.059 H 
ATOM     26  H7  AVX d   1      12.951 -25.731  -8.294  0.00  0.00     0.059 H 
ATOM     27  H8  AVX d   1      13.289 -24.399  -9.452  0.00  0.00     0.059 H 
ENDBRANCH  17  24
ENDBRANCH   2  15
TORSDOF 2
