REMARK  2 active torsions:
REMARK  status: ('A' for Active; 'I' for Inactive)
REMARK    1  A    between atoms: C2_2  and  C10_10 
REMARK    2  A    between atoms: N11_11  and  C16_16 
ROOT
ATOM      1  C1  BBY d   1      14.945 -10.078  -5.796  0.00  0.00    -0.036 A 
ATOM      2  C2  BBY d   1      14.381  -9.209  -6.750  0.00  0.00    -0.004 A 
ATOM      3  C3  BBY d   1      13.047  -8.773  -6.683  0.00  0.00    -0.051 A 
ATOM      4  C4  BBY d   1      12.186  -9.189  -5.672  0.00  0.00     0.048 A 
ATOM      5  C5  BBY d   1      12.753 -10.097  -4.658  0.00  0.00     0.122 A 
ATOM      6  C6  BBY d   1      14.137 -10.518  -4.758  0.00  0.00     0.107 A 
ATOM      7  O7  BBY d   1      14.384 -11.357  -3.709  0.00  0.00    -0.323 OA
ATOM      8  C8  BBY d   1      13.130 -11.649  -3.048  0.00  0.00     0.115 C 
ATOM      9  O9  BBY d   1      12.195 -10.681  -3.562  0.00  0.00    -0.322 OA
ATOM     10 BR15 BBY d   1      10.397  -8.609  -5.584  0.00  0.00    -0.048 Br
ATOM     11  H1  BBY d   1      15.979 -10.393  -5.871  0.00  0.00     0.089 H 
ATOM     12  H2  BBY d   1      12.678  -8.092  -7.441  0.00  0.00     0.087 H 
ATOM     13  H3  BBY d   1      13.235 -11.542  -1.958  0.00  0.00     0.118 H 
ATOM     14  H4  BBY d   1      12.797 -12.670  -3.286  0.00  0.00     0.118 H 
ENDROOT
BRANCH   2  15
ATOM     15  C10 BBY d   1      15.236  -8.713  -7.865  0.00  0.00     0.066 A 
ATOM     16  N11 BBY d   1      15.104  -7.543  -8.525  0.00  0.00    -0.272 N 
ATOM     17  N12 BBY d   1      16.082  -7.381  -9.515  0.00  0.00    -0.155 NA
ATOM     18  C13 BBY d   1      16.791  -8.514  -9.386  0.00  0.00     0.143 A 
ATOM     19  C14 BBY d   1      16.339  -9.373  -8.402  0.00  0.00    -0.009 A 
ATOM     20  N17 BBY d   1      17.866  -8.793 -10.164  0.00  0.00    -0.383 N 
ATOM     21  H5  BBY d   1      16.749 -10.340  -8.114  0.00  0.00     0.093 H 
ATOM     22  H9  BBY d   1      18.382  -9.674 -10.032  0.00  0.00     0.157 HD
ATOM     23  H10 BBY d   1      18.166  -8.123 -10.887  0.00  0.00     0.157 HD
BRANCH  16  24
ATOM     24  C16 BBY d   1      14.146  -6.413  -8.430  0.00  0.00     0.003 C 
ATOM     25  H6  BBY d   1      14.410  -5.645  -9.172  0.00  0.00     0.059 H 
ATOM     26  H7  BBY d   1      14.191  -5.978  -7.421  0.00  0.00     0.059 H 
ATOM     27  H8  BBY d   1      13.127  -6.778  -8.627  0.00  0.00     0.059 H 
ENDBRANCH  16  24
ENDBRANCH   2  15
TORSDOF 2
