REMARK  2 active torsions:
REMARK  status: ('A' for Active; 'I' for Inactive)
REMARK    1  A    between atoms: C1_1  and  O1_7 
REMARK    2  A    between atoms: C3_3  and  O3_8 
ROOT
ATOM      1  C1  RCO d   1      54.530  28.426  21.879  0.00  0.00     0.068 A 
ATOM      2  C2  RCO d   1      54.467  29.573  21.038  0.00  0.00    -0.019 A 
ATOM      3  C3  RCO d   1      55.609  29.985  20.296  0.00  0.00     0.068 A 
ATOM      4  C4  RCO d   1      56.803  29.245  20.405  0.00  0.00    -0.051 A 
ATOM      5  C5  RCO d   1      56.871  28.111  21.236  0.00  0.00    -0.078 A 
ATOM      6  C6  RCO d   1      55.731  27.700  21.978  0.00  0.00    -0.051 A 
ATOM      7  H1  RCO d   1      53.544  30.136  20.962  0.00  0.00     0.092 H 
ATOM      8  H2  RCO d   1      57.678  29.552  19.843  0.00  0.00     0.087 H 
ATOM      9  H3  RCO d   1      57.795  27.550  21.310  0.00  0.00     0.083 H 
ATOM     10  H4  RCO d   1      55.787  26.828  22.620  0.00  0.00     0.087 H 
ENDROOT
BRANCH   1  11
ATOM     11  O1  RCO d   1      53.393  28.038  22.595  0.00  0.00    -0.361 OA
ATOM     12  H5  RCO d   1      52.682  28.639  22.407  0.00  0.00     0.217 HD
ENDBRANCH   1  11
BRANCH   3  13
ATOM     13  O3  RCO d   1      55.563  31.113  19.466  0.00  0.00    -0.361 OA
ATOM     14  H6  RCO d   1      54.695  31.497  19.503  0.00  0.00     0.217 HD
ENDBRANCH   3  13
TORSDOF 2
