REMARK  15 active torsions:
REMARK  status: ('A' for Active; 'I' for Inactive)
REMARK    1  A    between atoms: C7_7  and  N4_33 
REMARK    2  A    between atoms: C9_9  and  C30_31 
REMARK    3  A    between atoms: C28_30  and  N1_10 
REMARK    4  A    between atoms: C19_21  and  N2_13 
REMARK    5  A    between atoms: C12_14  and  C29_32 
REMARK    6  A    between atoms: C14_16  and  N3_34 
REMARK    7  A    between atoms: C20_22  and  C19_21 
REMARK    8  A    between atoms: C21_23  and  C20_22 
REMARK    9  A    between atoms: C22_24  and  C21_23 
REMARK   10  A    between atoms: C23_25  and  C22_24 
REMARK   11  A    between atoms: C24_26  and  C23_25 
REMARK   12  A    between atoms: C25_27  and  C24_26 
REMARK   13  A    between atoms: C26_28  and  C25_27 
REMARK   14  A    between atoms: C27_29  and  C26_28 
REMARK   15  A    between atoms: C27_29  and  C28_30 
ROOT
ATOM      1  C23 DEQ d   1      12.985  -8.097  24.265  0.00  0.00    -0.065 C 
ATOM      2  H20 DEQ d   1      13.666  -7.654  25.006  0.00  0.00     0.033 H 
ATOM      3  H21 DEQ d   1      12.508  -8.991  24.693  0.00  0.00     0.033 H 
ENDROOT
BRANCH   1   4
ATOM      4  C22 DEQ d   1      13.811  -8.514  22.992  0.00  0.00    -0.065 C 
ATOM      5  H18 DEQ d   1      13.872  -9.610  22.922  0.00  0.00     0.033 H 
ATOM      6  H19 DEQ d   1      13.335  -8.115  22.084  0.00  0.00     0.033 H 
BRANCH   4   7
ATOM      7  C21 DEQ d   1      15.170  -7.934  23.156  0.00  0.00    -0.064 C 
ATOM      8  H16 DEQ d   1      15.097  -6.849  23.323  0.00  0.00     0.033 H 
ATOM      9  H17 DEQ d   1      15.677  -8.404  24.012  0.00  0.00     0.033 H 
BRANCH   7  10
ATOM     10  C20 DEQ d   1      15.959  -8.214  21.859  0.00  0.00    -0.050 C 
ATOM     11  H14 DEQ d   1      15.319  -8.078  20.975  0.00  0.00     0.035 H 
ATOM     12  H15 DEQ d   1      16.834  -7.552  21.784  0.00  0.00     0.035 H 
BRANCH  10  13
ATOM     13  C19 DEQ d   1      16.395  -9.681  21.996  0.00  0.00     0.000 C 
ATOM     14  H12 DEQ d   1      16.320  -9.963  23.056  0.00  0.00     0.064 H 
ATOM     15  H13 DEQ d   1      15.706 -10.300  21.402  0.00  0.00     0.064 H 
BRANCH  13  16
ATOM     16  N2  DEQ d   1      17.778  -9.961  21.540  0.00  0.00    -0.350 N 
ATOM     17  C11 DEQ d   1      18.939  -9.671  22.257  0.00  0.00     0.047 A 
ATOM     18  C10 DEQ d   1      20.219 -10.084  21.780  0.00  0.00     0.017 A 
ATOM     19  C18 DEQ d   1      18.871  -9.014  23.518  0.00  0.00    -0.056 A 
ATOM     20  C14 DEQ d   1      20.270 -10.649  20.521  0.00  0.00     0.040 A 
ATOM     21  C15 DEQ d   1      21.349  -9.809  22.488  0.00  0.00    -0.069 A 
ATOM     22  C13 DEQ d   1      19.101 -10.911  19.803  0.00  0.00    -0.035 A 
ATOM     23  C12 DEQ d   1      17.844 -10.558  20.250  0.00  0.00     0.010 A 
ATOM     24  H7  DEQ d   1      19.186 -11.419  18.843  0.00  0.00     0.090 H 
ATOM     25  C16 DEQ d   1      21.261  -9.175  23.702  0.00  0.00    -0.082 A 
ATOM     26  H8  DEQ d   1      22.318 -10.091  22.093  0.00  0.00     0.085 H 
ATOM     27  C17 DEQ d   1      20.037  -8.780  24.171  0.00  0.00    -0.081 A 
ATOM     28  H9  DEQ d   1      22.155  -8.988  24.286  0.00  0.00     0.083 H 
ATOM     29  H10 DEQ d   1      19.997  -8.251  25.116  0.00  0.00     0.083 H 
ATOM     30  H11 DEQ d   1      17.920  -8.711  23.942  0.00  0.00     0.087 H 
BRANCH  20  31
ATOM     31  N3  DEQ d   1      21.393 -11.045  19.905  0.00  0.00    -0.398 N 
ATOM     32  H37 DEQ d   1      22.307 -10.896  20.355  0.00  0.00     0.156 HD
ATOM     33  H38 DEQ d   1      21.341 -11.499  18.982  0.00  0.00     0.156 HD
ENDBRANCH  20  31
BRANCH  23  34
ATOM     34  C29 DEQ d   1      16.570 -10.965  19.413  0.00  0.00    -0.037 C 
ATOM     35  H33 DEQ d   1      16.886 -11.404  18.455  0.00  0.00     0.035 H 
ATOM     36  H34 DEQ d   1      15.956 -10.072  19.222  0.00  0.00     0.035 H 
ATOM     37  H35 DEQ d   1      15.980 -11.702  19.978  0.00  0.00     0.035 H 
ENDBRANCH  23  34
ENDBRANCH  13  16
ENDBRANCH  10  13
ENDBRANCH   7  10
ENDBRANCH   4   7
ENDBRANCH   1   4
BRANCH   1  38
ATOM     38  C24 DEQ d   1      11.867  -7.042  23.894  0.00  0.00    -0.065 C 
ATOM     39  H22 DEQ d   1      11.393  -7.370  22.957  0.00  0.00     0.033 H 
ATOM     40  H23 DEQ d   1      12.360  -6.072  23.735  0.00  0.00     0.033 H 
BRANCH  38  41
ATOM     41  C25 DEQ d   1      10.728  -6.833  24.963  0.00  0.00    -0.062 C 
ATOM     42  H24 DEQ d   1      10.031  -7.681  24.899  0.00  0.00     0.033 H 
ATOM     43  H25 DEQ d   1      10.194  -5.901  24.726  0.00  0.00     0.033 H 
BRANCH  41  44
ATOM     44  C26 DEQ d   1      11.276  -6.736  26.472  0.00  0.00    -0.049 C 
ATOM     45  H26 DEQ d   1      12.006  -5.917  26.552  0.00  0.00     0.038 H 
ATOM     46  H27 DEQ d   1      11.756  -7.684  26.756  0.00  0.00     0.038 H 
BRANCH  44  47
ATOM     47  C27 DEQ d   1      10.035  -6.450  27.432  0.00  0.00    -0.088 C 
ATOM     48  H28 DEQ d   1       8.970  -6.539  27.221  0.00  0.00     0.079 H 
BRANCH  47  49
ATOM     49  C28 DEQ d   1      10.697  -6.038  28.669  0.00  0.00    -0.018 C 
ATOM     50  H29 DEQ d   1      11.779  -5.939  28.743  0.00  0.00     0.111 H 
BRANCH  49  51
ATOM     51  N1  DEQ d   1       9.770  -5.755  29.852  0.00  0.00    -0.326 N 
ATOM     52  C5  DEQ d   1       9.063  -6.767  30.536  0.00  0.00     0.051 A 
ATOM     53  C1  DEQ d   1       9.085  -8.053  30.043  0.00  0.00    -0.056 A 
ATOM     54  C6  DEQ d   1       8.402  -6.435  31.742  0.00  0.00     0.017 A 
ATOM     55  C2  DEQ d   1       8.449  -9.084  30.694  0.00  0.00    -0.081 A 
ATOM     56  H1  DEQ d   1       9.616  -8.257  29.120  0.00  0.00     0.087 H 
ATOM     57  C3  DEQ d   1       7.722  -8.795  31.864  0.00  0.00    -0.082 A 
ATOM     58  H2  DEQ d   1       8.506 -10.098  30.314  0.00  0.00     0.083 H 
ATOM     59  C4  DEQ d   1       7.675  -7.444  32.409  0.00  0.00    -0.069 A 
ATOM     60  H3  DEQ d   1       7.187  -9.591  32.369  0.00  0.00     0.083 H 
ATOM     61  H4  DEQ d   1       7.099  -7.221  33.300  0.00  0.00     0.085 H 
ATOM     62  C7  DEQ d   1       8.369  -5.106  32.187  0.00  0.00     0.040 A 
ATOM     63  C8  DEQ d   1       9.040  -4.107  31.505  0.00  0.00    -0.035 A 
ATOM     64  C9  DEQ d   1       9.742  -4.432  30.344  0.00  0.00     0.015 A 
ATOM     65  H5  DEQ d   1       9.021  -3.081  31.869  0.00  0.00     0.090 H 
BRANCH  62  66
ATOM     66  N4  DEQ d   1       7.646  -4.793  33.316  0.00  0.00    -0.398 N 
ATOM     67  H6  DEQ d   1       7.144  -5.533  33.828  0.00  0.00     0.156 HD
ATOM     68  H36 DEQ d   1       7.607  -3.819  33.649  0.00  0.00     0.156 HD
ENDBRANCH  62  66
BRANCH  64  69
ATOM     69  C30 DEQ d   1      10.482  -3.310  29.589  0.00  0.00    -0.037 C 
ATOM     70  H30 DEQ d   1      10.345  -2.357  30.122  0.00  0.00     0.035 H 
ATOM     71  H31 DEQ d   1      10.074  -3.222  28.571  0.00  0.00     0.035 H 
ATOM     72  H32 DEQ d   1      11.554  -3.550  29.535  0.00  0.00     0.035 H 
ENDBRANCH  64  69
ENDBRANCH  49  51
ENDBRANCH  47  49
ENDBRANCH  44  47
ENDBRANCH  41  44
ENDBRANCH  38  41
ENDBRANCH   1  38
TORSDOF 15
