REMARK  10 active torsions:
REMARK  status: ('A' for Active; 'I' for Inactive)
REMARK    1  A    between atoms: C8_9  and  O8_10 
REMARK    2  A    between atoms: C10_12  and  O10_13 
REMARK    3  A    between atoms: O10_13  and  C1'_28 
REMARK    4  A    between atoms: C12_15  and  O12_16 
REMARK    5  A    between atoms: C12_15  and  C13_17 
REMARK    6  A    between atoms: C13_17  and  C14_19 
REMARK    7  A    between atoms: C17_22  and  O17_23 
REMARK    8  A    between atoms: C3'_30  and  N3'_31 
REMARK    9  A    between atoms: C4'_32  and  O4'_33 
REMARK   10  A    between atoms: C5'_34  and  C6'_36 
ROOT
ATOM      1  C1  DM5 d   1      13.665  -8.128  23.836  0.00  0.00    -0.068 A 
ATOM      2  C2  DM5 d   1      13.557  -7.483  25.098  0.00  0.00    -0.082 A 
ATOM      3  C3  DM5 d   1      14.669  -7.179  25.878  0.00  0.00    -0.082 A 
ATOM      4  C4  DM5 d   1      15.936  -7.562  25.418  0.00  0.00    -0.068 A 
ATOM      5  C5  DM5 d   1      16.072  -8.217  24.161  0.00  0.00     0.029 A 
ATOM      6  C6  DM5 d   1      17.332  -8.579  23.690  0.00  0.00     0.197 A 
ATOM      7  O6  DM5 d   1      18.360  -8.349  24.348  0.00  0.00    -0.286 OA
ATOM      8  C7  DM5 d   1      17.456  -9.227  22.429  0.00  0.00     0.066 A 
ATOM      9  C8  DM5 d   1      18.754  -9.624  22.020  0.00  0.00     0.090 A 
ATOM     10  C9  DM5 d   1      18.863 -10.299  20.781  0.00  0.00     0.014 A 
ATOM     11  C10 DM5 d   1      20.263 -10.780  20.335  0.00  0.00     0.073 C 
ATOM     12  C11 DM5 d   1      20.386 -11.481  18.961  0.00  0.00    -0.001 C 
ATOM     13  C12 DM5 d   1      19.107 -12.253  18.536  0.00  0.00     0.124 C 
ATOM     14  C15 DM5 d   1      17.891 -11.332  18.642  0.00  0.00    -0.002 C 
ATOM     15  C16 DM5 d   1      17.766 -10.572  20.009  0.00  0.00    -0.009 A 
ATOM     16  C17 DM5 d   1      16.508 -10.197  20.412  0.00  0.00     0.088 A 
ATOM     17  C18 DM5 d   1      16.365  -9.529  21.663  0.00  0.00     0.066 A 
ATOM     18  C19 DM5 d   1      15.103  -9.146  22.143  0.00  0.00     0.197 A 
ATOM     19  O19 DM5 d   1      14.065  -9.420  21.512  0.00  0.00    -0.286 OA
ATOM     20  C20 DM5 d   1      14.953  -8.487  23.378  0.00  0.00     0.029 A 
ATOM     21  H1  DM5 d   1      12.784  -8.339  23.241  0.00  0.00     0.085 H 
ATOM     22  H2  DM5 d   1      12.573  -7.218  25.466  0.00  0.00     0.083 H 
ATOM     23  H3  DM5 d   1      14.557  -6.657  26.821  0.00  0.00     0.083 H 
ATOM     24  H4  DM5 d   1      16.814  -7.359  26.020  0.00  0.00     0.085 H 
ATOM     25  H5  DM5 d   1      21.012  -9.982  20.446  0.00  0.00     0.091 H 
ATOM     26  H6  DM5 d   1      21.222 -12.194  19.009  0.00  0.00     0.042 H 
ATOM     27  H7  DM5 d   1      20.599 -10.717  18.199  0.00  0.00     0.042 H 
ATOM     28  H12 DM5 d   1      16.986 -11.941  18.504  0.00  0.00     0.045 H 
ATOM     29  H13 DM5 d   1      17.956 -10.584  17.838  0.00  0.00     0.045 H 
ENDROOT
BRANCH  11  30
ATOM     30  O10 DM5 d   1      20.453 -11.975  21.251  0.00  0.00    -0.351 OA
BRANCH  30  31
ATOM     31  C1' DM5 d   1      21.705 -11.831  22.025  0.00  0.00     0.134 C 
ATOM     32  C2' DM5 d   1      21.664 -12.869  23.227  0.00  0.00     0.010 C 
ATOM     33  C3' DM5 d   1      21.772 -14.299  22.631  0.00  0.00     0.131 C 
ATOM     34  H17 DM5 d   1      20.718 -12.765  23.778  0.00  0.00     0.043 H 
ATOM     35  H18 DM5 d   1      22.507 -12.684  23.909  0.00  0.00     0.043 H 
ATOM     36  C4' DM5 d   1      23.038 -14.468  21.743  0.00  0.00     0.087 C 
ATOM     37  H19 DM5 d   1      20.891 -14.461  21.992  0.00  0.00     0.088 H 
ATOM     38  C5' DM5 d   1      23.024 -13.423  20.589  0.00  0.00     0.065 C 
ATOM     39  H23 DM5 d   1      23.028 -15.474  21.298  0.00  0.00     0.090 H 
ATOM     40  O5' DM5 d   1      22.792 -12.047  21.052  0.00  0.00    -0.354 OA
ATOM     41  H25 DM5 d   1      22.182 -13.697  19.936  0.00  0.00     0.086 H 
ATOM     42  H16 DM5 d   1      21.788 -10.816  22.440  0.00  0.00     0.129 H 
BRANCH  33  43
ATOM     43  N3' DM5 d   1      21.753 -15.334  23.715  0.00  0.00    -0.072 N 
ATOM     44  H20 DM5 d   1      21.824 -16.252  23.304  0.00  0.00     0.274 HD
ATOM     45  H21 DM5 d   1      20.891 -15.263  24.232  0.00  0.00     0.274 HD
ATOM     46  H22 DM5 d   1      22.531 -15.183  24.337  0.00  0.00     0.274 HD
ENDBRANCH  33  43
BRANCH  36  47
ATOM     47  O4' DM5 d   1      24.224 -14.344  22.575  0.00  0.00    -0.391 OA
ATOM     48  H24 DM5 d   1      24.211 -15.017  23.245  0.00  0.00     0.210 HD
ENDBRANCH  36  47
BRANCH  38  49
ATOM     49  C6' DM5 d   1      24.311 -13.429  19.709  0.00  0.00    -0.050 C 
ATOM     50  H26 DM5 d   1      24.220 -12.666  18.922  0.00  0.00     0.031 H 
ATOM     51  H27 DM5 d   1      24.435 -14.420  19.247  0.00  0.00     0.031 H 
ATOM     52  H28 DM5 d   1      25.186 -13.206  20.337  0.00  0.00     0.031 H 
ENDBRANCH  38  49
ENDBRANCH  30  31
ENDBRANCH  11  30
BRANCH   9  53
ATOM     53  O8  DM5 d   1      19.671  -9.351  22.817  0.00  0.00    -0.359 OA
ATOM     54  H14 DM5 d   1      19.705  -8.411  22.948  0.00  0.00     0.217 HD
ENDBRANCH   9  53
BRANCH  13  55
ATOM     55  O12 DM5 d   1      19.060 -13.402  19.505  0.00  0.00    -0.382 OA
ATOM     56  H8  DM5 d   1      19.848 -13.925  19.413  0.00  0.00     0.211 HD
ENDBRANCH  13  55
BRANCH  13  57
ATOM     57  C13 DM5 d   1      19.140 -12.750  17.073  0.00  0.00     0.157 C 
ATOM     58  O13 DM5 d   1      19.101 -13.969  16.858  0.00  0.00    -0.295 OA
BRANCH  57  59
ATOM     59  C14 DM5 d   1      19.281 -11.765  15.859  0.00  0.00    -0.018 C 
ATOM     60  H9  DM5 d   1      19.282 -12.338  14.920  0.00  0.00     0.037 H 
ATOM     61  H10 DM5 d   1      20.224 -11.206  15.948  0.00  0.00     0.037 H 
ATOM     62  H11 DM5 d   1      18.436 -11.061  15.858  0.00  0.00     0.037 H 
ENDBRANCH  57  59
ENDBRANCH  13  57
BRANCH  16  63
ATOM     63  O17 DM5 d   1      15.452 -10.556  19.633  0.00  0.00    -0.359 OA
ATOM     64  H15 DM5 d   1      14.648 -10.236  20.024  0.00  0.00     0.217 HD
ENDBRANCH  16  63
TORSDOF 10
