REMARK  5 active torsions:
REMARK  status: ('A' for Active; 'I' for Inactive)
REMARK    1  A    between atoms: N9_9  and  C13_13 
REMARK    2  A    between atoms: C14_14  and  O20_20 
REMARK    3  A    between atoms: C17_17  and  O18_18 
REMARK    4  A    between atoms: O18_18  and  C19_19 
REMARK    5  A    between atoms: O20_20  and  C21_21 
ROOT
ATOM      1  C1  CTI d   1      20.189  -9.914  22.482  0.00  0.00    -0.035 A 
ATOM      2  C2  CTI d   1      18.924  -9.827  21.859  0.00  0.00     0.004 A 
ATOM      3  C3  CTI d   1      18.758 -10.361  20.601  0.00  0.00    -0.021 A 
ATOM      4  C4  CTI d   1      19.878 -10.942  19.977  0.00  0.00    -0.037 A 
ATOM      5  C5  CTI d   1      17.861  -9.261  22.542  0.00  0.00     0.052 A 
ATOM      6  C6  CTI d   1      16.570  -9.207  22.001  0.00  0.00     0.002 A 
ATOM      7  C7  CTI d   1      16.401  -9.747  20.727  0.00  0.00    -0.069 A 
ATOM      8  C8  CTI d   1      17.496 -10.303  20.015  0.00  0.00    -0.071 A 
ATOM      9  N9  CTI d   1      18.122  -8.786  23.846  0.00  0.00    -0.379 N 
ATOM     10  C10 CTI d   1      15.524  -8.644  22.754  0.00  0.00    -0.013 A 
ATOM     11  C11 CTI d   1      15.804  -8.151  24.049  0.00  0.00     0.007 A 
ATOM     12  C12 CTI d   1      17.078  -8.233  24.579  0.00  0.00     0.022 A 
ATOM     13  C14 CTI d   1      13.519  -7.468  24.340  0.00  0.00     0.102 A 
ATOM     14  C15 CTI d   1      13.196  -7.943  23.054  0.00  0.00    -0.047 A 
ATOM     15  C16 CTI d   1      14.208  -8.536  22.282  0.00  0.00    -0.069 A 
ATOM     16  C17 CTI d   1      14.810  -7.570  24.856  0.00  0.00     0.110 A 
ATOM     17  C22 CTI d   1      21.295 -10.496  21.867  0.00  0.00     0.105 A 
ATOM     18  C23 CTI d   1      21.137 -11.004  20.578  0.00  0.00     0.105 A 
ATOM     19  O24 CTI d   1      22.622 -10.654  22.271  0.00  0.00    -0.323 OA
ATOM     20  C25 CTI d   1      23.214 -11.611  21.323  0.00  0.00     0.115 C 
ATOM     21  O26 CTI d   1      22.363 -11.493  20.145  0.00  0.00    -0.323 OA
ATOM     22  H1  CTI d   1      20.304  -9.511  23.482  0.00  0.00     0.089 H 
ATOM     23  H2  CTI d   1      19.758 -11.361  18.984  0.00  0.00     0.089 H 
ATOM     24  H3  CTI d   1      15.417  -9.742  20.272  0.00  0.00     0.085 H 
ATOM     25  H4  CTI d   1      17.349 -10.684  19.011  0.00  0.00     0.084 H 
ATOM     26  H5  CTI d   1      17.380  -7.205  24.828  0.00  0.00     0.071 H 
ATOM     27  H6  CTI d   1      16.995  -8.825  25.502  0.00  0.00     0.071 H 
ATOM     28  H10 CTI d   1      12.187  -7.853  22.668  0.00  0.00     0.087 H 
ATOM     29  H11 CTI d   1      13.966  -8.919  21.297  0.00  0.00     0.085 H 
ATOM     30  H18 CTI d   1      23.186 -12.634  21.727  0.00  0.00     0.118 H 
ATOM     31  H19 CTI d   1      24.253 -11.338  21.086  0.00  0.00     0.118 H 
ENDROOT
BRANCH  13  32
ATOM     32  O20 CTI d   1      12.572  -6.875  25.125  0.00  0.00    -0.353 OA
BRANCH  32  33
ATOM     33  C21 CTI d   1      12.348  -7.573  26.372  0.00  0.00     0.010 C 
ATOM     34  H15 CTI d   1      11.578  -7.046  26.954  0.00  0.00     0.066 H 
ATOM     35  H16 CTI d   1      13.285  -7.605  26.948  0.00  0.00     0.066 H 
ATOM     36  H17 CTI d   1      12.011  -8.599  26.163  0.00  0.00     0.066 H 
ENDBRANCH  32  33
ENDBRANCH  13  32
BRANCH  16  37
ATOM     37  O18 CTI d   1      15.088  -7.026  26.121  0.00  0.00    -0.352 OA
BRANCH  37  38
ATOM     38  C19 CTI d   1      15.314  -7.736  27.392  0.00  0.00     0.011 C 
ATOM     39  H12 CTI d   1      15.506  -7.005  28.191  0.00  0.00     0.067 H 
ATOM     40  H13 CTI d   1      16.182  -8.404  27.290  0.00  0.00     0.067 H 
ATOM     41  H14 CTI d   1      14.423  -8.329  27.644  0.00  0.00     0.067 H 
ENDBRANCH  37  38
ENDBRANCH  16  37
BRANCH   9  42
ATOM     42  C13 CTI d   1      19.475  -8.853  24.473  0.00  0.00    -0.018 C 
ATOM     43  H7  CTI d   1      20.183  -9.313  23.768  0.00  0.00     0.056 H 
ATOM     44  H8  CTI d   1      19.424  -9.458  25.390  0.00  0.00     0.056 H 
ATOM     45  H9  CTI d   1      19.814  -7.837  24.722  0.00  0.00     0.056 H 
ENDBRANCH   9  42
TORSDOF 5
