REMARK  10 active torsions:
REMARK  status: ('A' for Active; 'I' for Inactive)
REMARK    1  A    between atoms: N1_1  and  C10_10 
REMARK    2  A    between atoms: N5_5  and  C19_19 
REMARK    3  A    between atoms: N7_7  and  C20_20 
REMARK    4  A    between atoms: C10_10  and  C11_11 
REMARK    5  A    between atoms: C11_11  and  C12_12 
REMARK    6  A    between atoms: C12_12  and  C13_13 
REMARK    7  A    between atoms: C13_13  and  C14_14 
REMARK    8  A    between atoms: C14_14  and  C15_15 
REMARK    9  A    between atoms: C20_20  and  C21_21 
REMARK   10  A    between atoms: C21_21  and  C22_22 
ROOT
ATOM      1  N1  POY d   1      18.605 -11.046  19.507  0.00  0.00    -0.264 N 
ATOM      2  C2  POY d   1      17.771 -10.193  20.153  0.00  0.00     0.282 A 
ATOM      3  C3  POY d   1      18.243  -9.635  21.340  0.00  0.00     0.151 A 
ATOM      4  C4  POY d   1      19.497  -9.880  21.825  0.00  0.00     0.167 A 
ATOM      5  N5  POY d   1      20.334 -10.751  21.202  0.00  0.00    -0.286 N 
ATOM      6  C6  POY d   1      19.900 -11.338  20.030  0.00  0.00     0.333 A 
ATOM      7  N7  POY d   1      17.760  -8.754  22.202  0.00  0.00    -0.334 N 
ATOM      8  C8  POY d   1      18.713  -8.568  23.245  0.00  0.00     0.069 A 
ATOM      9  N9  POY d   1      19.783  -9.218  23.008  0.00  0.00    -0.223 NA
ATOM     10  O17 POY d   1      16.605 -10.059  19.744  0.00  0.00    -0.265 OA
ATOM     11  O18 POY d   1      20.655 -12.112  19.418  0.00  0.00    -0.246 OA
ATOM     12  H1  POY d   1      18.549  -7.952  24.128  0.00  0.00     0.143 H 
ENDROOT
BRANCH   1  13
ATOM     13  C10 POY d   1      18.130 -11.704  18.211  0.00  0.00     0.007 C 
ATOM     14  H2  POY d   1      18.997 -11.910  17.567  0.00  0.00     0.065 H 
ATOM     15  H3  POY d   1      17.439 -11.026  17.689  0.00  0.00     0.065 H 
BRANCH  13  16
ATOM     16  C11 POY d   1      17.399 -13.038  18.536  0.00  0.00    -0.049 C 
ATOM     17  H4  POY d   1      16.347 -12.810  18.763  0.00  0.00     0.035 H 
ATOM     18  H5  POY d   1      17.875 -13.488  19.419  0.00  0.00     0.035 H 
BRANCH  16  19
ATOM     19  C12 POY d   1      17.438 -14.110  17.339  0.00  0.00    -0.057 C 
ATOM     20  H6  POY d   1      16.834 -14.998  17.577  0.00  0.00     0.033 H 
ATOM     21  H7  POY d   1      18.469 -14.418  17.111  0.00  0.00     0.033 H 
BRANCH  19  22
ATOM     22  C13 POY d   1      16.814 -13.298  16.161  0.00  0.00    -0.010 C 
ATOM     23  H8  POY d   1      17.477 -12.456  15.914  0.00  0.00     0.044 H 
ATOM     24  H9  POY d   1      15.832 -12.913  16.471  0.00  0.00     0.044 H 
BRANCH  22  25
ATOM     25  C14 POY d   1      16.641 -14.158  14.944  0.00  0.00     0.123 C 
ATOM     26  O16 POY d   1      16.121 -13.643  13.876  0.00  0.00    -0.298 OA
BRANCH  25  27
ATOM     27  C15 POY d   1      16.837 -15.530  15.016  0.00  0.00    -0.021 C 
ATOM     28  H10 POY d   1      16.663 -15.978  14.026  0.00  0.00     0.037 H 
ATOM     29  H11 POY d   1      16.134 -15.963  15.743  0.00  0.00     0.037 H 
ATOM     30  H12 POY d   1      17.869 -15.737  15.336  0.00  0.00     0.037 H 
ENDBRANCH  25  27
ENDBRANCH  22  25
ENDBRANCH  19  22
ENDBRANCH  16  19
ENDBRANCH  13  16
ENDBRANCH   1  13
BRANCH   5  31
ATOM     31  C19 POY d   1      21.668 -10.992  21.871  0.00  0.00    -0.008 C 
ATOM     32  H13 POY d   1      21.733 -10.387  22.788  0.00  0.00     0.057 H 
ATOM     33  H14 POY d   1      22.479 -10.706  21.185  0.00  0.00     0.057 H 
ATOM     34  H15 POY d   1      21.763 -12.058  22.127  0.00  0.00     0.057 H 
ENDBRANCH   5  31
BRANCH   7  35
ATOM     35  C20 POY d   1      16.458  -8.184  22.069  0.00  0.00     0.001 C 
ATOM     36  H16 POY d   1      16.175  -8.204  21.006  0.00  0.00     0.065 H 
ATOM     37  H17 POY d   1      16.496  -7.142  22.419  0.00  0.00     0.065 H 
BRANCH  35  38
ATOM     38  C21 POY d   1      15.396  -8.920  22.864  0.00  0.00    -0.053 C 
ATOM     39  H18 POY d   1      15.724  -8.922  23.914  0.00  0.00     0.034 H 
ATOM     40  H19 POY d   1      15.370  -9.953  22.486  0.00  0.00     0.034 H 
BRANCH  38  41
ATOM     41  C22 POY d   1      13.946  -8.397  22.847  0.00  0.00    -0.075 C 
ATOM     42  H20 POY d   1      13.315  -9.046  23.472  0.00  0.00     0.027 H 
ATOM     43  H21 POY d   1      13.567  -8.401  21.814  0.00  0.00     0.027 H 
ATOM     44  H22 POY d   1      13.922  -7.371  23.242  0.00  0.00     0.027 H 
ENDBRANCH  38  41
ENDBRANCH  35  38
ENDBRANCH   7  35
TORSDOF 10
