REMARK  6 active torsions:
REMARK  status: ('A' for Active; 'I' for Inactive)
REMARK    1  A    between atoms: O5'_1  and  C5'_2 
REMARK    2  A    between atoms: C5'_2  and  C4'_3 
REMARK    3  A    between atoms: C3'_5  and  O3'_6 
REMARK    4  A    between atoms: C2'_7  and  O2'_8 
REMARK    5  A    between atoms: C1'_9  and  N9_10 
REMARK    6  A    between atoms: C6_14  and  N6_15 
ROOT
ATOM      1  C4' ADN d   1      42.961   4.515  11.544  0.00  0.00     0.088 C 
ATOM      2  O4' ADN d   1      43.339   4.024  10.244  0.00  0.00    -0.353 OA
ATOM      3  C3' ADN d   1      43.954   3.925  12.549  0.00  0.00     0.091 C 
ATOM      4  C2' ADN d   1      45.189   3.747  11.670  0.00  0.00     0.105 C 
ATOM      5  C1' ADN d   1      44.548   3.255  10.373  0.00  0.00     0.139 C 
ATOM      6  H4  ADN d   1      41.941   4.187  11.791  0.00  0.00     0.090 H 
ATOM      7  H5  ADN d   1      44.142   4.613  13.387  0.00  0.00     0.091 H 
ATOM      8  H7  ADN d   1      45.710   4.704  11.518  0.00  0.00     0.093 H 
ATOM      9  H9  ADN d   1      44.304   2.185  10.449  0.00  0.00     0.122 H 
ENDROOT
BRANCH   5  10
ATOM     10  N9  ADN d   1      45.473   3.453   9.234  0.00  0.00    -0.294 N 
ATOM     11  C8  ADN d   1      45.852   4.628   8.735  0.00  0.00     0.071 A 
ATOM     12  N7  ADN d   1      46.722   4.433   7.745  0.00  0.00    -0.236 NA
ATOM     13  H10 ADN d   1      45.504   5.599   9.083  0.00  0.00     0.144 H 
ATOM     14  C5  ADN d   1      46.899   3.122   7.610  0.00  0.00     0.149 A 
ATOM     15  C6  ADN d   1      47.672   2.330   6.770  0.00  0.00     0.155 A 
ATOM     16  C4  ADN d   1      46.098   2.496   8.555  0.00  0.00     0.167 A 
ATOM     17  N1  ADN d   1      47.614   0.998   6.901  0.00  0.00    -0.222 NA
ATOM     18  C2  ADN d   1      46.836   0.436   7.811  0.00  0.00     0.091 A 
ATOM     19  N3  ADN d   1      46.090   1.158   8.627  0.00  0.00    -0.222 NA
ATOM     20  H13 ADN d   1      46.810  -0.645   7.889  0.00  0.00     0.146 H 
BRANCH  15  21
ATOM     21  N6  ADN d   1      48.464   2.880   5.854  0.00  0.00    -0.382 N 
ATOM     22  H11 ADN d   1      49.032   2.281   5.238  0.00  0.00     0.157 HD
ATOM     23  H12 ADN d   1      48.510   3.905   5.761  0.00  0.00     0.157 HD
ENDBRANCH  15  21
ENDBRANCH   5  10
BRANCH   4  24
ATOM     24  O2' ADN d   1      46.109   2.799  12.217  0.00  0.00    -0.388 OA
ATOM     25  H8  ADN d   1      45.681   1.955  12.300  0.00  0.00     0.210 HD
ENDBRANCH   4  24
BRANCH   1  26
ATOM     26  C5' ADN d   1      43.015   6.044  11.547  0.00  0.00     0.043 C 
ATOM     27  H2  ADN d   1      42.264   6.439  10.847  0.00  0.00     0.078 H 
ATOM     28  H3  ADN d   1      42.804   6.417  12.560  0.00  0.00     0.078 H 
BRANCH  26  29
ATOM     29  O5' ADN d   1      44.317   6.475  11.142  0.00  0.00    -0.398 OA
ATOM     30  H1  ADN d   1      44.498   6.153  10.267  0.00  0.00     0.209 HD
ENDBRANCH  26  29
ENDBRANCH   1  26
BRANCH   3  31
ATOM     31  O3' ADN d   1      43.507   2.662  13.049  0.00  0.00    -0.390 OA
ATOM     32  H6  ADN d   1      43.412   2.052  12.327  0.00  0.00     0.210 HD
ENDBRANCH   3  31
TORSDOF 6
