REMARK  12 active torsions:
REMARK  status: ('A' for Active; 'I' for Inactive)
REMARK    1  A    between atoms: C1_1  and  C21_21 
REMARK    2  A    between atoms: C2_2  and  O22_22 
REMARK    3  A    between atoms: C5_5  and  C19_19 
REMARK    4  A    between atoms: C10_10  and  C17_17 
REMARK    5  A    between atoms: C11_11  and  O16_16 
REMARK    6  A    between atoms: C13_13  and  O15_15 
REMARK    7  A    between atoms: O16_16  and  C25_25 
REMARK       I    between atoms: C17_17  and  N18_18 
REMARK    8  A    between atoms: N18_18  and  C26_26 
REMARK    9  A    between atoms: C21_21  and  C23_23 
REMARK   10  A    between atoms: C26_26  and  C27_27 
REMARK   11  A    between atoms: C28_28  and  C37_37 
REMARK   12  A    between atoms: C37_37  and  C38_38 
ROOT
ATOM      1  C1  KRC d   1      15.774  50.830  64.617  0.00  0.00     0.090 C 
ATOM      2  C2  KRC d   1      16.163  51.372  63.467  0.00  0.00     0.085 C 
ATOM      3  C3  KRC d   1      15.989  50.636  62.193  0.00  0.00    -0.020 C 
ATOM      4  C4  KRC d   1      15.207  49.554  62.139  0.00  0.00     0.077 C 
ATOM      5  C5  KRC d   1      14.978  48.711  63.399  0.00  0.00     0.103 C 
ATOM      6  C6  KRC d   1      14.881  49.645  64.616  0.00  0.00     0.185 C 
ATOM      7  O7  KRC d   1      14.469  48.924  61.222  0.00  0.00    -0.312 OA
ATOM      8  C8  KRC d   1      13.455  48.158  61.736  0.00  0.00     0.104 A 
ATOM      9  C9  KRC d   1      13.681  47.970  63.116  0.00  0.00     0.033 A 
ATOM     10  C10 KRC d   1      12.341  47.592  61.133  0.00  0.00     0.099 A 
ATOM     11  C11 KRC d   1      11.442  46.846  61.893  0.00  0.00     0.089 A 
ATOM     12  C12 KRC d   1      11.663  46.665  63.253  0.00  0.00    -0.017 A 
ATOM     13  C13 KRC d   1      12.774  47.223  63.864  0.00  0.00     0.079 A 
ATOM     14  O14 KRC d   1      14.155  49.408  65.578  0.00  0.00    -0.290 OA
ATOM     15  H1  KRC d   1      16.502  50.979  61.295  0.00  0.00     0.091 H 
ATOM     16  H2  KRC d   1      10.961  46.083  63.840  0.00  0.00     0.092 H 
ENDROOT
BRANCH  10  17
ATOM     17  C17 KRC d   1      12.104  47.779  59.694  0.00  0.00     0.257 C 
ATOM     18  N18 KRC d   1      10.836  47.920  59.271  0.00  0.00    -0.352 N 
ATOM     19  H4  KRC d   1      10.085  47.907  59.931  0.00  0.00     0.163 HD
ATOM     20  O20 KRC d   1      13.045  47.790  58.909  0.00  0.00    -0.267 OA
BRANCH  18  21
ATOM     21  C26 KRC d   1      10.555  48.091  57.854  0.00  0.00     0.021 C 
ATOM     22  H15 KRC d   1      10.733  47.142  57.328  0.00  0.00     0.071 H 
ATOM     23  H16 KRC d   1      11.214  48.868  57.441  0.00  0.00     0.071 H 
BRANCH  21  24
ATOM     24  C27 KRC d   1       9.119  48.503  57.671  0.00  0.00    -0.023 A 
ATOM     25  C28 KRC d   1       8.789  49.826  57.335  0.00  0.00    -0.050 A 
ATOM     26  C29 KRC d   1       7.449  50.198  57.172  0.00  0.00    -0.075 A 
ATOM     27  C30 KRC d   1       6.431  49.254  57.342  0.00  0.00    -0.072 A 
ATOM     28  H17 KRC d   1       7.200  51.221  56.913  0.00  0.00     0.084 H 
ATOM     29  C31 KRC d   1       6.749  47.953  57.672  0.00  0.00    -0.025 A 
ATOM     30  H18 KRC d   1       5.394  49.544  57.215  0.00  0.00     0.084 H 
ATOM     31  C32 KRC d   1       8.092  47.569  57.838  0.00  0.00    -0.018 A 
ATOM     32  C33 KRC d   1       5.731  47.034  57.837  0.00  0.00    -0.072 A 
ATOM     33  C36 KRC d   1       8.397  46.255  58.169  0.00  0.00    -0.072 A 
ATOM     34  C35 KRC d   1       7.367  45.319  58.337  0.00  0.00    -0.082 A 
ATOM     35  H22 KRC d   1       9.430  45.954  58.297  0.00  0.00     0.084 H 
ATOM     36  C34 KRC d   1       6.034  45.708  58.171  0.00  0.00    -0.082 A 
ATOM     37  H21 KRC d   1       7.604  44.293  58.596  0.00  0.00     0.083 H 
ATOM     38  H20 KRC d   1       5.237  44.985  58.301  0.00  0.00     0.083 H 
ATOM     39  H19 KRC d   1       4.699  47.339  57.708  0.00  0.00     0.084 H 
BRANCH  25  40
ATOM     40  C37 KRC d   1       9.875  50.847  57.150  0.00  0.00    -0.044 C 
ATOM     41  H23 KRC d   1      10.706  50.612  57.831  0.00  0.00     0.039 H 
ATOM     42  H24 KRC d   1       9.474  51.842  57.391  0.00  0.00     0.039 H 
BRANCH  40  43
ATOM     43  C38 KRC d   1      10.399  50.858  55.713  0.00  0.00    -0.073 C 
ATOM     44  H25 KRC d   1      11.190  51.616  55.617  0.00  0.00     0.028 H 
ATOM     45  H26 KRC d   1       9.576  51.099  55.024  0.00  0.00     0.028 H 
ATOM     46  H27 KRC d   1      10.808  49.868  55.464  0.00  0.00     0.028 H 
ENDBRANCH  40  43
ENDBRANCH  25  40
ENDBRANCH  21  24
ENDBRANCH  18  21
ENDBRANCH  10  17
BRANCH  11  47
ATOM     47  O16 KRC d   1      10.334  46.280  61.297  0.00  0.00    -0.355 OA
BRANCH  47  48
ATOM     48  C25 KRC d   1       9.182  45.733  61.897  0.00  0.00     0.010 C 
ATOM     49  H12 KRC d   1       8.499  45.370  61.115  0.00  0.00     0.066 H 
ATOM     50  H13 KRC d   1       8.677  46.506  62.495  0.00  0.00     0.066 H 
ATOM     51  H14 KRC d   1       9.471  44.896  62.549  0.00  0.00     0.066 H 
ENDBRANCH  47  48
ENDBRANCH  11  47
BRANCH   5  52
ATOM     52  C19 KRC d   1      16.141  47.740  63.590  0.00  0.00    -0.052 C 
ATOM     53  H5  KRC d   1      17.062  48.306  63.792  0.00  0.00     0.030 H 
ATOM     54  H6  KRC d   1      16.272  47.141  62.677  0.00  0.00     0.030 H 
ATOM     55  H7  KRC d   1      15.927  47.073  64.438  0.00  0.00     0.030 H 
ENDBRANCH   5  52
BRANCH  13  56
ATOM     56  O15 KRC d   1      12.980  47.032  65.213  0.00  0.00    -0.360 OA
ATOM     57  H3  KRC d   1      13.778  47.475  65.476  0.00  0.00     0.217 HD
ENDBRANCH  13  56
BRANCH   2  58
ATOM     58  O22 KRC d   1      16.740  52.598  63.456  0.00  0.00    -0.360 OA
ATOM     59  H8  KRC d   1      17.619  52.530  63.103  0.00  0.00     0.217 HD
ENDBRANCH   2  58
BRANCH   1  60
ATOM     60  C21 KRC d   1      16.249  51.383  65.901  0.00  0.00     0.162 C 
ATOM     61  O24 KRC d   1      15.443  51.739  66.748  0.00  0.00    -0.293 OA
BRANCH  60  62
ATOM     62  C23 KRC d   1      17.751  51.509  66.172  0.00  0.00    -0.016 C 
ATOM     63  H9  KRC d   1      17.908  51.938  67.172  0.00  0.00     0.038 H 
ATOM     64  H10 KRC d   1      18.206  52.165  65.416  0.00  0.00     0.038 H 
ATOM     65  H11 KRC d   1      18.217  50.514  66.123  0.00  0.00     0.038 H 
ENDBRANCH  60  62
ENDBRANCH   1  60
TORSDOF 12
