REMARK  5 active torsions:
REMARK  status: ('A' for Active; 'I' for Inactive)
REMARK    1  A    between atoms: C1_1  and  C2_2 
REMARK    2  A    between atoms: C2_2  and  S3_3 
REMARK    3  A    between atoms: S3_3  and  C4_4 
REMARK    4  A    between atoms: C7_7  and  C8_8 
REMARK    5  A    between atoms: C10_10  and  N11_11 
ROOT
ATOM      1  C4  B2J d   1      33.220  34.618  50.937  0.00  0.00     0.208 A 
ATOM      2  N5  B2J d   1      34.216  34.119  50.204  0.00  0.00    -0.036 NA
ATOM      3  N6  B2J d   1      31.944  34.523  50.514  0.00  0.00    -0.207 NA
ATOM      4  C7  B2J d   1      31.674  33.927  49.343  0.00  0.00     0.144 A 
ATOM      5  N9  B2J d   1      32.689  33.432  48.599  0.00  0.00    -0.048 NA
ATOM      6  C10 B2J d   1      33.965  33.569  49.014  0.00  0.00     0.724 A 
ENDROOT
BRANCH   1   7
ATOM      7  S3  B2J d   1      33.645  35.363  52.447  0.00  0.00    -0.090 SA
BRANCH   7   8
ATOM      8  C2  B2J d   1      32.497  36.792  52.512  0.00  0.00    -0.019 C 
ATOM      9  H4  B2J d   1      31.532  36.516  52.061  0.00  0.00     0.049 H 
ATOM     10  H5  B2J d   1      32.339  37.096  53.557  0.00  0.00     0.049 H 
BRANCH   8  11
ATOM     11  C1  B2J d   1      33.127  37.948  51.724  0.00  0.00    -0.068 C 
ATOM     12  H1  B2J d   1      32.455  38.818  51.749  0.00  0.00     0.028 H 
ATOM     13  H2  B2J d   1      33.285  37.637  50.681  0.00  0.00     0.028 H 
ATOM     14  H3  B2J d   1      34.092  38.217  52.177  0.00  0.00     0.028 H 
ENDBRANCH   8  11
ENDBRANCH   7   8
ENDBRANCH   1   7
BRANCH   6  15
ATOM     15  N11 B2J d   1      34.991  33.187  48.273  0.00  0.00    -0.231 N 
ATOM     16  H9  B2J d   1      35.952  33.307  48.623  0.00  0.00     0.174 HD
ATOM     17  H10 B2J d   1      34.829  32.769  47.346  0.00  0.00     0.174 HD
ENDBRANCH   6  15
BRANCH   4  18
ATOM     18  C8  B2J d   1      30.203  33.793  48.877  0.00  0.00    -0.019 C 
ATOM     19  H6  B2J d   1      29.539  34.258  49.620  0.00  0.00     0.037 H 
ATOM     20  H7  B2J d   1      29.947  32.728  48.772  0.00  0.00     0.037 H 
ATOM     21  H8  B2J d   1      30.078  34.297  47.907  0.00  0.00     0.037 H 
ENDBRANCH   4  18
TORSDOF 5
