REMARK  5 active torsions:
REMARK  status: ('A' for Active; 'I' for Inactive)
REMARK    1  A    between atoms: C3_3  and  C4_4 
REMARK    2  A    between atoms: C7_7  and  S8_8 
REMARK    3  A    between atoms: S8_8  and  C11_11 
REMARK    4  A    between atoms: C14_14  and  C15_15 
REMARK    5  A    between atoms: C17_17  and  N18_18 
ROOT
ATOM      1  S8  B2K d   1      64.012  10.784  25.182  0.00  0.00     0.224 S 
ATOM      2  O9  B2K d   1      63.154   9.679  24.638  0.00  0.00    -0.216 OA
ATOM      3  O10 B2K d   1      64.095  10.718  26.678  0.00  0.00    -0.216 OA
ENDROOT
BRANCH   1   4
ATOM      4  C7  B2K d   1      63.284  12.325  24.712  0.00  0.00     0.065 A 
ATOM      5  C1  B2K d   1      63.769  13.502  25.269  0.00  0.00    -0.061 A 
ATOM      6  C2  B2K d   1      63.195  14.720  24.900  0.00  0.00    -0.076 A 
ATOM      7  H1  B2K d   1      64.585  13.475  25.983  0.00  0.00     0.085 H 
ATOM      8  C3  B2K d   1      62.155  14.763  23.957  0.00  0.00    -0.062 A 
ATOM      9  H2  B2K d   1      63.555  15.640  25.345  0.00  0.00     0.084 H 
ATOM     10  C5  B2K d   1      61.672  13.583  23.385  0.00  0.00    -0.076 A 
ATOM     11  C6  B2K d   1      62.219  12.360  23.802  0.00  0.00    -0.061 A 
ATOM     12  H6  B2K d   1      60.891  13.612  22.634  0.00  0.00     0.084 H 
ATOM     13  H7  B2K d   1      61.813  11.432  23.416  0.00  0.00     0.085 H 
BRANCH   8  14
ATOM     14  C4  B2K d   1      61.571  16.112  23.543  0.00  0.00    -0.051 C 
ATOM     15  H3  B2K d   1      60.773  15.954  22.803  0.00  0.00     0.033 H 
ATOM     16  H4  B2K d   1      62.363  16.735  23.101  0.00  0.00     0.033 H 
ATOM     17  H5  B2K d   1      61.156  16.619  24.427  0.00  0.00     0.033 H 
ENDBRANCH   8  14
ENDBRANCH   1   4
BRANCH   1  18
ATOM     18  C11 B2K d   1      65.653  10.728  24.523  0.00  0.00     0.177 A 
ATOM     19  N12 B2K d   1      66.682  11.261  25.227  0.00  0.00    -0.051 NA
ATOM     20  C17 B2K d   1      67.948  11.217  24.723  0.00  0.00     0.721 A 
ATOM     21  N16 B2K d   1      68.191  10.714  23.491  0.00  0.00    -0.068 NA
ATOM     22  C14 B2K d   1      67.186  10.163  22.769  0.00  0.00     0.052 A 
ATOM     23  C13 B2K d   1      65.878  10.200  23.247  0.00  0.00    -0.019 A 
ATOM     24  H8  B2K d   1      65.056   9.829  22.646  0.00  0.00     0.091 H 
BRANCH  20  25
ATOM     25  N18 B2K d   1      68.974  11.666  25.419  0.00  0.00    -0.231 N 
ATOM     26  H12 B2K d   1      68.826  12.056  26.361  0.00  0.00     0.174 HD
ATOM     27  H13 B2K d   1      69.923  11.627  25.021  0.00  0.00     0.174 HD
ENDBRANCH  20  25
BRANCH  22  28
ATOM     28  C15 B2K d   1      67.474   9.568  21.381  0.00  0.00    -0.035 C 
ATOM     29  H9  B2K d   1      68.553   9.624  21.175  0.00  0.00     0.035 H 
ATOM     30  H10 B2K d   1      66.925  10.138  20.617  0.00  0.00     0.035 H 
ATOM     31  H11 B2K d   1      67.150   8.517  21.358  0.00  0.00     0.035 H 
ENDBRANCH  22  28
ENDBRANCH   1  18
TORSDOF 5
