REMARK  3 active torsions:
REMARK  status: ('A' for Active; 'I' for Inactive)
REMARK    1  A    between atoms: C13_13  and  C14_14 
REMARK    2  A    between atoms: C17_17  and  C18_18 
REMARK    3  A    between atoms: C20_20  and  N21_21 
ROOT
ATOM      1  C1  B2L d   1      -3.148  11.309   1.513  0.00  0.00     0.044 C 
ATOM      2  O2  B2L d   1      -3.900  10.197   2.089  0.00  0.00    -0.382 OA
ATOM      3  C3  B2L d   1      -3.749   9.013   1.229  0.00  0.00     0.044 C 
ATOM      4  C4  B2L d   1      -2.447   8.698   0.792  0.00  0.00    -0.023 A 
ATOM      5  C5  B2L d   1      -2.116   7.382   0.449  0.00  0.00    -0.074 A 
ATOM      6  C6  B2L d   1      -0.821   7.085   0.011  0.00  0.00    -0.082 A 
ATOM      7  C7  B2L d   1       0.157   8.086  -0.023  0.00  0.00    -0.071 A 
ATOM      8  C8  B2L d   1      -0.145   9.419   0.338  0.00  0.00    -0.012 A 
ATOM      9  C9  B2L d   1      -1.470   9.720   0.742  0.00  0.00    -0.008 A 
ATOM     10  C10 B2L d   1      -1.830  11.048   1.070  0.00  0.00    -0.023 A 
ATOM     11  C11 B2L d   1      -0.866  12.068   1.044  0.00  0.00    -0.073 A 
ATOM     12  C12 B2L d   1       0.433  11.772   0.613  0.00  0.00    -0.069 A 
ATOM     13  C13 B2L d   1       0.817  10.461   0.273  0.00  0.00     0.004 A 
ATOM     14  H1  B2L d   1      -3.088  12.097   2.278  0.00  0.00     0.081 H 
ATOM     15  H2  B2L d   1      -3.719  11.680   0.649  0.00  0.00     0.081 H 
ATOM     16  H3  B2L d   1      -4.369   9.172   0.335  0.00  0.00     0.081 H 
ATOM     17  H4  B2L d   1      -4.129   8.146   1.789  0.00  0.00     0.081 H 
ATOM     18  H5  B2L d   1      -2.860   6.597   0.522  0.00  0.00     0.084 H 
ATOM     19  H6  B2L d   1      -0.574   6.077  -0.303  0.00  0.00     0.083 H 
ATOM     20  H7  B2L d   1       1.165   7.834  -0.332  0.00  0.00     0.084 H 
ATOM     21  H8  B2L d   1      -1.124  13.074   1.354  0.00  0.00     0.084 H 
ATOM     22  H9  B2L d   1       1.161  12.572   0.539  0.00  0.00     0.085 H 
ENDROOT
BRANCH  13  23
ATOM     23  C14 B2L d   1       2.139  10.286  -0.167  0.00  0.00     0.089 A 
ATOM     24  N15 B2L d   1       3.158  10.777   0.579  0.00  0.00    -0.063 NA
ATOM     25  C20 B2L d   1       4.439  10.712   0.160  0.00  0.00     0.721 A 
ATOM     26  N19 B2L d   1       4.740  10.154  -1.028  0.00  0.00    -0.068 NA
ATOM     27  C17 B2L d   1       3.766   9.693  -1.847  0.00  0.00     0.052 A 
ATOM     28  C16 B2L d   1       2.430   9.769  -1.444  0.00  0.00    -0.030 A 
ATOM     29  H10 B2L d   1       1.634   9.437  -2.101  0.00  0.00     0.090 H 
BRANCH  25  30
ATOM     30  N21 B2L d   1       5.418  11.168   0.938  0.00  0.00    -0.231 N 
ATOM     31  H14 B2L d   1       5.196  11.596   1.848  0.00  0.00     0.174 HD
ATOM     32  H15 B2L d   1       6.398  11.093   0.630  0.00  0.00     0.174 HD
ENDBRANCH  25  30
BRANCH  27  33
ATOM     33  C18 B2L d   1       4.141   9.049  -3.198  0.00  0.00    -0.035 C 
ATOM     34  H11 B2L d   1       5.232   9.085  -3.331  0.00  0.00     0.035 H 
ATOM     35  H12 B2L d   1       3.653   9.601  -4.015  0.00  0.00     0.035 H 
ATOM     36  H13 B2L d   1       3.805   8.002  -3.211  0.00  0.00     0.035 H 
ENDBRANCH  27  33
ENDBRANCH  13  23
TORSDOF 3
