REMARK  4 active torsions:
REMARK  status: ('A' for Active; 'I' for Inactive)
REMARK    1  A    between atoms: C1_1  and  S2_2 
REMARK    2  A    between atoms: S2_2  and  C3_3 
REMARK    3  A    between atoms: C6_6  and  N7_7 
REMARK    4  A    between atoms: C11_9  and  C12_10 
ROOT
ATOM      1  C3  B2T d   1      10.862   4.517  12.622  0.00  0.00     0.208 A 
ATOM      2  N4  B2T d   1      11.052   3.259  13.055  0.00  0.00    -0.201 NA
ATOM      3  N5  B2T d   1       9.657   5.071  12.541  0.00  0.00    -0.036 NA
ATOM      4  C6  B2T d   1       8.588   4.396  12.996  0.00  0.00     0.724 A 
ATOM      5  N10 B2T d   1       8.751   3.124  13.425  0.00  0.00    -0.042 NA
ATOM      6  C11 B2T d   1       9.971   2.557  13.465  0.00  0.00     0.183 A 
ENDROOT
BRANCH   6   7
ATOM      7  C12 B2T d   1      10.089   1.236  13.926  0.00  0.00     0.034 A 
ATOM      8  C13 B2T d   1      10.934   0.976  15.005  0.00  0.00    -0.068 A 
ATOM      9  C14 B2T d   1      11.063  -0.351  15.458  0.00  0.00    -0.082 A 
ATOM     10  H6  B2T d   1      11.480   1.780  15.485  0.00  0.00     0.085 H 
ATOM     11  C15 B2T d   1      10.347  -1.375  14.820  0.00  0.00    -0.081 A 
ATOM     12  H7  B2T d   1      11.712  -0.580  16.295  0.00  0.00     0.083 H 
ATOM     13  C16 B2T d   1       9.513  -1.126  13.738  0.00  0.00    -0.061 A 
ATOM     14  H8  B2T d   1      10.448  -2.392  15.183  0.00  0.00     0.083 H 
ATOM     15  C17 B2T d   1       9.378   0.196  13.290  0.00  0.00     0.048 A 
ATOM     16  H9  B2T d   1       8.979  -1.934  13.251  0.00  0.00     0.086 H 
ATOM     17 CL18 B2T d   1       8.384   0.452  11.891  0.00  0.00    -0.083 Cl
ENDBRANCH   6   7
BRANCH   1  18
ATOM     18  S2  B2T d   1      12.183   5.452  11.977  0.00  0.00    -0.094 SA
BRANCH  18  19
ATOM     19  C1  B2T d   1      13.639   4.669  12.691  0.00  0.00    -0.027 C 
ATOM     20  H1  B2T d   1      14.543   5.190  12.343  0.00  0.00     0.042 H 
ATOM     21  H2  B2T d   1      13.680   3.615  12.378  0.00  0.00     0.042 H 
ATOM     22  H3  B2T d   1      13.584   4.723  13.788  0.00  0.00     0.042 H 
ENDBRANCH  18  19
ENDBRANCH   1  18
BRANCH   4  23
ATOM     23  N7  B2T d   1       7.381   4.918  12.925  0.00  0.00    -0.231 N 
ATOM     24  H4  B2T d   1       7.257   5.887  12.598  0.00  0.00     0.174 HD
ATOM     25  H5  B2T d   1       6.561   4.357  13.196  0.00  0.00     0.174 HD
ENDBRANCH   4  23
TORSDOF 4
