REMARK  10 active torsions:
REMARK  status: ('A' for Active; 'I' for Inactive)
REMARK    1  A    between atoms: O3B_8  and  PG_1 
REMARK    2  A    between atoms: PB_5  and  O3B_8 
REMARK    3  A    between atoms: O3A_12  and  PB_5 
REMARK    4  A    between atoms: PA_9  and  O3A_12 
REMARK    5  A    between atoms: PA_9  and  O5'_13 
REMARK    6  A    between atoms: O5'_13  and  C5'_14 
REMARK    7  A    between atoms: C5'_14  and  C4'_15 
REMARK    8  A    between atoms: C3'_17  and  O3'_18 
REMARK    9  A    between atoms: C2'_19  and  O2'_20 
REMARK   10  A    between atoms: C1'_21  and  N9_22 
ROOT
ATOM      1  C4' ATP d   1     -25.081 -10.015  21.692  0.00  0.00     0.089 A 
ATOM      2  O4' ATP d   1     -26.182  -9.541  22.474  0.00  0.00    -0.353 OA
ATOM      3  C3' ATP d   1     -23.844  -9.230  22.106  0.00  0.00     0.091 A 
ATOM      4  C2' ATP d   1     -24.297  -8.258  23.180  0.00  0.00     0.105 A 
ATOM      5  C1' ATP d   1     -25.789  -8.496  23.368  0.00  0.00     0.139 A 
ATOM      6  H3  ATP d   1     -25.282  -9.847  20.624  0.00  0.00     0.090 H 
ATOM      7  H4  ATP d   1     -23.067  -9.904  22.494  0.00  0.00     0.091 H 
ATOM      8  H6  ATP d   1     -23.753  -8.434  24.120  0.00  0.00     0.093 H 
ATOM      9  H8  ATP d   1     -26.350  -7.576  23.145  0.00  0.00     0.122 H 
ENDROOT
BRANCH   1  10
ATOM     10  C5' ATP d   1     -24.889 -11.507  21.937  0.00  0.00     0.058 C 
ATOM     11  H1  ATP d   1     -23.836 -11.774  21.767  0.00  0.00     0.079 H 
ATOM     12  H2  ATP d   1     -25.165 -11.747  22.974  0.00  0.00     0.079 H 
BRANCH  10  13
ATOM     13  O5' ATP d   1     -25.718 -12.246  21.041  0.00  0.00    -0.287 OA
BRANCH  13  14
ATOM     14  PA  ATP d   1     -25.100 -12.896  19.704  0.00  0.00     0.417 P 
ATOM     15  O1A ATP d   1     -25.794 -12.278  18.514  0.00  0.00    -0.624 OA
ATOM     16  O2A ATP d   1     -23.594 -12.847  19.807  0.00  0.00    -0.624 OA
BRANCH  14  17
ATOM     17  O3A ATP d   1     -25.563 -14.434  19.814  0.00  0.00    -0.180 OA
BRANCH  17  18
ATOM     18  PB  ATP d   1     -24.662 -15.606  19.177  0.00  0.00     0.428 P 
ATOM     19  O1B ATP d   1     -23.632 -16.020  20.201  0.00  0.00    -0.624 OA
ATOM     20  O2B ATP d   1     -24.222 -15.169  17.801  0.00  0.00    -0.624 OA
BRANCH  18  21
ATOM     21  O3B ATP d   1     -25.717 -16.810  19.010  0.00  0.00    -0.173 OA
BRANCH  21  22
ATOM     22  PG  ATP d   1     -25.333 -18.121  18.158  0.00  0.00     0.431 P 
ATOM     23  O1G ATP d   1     -23.965 -17.806  17.603  0.00  0.00    -0.616 OA
ATOM     24  O2G ATP d   1     -26.423 -18.212  17.117  0.00  0.00    -0.616 OA
ATOM     25  O3G ATP d   1     -25.351 -19.235  19.178  0.00  0.00    -0.616 OA
ENDBRANCH  21  22
ENDBRANCH  18  21
ENDBRANCH  17  18
ENDBRANCH  14  17
ENDBRANCH  13  14
ENDBRANCH  10  13
ENDBRANCH   1  10
BRANCH   3  26
ATOM     26  O3' ATP d   1     -23.344  -8.500  20.980  0.00  0.00    -0.390 OA
ATOM     27  H5  ATP d   1     -24.012  -7.900  20.671  0.00  0.00     0.210 HD
ENDBRANCH   3  26
BRANCH   5  28
ATOM     28  N9  ATP d   1     -26.051  -8.917  24.768  0.00  0.00    -0.294 N 
ATOM     29  C8  ATP d   1     -25.452  -8.416  25.865  0.00  0.00     0.071 A 
ATOM     30  N7  ATP d   1     -25.914  -9.015  26.992  0.00  0.00    -0.236 NA
ATOM     31  H9  ATP d   1     -24.696  -7.633  25.850  0.00  0.00     0.144 H 
ATOM     32  C5  ATP d   1     -26.833  -9.924  26.619  0.00  0.00     0.149 A 
ATOM     33  C6  ATP d   1     -27.709 -10.903  27.306  0.00  0.00     0.155 A 
ATOM     34  C4  ATP d   1     -26.919  -9.856  25.152  0.00  0.00     0.167 A 
ATOM     35  N6  ATP d   1     -27.693 -11.031  28.655  0.00  0.00    -0.382 N 
ATOM     36  N1  ATP d   1     -28.524 -11.663  26.541  0.00  0.00    -0.222 NA
ATOM     37  H10 ATP d   1     -28.309 -11.717  29.115  0.00  0.00     0.157 HD
ATOM     38  H11 ATP d   1     -27.065 -10.443  29.221  0.00  0.00     0.157 HD
ATOM     39  C2  ATP d   1     -28.549 -11.545  25.201  0.00  0.00     0.091 A 
ATOM     40  N3  ATP d   1     -27.783 -10.680  24.512  0.00  0.00    -0.222 NA
ATOM     41  H12 ATP d   1     -29.225 -12.184  24.645  0.00  0.00     0.146 H 
ENDBRANCH   5  28
BRANCH   4  42
ATOM     42  O2' ATP d   1     -24.081  -6.915  22.730  0.00  0.00    -0.388 OA
ATOM     43  H7  ATP d   1     -24.579  -6.764  21.935  0.00  0.00     0.210 HD
ENDBRANCH   4  42
TORSDOF 10
