REMARK  6 active torsions:
REMARK  status: ('A' for Active; 'I' for Inactive)
REMARK    1  A    between atoms: C1_1  and  C2_2 
REMARK    2  A    between atoms: C2_2  and  C3_3 
REMARK    3  A    between atoms: C3_3  and  C4_4 
REMARK    4  A    between atoms: C3_3  and  C9_7 
REMARK    5  A    between atoms: C3_3  and  NZ_11 
REMARK    6  A    between atoms: C4_4  and  C5_5 
ROOT
ATOM      1  C3  A33 d   1      50.020  47.104 -17.603  0.00  0.00     0.229 C 
ENDROOT
BRANCH   1   2
ATOM      2  C2  A33 d   1      50.788  46.073 -18.472  0.00  0.00     0.057 C 
ATOM      3  H1  A33 d   1      50.214  45.135 -18.465  0.00  0.00     0.053 H 
ATOM      4  H2  A33 d   1      50.834  46.467 -19.498  0.00  0.00     0.053 H 
BRANCH   2   5
ATOM      5  C1  A33 d   1      52.226  45.747 -18.030  0.00  0.00     0.175 C 
ATOM      6  O12 A33 d   1      52.463  45.409 -16.827  0.00  0.00    -0.648 OA
ATOM      7  O11 A33 d   1      53.163  45.818 -18.885  0.00  0.00    -0.648 OA
ENDBRANCH   2   5
ENDBRANCH   1   2
BRANCH   1   8
ATOM      8  C4  A33 d   1      50.653  48.498 -17.564  0.00  0.00     0.057 C 
ATOM      9  H3  A33 d   1      51.584  48.460 -18.148  0.00  0.00     0.053 H 
ATOM     10  H4  A33 d   1      50.887  48.731 -16.515  0.00  0.00     0.053 H 
BRANCH   8  11
ATOM     11  C5  A33 d   1      49.793  49.653 -18.123  0.00  0.00     0.175 C 
ATOM     12  O51 A33 d   1      49.540  49.698 -19.348  0.00  0.00    -0.648 OA
ATOM     13  O52 A33 d   1      49.373  50.580 -17.386  0.00  0.00    -0.648 OA
ENDBRANCH   8  11
ENDBRANCH   1   8
BRANCH   1  14
ATOM     14  C9  A33 d   1      49.922  46.395 -16.288  0.00  0.00     0.211 C 
ATOM     15  O92 A33 d   1      49.988  46.975 -15.181  0.00  0.00    -0.646 OA
ATOM     16  O91 A33 d   1      49.779  45.172 -16.410  0.00  0.00    -0.646 OA
ENDBRANCH   1  14
BRANCH   1  17
ATOM     17  NZ  A33 d   1      48.651  47.315 -18.041  0.00  0.00    -0.059 N 
ATOM     18  H5  A33 d   1      48.173  46.429 -18.089  0.00  0.00     0.275 HD
ATOM     19  H6  A33 d   1      48.652  47.745 -18.953  0.00  0.00     0.275 HD
ATOM     20  H7  A33 d   1      48.178  47.917 -17.386  0.00  0.00     0.275 HD
ENDBRANCH   1  17
TORSDOF 6
