REMARK  3 active torsions:
REMARK  status: ('A' for Active; 'I' for Inactive)
REMARK    1  A    between atoms: CAP_6  and  NAL_7 
REMARK    2  A    between atoms: NAL_7  and  CAN_8 
REMARK    3  A    between atoms: CAO_13  and  CAM_14 
ROOT
ATOM      1  CAJ 3B4 d   1      41.784   0.065  92.867  0.00  0.00    -0.046 C 
ATOM      2  CAH 3B4 d   1      42.250  -1.375  92.786  0.00  0.00    -0.063 C 
ATOM      3  CAG 3B4 d   1      41.100  -2.278  92.279  0.00  0.00    -0.065 C 
ATOM      4  CAI 3B4 d   1      40.500  -1.831  91.018  0.00  0.00    -0.063 C 
ATOM      5  CAK 3B4 d   1      40.217  -0.318  91.004  0.00  0.00    -0.046 C 
ATOM      6  CAP 3B4 d   1      41.420   0.553  91.572  0.00  0.00     0.009 C 
ATOM      7  H1  3B4 d   1      42.597   0.685  93.271  0.00  0.00     0.035 H 
ATOM      8  H2  3B4 d   1      40.911   0.125  93.534  0.00  0.00     0.035 H 
ATOM      9  H3  3B4 d   1      42.564  -1.712  93.785  0.00  0.00     0.033 H 
ATOM     10  H4  3B4 d   1      43.100  -1.444  92.091  0.00  0.00     0.033 H 
ATOM     11  H5  3B4 d   1      40.313  -2.300  93.047  0.00  0.00     0.033 H 
ATOM     12  H6  3B4 d   1      41.497  -3.293  92.132  0.00  0.00     0.033 H 
ATOM     13  H7  3B4 d   1      39.552  -2.369  90.868  0.00  0.00     0.033 H 
ATOM     14  H8  3B4 d   1      41.190  -2.068  90.195  0.00  0.00     0.033 H 
ATOM     15  H9  3B4 d   1      39.325  -0.124  91.618  0.00  0.00     0.035 H 
ATOM     16  H10 3B4 d   1      40.022  -0.009  89.966  0.00  0.00     0.035 H 
ATOM     17  H11 3B4 d   1      42.288   0.521  90.898  0.00  0.00     0.072 H 
ENDROOT
BRANCH   6  18
ATOM     18  NAL 3B4 d   1      40.863   1.965  91.676  0.00  0.00    -0.384 N 
ATOM     19  H12 3B4 d   1      39.981   2.212  91.205  0.00  0.00     0.160 HD
BRANCH  18  20
ATOM     20  CAN 3B4 d   1      41.555   2.920  92.413  0.00  0.00     0.045 A 
ATOM     21  CAE 3B4 d   1      42.864   3.170  92.024  0.00  0.00    -0.056 A 
ATOM     22  CAC 3B4 d   1      43.589   4.118  92.680  0.00  0.00    -0.081 A 
ATOM     23  H13 3B4 d   1      43.306   2.615  91.204  0.00  0.00     0.086 H 
ATOM     24  CAD 3B4 d   1      43.042   4.816  93.729  0.00  0.00    -0.082 A 
ATOM     25  H14 3B4 d   1      44.608   4.324  92.371  0.00  0.00     0.083 H 
ATOM     26  CAF 3B4 d   1      41.720   4.610  94.117  0.00  0.00    -0.064 A 
ATOM     27  H15 3B4 d   1      43.648   5.538  94.263  0.00  0.00     0.083 H 
ATOM     28  CAO 3B4 d   1      40.956   3.627  93.468  0.00  0.00     0.067 A 
ATOM     29  H16 3B4 d   1      41.285   5.204  94.913  0.00  0.00     0.085 H 
BRANCH  28  30
ATOM     30  CAM 3B4 d   1      39.521   3.371  93.869  0.00  0.00     0.211 C 
ATOM     31  OAB 3B4 d   1      39.153   3.862  94.927  0.00  0.00    -0.644 OA
ATOM     32  OAA 3B4 d   1      38.787   2.753  93.123  0.00  0.00    -0.644 OA
ENDBRANCH  28  30
ENDBRANCH  18  20
ENDBRANCH   6  18
TORSDOF 3
