REMARK  11 active torsions:
REMARK  status: ('A' for Active; 'I' for Inactive)
REMARK    1  A    between atoms: C2_2  and  C1_1 
REMARK    2  A    between atoms: C2_2  and  O2_15 
REMARK    3  A    between atoms: C4_4  and  O4_16 
REMARK    4  A    between atoms: N5_12  and  C5_5 
REMARK    5  A    between atoms: C6_6  and  C7_7 
REMARK    6  A    between atoms: C7_7  and  C8_8 
REMARK    7  A    between atoms: C7_7  and  O7_18 
REMARK    8  A    between atoms: C8_8  and  C9_9 
REMARK    9  A    between atoms: C8_8  and  O8_19 
REMARK   10  A    between atoms: C9_9  and  O9_20 
REMARK   11  A    between atoms: C10_10  and  C11_11 
REMARK       I    between atoms: C10_10  and  N5_12 
ROOT
ATOM      1  C2  SLB d   1       9.052  -9.239 -11.904  0.00  0.00     0.256 C 
ATOM      2  C3  SLB d   1      10.180  -8.740 -11.009  0.00  0.00     0.023 C 
ATOM      3  C4  SLB d   1      11.359  -8.278 -11.859  0.00  0.00     0.063 C 
ATOM      4  C5  SLB d   1      10.824  -7.197 -12.811  0.00  0.00     0.064 C 
ATOM      5  C6  SLB d   1       9.725  -7.803 -13.696  0.00  0.00     0.091 C 
ATOM      6  O6  SLB d   1       8.692  -8.259 -12.842  0.00  0.00    -0.336 OA
ATOM      7  H1  SLB d   1      10.507  -9.555 -10.347  0.00  0.00     0.045 H 
ATOM      8  H2  SLB d   1       9.817  -7.897 -10.402  0.00  0.00     0.045 H 
ATOM      9  H3  SLB d   1      11.758  -9.116 -12.450  0.00  0.00     0.086 H 
ATOM     10  H4  SLB d   1      10.414  -6.358 -12.230  0.00  0.00     0.080 H 
ATOM     11  H5  SLB d   1      10.145  -8.641 -14.271  0.00  0.00     0.090 H 
ENDROOT
BRANCH   5  12
ATOM     12  C7  SLB d   1       9.103  -6.792 -14.660  0.00  0.00     0.089 C 
ATOM     13  H6  SLB d   1       9.876  -6.455 -15.367  0.00  0.00     0.091 H 
BRANCH  12  14
ATOM     14  C8  SLB d   1       7.955  -7.421 -15.445  0.00  0.00     0.083 C 
ATOM     15  H7  SLB d   1       7.150  -7.660 -14.735  0.00  0.00     0.090 H 
BRANCH  14  16
ATOM     16  C9  SLB d   1       7.385  -6.474 -16.486  0.00  0.00     0.043 C 
ATOM     17  H8  SLB d   1       6.953  -5.607 -15.965  0.00  0.00     0.078 H 
ATOM     18  H9  SLB d   1       6.593  -7.002 -17.038  0.00  0.00     0.078 H 
BRANCH  16  19
ATOM     19  O9  SLB d   1       8.356  -5.995 -17.435  0.00  0.00    -0.398 OA
ATOM     20  H18 SLB d   1       8.732  -6.732 -17.901  0.00  0.00     0.209 HD
ENDBRANCH  16  19
ENDBRANCH  14  16
BRANCH  14  21
ATOM     21  O8  SLB d   1       8.391  -8.628 -16.038  0.00  0.00    -0.391 OA
ATOM     22  H17 SLB d   1       9.066  -8.439 -16.679  0.00  0.00     0.210 HD
ENDBRANCH  14  21
ENDBRANCH  12  14
BRANCH  12  23
ATOM     23  O7  SLB d   1       8.614  -5.673 -13.938  0.00  0.00    -0.390 OA
ATOM     24  H16 SLB d   1       7.934  -5.957 -13.338  0.00  0.00     0.210 HD
ENDBRANCH  12  23
ENDBRANCH   5  12
BRANCH   4  25
ATOM     25  N5  SLB d   1      11.921  -6.725 -13.661  0.00  0.00    -0.352 N 
ATOM     26  C10 SLB d   1      12.452  -5.488 -13.523  0.00  0.00     0.214 C 
ATOM     27  O10 SLB d   1      12.082  -4.686 -12.642  0.00  0.00    -0.274 OA
ATOM     28  H13 SLB d   1      12.288  -7.335 -14.363  0.00  0.00     0.163 HD
BRANCH  26  29
ATOM     29  C11 SLB d   1      13.564  -5.149 -14.489  0.00  0.00    -0.003 C 
ATOM     30  H10 SLB d   1      13.922  -4.128 -14.292  0.00  0.00     0.040 H 
ATOM     31  H11 SLB d   1      13.186  -5.212 -15.520  0.00  0.00     0.040 H 
ATOM     32  H12 SLB d   1      14.393  -5.860 -14.358  0.00  0.00     0.040 H 
ENDBRANCH  26  29
ENDBRANCH   4  25
BRANCH   3  33
ATOM     33  O4  SLB d   1      12.379  -7.806 -10.969  0.00  0.00    -0.393 OA
ATOM     34  H15 SLB d   1      13.115  -7.484 -11.476  0.00  0.00     0.210 HD
ENDBRANCH   3  33
BRANCH   1  35
ATOM     35  C1  SLB d   1       7.779  -9.513 -11.161  0.00  0.00     0.238 C 
ATOM     36  O1A SLB d   1       7.353 -10.683 -11.101  0.00  0.00    -0.644 OA
ATOM     37  O1B SLB d   1       7.179  -8.523 -10.666  0.00  0.00    -0.644 OA
ENDBRANCH   1  35
BRANCH   1  38
ATOM     38  O2  SLB d   1       9.445 -10.381 -12.647  0.00  0.00    -0.357 OA
ATOM     39  H14 SLB d   1       8.718 -10.674 -13.183  0.00  0.00     0.213 HD
ENDBRANCH   1  38
TORSDOF 11
