REMARK  7 active torsions:
REMARK  status: ('A' for Active; 'I' for Inactive)
REMARK    1  A    between atoms: C6_9  and  N9_10 
REMARK       I    between atoms: N9_10  and  C10_11 
REMARK    2  A    between atoms: C10_11  and  C11_13 
REMARK    3  A    between atoms: C11_13  and  O11_14 
REMARK    4  A    between atoms: C11_13  and  C12_15 
REMARK    5  A    between atoms: C11_13  and  C13_16 
REMARK    6  A    between atoms: C13_16  and  O14_17 
REMARK    7  A    between atoms: O14_17  and  C16_18 
ROOT
ATOM      1  C5  3B6 d   1      26.214   3.382   3.921  0.00  0.00    -0.040 A 
ATOM      2  C4  3B6 d   1      25.235   4.373   3.858  0.00  0.00     0.029 A 
ATOM      3  I7  3B6 d   1      23.218   3.878   4.163  0.00  0.00    -0.043 I 
ATOM      4  C3  3B6 d   1      25.612   5.687   3.605  0.00  0.00     0.061 A 
ATOM      5  C8  3B6 d   1      24.646   6.740   3.508  0.00  0.00     0.100 C 
ATOM      6  N8  3B6 d   1      23.888   7.582   3.425  0.00  0.00    -0.191 NA
ATOM      7  C2  3B6 d   1      26.954   6.008   3.422  0.00  0.00    -0.059 A 
ATOM      8  C1  3B6 d   1      27.925   5.015   3.486  0.00  0.00    -0.056 A 
ATOM      9  C6  3B6 d   1      27.559   3.695   3.736  0.00  0.00     0.036 A 
ATOM     10  H1  3B6 d   1      25.925   2.356   4.116  0.00  0.00     0.089 H 
ATOM     11  H2  3B6 d   1      27.243   7.035   3.229  0.00  0.00     0.086 H 
ATOM     12  H3  3B6 d   1      28.969   5.269   3.341  0.00  0.00     0.087 H 
ENDROOT
BRANCH   9  13
ATOM     13  N9  3B6 d   1      28.541   2.794   3.768  0.00  0.00    -0.324 N 
ATOM     14  C10 3B6 d   1      28.402   1.487   3.976  0.00  0.00     0.258 C 
ATOM     15  O10 3B6 d   1      27.332   0.918   4.186  0.00  0.00    -0.270 OA
ATOM     16  H4  3B6 d   1      29.471   3.132   3.622  0.00  0.00     0.169 HD
BRANCH  14  17
ATOM     17  C11 3B6 d   1      29.719   0.706   3.960  0.00  0.00     0.156 C 
BRANCH  17  18
ATOM     18  O11 3B6 d   1      30.767   1.573   3.518  0.00  0.00    -0.378 OA
ATOM     19  H5  3B6 d   1      31.588   1.095   3.506  0.00  0.00     0.211 HD
ENDBRANCH  17  18
BRANCH  17  20
ATOM     20  C12 3B6 d   1      29.597  -0.499   3.024  0.00  0.00    -0.037 C 
ATOM     21  H6  3B6 d   1      30.546  -1.055   3.017  0.00  0.00     0.032 H 
ATOM     22  H7  3B6 d   1      29.369  -0.151   2.006  0.00  0.00     0.032 H 
ATOM     23  H8  3B6 d   1      28.789  -1.157   3.376  0.00  0.00     0.032 H 
ENDBRANCH  17  20
BRANCH  17  24
ATOM     24  C13 3B6 d   1      30.020   0.218   5.369  0.00  0.00     0.063 C 
ATOM     25  H9  3B6 d   1      30.967  -0.341   5.369  0.00  0.00     0.080 H 
ATOM     26  H10 3B6 d   1      29.207  -0.439   5.712  0.00  0.00     0.080 H 
BRANCH  24  27
ATOM     27  O14 3B6 d   1      30.129   1.347   6.252  0.00  0.00    -0.348 OA
BRANCH  27  28
ATOM     28  C16 3B6 d   1      29.871   1.064   7.560  0.00  0.00     0.069 A 
ATOM     29  C17 3B6 d   1      30.232  -0.151   8.138  0.00  0.00    -0.049 A 
ATOM     30  C18 3B6 d   1      29.998  -0.386   9.490  0.00  0.00    -0.060 A 
ATOM     31  H11 3B6 d   1      30.698  -0.919   7.531  0.00  0.00     0.087 H 
ATOM     32  C19 3B6 d   1      29.401   0.597  10.272  0.00  0.00     0.044 A 
ATOM     33  H12 3B6 d   1      30.281  -1.334   9.933  0.00  0.00     0.086 H 
ATOM     34  C22 3B6 d   1      29.215   0.385  11.676  0.00  0.00     0.099 C 
ATOM     35  C20 3B6 d   1      29.032   1.811   9.698  0.00  0.00    -0.060 A 
ATOM     36  N22 3B6 d   1      29.072   0.225  12.793  0.00  0.00    -0.191 NA
ATOM     37  C21 3B6 d   1      29.267   2.043   8.346  0.00  0.00    -0.049 A 
ATOM     38  H13 3B6 d   1      28.561   2.576  10.305  0.00  0.00     0.086 H 
ATOM     39  H14 3B6 d   1      28.979   2.989   7.903  0.00  0.00     0.087 H 
ENDBRANCH  27  28
ENDBRANCH  24  27
ENDBRANCH  17  24
ENDBRANCH  14  17
ENDBRANCH   9  13
TORSDOF 7
