REMARK  9 active torsions:
REMARK  status: ('A' for Active; 'I' for Inactive)
REMARK    1  A    between atoms: C21_3  and  N19_4 
REMARK    2  A    between atoms: C16_9  and  O14_10 
REMARK    3  A    between atoms: O14_10  and  C13_11 
REMARK    4  A    between atoms: C13_11  and  C11_12 
REMARK    5  A    between atoms: C11_12  and  O11_13 
REMARK    6  A    between atoms: C11_12  and  C12_14 
REMARK    7  A    between atoms: C11_12  and  C10_15 
REMARK       I    between atoms: C10_15  and  N9_17 
REMARK    8  A    between atoms: N9_17  and  C6_18 
REMARK    9  A    between atoms: C4_25  and  C7_26 
ROOT
ATOM      1  C6  B66 d   1      27.625   3.565   3.692  0.00  0.00     0.035 A 
ATOM      2  C5  B66 d   1      26.282   3.266   3.912  0.00  0.00    -0.041 A 
ATOM      3  C1  B66 d   1      27.994   4.883   3.450  0.00  0.00    -0.056 A 
ATOM      4  C2  B66 d   1      27.023   5.877   3.431  0.00  0.00    -0.060 A 
ATOM      5  C3  B66 d   1      25.685   5.565   3.654  0.00  0.00     0.059 A 
ATOM      6  C8  B66 d   1      24.765   6.662   3.625  0.00  0.00     0.100 C 
ATOM      7  N8  B66 d   1      24.039   7.538   3.594  0.00  0.00    -0.191 NA
ATOM      8  C4  B66 d   1      25.289   4.247   3.899  0.00  0.00     0.070 A 
ATOM      9  H12 B66 d   1      25.999   2.237   4.100  0.00  0.00     0.088 H 
ATOM     10  H13 B66 d   1      29.034   5.134   3.277  0.00  0.00     0.087 H 
ATOM     11  H14 B66 d   1      27.310   6.905   3.241  0.00  0.00     0.086 H 
ENDROOT
BRANCH   8  12
ATOM     12  C7  B66 d   1      23.830   3.849   4.195  0.00  0.00     0.419 C 
ATOM     13  F2  B66 d   1      23.559   4.057   5.480  0.00  0.00    -0.166 F 
ATOM     14  F3  B66 d   1      22.944   4.527   3.471  0.00  0.00    -0.166 F 
ATOM     15  F1  B66 d   1      23.591   2.565   3.940  0.00  0.00    -0.166 F 
ENDBRANCH   8  12
BRANCH   1  16
ATOM     16  N9  B66 d   1      28.594   2.650   3.708  0.00  0.00    -0.325 N 
ATOM     17  C10 B66 d   1      28.445   1.345   3.924  0.00  0.00     0.258 C 
ATOM     18  O10 B66 d   1      27.380   0.785   4.181  0.00  0.00    -0.270 OA
ATOM     19  H11 B66 d   1      29.525   2.976   3.541  0.00  0.00     0.169 HD
BRANCH  17  20
ATOM     20  C11 B66 d   1      29.761   0.566   3.883  0.00  0.00     0.156 C 
BRANCH  20  21
ATOM     21  C13 B66 d   1      30.139   0.190   5.306  0.00  0.00     0.063 C 
ATOM     22  H5  B66 d   1      29.412  -0.530   5.709  0.00  0.00     0.080 H 
ATOM     23  H6  B66 d   1      31.144  -0.257   5.321  0.00  0.00     0.080 H 
BRANCH  21  24
ATOM     24  O14 B66 d   1      30.126   1.392   6.093  0.00  0.00    -0.348 OA
BRANCH  24  25
ATOM     25  C16 B66 d   1      29.886   1.182   7.416  0.00  0.00     0.069 A 
ATOM     26  C17 B66 d   1      28.997   2.025   8.078  0.00  0.00    -0.048 A 
ATOM     27  C18 B66 d   1      28.769   1.874   9.442  0.00  0.00    -0.048 A 
ATOM     28  H1  B66 d   1      28.480   2.803   7.528  0.00  0.00     0.087 H 
ATOM     29  C21 B66 d   1      29.431   0.879  10.156  0.00  0.00     0.103 A 
ATOM     30  H2  B66 d   1      28.074   2.533   9.950  0.00  0.00     0.087 H 
ATOM     31  C20 B66 d   1      30.322   0.036   9.496  0.00  0.00    -0.048 A 
ATOM     32  C19 B66 d   1      30.548   0.187   8.131  0.00  0.00    -0.048 A 
ATOM     33  H3  B66 d   1      30.841  -0.740  10.047  0.00  0.00     0.087 H 
ATOM     34  H4  B66 d   1      31.242  -0.472   7.622  0.00  0.00     0.087 H 
BRANCH  29  35
ATOM     35  N19 B66 d   1      29.191   0.714  11.454  0.00  0.00    -0.116 N 
ATOM     36  O20 B66 d   1      29.906  -0.264  12.196  0.00  0.00    -0.532 OA
ATOM     37  O19 B66 d   1      28.245   1.541  12.120  0.00  0.00    -0.532 OA
ENDBRANCH  29  35
ENDBRANCH  24  25
ENDBRANCH  21  24
ENDBRANCH  20  21
BRANCH  20  38
ATOM     38  O11 B66 d   1      30.779   1.406   3.333  0.00  0.00    -0.378 OA
ATOM     39  H7  B66 d   1      31.606   0.939   3.331  0.00  0.00     0.211 HD
ENDBRANCH  20  38
BRANCH  20  40
ATOM     40  C12 B66 d   1      29.601  -0.701   3.040  0.00  0.00    -0.037 C 
ATOM     41  H8  B66 d   1      29.328  -0.425   2.011  0.00  0.00     0.032 H 
ATOM     42  H9  B66 d   1      28.811  -1.332   3.473  0.00  0.00     0.032 H 
ATOM     43  H10 B66 d   1      30.550  -1.257   3.030  0.00  0.00     0.032 H 
ENDBRANCH  20  40
ENDBRANCH  17  20
ENDBRANCH   1  16
TORSDOF 9
