REMARK  9 active torsions:
REMARK  status: ('A' for Active; 'I' for Inactive)
REMARK    1  A    between atoms: C7_2  and  C4_5 
REMARK    2  A    between atoms: C3_7  and  N8_8 
REMARK    3  A    between atoms: C6_13  and  N9_14 
REMARK       I    between atoms: N9_14  and  C10_15 
REMARK    4  A    between atoms: C10_15  and  C11_17 
REMARK    5  A    between atoms: C11_17  and  O11_18 
REMARK    6  A    between atoms: C11_17  and  C12_19 
REMARK    7  A    between atoms: C11_17  and  C13_20 
REMARK    8  A    between atoms: C13_20  and  O14_21 
REMARK    9  A    between atoms: O14_21  and  C16_22 
ROOT
ATOM      1  C11 B67 d   1      29.821   0.765   4.288  0.00  0.00     0.156 C 
ENDROOT
BRANCH   1   2
ATOM      2  C10 B67 d   1      28.501   1.540   4.271  0.00  0.00     0.258 C 
ATOM      3  N9  B67 d   1      28.602   2.796   3.838  0.00  0.00    -0.325 N 
ATOM      4  H4  B67 d   1      29.504   3.115   3.547  0.00  0.00     0.169 HD
ATOM      5  O10 B67 d   1      27.458   1.007   4.646  0.00  0.00    -0.270 OA
BRANCH   3   6
ATOM      6  C6  B67 d   1      27.589   3.657   3.765  0.00  0.00     0.035 A 
ATOM      7  C5  B67 d   1      26.292   3.328   4.151  0.00  0.00    -0.040 A 
ATOM      8  C4  B67 d   1      25.242   4.246   4.156  0.00  0.00     0.083 A 
ATOM      9  H1  B67 d   1      26.089   2.310   4.462  0.00  0.00     0.088 H 
ATOM     10  C3  B67 d   1      25.528   5.556   3.764  0.00  0.00     0.118 A 
ATOM     11  C2  B67 d   1      26.816   5.890   3.357  0.00  0.00    -0.048 A 
ATOM     12  C1  B67 d   1      27.849   4.960   3.353  0.00  0.00    -0.055 A 
ATOM     13  H2  B67 d   1      27.020   6.904   3.034  0.00  0.00     0.087 H 
ATOM     14  H3  B67 d   1      28.844   5.246   3.033  0.00  0.00     0.087 H 
BRANCH   8  15
ATOM     15  C7  B67 d   1      23.827   3.749   4.507  0.00  0.00     0.419 C 
ATOM     16  F1  B67 d   1      23.747   2.423   4.434  0.00  0.00    -0.166 F 
ATOM     17  F2  B67 d   1      23.512   4.086   5.754  0.00  0.00    -0.166 F 
ATOM     18  F3  B67 d   1      22.906   4.217   3.670  0.00  0.00    -0.166 F 
ENDBRANCH   8  15
BRANCH  10  19
ATOM     19  N8  B67 d   1      24.690   6.579   3.927  0.00  0.00    -0.115 N 
ATOM     20  O2  B67 d   1      25.045   7.839   3.377  0.00  0.00    -0.532 OA
ATOM     21  O1  B67 d   1      23.425   6.458   4.561  0.00  0.00    -0.532 OA
ENDBRANCH  10  19
ENDBRANCH   3   6
ENDBRANCH   1   2
BRANCH   1  22
ATOM     22  O11 B67 d   1      30.856   1.572   3.720  0.00  0.00    -0.378 OA
ATOM     23  H5  B67 d   1      31.674   1.090   3.731  0.00  0.00     0.211 HD
ENDBRANCH   1  22
BRANCH   1  24
ATOM     24  C12 B67 d   1      29.673  -0.538   3.500  0.00  0.00    -0.037 C 
ATOM     25  H6  B67 d   1      30.626  -1.087   3.518  0.00  0.00     0.032 H 
ATOM     26  H7  B67 d   1      29.402  -0.308   2.459  0.00  0.00     0.032 H 
ATOM     27  H8  B67 d   1      28.885  -1.155   3.957  0.00  0.00     0.032 H 
ENDBRANCH   1  24
BRANCH   1  28
ATOM     28  C13 B67 d   1      30.156   0.436   5.735  0.00  0.00     0.063 C 
ATOM     29  H9  B67 d   1      31.025  -0.238   5.749  0.00  0.00     0.080 H 
ATOM     30  H10 B67 d   1      29.291  -0.071   6.189  0.00  0.00     0.080 H 
BRANCH  28  31
ATOM     31  O14 B67 d   1      30.467   1.602   6.518  0.00  0.00    -0.342 OA
BRANCH  31  32
ATOM     32  C16 B67 d   1      29.784   1.628   7.698  0.00  0.00     0.152 A 
ATOM     33  C17 B67 d   1      28.731   2.522   7.879  0.00  0.00     0.194 A 
ATOM     34  F17 B67 d   1      28.400   3.331   6.850  0.00  0.00    -0.200 F 
ATOM     35  C18 B67 d   1      28.050   2.571   9.097  0.00  0.00     0.199 A 
ATOM     36  F18 B67 d   1      27.069   3.484   9.282  0.00  0.00    -0.199 F 
ATOM     37  C19 B67 d   1      28.416   1.705  10.129  0.00  0.00     0.199 A 
ATOM     38  F19 B67 d   1      27.720   1.703  11.288  0.00  0.00    -0.199 F 
ATOM     39  C20 B67 d   1      29.475   0.808   9.952  0.00  0.00     0.199 A 
ATOM     40  F20 B67 d   1      29.801  -0.067  10.928  0.00  0.00    -0.199 F 
ATOM     41  C21 B67 d   1      30.163   0.785   8.738  0.00  0.00     0.194 A 
ATOM     42  F21 B67 d   1      31.239  -0.008   8.539  0.00  0.00    -0.200 F 
ENDBRANCH  31  32
ENDBRANCH  28  31
ENDBRANCH   1  28
TORSDOF 9
