REMARK  1 active torsions:
REMARK  status: ('A' for Active; 'I' for Inactive)
REMARK    1  A    between atoms: CAI_12  and  OAC_13 
ROOT
ATOM      1  OAA JUG d   1      21.081  12.782 -12.576  0.00  0.00    -0.288 OA
ATOM      2  CAJ JUG d   1      20.593  13.874 -12.287  0.00  0.00     0.183 A 
ATOM      3  CAF JUG d   1      21.416  14.978 -12.096  0.00  0.00    -0.030 A 
ATOM      4  CAG JUG d   1      20.853  16.213 -11.788  0.00  0.00    -0.030 A 
ATOM      5  CAK JUG d   1      19.474  16.338 -11.672  0.00  0.00     0.185 A 
ATOM      6  OAB JUG d   1      18.982  17.434 -11.398  0.00  0.00    -0.287 OA
ATOM      7  CAM JUG d   1      18.650  15.232 -11.859  0.00  0.00     0.061 A 
ATOM      8  CAL JUG d   1      19.214  13.999 -12.166  0.00  0.00     0.031 A 
ATOM      9  CAH JUG d   1      18.402  12.880 -12.325  0.00  0.00    -0.068 A 
ATOM     10  CAD JUG d   1      17.024  12.994 -12.175  0.00  0.00    -0.079 A 
ATOM     11  CAE JUG d   1      16.460  14.227 -11.868  0.00  0.00    -0.050 A 
ATOM     12  CAI JUG d   1      17.271  15.347 -11.712  0.00  0.00     0.080 A 
ATOM     13  H1  JUG d   1      22.497  14.877 -12.187  0.00  0.00     0.089 H 
ATOM     14  H2  JUG d   1      21.493  17.081 -11.638  0.00  0.00     0.089 H 
ATOM     15  H3  JUG d   1      18.843  11.920 -12.566  0.00  0.00     0.085 H 
ATOM     16  H4  JUG d   1      16.391  12.123 -12.297  0.00  0.00     0.083 H 
ATOM     17  H5  JUG d   1      15.386  14.316 -11.750  0.00  0.00     0.087 H 
ENDROOT
BRANCH  12  18
ATOM     18  OAC JUG d   1      16.708  16.552 -11.429  0.00  0.00    -0.360 OA
ATOM     19  H6  JUG d   1      17.390  17.209 -11.354  0.00  0.00     0.217 HD
ENDBRANCH  12  18
TORSDOF 1
