REMARK  9 active torsions:
REMARK  status: ('A' for Active; 'I' for Inactive)
REMARK       I    between atoms: C1_2  and  N1_3 
REMARK    1  A    between atoms: C1_2  and  C2_5 
REMARK    2  A    between atoms: N1_3  and  O2_4 
REMARK    3  A    between atoms: C2_5  and  C3_6 
REMARK    4  A    between atoms: C3_6  and  C4_7 
REMARK    5  A    between atoms: C3_6  and  C8_15 
REMARK       I    between atoms: C4_7  and  N2_9 
REMARK    6  A    between atoms: N2_9  and  C5_10 
REMARK    7  A    between atoms: C5_10  and  C6_11 
REMARK    8  A    between atoms: C5_10  and  C7_12 
REMARK    9  A    between atoms: C8_15  and  C9_16 
ROOT
ATOM      1  C3  KEL d   1      34.712   6.606   1.707  0.00  0.00     0.035 C 
ATOM      2  H5  KEL d   1      34.023   6.735   2.555  0.00  0.00     0.055 H 
ENDROOT
BRANCH   1   3
ATOM      3  C2  KEL d   1      34.628   5.167   1.187  0.00  0.00     0.023 C 
ATOM      4  H3  KEL d   1      33.608   4.946   0.840  0.00  0.00     0.048 H 
ATOM      5  H4  KEL d   1      35.338   5.018   0.360  0.00  0.00     0.048 H 
BRANCH   3   6
ATOM      6  C1  KEL d   1      34.988   4.281   2.351  0.00  0.00     0.241 C 
ATOM      7  O1  KEL d   1      34.225   4.151   3.294  0.00  0.00    -0.271 OA
ATOM      8  N1  KEL d   1      36.193   3.732   2.305  0.00  0.00    -0.237 N 
ATOM      9  H1  KEL d   1      36.777   3.828   1.499  0.00  0.00     0.197 HD
BRANCH   8  10
ATOM     10  O2  KEL d   1      36.565   3.101   3.290  0.00  0.00    -0.287 OA
ATOM     11  H2  KEL d   1      37.438   2.760   3.135  0.00  0.00     0.244 HD
ENDBRANCH   8  10
ENDBRANCH   3   6
ENDBRANCH   1   3
BRANCH   1  12
ATOM     12  C4  KEL d   1      34.318   7.511   0.582  0.00  0.00     0.223 C 
ATOM     13  O3  KEL d   1      34.982   7.513  -0.449  0.00  0.00    -0.273 OA
ATOM     14  N2  KEL d   1      33.231   8.268   0.757  0.00  0.00    -0.347 N 
ATOM     15  H6  KEL d   1      32.750   8.267   1.634  0.00  0.00     0.163 HD
BRANCH  14  16
ATOM     16  C5  KEL d   1      32.762   9.082  -0.328  0.00  0.00     0.092 C 
ATOM     17  H7  KEL d   1      32.555   8.416  -1.179  0.00  0.00     0.089 H 
BRANCH  16  18
ATOM     18  C6  KEL d   1      31.461   9.793   0.008  0.00  0.00    -0.048 C 
ATOM     19  H8  KEL d   1      31.143  10.402  -0.851  0.00  0.00     0.030 H 
ATOM     20  H9  KEL d   1      31.614  10.444   0.882  0.00  0.00     0.030 H 
ATOM     21  H10 KEL d   1      30.684   9.048   0.237  0.00  0.00     0.030 H 
ENDBRANCH  16  18
BRANCH  16  22
ATOM     22  C7  KEL d   1      33.856  10.041  -0.753  0.00  0.00     0.196 C 
ATOM     23  O4  KEL d   1      34.060  10.201  -1.953  0.00  0.00    -0.646 OA
ATOM     24  O5  KEL d   1      34.563  10.594   0.096  0.00  0.00    -0.646 OA
ENDBRANCH  16  22
ENDBRANCH  14  16
ENDBRANCH   1  12
BRANCH   1  25
ATOM     25  C8  KEL d   1      36.155   6.951   2.161  0.00  0.00    -0.029 C 
ATOM     26  H12 KEL d   1      36.814   6.941   1.280  0.00  0.00     0.041 H 
ATOM     27  H13 KEL d   1      36.491   6.188   2.879  0.00  0.00     0.041 H 
BRANCH  25  28
ATOM     28  C9  KEL d   1      36.249   8.327   2.828  0.00  0.00    -0.057 A 
ATOM     29  C10 KEL d   1      36.131   8.411   4.207  0.00  0.00    -0.077 A 
ATOM     30  C11 KEL d   1      36.223   9.668   4.830  0.00  0.00    -0.082 A 
ATOM     31  H14 KEL d   1      35.969   7.517   4.798  0.00  0.00     0.084 H 
ATOM     32  C12 KEL d   1      36.405  10.844   4.122  0.00  0.00    -0.083 A 
ATOM     33  H15 KEL d   1      36.148   9.719   5.910  0.00  0.00     0.083 H 
ATOM     34  C13 KEL d   1      36.547  10.764   2.726  0.00  0.00    -0.082 A 
ATOM     35  H16 KEL d   1      36.437  11.801   4.631  0.00  0.00     0.083 H 
ATOM     36  C14 KEL d   1      36.472   9.515   2.089  0.00  0.00    -0.077 A 
ATOM     37  H17 KEL d   1      36.714  11.663   2.143  0.00  0.00     0.083 H 
ATOM     38  H18 KEL d   1      36.587   9.459   1.013  0.00  0.00     0.084 H 
ENDBRANCH  25  28
ENDBRANCH   1  25
TORSDOF 9
