REMARK  9 active torsions:
REMARK  status: ('A' for Active; 'I' for Inactive)
REMARK    1  A    between atoms: O_6  and  C4_5 
REMARK    2  A    between atoms: C5_7  and  O_6 
REMARK    3  A    between atoms: C8_10  and  C5_7 
REMARK    4  A    between atoms: C7_9  and  C6_8 
REMARK    5  A    between atoms: C9_11  and  S_14 
REMARK    6  A    between atoms: S_14  and  C10_15 
REMARK    7  A    between atoms: C10_15  and  C11_16 
REMARK    8  A    between atoms: C11_16  and  C12_17 
REMARK    9  A    between atoms: C12_17  and  S1_18 
ROOT
ATOM      1  C   440 d   1      -0.385  60.414  86.224  0.00  0.00    -0.049 A 
ATOM      2  C1  440 d   1      -0.639  59.131  85.737  0.00  0.00    -0.059 A 
ATOM      3  C2  440 d   1       1.206  59.362  84.146  0.00  0.00    -0.059 A 
ATOM      4  C3  440 d   1       1.457  60.649  84.643  0.00  0.00    -0.049 A 
ATOM      5  C4  440 d   1       0.660  61.178  85.678  0.00  0.00     0.070 A 
ATOM      6  C9  440 d   1       0.154  58.616  84.700  0.00  0.00     0.059 A 
ATOM      7  H1  440 d   1      -0.994  60.821  87.023  0.00  0.00     0.087 H 
ATOM      8  H2  440 d   1      -1.443  58.537  86.157  0.00  0.00     0.085 H 
ATOM      9  H3  440 d   1       1.814  58.951  83.348  0.00  0.00     0.085 H 
ATOM     10  H4  440 d   1       2.267  61.239  84.230  0.00  0.00     0.087 H 
ENDROOT
BRANCH   6  11
ATOM     11  S   440 d   1      -0.218  57.023  84.070  0.00  0.00     0.175 S 
ATOM     12  O1  440 d   1      -1.642  56.891  83.996  0.00  0.00    -0.223 OA
ATOM     13  O2  440 d   1       0.582  56.830  82.878  0.00  0.00    -0.223 OA
BRANCH  11  14
ATOM     14  C10 440 d   1       0.305  55.979  85.424  0.00  0.00     0.034 C 
ATOM     15  H10 440 d   1       0.316  54.932  85.086  0.00  0.00     0.056 H 
ATOM     16  H11 440 d   1      -0.406  56.088  86.256  0.00  0.00     0.056 H 
BRANCH  14  17
ATOM     17  C11 440 d   1       1.692  56.358  85.906  0.00  0.00    -0.045 C 
ATOM     18  H12 440 d   1       1.815  56.021  86.946  0.00  0.00     0.035 H 
ATOM     19  H13 440 d   1       1.802  57.452  85.860  0.00  0.00     0.035 H 
BRANCH  17  20
ATOM     20  C12 440 d   1       2.766  55.716  85.047  0.00  0.00    -0.025 C 
ATOM     21  H14 440 d   1       2.482  55.795  83.987  0.00  0.00     0.048 H 
ATOM     22  H15 440 d   1       2.868  54.656  85.322  0.00  0.00     0.048 H 
BRANCH  20  23
ATOM     23  S1  440 d   1       4.334  56.552  85.307  0.00  0.00    -0.182 SA
ATOM     24  H16 440 d   1       4.241  57.523  85.055  0.00  0.00     0.101 HD
ENDBRANCH  20  23
ENDBRANCH  17  20
ENDBRANCH  14  17
ENDBRANCH  11  14
ENDBRANCH   6  11
BRANCH   5  25
ATOM     25  O   440 d   1       0.875  62.503  86.071  0.00  0.00    -0.340 OA
BRANCH  25  26
ATOM     26  C5  440 d   1      -0.258  63.220  86.563  0.00  0.00     0.080 C 
ATOM     27  H5  440 d   1       0.116  64.047  87.184  0.00  0.00     0.094 H 
ATOM     28  H6  440 d   1      -0.844  62.529  87.186  0.00  0.00     0.094 H 
BRANCH  26  29
ATOM     29  C8  440 d   1      -1.230  63.833  85.491  0.00  0.00    -0.080 C 
ATOM     30  C7  440 d   1      -2.016  64.296  84.723  0.00  0.00    -0.109 C 
BRANCH  30  31
ATOM     31  C6  440 d   1      -3.041  64.888  83.750  0.00  0.00    -0.021 C 
ATOM     32  H7  440 d   1      -2.535  65.180  82.817  0.00  0.00     0.044 H 
ATOM     33  H8  440 d   1      -3.510  65.773  84.205  0.00  0.00     0.044 H 
ATOM     34  H9  440 d   1      -3.813  64.137  83.529  0.00  0.00     0.044 H 
ENDBRANCH  30  31
ENDBRANCH  26  29
ENDBRANCH  25  26
ENDBRANCH   5  25
TORSDOF 9
