REMARK  12 active torsions:
REMARK  status: ('A' for Active; 'I' for Inactive)
REMARK    1  A    between atoms: O5'_1  and  C5'_2 
REMARK    2  A    between atoms: C5'_2  and  C4'_3 
REMARK    3  A    between atoms: C3'_5  and  O3'_6 
REMARK    4  A    between atoms: O3'_6  and  P_19 
REMARK    5  A    between atoms: C1'_8  and  N9_9 
REMARK    6  A    between atoms: C6_13  and  N6_14 
REMARK    7  A    between atoms: P_19  and  O5'_22 
REMARK    8  A    between atoms: O5'_22  and  C5'_23 
REMARK    9  A    between atoms: C5'_23  and  C4'_24 
REMARK   10  A    between atoms: C3'_26  and  O3'_27 
REMARK   11  A    between atoms: C1'_29  and  N9_30 
REMARK   12  A    between atoms: C2_37  and  N2_38 
ROOT
ATOM      1  P    DG d   1     -20.325 -18.843  45.024  0.00  0.00     0.408 P 
ATOM      2  OP1  DG d   1     -20.896 -17.478  44.912  0.00  0.00    -0.624 OA
ATOM      3  OP2  DG d   1     -19.238 -19.086  46.009  0.00  0.00    -0.624 OA
ENDROOT
BRANCH   1   4
ATOM      4  O3'  DA d   1     -19.790 -19.271  43.570  0.00  0.00    -0.282 OA
BRANCH   4   5
ATOM      5  C3'  DA d   1     -20.292 -20.451  42.917  0.00  0.00     0.081 C 
ATOM      6  C4'  DA d   1     -19.139 -21.309  42.388  0.00  0.00     0.087 C 
ATOM      7  O4'  DA d   1     -19.503 -21.667  41.032  0.00  0.00    -0.356 OA
ATOM      8  H4   DA d   1     -18.228 -20.692  42.374  0.00  0.00     0.090 H 
ATOM      9  C1'  DA d   1     -20.246 -20.587  40.511  0.00  0.00     0.115 C 
ATOM     10  C2'  DA d   1     -21.131 -20.137  41.673  0.00  0.00     0.003 C 
ATOM     11  H8   DA d   1     -19.570 -19.759  40.254  0.00  0.00     0.118 H 
ATOM     12  H6   DA d   1     -21.346 -19.060  41.607  0.00  0.00     0.043 H 
ATOM     13  H7   DA d   1     -22.076 -20.700  41.686  0.00  0.00     0.043 H 
ATOM     14  H5   DA d   1     -20.894 -21.022  43.639  0.00  0.00     0.088 H 
BRANCH   6  15
ATOM     15  C5'  DA d   1     -18.829 -22.566  43.185  0.00  0.00     0.043 C 
ATOM     16  H2   DA d   1     -19.627 -23.303  43.011  0.00  0.00     0.078 H 
ATOM     17  H3   DA d   1     -17.868 -22.977  42.842  0.00  0.00     0.078 H 
BRANCH  15  18
ATOM     18  O5'  DA d   1     -18.744 -22.299  44.582  0.00  0.00    -0.398 OA
ATOM     19  H1   DA d   1     -18.550 -23.105  45.046  0.00  0.00     0.209 HD
ENDBRANCH  15  18
ENDBRANCH   6  15
BRANCH   9  20
ATOM     20  N9   DA d   1     -20.916 -21.004  39.269  0.00  0.00    -0.296 N 
ATOM     21  C8   DA d   1     -20.378 -21.817  38.308  0.00  0.00     0.070 A 
ATOM     22  N7   DA d   1     -21.161 -22.033  37.277  0.00  0.00    -0.236 NA
ATOM     23  H9   DA d   1     -19.382 -22.249  38.392  0.00  0.00     0.144 H 
ATOM     24  C5   DA d   1     -22.300 -21.309  37.576  0.00  0.00     0.149 A 
ATOM     25  C6   DA d   1     -23.513 -21.126  36.879  0.00  0.00     0.155 A 
ATOM     26  C4   DA d   1     -22.171 -20.665  38.797  0.00  0.00     0.167 A 
ATOM     27  N1   DA d   1     -24.456 -20.343  37.442  0.00  0.00    -0.222 NA
ATOM     28  C2   DA d   1     -24.195 -19.780  38.629  0.00  0.00     0.091 A 
ATOM     29  N3   DA d   1     -23.096 -19.878  39.380  0.00  0.00    -0.222 NA
ATOM     30  H12  DA d   1     -24.985 -19.159  39.036  0.00  0.00     0.146 H 
BRANCH  25  31
ATOM     31  N6   DA d   1     -23.769 -21.686  35.696  0.00  0.00    -0.382 N 
ATOM     32  H10  DA d   1     -24.673 -21.518  35.231  0.00  0.00     0.157 HD
ATOM     33  H11  DA d   1     -23.063 -22.287  35.247  0.00  0.00     0.157 HD
ENDBRANCH  25  31
ENDBRANCH   9  20
ENDBRANCH   4   5
ENDBRANCH   1   4
BRANCH   1  34
ATOM     34  O5'  DG d   1     -21.530 -19.866  45.300  0.00  0.00    -0.287 OA
BRANCH  34  35
ATOM     35  C5'  DG d   1     -22.880 -19.399  45.383  0.00  0.00     0.058 C 
ATOM     36  H13  DA d   1     -23.081 -18.748  44.519  0.00  0.00     0.079 H 
ATOM     37  H14  DA d   1     -22.996 -18.821  46.312  0.00  0.00     0.079 H 
BRANCH  35  38
ATOM     38  C4'  DG d   1     -23.897 -20.534  45.385  0.00  0.00     0.087 C 
ATOM     39  O4'  DG d   1     -23.875 -21.228  44.107  0.00  0.00    -0.356 OA
ATOM     40  C1'  DG d   1     -23.681 -22.616  44.316  0.00  0.00     0.115 C 
ATOM     41  C2'  DG d   1     -22.953 -22.705  45.653  0.00  0.00     0.002 C 
ATOM     42  H20  DA d   1     -24.648 -23.132  44.402  0.00  0.00     0.118 H 
ATOM     43  C3'  DG d   1     -23.680 -21.619  46.436  0.00  0.00     0.066 C 
ATOM     44  H18  DA d   1     -23.077 -23.694  46.118  0.00  0.00     0.043 H 
ATOM     45  H19  DA d   1     -21.881 -22.482  45.548  0.00  0.00     0.043 H 
ATOM     46  H16  DA d   1     -23.061 -21.252  47.267  0.00  0.00     0.087 H 
ATOM     47  H15  DA d   1     -24.890 -20.088  45.546  0.00  0.00     0.090 H 
BRANCH  40  48
ATOM     48  N9   DG d   1     -22.975 -23.160  43.156  0.00  0.00    -0.297 N 
ATOM     49  C8   DG d   1     -21.665 -23.580  43.077  0.00  0.00     0.070 A 
ATOM     50  N7   DG d   1     -21.329 -24.010  41.891  0.00  0.00    -0.234 NA
ATOM     51  H21  DA d   1     -20.977 -23.556  43.921  0.00  0.00     0.144 H 
ATOM     52  C5   DG d   1     -22.484 -23.866  41.134  0.00  0.00     0.171 A 
ATOM     53  C6   DG d   1     -22.728 -24.167  39.770  0.00  0.00     0.292 A 
ATOM     54  C4   DG d   1     -23.506 -23.342  41.897  0.00  0.00     0.161 A 
ATOM     55  O6   DG d   1     -21.938 -24.640  38.942  0.00  0.00    -0.265 OA
ATOM     56  N1   DG d   1     -24.039 -23.870  39.395  0.00  0.00    -0.154 N 
ATOM     57  C2   DG d   1     -24.995 -23.341  40.235  0.00  0.00     0.680 A 
ATOM     58  H22  DA d   1     -24.304 -24.054  38.449  0.00  0.00     0.187 HD
ATOM     59  N3   DG d   1     -24.778 -23.057  41.516  0.00  0.00    -0.174 N 
ATOM     60  H25  DA d   1     -25.492 -22.666  42.147  0.00  0.00     0.186 HD
BRANCH  57  61
ATOM     61  N2   DG d   1     -26.202 -23.124  39.696  0.00  0.00    -0.234 N 
ATOM     62  H23  DA d   1     -26.960 -22.730  40.272  0.00  0.00     0.174 HD
ATOM     63  H24  DA d   1     -26.372 -23.351  38.706  0.00  0.00     0.174 HD
ENDBRANCH  57  61
ENDBRANCH  40  48
BRANCH  43  64
ATOM     64  O3'  DG d   1     -24.932 -22.077  46.942  0.00  0.00    -0.393 OA
ATOM     65  H17  DA d   1     -24.781 -22.751  47.594  0.00  0.00     0.210 HD
ENDBRANCH  43  64
ENDBRANCH  35  38
ENDBRANCH  34  35
ENDBRANCH   1  34
TORSDOF 12
