REMARK  2 active torsions:
REMARK  status: ('A' for Active; 'I' for Inactive)
REMARK    1  A    between atoms: C09_9  and  N10_10 
REMARK    2  A    between atoms: N10_10  and  C11_11 
ROOT
ATOM      1  N01 P04 d   1      19.852   9.785  20.267  0.00  0.00    -0.163 NA
ATOM      2  C02 P04 d   1      20.068  10.114  18.967  0.00  0.00     0.033 A 
ATOM      3  C03 P04 d   1      21.043   9.265  18.414  0.00  0.00     0.010 A 
ATOM      4  C04 P04 d   1      21.407   8.369  19.494  0.00  0.00     0.196 A 
ATOM      5  N05 P04 d   1      20.664   8.737  20.579  0.00  0.00    -0.042 N 
ATOM      6  N06 P04 d   1      22.267   7.339  19.612  0.00  0.00    -0.041 NA
ATOM      7  C07 P04 d   1      22.354   6.732  20.796  0.00  0.00     0.744 A 
ATOM      8  N08 P04 d   1      21.637   7.092  21.858  0.00  0.00     0.130 NA
ATOM      9  C09 P04 d   1      20.788   8.106  21.727  0.00  0.00     0.741 A 
ATOM     10  N17 P04 d   1      23.188   5.678  21.022  0.00  0.00    -0.188 N 
ATOM     11  C18 P04 d   1      23.980   4.991  20.153  0.00  0.00     0.051 A 
ATOM     12  C19 P04 d   1      24.113   5.302  18.799  0.00  0.00    -0.031 A 
ATOM     13  C20 P04 d   1      24.929   4.571  17.937  0.00  0.00     0.036 A 
ATOM     14  C21 P04 d   1      25.629   3.490  18.467  0.00  0.00    -0.057 A 
ATOM     15  C22 P04 d   1      25.522   3.151  19.816  0.00  0.00    -0.079 A 
ATOM     16  C23 P04 d   1      24.698   3.905  20.650  0.00  0.00    -0.057 A 
ATOM     17  N27 P04 d   1      25.085   4.827  16.610  0.00  0.00    -0.327 N 
ATOM     18  C28 P04 d   1      25.023   5.971  15.893  0.00  0.00     0.222 C 
ATOM     19  O29 P04 d   1      25.102   5.979  14.670  0.00  0.00    -0.273 OA
ATOM     20  C30 P04 d   1      24.856   7.317  16.584  0.00  0.00     0.010 C 
ATOM     21  C31 P04 d   1      23.367   7.675  16.596  0.00  0.00    -0.057 C 
ATOM     22  C32 P04 d   1      23.069   9.130  16.956  0.00  0.00    -0.061 C 
ATOM     23  C33 P04 d   1      21.560   9.376  16.999  0.00  0.00    -0.036 C 
ATOM     24  H1  P04 d   1      19.561  10.916  18.432  0.00  0.00     0.118 H 
ATOM     25  H8  P04 d   1      23.225   5.352  21.998  0.00  0.00     0.184 HD
ATOM     26  H9  P04 d   1      23.560   6.145  18.402  0.00  0.00     0.090 H 
ATOM     27  H10 P04 d   1      26.269   2.901  17.820  0.00  0.00     0.086 H 
ATOM     28  H11 P04 d   1      26.076   2.308  20.213  0.00  0.00     0.083 H 
ATOM     29  H12 P04 d   1      24.615   3.643  21.699  0.00  0.00     0.086 H 
ATOM     30  H13 P04 d   1      25.283   4.015  16.061  0.00  0.00     0.169 HD
ATOM     31  H14 P04 d   1      25.419   8.088  16.037  0.00  0.00     0.047 H 
ATOM     32  H15 P04 d   1      25.231   7.253  17.616  0.00  0.00     0.047 H 
ATOM     33  H16 P04 d   1      22.864   7.029  17.331  0.00  0.00     0.033 H 
ATOM     34  H17 P04 d   1      22.958   7.478  15.594  0.00  0.00     0.033 H 
ATOM     35  H18 P04 d   1      23.521   9.789  16.201  0.00  0.00     0.033 H 
ATOM     36  H19 P04 d   1      23.500   9.354  17.943  0.00  0.00     0.033 H 
ATOM     37  H20 P04 d   1      21.347  10.384  16.614  0.00  0.00     0.040 H 
ATOM     38  H21 P04 d   1      21.054   8.629  16.370  0.00  0.00     0.040 H 
ENDROOT
BRANCH   9  39
ATOM     39  N10 P04 d   1      20.024   8.514  22.768  0.00  0.00    -0.217 N 
ATOM     40  H2  P04 d   1      19.396   9.325  22.669  0.00  0.00     0.178 HD
BRANCH  39  41
ATOM     41  C11 P04 d   1      20.102   7.788  24.035  0.00  0.00     0.026 A 
ATOM     42  C12 P04 d   1      21.127   8.459  24.954  0.00  0.00    -0.044 A 
ATOM     43  C13 P04 d   1      19.625   8.674  25.189  0.00  0.00    -0.044 A 
ATOM     44  H4  P04 d   1      21.748   9.284  24.576  0.00  0.00     0.036 H 
ATOM     45  H5  P04 d   1      21.713   7.853  25.660  0.00  0.00     0.036 H 
ATOM     46  H6  P04 d   1      19.135   8.222  26.064  0.00  0.00     0.036 H 
ATOM     47  H7  P04 d   1      19.170   9.653  24.979  0.00  0.00     0.036 H 
ATOM     48  H3  P04 d   1      19.933   6.703  23.968  0.00  0.00     0.073 H 
ENDBRANCH  39  41
ENDBRANCH   9  39
TORSDOF 2
