REMARK  10 active torsions:
REMARK  status: ('A' for Active; 'I' for Inactive)
REMARK    1  A    between atoms: O2_1  and  C2_3 
REMARK    2  A    between atoms: C2_3  and  C1_2 
REMARK    3  A    between atoms: C1_2  and  C3_4 
REMARK    4  A    between atoms: C1_2  and  C4_5 
REMARK    5  A    between atoms: C1_2  and  C5_6 
REMARK    6  A    between atoms: C5_6  and  O5'_7 
REMARK    7  A    between atoms: C5_6  and  C6_8 
REMARK       I    between atoms: C6_8  and  N_10 
REMARK    8  A    between atoms: N_10  and  C8_11 
REMARK    9  A    between atoms: C8_11  and  C9_12 
REMARK   10  A    between atoms: C9_12  and  C_13 
ROOT
ATOM      1  C5  PAU d   1       3.187  11.905  16.020  0.00  0.00     0.120 C 
ATOM      2  H10 PAU d   1       2.701  11.775  16.998  0.00  0.00     0.099 H 
ENDROOT
BRANCH   1   3
ATOM      3  C1  PAU d   1       4.547  12.523  16.299  0.00  0.00     0.008 C 
BRANCH   3   4
ATOM      4  C2  PAU d   1       4.343  13.831  17.023  0.00  0.00     0.026 C 
ATOM      5  H2  PAU d   1       5.322  14.313  17.161  0.00  0.00     0.075 H 
ATOM      6  H3  PAU d   1       3.700  14.477  16.407  0.00  0.00     0.075 H 
BRANCH   4   7
ATOM      7  O2  PAU d   1       3.749  13.670  18.266  0.00  0.00    -0.400 OA
ATOM      8  H1  PAU d   1       3.644  14.520  18.678  0.00  0.00     0.209 HD
ENDBRANCH   4   7
ENDBRANCH   3   4
BRANCH   3   9
ATOM      9  C3  PAU d   1       5.389  11.625  17.154  0.00  0.00    -0.065 C 
ATOM     10  H4  PAU d   1       5.545  10.667  16.637  0.00  0.00     0.028 H 
ATOM     11  H5  PAU d   1       4.878  11.446  18.111  0.00  0.00     0.028 H 
ATOM     12  H6  PAU d   1       6.362  12.103  17.341  0.00  0.00     0.028 H 
ENDBRANCH   3   9
BRANCH   3  13
ATOM     13  C4  PAU d   1       5.227  12.797  14.976  0.00  0.00    -0.065 C 
ATOM     14  H7  PAU d   1       4.592  13.457  14.367  0.00  0.00     0.028 H 
ATOM     15  H8  PAU d   1       5.388  11.848  14.443  0.00  0.00     0.028 H 
ATOM     16  H9  PAU d   1       6.196  13.285  15.156  0.00  0.00     0.028 H 
ENDBRANCH   3  13
ENDBRANCH   1   3
BRANCH   1  17
ATOM     17  O5' PAU d   1       2.412  12.794  15.256  0.00  0.00    -0.385 OA
ATOM     18  H11 PAU d   1       2.298  13.606  15.736  0.00  0.00     0.210 HD
ENDBRANCH   1  17
BRANCH   1  19
ATOM     19  C6  PAU d   1       3.150  10.557  15.336  0.00  0.00     0.247 C 
ATOM     20  O6' PAU d   1       3.385   9.521  16.030  0.00  0.00    -0.271 OA
ATOM     21  N   PAU d   1       2.895  10.482  14.118  0.00  0.00    -0.358 N 
ATOM     22  H12 PAU d   1       2.778  11.345  13.626  0.00  0.00     0.162 HD
BRANCH  21  23
ATOM     23  C8  PAU d   1       2.753   9.273  13.353  0.00  0.00     0.004 C 
ATOM     24  H13 PAU d   1       1.686   9.086  13.163  0.00  0.00     0.064 H 
ATOM     25  H14 PAU d   1       3.178   8.431  13.920  0.00  0.00     0.064 H 
BRANCH  23  26
ATOM     26  C9  PAU d   1       3.488   9.407  12.021  0.00  0.00     0.030 C 
ATOM     27  H15 PAU d   1       3.377   8.455  11.481  0.00  0.00     0.051 H 
ATOM     28  H16 PAU d   1       4.551   9.582  12.242  0.00  0.00     0.051 H 
BRANCH  26  29
ATOM     29  C   PAU d   1       3.025  10.508  11.105  0.00  0.00     0.174 C 
ATOM     30  OXT PAU d   1       2.381  11.436  11.510  0.00  0.00    -0.648 OA
ATOM     31  O   PAU d   1       3.382  10.415   9.940  0.00  0.00    -0.648 OA
ENDBRANCH  26  29
ENDBRANCH  23  26
ENDBRANCH  21  23
ENDBRANCH   1  19
TORSDOF 10
