REMARK  4 active torsions:
REMARK  status: ('A' for Active; 'I' for Inactive)
REMARK    1  A    between atoms: CG_2  and  CB_4 
REMARK    2  A    between atoms: CB_4  and  CA_5 
REMARK    3  A    between atoms: CA_5  and  C_8 
REMARK    4  A    between atoms: CA_5  and  N_11 
ROOT
ATOM      1  CB  S2P d   1     -11.694  26.175  42.700  0.00  0.00     0.016 C 
ATOM      2  H1  S2P d   1     -12.161  25.283  43.143  0.00  0.00     0.046 H 
ATOM      3  H2  S2P d   1     -12.335  27.051  42.879  0.00  0.00     0.046 H 
ENDROOT
BRANCH   1   4
ATOM      4  CG  S2P d   1     -11.550  25.966  41.207  0.00  0.00     0.101 A 
ATOM      5  CD2 S2P d   1     -11.693  27.104  40.253  0.00  0.00     0.211 A 
ATOM      6  O2  S2P d   1     -11.951  28.288  40.800  0.00  0.00    -0.169 OA
ATOM      7  N2  S2P d   1     -11.547  26.782  38.929  0.00  0.00    -0.287 N 
ATOM      8  SE1 S2P d   1     -11.219  25.055  38.812  0.00  0.00     0.093 SA
ATOM      9  H4  S2P d   1     -11.615  27.418  38.161  0.00  0.00     0.178 HD
ATOM     10  N1  S2P d   1     -11.292  24.824  40.566  0.00  0.00    -0.195 NA
ENDBRANCH   1   4
BRANCH   1  11
ATOM     11  CA  S2P d   1     -10.318  26.411  43.373  0.00  0.00     0.187 C 
ATOM     12  H3  S2P d   1      -9.895  27.324  42.929  0.00  0.00     0.101 H 
BRANCH  11  13
ATOM     13  C   S2P d   1     -10.469  26.639  44.917  0.00  0.00     0.204 C 
ATOM     14  O   S2P d   1     -11.246  27.469  45.361  0.00  0.00    -0.646 OA
ATOM     15  O   S2P d   1      -9.660  25.809  45.569  0.00  0.00    -0.646 OA
ENDBRANCH  11  13
BRANCH  11  16
ATOM     16  N   S2P d   1      -9.292  25.262  43.159  0.00  0.00    -0.065 N 
ATOM     17  H5  S2P d   1      -8.428  25.492  43.625  0.00  0.00     0.275 HD
ATOM     18  H6  S2P d   1      -9.120  25.144  42.173  0.00  0.00     0.275 HD
ATOM     19  H7  S2P d   1      -9.662  24.405  43.540  0.00  0.00     0.275 HD
ENDBRANCH  11  16
ENDBRANCH   1  11
TORSDOF 4
