REMARK  20 active torsions:
REMARK  status: ('A' for Active; 'I' for Inactive)
REMARK    1  A    between atoms: C5_2  and  N1_1 
REMARK    2  A    between atoms: N1_1  and  C2_12 
REMARK    3  A    between atoms: C6_3  and  C5_2 
REMARK    4  A    between atoms: N7_26  and  C6_3 
REMARK    5  A    between atoms: N7_26  and  C8_4 
REMARK    6  A    between atoms: C8_4  and  C9_34 
REMARK    7  A    between atoms: C9_34  and  C10_5 
REMARK    8  A    between atoms: S12_27  and  C13_6 
REMARK    9  A    between atoms: N4_14  and  C22_9 
REMARK   10  A    between atoms: C22_9  and  C23_24 
REMARK   11  A    between atoms: C23_24  and  C24_10 
REMARK   12  A    between atoms: C2_12  and  C3_13 
REMARK   13  A    between atoms: C3_13  and  N4_14 
REMARK   14  A    between atoms: N4_14  and  S26_15 
REMARK   15  A    between atoms: S26_15  and  C27_18 
REMARK   16  A    between atoms: C30_21  and  N33_22 
REMARK   17  A    between atoms: C23_24  and  C25_25 
REMARK   18  A    between atoms: N7_26  and  S12_27 
REMARK   19  A    between atoms: C16_31  and  N19_32 
REMARK   20  A    between atoms: C9_34  and  C11_35 
ROOT
ATOM      1  N1  LJG d   1      13.487 -18.617 -17.937  0.00  0.00    -0.072 N 
ATOM      2  H1  LJG d   1      13.087 -19.035 -17.112  0.00  0.00     0.277 HD
ATOM      3  H2  LJG d   1      14.031 -17.810 -17.675  0.00  0.00     0.277 HD
ENDROOT
BRANCH   1   4
ATOM      4  C5  LJG d   1      12.389 -18.191 -18.850  0.00  0.00     0.097 C 
ATOM      5  H3  LJG d   1      12.088 -19.059 -19.455  0.00  0.00     0.078 H 
ATOM      6  H4  LJG d   1      12.777 -17.401 -19.510  0.00  0.00     0.078 H 
BRANCH   4   7
ATOM      7  C6  LJG d   1      11.141 -17.648 -18.131  0.00  0.00     0.028 C 
ATOM      8  H5  LJG d   1      10.711 -16.852 -18.757  0.00  0.00     0.067 H 
ATOM      9  H6  LJG d   1      11.464 -17.223 -17.169  0.00  0.00     0.067 H 
BRANCH   7  10
ATOM     10  N7  LJG d   1      10.089 -18.620 -17.859  0.00  0.00    -0.305 N 
BRANCH  10  11
ATOM     11  C8  LJG d   1       9.106 -19.103 -18.825  0.00  0.00     0.008 C 
ATOM     12  H7  LJG d   1       8.183 -18.523 -18.678  0.00  0.00     0.066 H 
ATOM     13  H8  LJG d   1       8.913 -20.162 -18.601  0.00  0.00     0.066 H 
BRANCH  11  14
ATOM     14  C9  LJG d   1       9.488 -19.004 -20.333  0.00  0.00    -0.045 C 
ATOM     15  H37 LJG d   1      10.582 -19.060 -20.427  0.00  0.00     0.041 H 
BRANCH  14  16
ATOM     16  C10 LJG d   1       8.996 -17.644 -20.912  0.00  0.00    -0.072 C 
ATOM     17  H9  LJG d   1       9.268 -17.579 -21.976  0.00  0.00     0.028 H 
ATOM     18  H10 LJG d   1       9.470 -16.818 -20.361  0.00  0.00     0.028 H 
ATOM     19  H11 LJG d   1       7.903 -17.575 -20.808  0.00  0.00     0.028 H 
ENDBRANCH  14  16
BRANCH  14  20
ATOM     20  C11 LJG d   1       8.855 -20.169 -21.136  0.00  0.00    -0.072 C 
ATOM     21  H38 LJG d   1       9.203 -21.128 -20.726  0.00  0.00     0.028 H 
ATOM     22  H39 LJG d   1       9.154 -20.091 -22.192  0.00  0.00     0.028 H 
ATOM     23  H40 LJG d   1       7.759 -20.114 -21.060  0.00  0.00     0.028 H 
ENDBRANCH  14  20
ENDBRANCH  11  14
ENDBRANCH  10  11
BRANCH  10  24
ATOM     24  S12 LJG d   1       9.969 -19.214 -16.306  0.00  0.00     0.260 S 
ATOM     25  O21 LJG d   1       8.884 -20.161 -16.315  0.00  0.00    -0.200 OA
ATOM     26  O20 LJG d   1      11.284 -19.521 -15.861  0.00  0.00    -0.200 OA
BRANCH  24  27
ATOM     27  C13 LJG d   1       9.426 -17.777 -15.394  0.00  0.00     0.079 A 
ATOM     28  C18 LJG d   1      10.335 -17.083 -14.591  0.00  0.00    -0.058 A 
ATOM     29  C17 LJG d   1       9.905 -15.936 -13.917  0.00  0.00    -0.056 A 
ATOM     30  H33 LJG d   1      11.358 -17.429 -14.492  0.00  0.00     0.086 H 
ATOM     31  C16 LJG d   1       8.566 -15.545 -14.010  0.00  0.00     0.025 A 
ATOM     32  H13 LJG d   1      10.604 -15.354 -13.327  0.00  0.00     0.086 H 
ATOM     33  C15 LJG d   1       7.647 -16.286 -14.759  0.00  0.00    -0.056 A 
ATOM     34  C14 LJG d   1       8.086 -17.403 -15.480  0.00  0.00    -0.058 A 
ATOM     35  H12 LJG d   1       6.602 -15.998 -14.781  0.00  0.00     0.086 H 
ATOM     36  H36 LJG d   1       7.395 -17.968 -16.095  0.00  0.00     0.086 H 
BRANCH  31  37
ATOM     37  N19 LJG d   1       8.130 -14.398 -13.309  0.00  0.00    -0.399 N 
ATOM     38  H34 LJG d   1       7.146 -14.100 -13.370  0.00  0.00     0.156 HD
ATOM     39  H35 LJG d   1       8.796 -13.860 -12.737  0.00  0.00     0.156 HD
ENDBRANCH  31  37
ENDBRANCH  24  27
ENDBRANCH  10  24
ENDBRANCH   7  10
ENDBRANCH   4   7
ENDBRANCH   1   4
BRANCH   1  40
ATOM     40  C2  LJG d   1      14.376 -19.608 -18.603  0.00  0.00     0.097 C 
ATOM     41  H20 LJG d   1      15.210 -19.060 -19.065  0.00  0.00     0.078 H 
ATOM     42  H21 LJG d   1      13.793 -20.116 -19.385  0.00  0.00     0.078 H 
BRANCH  40  43
ATOM     43  C3  LJG d   1      14.967 -20.681 -17.680  0.00  0.00     0.028 C 
ATOM     44  H22 LJG d   1      15.361 -20.143 -16.805  0.00  0.00     0.067 H 
ATOM     45  H23 LJG d   1      15.800 -21.134 -18.238  0.00  0.00     0.067 H 
BRANCH  43  46
ATOM     46  N4  LJG d   1      14.193 -21.788 -17.151  0.00  0.00    -0.305 N 
BRANCH  46  47
ATOM     47  C22 LJG d   1      14.397 -22.232 -15.747  0.00  0.00     0.008 C 
ATOM     48  H14 LJG d   1      15.442 -22.566 -15.668  0.00  0.00     0.066 H 
ATOM     49  H15 LJG d   1      13.726 -23.088 -15.584  0.00  0.00     0.066 H 
BRANCH  47  50
ATOM     50  C23 LJG d   1      14.152 -21.236 -14.567  0.00  0.00    -0.045 C 
ATOM     51  H29 LJG d   1      13.319 -20.568 -14.830  0.00  0.00     0.041 H 
BRANCH  50  52
ATOM     52  C24 LJG d   1      13.787 -22.020 -13.277  0.00  0.00    -0.072 C 
ATOM     53  H16 LJG d   1      13.617 -21.311 -12.453  0.00  0.00     0.028 H 
ATOM     54  H17 LJG d   1      14.613 -22.697 -13.013  0.00  0.00     0.028 H 
ATOM     55  H18 LJG d   1      12.873 -22.607 -13.451  0.00  0.00     0.028 H 
ENDBRANCH  50  52
BRANCH  50  56
ATOM     56  C25 LJG d   1      15.430 -20.381 -14.315  0.00  0.00    -0.072 C 
ATOM     57  H30 LJG d   1      15.687 -19.827 -15.230  0.00  0.00     0.028 H 
ATOM     58  H31 LJG d   1      16.265 -21.042 -14.040  0.00  0.00     0.028 H 
ATOM     59  H32 LJG d   1      15.241 -19.671 -13.497  0.00  0.00     0.028 H 
ENDBRANCH  50  56
ENDBRANCH  47  50
ENDBRANCH  46  47
BRANCH  46  60
ATOM     60  S26 LJG d   1      13.113 -22.542 -18.144  0.00  0.00     0.260 S 
ATOM     61  O35 LJG d   1      12.421 -23.482 -17.274  0.00  0.00    -0.200 OA
ATOM     62  O34 LJG d   1      12.309 -21.670 -18.957  0.00  0.00    -0.200 OA
BRANCH  60  63
ATOM     63  C27 LJG d   1      14.218 -23.447 -19.205  0.00  0.00     0.079 A 
ATOM     64  C28 LJG d   1      14.975 -24.530 -18.743  0.00  0.00    -0.058 A 
ATOM     65  C29 LJG d   1      15.809 -25.219 -19.627  0.00  0.00    -0.056 A 
ATOM     66  H19 LJG d   1      14.914 -24.833 -17.704  0.00  0.00     0.086 H 
ATOM     67  C30 LJG d   1      15.932 -24.790 -20.953  0.00  0.00     0.025 A 
ATOM     68  H28 LJG d   1      16.361 -26.087 -19.285  0.00  0.00     0.086 H 
ATOM     69  C31 LJG d   1      15.154 -23.726 -21.415  0.00  0.00    -0.056 A 
ATOM     70  C32 LJG d   1      14.292 -23.055 -20.545  0.00  0.00    -0.058 A 
ATOM     71  H25 LJG d   1      15.220 -23.420 -22.453  0.00  0.00     0.086 H 
ATOM     72  H24 LJG d   1      13.683 -22.234 -20.907  0.00  0.00     0.086 H 
BRANCH  67  73
ATOM     73  N33 LJG d   1      16.815 -25.441 -21.843  0.00  0.00    -0.399 N 
ATOM     74  H26 LJG d   1      17.393 -26.227 -21.512  0.00  0.00     0.156 HD
ATOM     75  H27 LJG d   1      16.881 -25.130 -22.823  0.00  0.00     0.156 HD
ENDBRANCH  67  73
ENDBRANCH  60  63
ENDBRANCH  46  60
ENDBRANCH  43  46
ENDBRANCH  40  43
ENDBRANCH   1  40
TORSDOF 20
