REMARK  16 active torsions:
REMARK  status: ('A' for Active; 'I' for Inactive)
REMARK    1  A    between atoms: N1_1  and  C5_2 
REMARK    2  A    between atoms: C2_9  and  N1_1 
REMARK    3  A    between atoms: C5_2  and  C6_3 
REMARK    4  A    between atoms: C6_3  and  N7_17 
REMARK    5  A    between atoms: C8_4  and  N4_11 
REMARK    6  A    between atoms: C9_21  and  C8_4 
REMARK    7  A    between atoms: C3_10  and  C2_9 
REMARK    8  A    between atoms: N4_11  and  C3_10 
REMARK    9  A    between atoms: N4_11  and  S15_23 
REMARK   10  A    between atoms: N7_17  and  C25_16 
REMARK   11  A    between atoms: C25_16  and  C26_41 
REMARK   12  A    between atoms: N7_17  and  S32_31 
REMARK   13  A    between atoms: S15_23  and  C16_19 
REMARK   14  A    between atoms: C19_28  and  N22_29 
REMARK   15  A    between atoms: S32_31  and  C33_34 
REMARK   16  A    between atoms: C36_37  and  N39_38 
ROOT
ATOM      1  N1  LJH d   1     -13.382  18.901 -17.850  0.00  0.00    -0.072 N 
ATOM      2  H1  LJH d   1     -13.900  18.039 -17.782  0.00  0.00     0.277 HD
ATOM      3  H2  LJH d   1     -13.103  19.199 -16.928  0.00  0.00     0.277 HD
ENDROOT
BRANCH   1   4
ATOM      4  C5  LJH d   1     -14.252  19.947 -18.459  0.00  0.00     0.097 C 
ATOM      5  H3  LJH d   1     -15.085  19.442 -18.970  0.00  0.00     0.078 H 
ATOM      6  H4  LJH d   1     -13.653  20.502 -19.195  0.00  0.00     0.078 H 
BRANCH   4   7
ATOM      7  C6  LJH d   1     -14.845  20.959 -17.468  0.00  0.00     0.028 C 
ATOM      8  H5  LJH d   1     -15.221  20.393 -16.603  0.00  0.00     0.067 H 
ATOM      9  H6  LJH d   1     -15.685  21.461 -17.971  0.00  0.00     0.067 H 
BRANCH   7  10
ATOM     10  N7  LJH d   1     -13.959  21.991 -16.963  0.00  0.00    -0.301 N 
BRANCH  10  11
ATOM     11  C25 LJH d   1     -13.874  22.458 -15.585  0.00  0.00     0.029 C 
ATOM     12  H21 LJH d   1     -14.424  23.410 -15.546  0.00  0.00     0.072 H 
ATOM     13  H22 LJH d   1     -12.808  22.641 -15.385  0.00  0.00     0.072 H 
BRANCH  11  14
ATOM     14  C26 LJH d   1     -14.389  21.618 -14.427  0.00  0.00    -0.040 C 
ATOM     15  C27 LJH d   1     -15.727  21.215 -14.307  0.00  0.00    -0.075 C 
ATOM     16  C28 LJH d   1     -16.135  20.406 -13.247  0.00  0.00    -0.082 C 
ATOM     17  H17 LJH d   1     -16.452  21.536 -15.046  0.00  0.00     0.084 H 
ATOM     18  C29 LJH d   1     -15.250  20.108 -12.204  0.00  0.00    -0.083 C 
ATOM     19  H12 LJH d   1     -17.142  20.006 -13.230  0.00  0.00     0.083 H 
ATOM     20  C30 LJH d   1     -13.901  20.454 -12.335  0.00  0.00    -0.082 C 
ATOM     21  H20 LJH d   1     -15.606  19.615 -11.306  0.00  0.00     0.083 H 
ATOM     22  C31 LJH d   1     -13.487  21.208 -13.432  0.00  0.00    -0.075 C 
ATOM     23  H19 LJH d   1     -13.182  20.138 -11.588  0.00  0.00     0.083 H 
ATOM     24  H18 LJH d   1     -12.443  21.485 -13.519  0.00  0.00     0.084 H 
ENDBRANCH  11  14
ENDBRANCH  10  11
BRANCH  10  25
ATOM     25  S32 LJH d   1     -12.950  22.754 -18.035  0.00  0.00     0.261 S 
ATOM     26  O41 LJH d   1     -12.145  21.767 -18.719  0.00  0.00    -0.200 OA
ATOM     27  O40 LJH d   1     -12.301  23.786 -17.252  0.00  0.00    -0.200 OA
BRANCH  25  28
ATOM     28  C33 LJH d   1     -14.064  23.505 -19.197  0.00  0.00     0.079 A 
ATOM     29  C38 LJH d   1     -14.873  24.573 -18.790  0.00  0.00    -0.058 A 
ATOM     30  C37 LJH d   1     -15.750  25.162 -19.701  0.00  0.00    -0.056 A 
ATOM     31  H31 LJH d   1     -14.818  24.940 -17.772  0.00  0.00     0.086 H 
ATOM     32  C36 LJH d   1     -15.824  24.696 -21.015  0.00  0.00     0.025 A 
ATOM     33  H32 LJH d   1     -16.378  25.987 -19.387  0.00  0.00     0.086 H 
ATOM     34  C35 LJH d   1     -15.005  23.643 -21.425  0.00  0.00    -0.056 A 
ATOM     35  C34 LJH d   1     -14.121  23.048 -20.514  0.00  0.00    -0.058 A 
ATOM     36  H35 LJH d   1     -15.052  23.285 -22.447  0.00  0.00     0.086 H 
ATOM     37  H36 LJH d   1     -13.482  22.233 -20.833  0.00  0.00     0.086 H 
BRANCH  32  38
ATOM     38  N39 LJH d   1     -16.748  25.298 -21.897  0.00  0.00    -0.399 N 
ATOM     39  H33 LJH d   1     -16.819  24.970 -22.871  0.00  0.00     0.156 HD
ATOM     40  H34 LJH d   1     -17.351  26.065 -21.567  0.00  0.00     0.156 HD
ENDBRANCH  32  38
ENDBRANCH  25  28
ENDBRANCH  10  25
ENDBRANCH   7  10
ENDBRANCH   4   7
ENDBRANCH   1   4
BRANCH   1  41
ATOM     41  C2  LJH d   1     -12.164  18.673 -18.678  0.00  0.00     0.097 C 
ATOM     42  H13 LJH d   1     -11.739  19.647 -18.962  0.00  0.00     0.078 H 
ATOM     43  H14 LJH d   1     -12.449  18.119 -19.584  0.00  0.00     0.078 H 
BRANCH  41  44
ATOM     44  C3  LJH d   1     -11.085  17.859 -17.909  0.00  0.00     0.028 C 
ATOM     45  H15 LJH d   1     -10.643  17.142 -18.617  0.00  0.00     0.067 H 
ATOM     46  H16 LJH d   1     -11.595  17.311 -17.103  0.00  0.00     0.067 H 
BRANCH  44  47
ATOM     47  N4  LJH d   1      -9.989  18.615 -17.304  0.00  0.00    -0.301 N 
BRANCH  47  48
ATOM     48  C8  LJH d   1      -8.743  18.939 -17.989  0.00  0.00     0.029 C 
ATOM     49  H7  LJH d   1      -8.100  18.047 -17.986  0.00  0.00     0.072 H 
ATOM     50  H8  LJH d   1      -8.244  19.752 -17.441  0.00  0.00     0.072 H 
BRANCH  48  51
ATOM     51  C9  LJH d   1      -8.950  19.384 -19.438  0.00  0.00    -0.040 A 
ATOM     52  C10 LJH d   1      -8.493  18.597 -20.497  0.00  0.00    -0.075 A 
ATOM     53  C11 LJH d   1      -8.690  19.004 -21.813  0.00  0.00    -0.082 A 
ATOM     54  H9  LJH d   1      -7.982  17.663 -20.293  0.00  0.00     0.084 H 
ATOM     55  C12 LJH d   1      -9.317  20.221 -22.085  0.00  0.00    -0.083 A 
ATOM     56  H25 LJH d   1      -8.355  18.374 -22.629  0.00  0.00     0.083 H 
ATOM     57  C13 LJH d   1      -9.820  20.990 -21.035  0.00  0.00    -0.082 A 
ATOM     58  H30 LJH d   1      -9.413  20.567 -23.108  0.00  0.00     0.083 H 
ATOM     59  C14 LJH d   1      -9.587  20.595 -19.715  0.00  0.00    -0.075 A 
ATOM     60  H10 LJH d   1     -10.389  21.889 -21.242  0.00  0.00     0.083 H 
ATOM     61  H24 LJH d   1      -9.904  21.235 -18.899  0.00  0.00     0.084 H 
ENDBRANCH  48  51
ENDBRANCH  47  48
BRANCH  47  62
ATOM     62  S15 LJH d   1     -10.104  19.101 -15.712  0.00  0.00     0.261 S 
ATOM     63  O24 LJH d   1      -9.137  20.134 -15.455  0.00  0.00    -0.200 OA
ATOM     64  O23 LJH d   1     -11.496  19.225 -15.401  0.00  0.00    -0.200 OA
BRANCH  62  65
ATOM     65  C16 LJH d   1      -9.510  17.576 -14.980  0.00  0.00     0.079 A 
ATOM     66  C17 LJH d   1      -8.150  17.264 -15.042  0.00  0.00    -0.058 A 
ATOM     67  C18 LJH d   1      -7.720  16.060 -14.459  0.00  0.00    -0.056 A 
ATOM     68  H11 LJH d   1      -7.446  17.932 -15.526  0.00  0.00     0.086 H 
ATOM     69  C19 LJH d   1      -8.673  15.217 -13.863  0.00  0.00     0.025 A 
ATOM     70  H23 LJH d   1      -6.671  15.786 -14.469  0.00  0.00     0.086 H 
ATOM     71  C20 LJH d   1     -10.018  15.574 -13.770  0.00  0.00    -0.056 A 
ATOM     72  C21 LJH d   1     -10.461  16.756 -14.365  0.00  0.00    -0.058 A 
ATOM     73  H27 LJH d   1     -10.716  14.937 -13.238  0.00  0.00     0.086 H 
ATOM     74  H26 LJH d   1     -11.510  17.030 -14.351  0.00  0.00     0.086 H 
BRANCH  69  75
ATOM     75  N22 LJH d   1      -8.286  13.991 -13.291  0.00  0.00    -0.399 N 
ATOM     76  H28 LJH d   1      -7.302  13.689 -13.337  0.00  0.00     0.156 HD
ATOM     77  H29 LJH d   1      -8.986  13.396 -12.826  0.00  0.00     0.156 HD
ENDBRANCH  69  75
ENDBRANCH  62  65
ENDBRANCH  47  62
ENDBRANCH  44  47
ENDBRANCH  41  44
ENDBRANCH   1  41
TORSDOF 16
