REMARK  4 active torsions:
REMARK  status: ('A' for Active; 'I' for Inactive)
REMARK    1  A    between atoms: C2_10  and  C1_1 
REMARK    2  A    between atoms: C12_8  and  N3_20 
REMARK    3  A    between atoms: N3_20  and  C13_9 
REMARK    4  A    between atoms: C6_18  and  C8_19 
ROOT
ATOM      1  N2  VX2 d   1     -16.231  34.635   0.910  0.00  0.00    -0.128 NA
ATOM      2  C9  VX2 d   1     -16.313  34.745  -0.416  0.00  0.00     0.175 A 
ATOM      3  C10 VX2 d   1     -15.665  34.193  -1.559  0.00  0.00    -0.031 A 
ATOM      4  C12 VX2 d   1     -17.134  35.622  -3.073  0.00  0.00     0.144 A 
ATOM      5  C11 VX2 d   1     -16.086  34.641  -2.871  0.00  0.00    -0.034 A 
ATOM      6  N1  VX2 d   1     -17.052  35.402   1.606  0.00  0.00    -0.127 NA
ATOM      7  C8  VX2 d   1     -17.762  36.110   0.688  0.00  0.00     0.185 A 
ATOM      8  N4  VX2 d   1     -17.705  36.110  -1.904  0.00  0.00    -0.146 NA
ATOM      9  N5  VX2 d   1     -17.331  35.715  -0.595  0.00  0.00    -0.191 N 
ATOM     10  H4  VX2 d   1     -14.873  33.453  -1.449  0.00  0.00     0.089 H 
ATOM     11  H7  VX2 d   1     -15.592  34.221  -3.746  0.00  0.00     0.089 H 
ENDROOT
BRANCH   4  12
ATOM     12  N3  VX2 d   1     -17.535  36.003  -4.341  0.00  0.00    -0.369 N 
ATOM     13  H10 VX2 d   1     -16.977  35.718  -5.158  0.00  0.00     0.161 HD
BRANCH  12  14
ATOM     14  C13 VX2 d   1     -18.726  36.796  -4.532  0.00  0.00     0.011 C 
ATOM     15  C14 VX2 d   1     -18.341  38.266  -4.401  0.00  0.00    -0.046 C 
ATOM     16  C15 VX2 d   1     -19.495  39.195  -4.749  0.00  0.00    -0.063 C 
ATOM     17  H11 VX2 d   1     -17.501  38.474  -5.080  0.00  0.00     0.035 H 
ATOM     18  H12 VX2 d   1     -18.030  38.460  -3.364  0.00  0.00     0.035 H 
ATOM     19  C16 VX2 d   1     -20.100  38.866  -6.107  0.00  0.00    -0.065 C 
ATOM     20  H8  VX2 d   1     -19.125  40.231  -4.766  0.00  0.00     0.033 H 
ATOM     21  H9  VX2 d   1     -20.275  39.097  -3.979  0.00  0.00     0.033 H 
ATOM     22  C17 VX2 d   1     -20.532  37.409  -6.207  0.00  0.00    -0.063 C 
ATOM     23  H13 VX2 d   1     -19.351  39.068  -6.887  0.00  0.00     0.033 H 
ATOM     24  H14 VX2 d   1     -20.979  39.508  -6.268  0.00  0.00     0.033 H 
ATOM     25  C18 VX2 d   1     -19.390  36.456  -5.884  0.00  0.00    -0.046 C 
ATOM     26  H15 VX2 d   1     -20.882  37.211  -7.231  0.00  0.00     0.033 H 
ATOM     27  H16 VX2 d   1     -21.354  37.232  -5.498  0.00  0.00     0.033 H 
ATOM     28  H17 VX2 d   1     -19.784  35.430  -5.839  0.00  0.00     0.035 H 
ATOM     29  H18 VX2 d   1     -18.633  36.524  -6.680  0.00  0.00     0.035 H 
ATOM     30  H5  VX2 d   1     -19.445  36.556  -3.735  0.00  0.00     0.072 H 
ENDBRANCH  12  14
ENDBRANCH   4  12
BRANCH   7  31
ATOM     31  C6  VX2 d   1     -18.763  37.161   1.059  0.00  0.00     0.014 A 
ATOM     32  C5  VX2 d   1     -18.838  37.740   2.412  0.00  0.00    -0.069 A 
ATOM     33  C4  VX2 d   1     -19.784  38.808   2.717  0.00  0.00    -0.081 A 
ATOM     34  H3  VX2 d   1     -18.182  37.368   3.191  0.00  0.00     0.085 H 
ATOM     35  C3  VX2 d   1     -20.671  39.318   1.679  0.00  0.00    -0.068 A 
ATOM     36  H2  VX2 d   1     -19.827  39.223   3.717  0.00  0.00     0.083 H 
ATOM     37  C2  VX2 d   1     -20.635  38.761   0.300  0.00  0.00     0.048 A 
ATOM     38  H1  VX2 d   1     -21.367  40.115   1.915  0.00  0.00     0.084 H 
ATOM     39  C7  VX2 d   1     -19.669  37.689   0.045  0.00  0.00    -0.055 A 
ATOM     40  H6  VX2 d   1     -19.625  37.265  -0.952  0.00  0.00     0.086 H 
BRANCH  37  41
ATOM     41  C1  VX2 d   1     -21.564  39.275  -0.823  0.00  0.00     0.417 C 
ATOM     42  F1  VX2 d   1     -22.846  39.124  -0.402  0.00  0.00    -0.166 F 
ATOM     43  F2  VX2 d   1     -21.452  38.553  -1.970  0.00  0.00    -0.166 F 
ATOM     44  F3  VX2 d   1     -21.225  40.565  -1.091  0.00  0.00    -0.166 F 
ENDBRANCH  37  41
ENDBRANCH   7  31
TORSDOF 4
