REMARK  5 active torsions:
REMARK  status: ('A' for Active; 'I' for Inactive)
REMARK    1  A    between atoms: O5'_1  and  C5'_2 
REMARK    2  A    between atoms: C5'_2  and  C4'_3 
REMARK    3  A    between atoms: C3'_5  and  O3'_6 
REMARK    4  A    between atoms: N1'_8  and  C10_9 
REMARK    5  A    between atoms: C10_9  and  C9_10 
ROOT
ATOM      1  C4' DIH d   1      15.350  11.337  60.703  0.00  0.00     0.016 C 
ATOM      2  C6' DIH d   1      14.405  11.314  59.527  0.00  0.00     0.091 C 
ATOM      3  C3' DIH d   1      15.210  12.753  61.260  0.00  0.00     0.066 C 
ATOM      4  C2' DIH d   1      14.743  13.614  60.063  0.00  0.00     0.108 C 
ATOM      5  N1' DIH d   1      14.625  12.659  58.929  0.00  0.00    -0.064 N 
ATOM      6  H4  DIH d   1      15.054  10.608  61.472  0.00  0.00     0.049 H 
ATOM      7  H5  DIH d   1      13.362  11.188  59.854  0.00  0.00     0.076 H 
ATOM      8  H6  DIH d   1      14.667  10.514  58.819  0.00  0.00     0.076 H 
ATOM      9  H7  DIH d   1      16.161  13.130  61.664  0.00  0.00     0.086 H 
ATOM     10  H9  DIH d   1      15.483  14.395  59.836  0.00  0.00     0.080 H 
ATOM     11  H10 DIH d   1      13.771  14.082  60.278  0.00  0.00     0.080 H 
ATOM     12  H11 DIH d   1      15.524  12.653  58.474  0.00  0.00     0.280 HD
ENDROOT
BRANCH   5  13
ATOM     13  C10 DIH d   1      13.640  12.917  57.849  0.00  0.00     0.111 C 
ATOM     14  H12 DIH d   1      13.562  13.991  57.626  0.00  0.00     0.083 H 
ATOM     15  H13 DIH d   1      12.647  12.524  58.111  0.00  0.00     0.083 H 
BRANCH  13  16
ATOM     16  C9  DIH d   1      14.251  12.150  56.680  0.00  0.00     0.014 A 
ATOM     17  C8  DIH d   1      15.314  12.568  55.872  0.00  0.00    -0.012 A 
ATOM     18  N7  DIH d   1      15.606  11.606  54.958  0.00  0.00    -0.359 N 
ATOM     19  H14 DIH d   1      15.831  13.523  55.962  0.00  0.00     0.112 H 
ATOM     20  C5  DIH d   1      14.767  10.526  55.112  0.00  0.00     0.130 A 
ATOM     21  H15 DIH d   1      16.351  11.675  54.250  0.00  0.00     0.165 HD
ATOM     22  C6  DIH d   1      14.594   9.285  54.494  0.00  0.00     0.275 A 
ATOM     23  C4  DIH d   1      13.920  10.804  56.178  0.00  0.00     0.099 A 
ATOM     24  O6  DIH d   1      15.331   8.911  53.541  0.00  0.00    -0.266 OA
ATOM     25  N1  DIH d   1      13.619   8.436  54.960  0.00  0.00    -0.316 N 
ATOM     26  C2  DIH d   1      12.820   8.781  55.987  0.00  0.00     0.067 A 
ATOM     27  H16 DIH d   1      13.501   7.543  54.527  0.00  0.00     0.170 HD
ATOM     28  N3  DIH d   1      12.958   9.932  56.618  0.00  0.00    -0.241 NA
ATOM     29  H17 DIH d   1      12.039   8.092  56.306  0.00  0.00     0.143 H 
ENDBRANCH  13  16
ENDBRANCH   5  13
BRANCH   1  30
ATOM     30  C5' DIH d   1      16.732  10.960  60.165  0.00  0.00     0.024 C 
ATOM     31  H2  DIH d   1      17.258  10.348  60.912  0.00  0.00     0.074 H 
ATOM     32  H3  DIH d   1      16.615  10.384  59.235  0.00  0.00     0.074 H 
BRANCH  30  33
ATOM     33  O5' DIH d   1      17.494  12.134  59.898  0.00  0.00    -0.400 OA
ATOM     34  H1  DIH d   1      18.349  11.887  59.565  0.00  0.00     0.209 HD
ENDBRANCH  30  33
ENDBRANCH   1  30
BRANCH   3  35
ATOM     35  O3' DIH d   1      14.198  12.687  62.313  0.00  0.00    -0.393 OA
ATOM     36  H8  DIH d   1      14.484  12.083  62.988  0.00  0.00     0.210 HD
ENDBRANCH   3  35
TORSDOF 5
