REMARK  3 active torsions:
REMARK  status: ('A' for Active; 'I' for Inactive)
REMARK    1  A    between atoms: C17_16  and  C16_2 
REMARK    2  A    between atoms: C5_6  and  C3_4 
REMARK    3  A    between atoms: C9_9  and  C10_10 
ROOT
ATOM      1  C16 VX3 d   1     -19.469  37.586  -1.023  0.00  0.00     0.014 A 
ATOM      2  C5  VX3 d   1     -17.671  36.548   1.986  0.00  0.00     0.068 A 
ATOM      3  C6  VX3 d   1     -18.184  36.687   0.672  0.00  0.00     0.061 A 
ATOM      4  N7  VX3 d   1     -17.957  36.014  -0.504  0.00  0.00    -0.353 N 
ATOM      5  C9  VX3 d   1     -18.705  36.549  -1.523  0.00  0.00     0.055 A 
ATOM      6  C23 VX3 d   1     -19.125  37.695   0.406  0.00  0.00     0.005 A 
ATOM      7  C24 VX3 d   1     -19.547  38.542   1.437  0.00  0.00    -0.070 A 
ATOM      8  C25 VX3 d   1     -19.054  38.406   2.716  0.00  0.00    -0.081 A 
ATOM      9  C26 VX3 d   1     -18.102  37.426   2.993  0.00  0.00    -0.064 A 
ATOM     10  H2  VX3 d   1     -17.313  35.217  -0.607  0.00  0.00     0.166 HD
ATOM     11  H12 VX3 d   1     -20.274  39.318   1.226  0.00  0.00     0.084 H 
ATOM     12  H13 VX3 d   1     -19.406  39.060   3.506  0.00  0.00     0.083 H 
ATOM     13  H14 VX3 d   1     -17.692  37.341   3.993  0.00  0.00     0.085 H 
ENDROOT
BRANCH   1  14
ATOM     14  C17 VX3 d   1     -20.369  38.526  -1.750  0.00  0.00    -0.023 A 
ATOM     15  C18 VX3 d   1     -21.609  38.952  -1.253  0.00  0.00    -0.072 A 
ATOM     16  C19 VX3 d   1     -22.352  39.879  -1.977  0.00  0.00    -0.082 A 
ATOM     17  H8  VX3 d   1     -21.985  38.563  -0.314  0.00  0.00     0.084 H 
ATOM     18  C20 VX3 d   1     -21.872  40.405  -3.177  0.00  0.00    -0.083 A 
ATOM     19  H1  VX3 d   1     -23.318  40.197  -1.603  0.00  0.00     0.083 H 
ATOM     20  C21 VX3 d   1     -20.633  40.014  -3.668  0.00  0.00    -0.082 A 
ATOM     21  H9  VX3 d   1     -22.469  41.122  -3.729  0.00  0.00     0.083 H 
ATOM     22  C22 VX3 d   1     -19.885  39.096  -2.954  0.00  0.00    -0.072 A 
ATOM     23  H10 VX3 d   1     -20.257  40.423  -4.599  0.00  0.00     0.083 H 
ATOM     24  H11 VX3 d   1     -18.908  38.806  -3.323  0.00  0.00     0.084 H 
ENDBRANCH   1  14
BRANCH   5  25
ATOM     25  C10 VX3 d   1     -18.694  36.030  -2.915  0.00  0.00    -0.009 A 
ATOM     26  C11 VX3 d   1     -19.878  36.024  -3.684  0.00  0.00    -0.071 A 
ATOM     27  C12 VX3 d   1     -19.854  35.527  -4.979  0.00  0.00    -0.082 A 
ATOM     28  H3  VX3 d   1     -20.802  36.406  -3.264  0.00  0.00     0.084 H 
ATOM     29  C13 VX3 d   1     -18.669  35.029  -5.512  0.00  0.00    -0.083 A 
ATOM     30  H4  VX3 d   1     -20.759  35.527  -5.576  0.00  0.00     0.083 H 
ATOM     31  C14 VX3 d   1     -17.504  35.011  -4.748  0.00  0.00    -0.082 A 
ATOM     32  H5  VX3 d   1     -18.652  34.653  -6.528  0.00  0.00     0.083 H 
ATOM     33  C15 VX3 d   1     -17.509  35.501  -3.459  0.00  0.00    -0.071 A 
ATOM     34  H6  VX3 d   1     -16.589  34.610  -5.169  0.00  0.00     0.083 H 
ATOM     35  H7  VX3 d   1     -16.602  35.479  -2.866  0.00  0.00     0.084 H 
ENDBRANCH   5  25
BRANCH   2  36
ATOM     36  C3  VX3 d   1     -16.636  35.537   2.261  0.00  0.00     0.211 C 
ATOM     37  O2  VX3 d   1     -16.353  34.639   1.306  0.00  0.00    -0.644 OA
ATOM     38  O4  VX3 d   1     -15.997  35.542   3.310  0.00  0.00    -0.644 OA
ENDBRANCH   2  36
TORSDOF 3
