REMARK  14 active torsions:
REMARK  status: ('A' for Active; 'I' for Inactive)
REMARK    1  A    between atoms: CG_9  and  CB_10 
REMARK    2  A    between atoms: CB_10  and  CA_11 
REMARK    3  A    between atoms: CA_11  and  C_12 
REMARK    4  A    between atoms: CA_11  and  N_15 
REMARK       I    between atoms: N_15  and  CBC_16 
REMARK    5  A    between atoms: CBC_16  and  CAV_18 
REMARK    6  A    between atoms: CAV_18  and  CAW_19 
REMARK    7  A    between atoms: CAW_19  and  CBM_20 
REMARK    8  A    between atoms: CBM_20  and  OAE_21 
REMARK    9  A    between atoms: CBM_20  and  OAF_22 
REMARK   10  A    between atoms: CBM_20  and  CBL_23 
REMARK   11  A    between atoms: CBL_23  and  CAX_24 
REMARK   12  A    between atoms: CBL_23  and  NBA_31 
REMARK   13  A    between atoms: CAX_24  and  CBF_25 
REMARK       I    between atoms: NBA_31  and  CBE_32 
REMARK   14  A    between atoms: CBE_32  and  CBG_34 
ROOT
ATOM      1  CBM KAW d   1      44.716  45.811  46.590  0.00  0.00     0.180 C 
ENDROOT
BRANCH   1   2
ATOM      2  CAW KAW d   1      45.068  47.231  46.139  0.00  0.00    -0.003 C 
ATOM      3  H13 KAW d   1      44.550  47.953  46.787  0.00  0.00     0.041 H 
ATOM      4  H14 KAW d   1      46.155  47.377  46.223  0.00  0.00     0.041 H 
BRANCH   2   5
ATOM      5  CAV KAW d   1      44.639  47.465  44.678  0.00  0.00     0.014 C 
ATOM      6  H11 KAW d   1      43.869  46.733  44.392  0.00  0.00     0.047 H 
ATOM      7  H12 KAW d   1      44.238  48.483  44.564  0.00  0.00     0.047 H 
BRANCH   5   8
ATOM      8  CBC KAW d   1      45.872  47.292  43.797  0.00  0.00     0.218 C 
ATOM      9  N   KAW d   1      45.676  47.178  42.488  0.00  0.00    -0.346 N 
ATOM     10  H10 KAW d   1      44.747  47.202  42.119  0.00  0.00     0.163 HD
ATOM     11  OAA KAW d   1      46.996  47.277  44.298  0.00  0.00    -0.274 OA
BRANCH   9  12
ATOM     12  CA  KAW d   1      46.812  47.018  41.588  0.00  0.00     0.100 C 
ATOM     13  H9  KAW d   1      47.493  46.268  42.017  0.00  0.00     0.090 H 
BRANCH  12  14
ATOM     14  CB  KAW d   1      46.343  46.521  40.220  0.00  0.00    -0.011 C 
ATOM     15  H7  KAW d   1      47.230  46.345  39.594  0.00  0.00     0.044 H 
ATOM     16  H8  KAW d   1      45.802  45.574  40.364  0.00  0.00     0.044 H 
BRANCH  14  17
ATOM     17  CG  KAW d   1      45.440  47.474  39.498  0.00  0.00    -0.028 A 
ATOM     18  CD2 KAW d   1      44.027  47.328  39.311  0.00  0.00    -0.002 A 
ATOM     19  CE3 KAW d   1      43.090  46.371  39.715  0.00  0.00    -0.070 A 
ATOM     20  CE2 KAW d   1      43.593  48.427  38.542  0.00  0.00     0.042 A 
ATOM     21  CZ3 KAW d   1      41.769  46.542  39.344  0.00  0.00    -0.082 A 
ATOM     22  H1  KAW d   1      43.393  45.514  40.306  0.00  0.00     0.084 H 
ATOM     23  CH2 KAW d   1      41.368  47.645  38.580  0.00  0.00    -0.081 A 
ATOM     24  H2  KAW d   1      41.031  45.809  39.650  0.00  0.00     0.083 H 
ATOM     25  CZ2 KAW d   1      42.260  48.598  38.168  0.00  0.00    -0.056 A 
ATOM     26  H3  KAW d   1      40.324  47.747  38.308  0.00  0.00     0.083 H 
ATOM     27  H4  KAW d   1      41.944  49.450  37.576  0.00  0.00     0.086 H 
ATOM     28  NE1 KAW d   1      44.690  49.204  38.282  0.00  0.00    -0.365 N 
ATOM     29  CD1 KAW d   1      45.796  48.627  38.860  0.00  0.00    -0.015 A 
ATOM     30  H5  KAW d   1      44.687  50.080  37.740  0.00  0.00     0.165 HD
ATOM     31  H6  KAW d   1      46.807  49.030  38.815  0.00  0.00     0.112 H 
ENDBRANCH  14  17
ENDBRANCH  12  14
BRANCH  12  32
ATOM     32  C   KAW d   1      47.573  48.337  41.442  0.00  0.00     0.197 C 
ATOM     33  OXT KAW d   1      48.738  48.300  40.994  0.00  0.00    -0.646 OA
ATOM     34  O   KAW d   1      46.989  49.389  41.780  0.00  0.00    -0.646 OA
ENDBRANCH  12  32
ENDBRANCH   9  12
ENDBRANCH   5   8
ENDBRANCH   2   5
ENDBRANCH   1   2
BRANCH   1  35
ATOM     35  OAE KAW d   1      45.131  44.852  45.613  0.00  0.00    -0.364 OA
ATOM     36  H15 KAW d   1      46.074  44.898  45.506  0.00  0.00     0.213 HD
ENDBRANCH   1  35
BRANCH   1  37
ATOM     37  OAF KAW d   1      43.297  45.730  46.739  0.00  0.00    -0.364 OA
ATOM     38  H16 KAW d   1      43.011  46.364  47.386  0.00  0.00     0.213 HD
ENDBRANCH   1  37
BRANCH   1  39
ATOM     39  CBL KAW d   1      45.354  45.503  47.947  0.00  0.00     0.070 C 
ATOM     40  H17 KAW d   1      44.942  46.215  48.677  0.00  0.00     0.081 H 
BRANCH  39  41
ATOM     41  CAX KAW d   1      46.875  45.668  47.921  0.00  0.00    -0.017 C 
ATOM     42  H18 KAW d   1      47.114  46.687  47.583  0.00  0.00     0.043 H 
ATOM     43  H19 KAW d   1      47.297  44.939  47.214  0.00  0.00     0.043 H 
BRANCH  41  44
ATOM     44  CBF KAW d   1      47.499  45.448  49.271  0.00  0.00    -0.056 A 
ATOM     45  CAO KAW d   1      47.708  46.510  50.136  0.00  0.00    -0.077 A 
ATOM     46  CAI KAW d   1      48.266  46.309  51.385  0.00  0.00    -0.082 A 
ATOM     47  H20 KAW d   1      47.430  47.512  49.829  0.00  0.00     0.084 H 
ATOM     48  CAG KAW d   1      48.622  45.035  51.787  0.00  0.00    -0.083 A 
ATOM     49  H21 KAW d   1      48.424  47.151  52.049  0.00  0.00     0.083 H 
ATOM     50  CAJ KAW d   1      48.417  43.967  50.933  0.00  0.00    -0.082 A 
ATOM     51  H22 KAW d   1      49.059  44.874  52.766  0.00  0.00     0.083 H 
ATOM     52  CAP KAW d   1      47.859  44.177  49.686  0.00  0.00    -0.077 A 
ATOM     53  H23 KAW d   1      48.694  42.965  51.241  0.00  0.00     0.083 H 
ATOM     54  H24 KAW d   1      47.701  43.334  49.023  0.00  0.00     0.084 H 
ENDBRANCH  41  44
ENDBRANCH  39  41
BRANCH  39  55
ATOM     55  NBA KAW d   1      45.047  44.152  48.400  0.00  0.00    -0.347 N 
ATOM     56  CBE KAW d   1      44.013  43.912  49.198  0.00  0.00     0.252 C 
ATOM     57  OAC KAW d   1      43.221  44.782  49.560  0.00  0.00    -0.268 OA
ATOM     58  H25 KAW d   1      45.626  43.392  48.104  0.00  0.00     0.163 HD
BRANCH  56  59
ATOM     59  CBG KAW d   1      43.836  42.445  49.592  0.00  0.00     0.032 A 
ATOM     60  CAQ KAW d   1      43.061  42.103  50.687  0.00  0.00    -0.068 A 
ATOM     61  CAK KAW d   1      42.897  40.772  51.023  0.00  0.00    -0.082 A 
ATOM     62  H26 KAW d   1      42.584  42.876  51.279  0.00  0.00     0.085 H 
ATOM     63  CAH KAW d   1      43.504  39.785  50.269  0.00  0.00    -0.083 A 
ATOM     64  H27 KAW d   1      42.291  40.502  51.880  0.00  0.00     0.083 H 
ATOM     65  CAL KAW d   1      44.279  40.128  49.177  0.00  0.00    -0.082 A 
ATOM     66  H28 KAW d   1      43.372  38.742  50.534  0.00  0.00     0.083 H 
ATOM     67  CAR KAW d   1      44.447  41.458  48.839  0.00  0.00    -0.068 A 
ATOM     68  H29 KAW d   1      44.755  39.354  48.586  0.00  0.00     0.083 H 
ATOM     69  H30 KAW d   1      45.057  41.727  47.984  0.00  0.00     0.085 H 
ENDBRANCH  56  59
ENDBRANCH  39  55
ENDBRANCH   1  39
TORSDOF 14
