REMARK  6 active torsions:
REMARK  status: ('A' for Active; 'I' for Inactive)
REMARK    1  A    between atoms: CA1_1  and  NA1_2 
REMARK    2  A    between atoms: NA1_2  and  CA2_3 
REMARK    3  A    between atoms: NA1_2  and  CA3_4 
REMARK    4  A    between atoms: CA4_8  and  CA5_9 
REMARK    5  A    between atoms: CA5_9  and  SA2_10 
REMARK    6  A    between atoms: SA2_10  and  NA4_12 
ROOT
ATOM      1  CA3 BL0 d   1      -4.807   5.187  13.720  0.00  0.00     0.191 A 
ATOM      2  SA1 BL0 d   1      -5.720   3.748  14.021  0.00  0.00    -0.032 SA
ATOM      3  NA2 BL0 d   1      -3.512   5.010  13.992  0.00  0.00    -0.123 NA
ATOM      4  NA3 BL0 d   1      -3.213   3.712  14.428  0.00  0.00    -0.144 NA
ATOM      5  CA4 BL0 d   1      -4.285   2.890  14.504  0.00  0.00     0.116 A 
ENDROOT
BRANCH   1   6
ATOM      6  NA1 BL0 d   1      -5.299   6.381  13.237  0.00  0.00    -0.367 N 
BRANCH   6   7
ATOM      7  CA1 BL0 d   1      -4.393   7.433  12.831  0.00  0.00    -0.017 C 
ATOM      8  H1  BL0 d   1      -4.972   8.299  12.477  0.00  0.00     0.056 H 
ATOM      9  H2  BL0 d   1      -3.747   7.068  12.019  0.00  0.00     0.056 H 
ATOM     10  H3  BL0 d   1      -3.771   7.732  13.688  0.00  0.00     0.056 H 
ENDBRANCH   6   7
BRANCH   6  11
ATOM     11  CA2 BL0 d   1      -6.703   6.627  12.995  0.00  0.00    -0.017 C 
ATOM     12  H4  BL0 d   1      -7.291   5.765  13.342  0.00  0.00     0.056 H 
ATOM     13  H5  BL0 d   1      -6.869   6.775  11.918  0.00  0.00     0.056 H 
ATOM     14  H6  BL0 d   1      -7.017   7.529  13.541  0.00  0.00     0.056 H 
ENDBRANCH   6  11
ENDBRANCH   1   6
BRANCH   5  15
ATOM     15  CA5 BL0 d   1      -4.409   1.437  14.880  0.00  0.00     0.093 C 
ATOM     16  H7  BL0 d   1      -3.390   1.033  14.978  0.00  0.00     0.069 H 
ATOM     17  H8  BL0 d   1      -4.929   0.926  14.056  0.00  0.00     0.069 H 
BRANCH  15  18
ATOM     18  SA2 BL0 d   1      -5.224   1.078  16.282  0.00  0.00     0.230 S 
ATOM     19  OA1 BL0 d   1      -6.551   1.434  16.172  0.00  0.00    -0.206 OA
ATOM     20  OA2 BL0 d   1      -4.529   1.651  17.379  0.00  0.00    -0.206 OA
BRANCH  18  21
ATOM     21  NA4 BL0 d   1      -5.155  -0.446  16.562  0.00  0.00    -0.328 N 
ATOM     22  H9  BL0 d   1      -5.599  -0.826  17.373  0.00  0.00     0.168 HD
ATOM     23  H10 BL0 d   1      -4.666  -1.049  15.931  0.00  0.00     0.168 HD
ENDBRANCH  18  21
ENDBRANCH  15  18
ENDBRANCH   5  15
TORSDOF 6
