REMARK  5 active torsions:
REMARK  status: ('A' for Active; 'I' for Inactive)
REMARK    1  A    between atoms: SAX_2  and  NAS_3 
REMARK    2  A    between atoms: SAX_2  and  CAO_5 
REMARK    3  A    between atoms: CAL_11  and  CAK_12 
REMARK       I    between atoms: CAK_12  and  NAR_14 
REMARK    4  A    between atoms: NAR_14  and  NAT_15 
REMARK    5  A    between atoms: CAI_16  and  CAP_17 
ROOT
ATOM      1  NAT BL1 d   1      -3.242   4.644  10.864  0.00  0.00    -0.284 N 
ATOM      2  CAI BL1 d   1      -2.003   4.716  10.083  0.00  0.00     0.033 A 
ATOM      3  CAA BL1 d   1      -3.783   5.912  11.112  0.00  0.00     0.057 A 
ATOM      4  CAB BL1 d   1      -2.952   6.864  10.583  0.00  0.00    -0.028 A 
ATOM      5  CAF BL1 d   1      -1.747   6.229   9.923  0.00  0.00    -0.018 A 
ATOM      6  CAD BL1 d   1      -4.971   6.267  11.760  0.00  0.00    -0.055 A 
ATOM      7  CAH BL1 d   1      -5.292   7.630  11.868  0.00  0.00    -0.081 A 
ATOM      8  CAG BL1 d   1      -4.425   8.599  11.325  0.00  0.00    -0.082 A 
ATOM      9  CAE BL1 d   1      -3.234   8.231  10.673  0.00  0.00    -0.075 A 
ATOM     10  H7  BL1 d   1      -1.175   4.228  10.618  0.00  0.00     0.075 H 
ATOM     11  H11 BL1 d   1      -1.689   6.508   8.861  0.00  0.00     0.043 H 
ATOM     12  H12 BL1 d   1      -0.818   6.526  10.432  0.00  0.00     0.043 H 
ATOM     13  H13 BL1 d   1      -5.628   5.508  12.169  0.00  0.00     0.087 H 
ATOM     14  H14 BL1 d   1      -6.204   7.936  12.368  0.00  0.00     0.083 H 
ATOM     15  H15 BL1 d   1      -4.681   9.649  11.411  0.00  0.00     0.083 H 
ATOM     16  H16 BL1 d   1      -2.564   8.975  10.258  0.00  0.00     0.084 H 
ENDROOT
BRANCH   1  17
ATOM     17  NAR BL1 d   1      -3.759   3.371  11.213  0.00  0.00    -0.263 N 
ATOM     18  CAK BL1 d   1      -4.349   2.716  12.230  0.00  0.00     0.270 C 
ATOM     19  OAU BL1 d   1      -4.567   1.547  11.912  0.00  0.00    -0.266 OA
ATOM     20  H6  BL1 d   1      -3.647   2.747  10.440  0.00  0.00     0.190 HD
BRANCH  18  21
ATOM     21  CAL BL1 d   1      -4.861   3.126  13.617  0.00  0.00     0.035 A 
ATOM     22  CAM BL1 d   1      -5.188   2.111  14.556  0.00  0.00    -0.043 A 
ATOM     23  CAO BL1 d   1      -5.700   2.341  15.852  0.00  0.00     0.102 A 
ATOM     24  H3  BL1 d   1      -5.033   1.081  14.255  0.00  0.00     0.087 H 
ATOM     25  CAJ BL1 d   1      -5.906   3.672  16.168  0.00  0.00     0.057 A 
ATOM     26 CLAQ BL1 d   1      -6.572   4.052  17.768  0.00  0.00    -0.083 Cl
ATOM     27  CAC BL1 d   1      -5.629   4.703  15.259  0.00  0.00    -0.059 A 
ATOM     28  CAN BL1 d   1      -5.104   4.440  13.993  0.00  0.00    -0.066 A 
ATOM     29  H4  BL1 d   1      -5.827   5.729  15.547  0.00  0.00     0.086 H 
ATOM     30  H5  BL1 d   1      -4.888   5.254  13.310  0.00  0.00     0.085 H 
BRANCH  23  31
ATOM     31  SAX BL1 d   1      -6.051   1.125  16.911  0.00  0.00     0.258 S 
ATOM     32  OAW BL1 d   1      -7.468   0.916  16.985  0.00  0.00    -0.201 OA
ATOM     33  OAV BL1 d   1      -5.583   1.307  18.415  0.00  0.00    -0.201 OA
BRANCH  31  34
ATOM     34  NAS BL1 d   1      -5.454  -0.063  16.353  0.00  0.00    -0.324 N 
ATOM     35  H1  BL1 d   1      -5.648  -0.323  15.407  0.00  0.00     0.169 HD
ATOM     36  H2  BL1 d   1      -4.846  -0.627  16.912  0.00  0.00     0.169 HD
ENDBRANCH  31  34
ENDBRANCH  23  31
ENDBRANCH  18  21
ENDBRANCH   1  17
BRANCH   2  37
ATOM     37  CAP BL1 d   1      -2.177   4.075   8.711  0.00  0.00    -0.055 C 
ATOM     38  H8  BL1 d   1      -1.233   4.145   8.151  0.00  0.00     0.030 H 
ATOM     39  H9  BL1 d   1      -2.970   4.600   8.159  0.00  0.00     0.030 H 
ATOM     40  H10 BL1 d   1      -2.454   3.017   8.833  0.00  0.00     0.030 H 
ENDBRANCH   2  37
TORSDOF 5
