REMARK  4 active torsions:
REMARK  status: ('A' for Active; 'I' for Inactive)
REMARK    1  A    between atoms: C1_1  and  O1_2 
REMARK    2  A    between atoms: C3_4  and  O3_5 
REMARK    3  A    between atoms: C9_12  and  C10_13 
REMARK    4  A    between atoms: C17_15  and  O17_16 
ROOT
ATOM      1  C1  EMO d   1      17.275 -55.252 -46.735  0.00  0.00     0.083 A 
ATOM      2  C2  EMO d   1      17.117 -56.600 -46.477  0.00  0.00    -0.018 A 
ATOM      3  C3  EMO d   1      16.819 -57.017 -45.186  0.00  0.00     0.069 A 
ATOM      4  C4  EMO d   1      16.710 -56.091 -44.153  0.00  0.00    -0.036 A 
ATOM      5  C5  EMO d   1      16.865 -54.723 -44.429  0.00  0.00     0.035 A 
ATOM      6  C6  EMO d   1      16.732 -53.768 -43.408  0.00  0.00     0.194 A 
ATOM      7  O6  EMO d   1      16.461 -54.146 -42.252  0.00  0.00    -0.287 OA
ATOM      8  C7  EMO d   1      16.894 -52.397 -43.701  0.00  0.00     0.032 A 
ATOM      9  C8  EMO d   1      16.769 -51.431 -42.679  0.00  0.00    -0.062 A 
ATOM     10  C9  EMO d   1      16.929 -50.066 -42.933  0.00  0.00    -0.058 A 
ATOM     11  C16 EMO d   1      17.227 -49.649 -44.221  0.00  0.00    -0.044 A 
ATOM     12  C17 EMO d   1      17.344 -50.595 -45.251  0.00  0.00     0.081 A 
ATOM     13  C18 EMO d   1      17.194 -51.975 -45.010  0.00  0.00     0.062 A 
ATOM     14  C19 EMO d   1      17.312 -52.940 -46.035  0.00  0.00     0.199 A 
ATOM     15  O19 EMO d   1      17.561 -52.618 -47.204  0.00  0.00    -0.286 OA
ATOM     16  C20 EMO d   1      17.149 -54.302 -45.728  0.00  0.00     0.062 A 
ATOM     17  H2  EMO d   1      17.225 -57.326 -47.275  0.00  0.00     0.092 H 
ATOM     18  H4  EMO d   1      16.507 -56.424 -43.142  0.00  0.00     0.089 H 
ATOM     19  H5  EMO d   1      16.543 -51.757 -41.670  0.00  0.00     0.085 H 
ATOM     20  H9  EMO d   1      17.369 -48.595 -44.432  0.00  0.00     0.088 H 
ENDROOT
BRANCH  10  21
ATOM     21  C10 EMO d   1      16.787 -49.001 -41.805  0.00  0.00    -0.051 C 
ATOM     22  H6  EMO d   1      16.952 -47.998 -42.225  0.00  0.00     0.033 H 
ATOM     23  H7  EMO d   1      17.532 -49.197 -41.020  0.00  0.00     0.033 H 
ATOM     24  H8  EMO d   1      15.777 -49.056 -41.373  0.00  0.00     0.033 H 
ENDBRANCH  10  21
BRANCH  12  25
ATOM     25  O17 EMO d   1      17.624 -50.139 -46.493  0.00  0.00    -0.360 OA
ATOM     26  H10 EMO d   1      17.677 -50.873 -47.094  0.00  0.00     0.217 HD
ENDBRANCH  12  25
BRANCH   3  27
ATOM     27  O3  EMO d   1      16.652 -58.328 -44.940  0.00  0.00    -0.361 OA
ATOM     28  H3  EMO d   1      15.934 -58.659 -45.467  0.00  0.00     0.217 HD
ENDBRANCH   3  27
BRANCH   1  29
ATOM     29  O1  EMO d   1      17.581 -54.817 -47.968  0.00  0.00    -0.360 OA
ATOM     30  H1  EMO d   1      17.650 -53.870 -47.960  0.00  0.00     0.217 HD
ENDBRANCH   1  29
TORSDOF 4
