REMARK  4 active torsions:
REMARK  status: ('A' for Active; 'I' for Inactive)
REMARK    1  A    between atoms: C4_1  and  C7_4 
REMARK    2  A    between atoms: C1_9  and  C4_1 
REMARK    3  A    between atoms: C7_4  and  N9_10 
REMARK    4  A    between atoms: C8_5  and  O10_6 
ROOT
ATOM      1  C5  AEF d   1     -21.812  41.598  93.279  0.00  0.00    -0.051 A 
ATOM      2  C6  AEF d   1     -21.914  39.319  94.116  0.00  0.00    -0.051 A 
ATOM      3  C8  AEF d   1     -22.515  40.560  93.894  0.00  0.00     0.065 A 
ATOM      4  C3  AEF d   1     -20.595  39.118  93.717  0.00  0.00    -0.074 A 
ATOM      5  C2  AEF d   1     -20.489  41.379  92.882  0.00  0.00    -0.074 A 
ATOM      6  C1  AEF d   1     -19.875  40.140  93.103  0.00  0.00    -0.056 A 
ATOM      7  H3  AEF d   1     -22.285  42.559  93.112  0.00  0.00     0.087 H 
ATOM      8  H4  AEF d   1     -22.469  38.520  94.594  0.00  0.00     0.087 H 
ATOM      9  H8  AEF d   1     -20.124  38.156  93.886  0.00  0.00     0.084 H 
ATOM     10  H9  AEF d   1     -19.934  42.175  92.399  0.00  0.00     0.084 H 
ENDROOT
BRANCH   6  11
ATOM     11  C4  AEF d   1     -18.444  39.895  92.682  0.00  0.00    -0.019 C 
ATOM     12  H1  AEF d   1     -18.427  39.148  91.875  0.00  0.00     0.042 H 
ATOM     13  H2  AEF d   1     -18.007  40.837  92.319  0.00  0.00     0.042 H 
BRANCH  11  14
ATOM     14  C7  AEF d   1     -17.616  39.377  93.871  0.00  0.00     0.083 C 
ATOM     15  H5  AEF d   1     -17.979  38.376  94.147  0.00  0.00     0.075 H 
ATOM     16  H6  AEF d   1     -17.749  40.062  94.721  0.00  0.00     0.075 H 
BRANCH  14  17
ATOM     17  N9  AEF d   1     -16.170  39.289  93.549  0.00  0.00    -0.079 N 
ATOM     18  H10 AEF d   1     -15.667  38.947  94.353  0.00  0.00     0.274 HD
ATOM     19  H11 AEF d   1     -15.825  40.203  93.301  0.00  0.00     0.274 HD
ATOM     20  H12 AEF d   1     -16.036  38.658  92.775  0.00  0.00     0.274 HD
ENDBRANCH  14  17
ENDBRANCH  11  14
ENDBRANCH   6  11
BRANCH   3  21
ATOM     21  O10 AEF d   1     -23.817  40.752  94.294  0.00  0.00    -0.361 OA
ATOM     22  H7  AEF d   1     -24.380  40.131  93.846  0.00  0.00     0.217 HD
ENDBRANCH   3  21
TORSDOF 4
