REMARK  4 active torsions:
REMARK  status: ('A' for Active; 'I' for Inactive)
REMARK    1  A    between atoms: OH_1  and  CZ3_2 
REMARK    2  A    between atoms: CG_8  and  CB_11 
REMARK    3  A    between atoms: CB_11  and  CA_12 
REMARK    4  A    between atoms: CA_12  and  NZ_13 
ROOT
ATOM      1  CZ3 SRO d   1      -8.061  33.132 -10.586  0.00  0.00     0.066 A 
ATOM      2  CH2 SRO d   1      -7.047  33.572  -9.739  0.00  0.00    -0.049 A 
ATOM      3  CZ2 SRO d   1      -6.851  34.939  -9.527  0.00  0.00    -0.054 A 
ATOM      4  CE2 SRO d   1      -7.747  35.806 -10.134  0.00  0.00     0.043 A 
ATOM      5  NE1 SRO d   1      -7.920  37.152 -10.121  0.00  0.00    -0.365 N 
ATOM      6  CD1 SRO d   1      -8.958  37.478 -10.927  0.00  0.00    -0.015 A 
ATOM      7  CG  SRO d   1      -9.498  36.304 -11.454  0.00  0.00    -0.029 A 
ATOM      8  CD2 SRO d   1      -8.739  35.260 -10.931  0.00  0.00     0.001 A 
ATOM      9  CE3 SRO d   1      -8.880  33.975 -11.140  0.00  0.00    -0.038 A 
ATOM     10  H2  SRO d   1      -6.407  32.851  -9.242  0.00  0.00     0.087 H 
ATOM     11  H3  SRO d   1      -6.035  35.306  -8.915  0.00  0.00     0.087 H 
ATOM     12  H4  SRO d   1      -7.351  37.821  -9.582  0.00  0.00     0.165 HD
ATOM     13  H5  SRO d   1      -9.312  38.488 -11.130  0.00  0.00     0.112 H 
ATOM     14  H6  SRO d   1      -9.681  33.614 -11.776  0.00  0.00     0.089 H 
ENDROOT
BRANCH   7  15
ATOM     15  CB  SRO d   1     -10.695  36.209 -12.368  0.00  0.00    -0.017 C 
ATOM     16  H7  SRO d   1     -10.423  35.631 -13.263  0.00  0.00     0.042 H 
ATOM     17  H8  SRO d   1     -11.005  37.221 -12.666  0.00  0.00     0.042 H 
BRANCH  15  18
ATOM     18  CA  SRO d   1     -11.865  35.510 -11.648  0.00  0.00     0.083 C 
ATOM     19  H9  SRO d   1     -12.229  36.147 -10.828  0.00  0.00     0.075 H 
ATOM     20  H10 SRO d   1     -11.527  34.546 -11.241  0.00  0.00     0.075 H 
BRANCH  18  21
ATOM     21  NZ  SRO d   1     -12.943  35.287 -12.617  0.00  0.00    -0.079 N 
ATOM     22  H11 SRO d   1     -13.716  34.830 -12.160  0.00  0.00     0.274 HD
ATOM     23  H12 SRO d   1     -12.605  34.705 -13.368  0.00  0.00     0.274 HD
ATOM     24  H13 SRO d   1     -13.249  36.172 -12.989  0.00  0.00     0.274 HD
ENDBRANCH  18  21
ENDBRANCH  15  18
ENDBRANCH   7  15
BRANCH   1  25
ATOM     25  OH  SRO d   1      -8.126  31.785 -10.848  0.00  0.00    -0.361 OA
ATOM     26  H1  SRO d   1      -8.854  31.612 -11.434  0.00  0.00     0.217 HD
ENDBRANCH   1  25
TORSDOF 4
