REMARK  3 active torsions:
REMARK  status: ('A' for Active; 'I' for Inactive)
REMARK    1  A    between atoms: N_1  and  CA_2 
REMARK    2  A    between atoms: CA_2  and  CB_3 
REMARK    3  A    between atoms: CB_3  and  CG_4 
ROOT
ATOM      1  CB  HSM d   1      16.283  24.187   8.548  0.00  0.00    -0.003 C 
ATOM      2  H6  HSM d   1      15.590  23.816   7.778  0.00  0.00     0.044 H 
ATOM      3  H7  HSM d   1      16.759  25.115   8.197  0.00  0.00     0.044 H 
ENDROOT
BRANCH   1   4
ATOM      4  CA  HSM d   1      17.361  23.139   8.789  0.00  0.00     0.085 C 
ATOM      5  H4  HSM d   1      18.000  23.458   9.625  0.00  0.00     0.075 H 
ATOM      6  H5  HSM d   1      16.887  22.177   9.036  0.00  0.00     0.075 H 
BRANCH   4   7
ATOM      7  N   HSM d   1      18.175  22.985   7.587  0.00  0.00    -0.079 N 
ATOM      8  H1  HSM d   1      18.887  22.291   7.750  0.00  0.00     0.274 HD
ATOM      9  H2  HSM d   1      18.610  23.866   7.361  0.00  0.00     0.274 HD
ATOM     10  H3  HSM d   1      17.590  22.692   6.820  0.00  0.00     0.274 HD
ENDBRANCH   4   7
ENDBRANCH   1   4
BRANCH   1  11
ATOM     11  CG  HSM d   1      15.502  24.482   9.812  0.00  0.00     0.029 A 
ATOM     12  ND1 HSM d   1      16.004  24.986  10.967  0.00  0.00    -0.353 N 
ATOM     13  CE1 HSM d   1      14.990  25.106  11.847  0.00  0.00     0.063 A 
ATOM     14  H8  HSM d   1      16.988  25.234  11.141  0.00  0.00     0.166 HD
ATOM     15  NE2 HSM d   1      13.851  24.683  11.256  0.00  0.00    -0.254 NA
ATOM     16  H10 HSM d   1      15.075  25.482  12.866  0.00  0.00     0.143 H 
ATOM     17  CD2 HSM d   1      14.143  24.290   9.997  0.00  0.00     0.025 A 
ATOM     18  H9  HSM d   1      13.441  23.896   9.264  0.00  0.00     0.117 H 
ENDBRANCH   1  11
TORSDOF 3
