REMARK  5 active torsions:
REMARK  status: ('A' for Active; 'I' for Inactive)
REMARK    1  A    between atoms: C4_1  and  C7_4 
REMARK    2  A    between atoms: C1_9  and  C4_1 
REMARK    3  A    between atoms: C7_4  and  N10_10 
REMARK    4  A    between atoms: C7_4  and  C9_11 
REMARK    5  A    between atoms: C8_5  and  O11_6 
ROOT
ATOM      1  C4  AEG d   1     -18.480  40.267  93.567  0.00  0.00    -0.015 C 
ATOM      2  H1  AEG d   1     -18.072  41.264  93.344  0.00  0.00     0.043 H 
ATOM      3  H2  AEG d   1     -18.160  39.956  94.572  0.00  0.00     0.043 H 
ENDROOT
BRANCH   1   4
ATOM      4  C7  AEG d   1     -17.901  39.274  92.551  0.00  0.00     0.100 C 
ATOM      5  H5  AEG d   1     -18.438  38.319  92.651  0.00  0.00     0.083 H 
BRANCH   4   6
ATOM      6  N10 AEG d   1     -16.432  39.032  92.830  0.00  0.00    -0.075 N 
ATOM      7  H9  AEG d   1     -16.065  38.379  92.156  0.00  0.00     0.274 HD
ATOM      8  H10 AEG d   1     -16.324  38.653  93.758  0.00  0.00     0.274 HD
ATOM      9  H11 AEG d   1     -15.929  39.903  92.762  0.00  0.00     0.274 HD
ENDBRANCH   4   6
BRANCH   4  10
ATOM     10  C9  AEG d   1     -18.094  39.792  91.123  0.00  0.00    -0.050 C 
ATOM     11  H12 AEG d   1     -19.165  39.962  90.936  0.00  0.00     0.030 H 
ATOM     12  H13 AEG d   1     -17.711  39.049  90.408  0.00  0.00     0.030 H 
ATOM     13  H14 AEG d   1     -17.545  40.737  90.998  0.00  0.00     0.030 H 
ENDBRANCH   4  10
ENDBRANCH   1   4
BRANCH   1  14
ATOM     14  C1  AEG d   1     -19.987  40.361  93.560  0.00  0.00    -0.056 A 
ATOM     15  C3  AEG d   1     -20.609  41.536  93.112  0.00  0.00    -0.074 A 
ATOM     16  C6  AEG d   1     -22.002  41.641  93.115  0.00  0.00    -0.051 A 
ATOM     17  H7  AEG d   1     -20.006  42.366  92.762  0.00  0.00     0.084 H 
ATOM     18  C8  AEG d   1     -22.749  40.550  93.579  0.00  0.00     0.065 A 
ATOM     19  H4  AEG d   1     -22.492  42.543  92.767  0.00  0.00     0.087 H 
ATOM     20  C5  AEG d   1     -22.148  39.372  94.032  0.00  0.00    -0.051 A 
ATOM     21  C2  AEG d   1     -20.757  39.288  94.021  0.00  0.00    -0.074 A 
ATOM     22  H3  AEG d   1     -22.750  38.542  94.384  0.00  0.00     0.087 H 
ATOM     23  H8  AEG d   1     -20.269  38.386  94.372  0.00  0.00     0.084 H 
BRANCH  18  24
ATOM     24  O11 AEG d   1     -24.112  40.630  93.595  0.00  0.00    -0.361 OA
ATOM     25  H6  AEG d   1     -24.472  39.818  93.933  0.00  0.00     0.217 HD
ENDBRANCH  18  24
ENDBRANCH   1  14
TORSDOF 5
