REMARK  5 active torsions:
REMARK  status: ('A' for Active; 'I' for Inactive)
REMARK    1  A    between atoms: C4_1  and  O9_9 
REMARK    2  A    between atoms: C7_4  and  C13_7 
REMARK    3  A    between atoms: C13_7  and  C15_8 
REMARK    4  A    between atoms: C15_8  and  N16_11 
REMARK    5  A    between atoms: C1_13  and  C2_14 
ROOT
ATOM      1  C4  AED d   1     -22.232  40.013  93.233  0.00  0.00     0.072 A 
ATOM      2  C7  AED d   1     -19.563  39.377  92.755  0.00  0.00    -0.056 A 
ATOM      3  C8  AED d   1     -21.601  39.062  94.043  0.00  0.00    -0.050 A 
ATOM      4  C12 AED d   1     -20.264  38.746  93.793  0.00  0.00    -0.074 A 
ATOM      5  C3  AED d   1     -20.212  40.329  91.957  0.00  0.00    -0.068 A 
ATOM      6  C1  AED d   1     -21.554  40.658  92.184  0.00  0.00    -0.020 A 
ATOM      7  H5  AED d   1     -22.140  38.579  94.850  0.00  0.00     0.087 H 
ATOM      8  H13 AED d   1     -19.763  38.006  94.407  0.00  0.00     0.084 H 
ATOM      9  H17 AED d   1     -19.669  40.816  91.155  0.00  0.00     0.085 H 
ENDROOT
BRANCH   6  10
ATOM     10  C2  AED d   1     -22.255  41.683  91.319  0.00  0.00    -0.026 C 
ATOM     11  C5  AED d   1     -21.898  43.102  91.804  0.00  0.00    -0.058 C 
ATOM     12  C10 AED d   1     -22.410  44.176  90.840  0.00  0.00    -0.064 C 
ATOM     13  H1  AED d   1     -22.351  43.265  92.793  0.00  0.00     0.034 H 
ATOM     14  H2  AED d   1     -20.804  43.187  91.884  0.00  0.00     0.034 H 
ATOM     15  C14 AED d   1     -21.717  43.968  89.491  0.00  0.00    -0.065 C 
ATOM     16  H6  AED d   1     -22.171  45.175  91.233  0.00  0.00     0.033 H 
ATOM     17  H7  AED d   1     -23.499  44.081  90.719  0.00  0.00     0.033 H 
ATOM     18  C11 AED d   1     -22.155  42.629  88.882  0.00  0.00    -0.064 C 
ATOM     19  H19 AED d   1     -20.627  43.963  89.638  0.00  0.00     0.033 H 
ATOM     20  H20 AED d   1     -21.992  44.786  88.809  0.00  0.00     0.033 H 
ATOM     21  C6  AED d   1     -21.950  41.429  89.823  0.00  0.00    -0.058 C 
ATOM     22  H21 AED d   1     -23.224  42.695  88.629  0.00  0.00     0.033 H 
ATOM     23  H22 AED d   1     -21.572  42.456  87.966  0.00  0.00     0.033 H 
ATOM     24  H3  AED d   1     -22.605  40.615  89.479  0.00  0.00     0.034 H 
ATOM     25  H4  AED d   1     -20.899  41.113  89.742  0.00  0.00     0.034 H 
ATOM     26  H18 AED d   1     -23.339  41.556  91.454  0.00  0.00     0.047 H 
ENDBRANCH   6  10
BRANCH   1  27
ATOM     27  O9  AED d   1     -23.546  40.309  93.493  0.00  0.00    -0.360 OA
ATOM     28  H12 AED d   1     -24.070  39.522  93.405  0.00  0.00     0.217 HD
ENDBRANCH   1  27
BRANCH   2  29
ATOM     29  C13 AED d   1     -18.116  39.040  92.478  0.00  0.00    -0.019 C 
ATOM     30  H8  AED d   1     -17.698  39.809  91.811  0.00  0.00     0.042 H 
ATOM     31  H9  AED d   1     -18.073  38.060  91.980  0.00  0.00     0.042 H 
BRANCH  29  32
ATOM     32  C15 AED d   1     -17.261  38.980  93.753  0.00  0.00     0.083 C 
ATOM     33  H10 AED d   1     -17.643  38.178  94.402  0.00  0.00     0.075 H 
ATOM     34  H11 AED d   1     -17.335  39.944  94.278  0.00  0.00     0.075 H 
BRANCH  32  35
ATOM     35  N16 AED d   1     -15.836  38.710  93.443  0.00  0.00    -0.079 N 
ATOM     36  H14 AED d   1     -15.306  38.678  94.300  0.00  0.00     0.274 HD
ATOM     37  H15 AED d   1     -15.476  39.443  92.853  0.00  0.00     0.274 HD
ATOM     38  H16 AED d   1     -15.758  37.826  92.966  0.00  0.00     0.274 HD
ENDBRANCH  32  35
ENDBRANCH  29  32
ENDBRANCH   2  29
TORSDOF 5
