REMARK  16 active torsions:
REMARK  status: ('A' for Active; 'I' for Inactive)
REMARK    1  A    between atoms: CA_2  and  N_1 
REMARK    2  A    between atoms: CA_2  and  CB_3 
REMARK    3  A    between atoms: C_10  and  CA_2 
REMARK    4  A    between atoms: CB_3  and  CG_4 
REMARK    5  A    between atoms: CG_4  and  CD_5 
REMARK    6  A    between atoms: CD_5  and  NE_6 
REMARK       I    between atoms: NE_6  and  CZ_7 
REMARK       I    between atoms: CZ_7  and  NH1_8 
REMARK       I    between atoms: N_12  and  C_10 
REMARK    7  A    between atoms: C_14  and  CA_13 
REMARK       I    between atoms: N_23  and  C_14 
REMARK    8  A    between atoms: C_25  and  CA_24 
REMARK       I    between atoms: N_30  and  C_25 
REMARK    9  A    between atoms: CA_31  and  N_30 
REMARK   10  A    between atoms: CA_31  and  CB_32 
REMARK   11  A    between atoms: C_33  and  CA_31 
REMARK       I    between atoms: N3_46  and  C_33 
REMARK   12  A    between atoms: C1_35  and  C3_36 
REMARK   13  A    between atoms: C1_35  and  C32_43 
REMARK   14  A    between atoms: C1_35  and  N3_46 
REMARK   15  A    between atoms: C3_36  and  C4_37 
REMARK   16  A    between atoms: C9_42  and  C33_44 
REMARK       I    between atoms: C32_43  and  O_47 
ROOT
ATOM      1  C   OIC d   1      15.668  16.787  15.013  0.00  0.00     0.243 C 
ATOM      2  O   OIC d   1      14.815  16.088  15.644  0.00  0.00    -0.271 OA
ATOM      3  N   PRO d   1      16.851  15.992  14.597  0.00  0.00    -0.337 N 
ATOM      4  CA  PRO d   1      17.157  14.549  14.828  0.00  0.00     0.091 C 
ATOM      5  CB  PRO d   1      18.461  14.369  14.200  0.00  0.00    -0.036 C 
ATOM      6  CG  PRO d   1      19.092  15.638  13.815  0.00  0.00    -0.048 C 
ATOM      7  CD  PRO d   1      17.960  16.605  13.844  0.00  0.00    -0.001 C 
ATOM      8  H27 PRO d   1      16.412  13.890  14.357  0.00  0.00     0.087 H 
ATOM      9  H28 PRO d   1      18.334  13.753  13.298  0.00  0.00     0.036 H 
ATOM     10  H29 PRO d   1      19.123  13.849  14.909  0.00  0.00     0.036 H 
ATOM     11  H30 PRO d   1      19.528  15.572  12.807  0.00  0.00     0.035 H 
ATOM     12  H31 PRO d   1      19.873  15.924  14.534  0.00  0.00     0.035 H 
ATOM     13  H32 PRO d   1      18.277  17.535  14.339  0.00  0.00     0.064 H 
ATOM     14  H33 PRO d   1      17.635  16.828  12.817  0.00  0.00     0.064 H 
ENDROOT
BRANCH   1  15
ATOM     15  CA  OIC d   1      15.629  18.308  14.641  0.00  0.00     0.092 C 
ATOM     16  N   OIC d   1      14.155  18.236  14.354  0.00  0.00    -0.332 N 
ATOM     17  C   DAR d   1      13.660  17.606  13.149  0.00  0.00     0.252 C 
ATOM     18  CD  OIC d   1      13.595  19.553  14.837  0.00  0.00     0.019 C 
ATOM     19  O   DAR d   1      14.391  16.787  12.492  0.00  0.00    -0.271 OA
ATOM     20  CG  OIC d   1      14.848  20.247  15.402  0.00  0.00    -0.032 C 
ATOM     21  C7  OIC d   1      12.525  19.188  15.923  0.00  0.00    -0.045 C 
ATOM     22  H18 OIC d   1      13.139  20.147  14.031  0.00  0.00     0.073 H 
ATOM     23  CB  OIC d   1      15.662  19.096  15.874  0.00  0.00    -0.033 C 
ATOM     24  C4  OIC d   1      14.489  21.381  16.402  0.00  0.00    -0.060 C 
ATOM     25  H17 OIC d   1      15.396  20.731  14.580  0.00  0.00     0.043 H 
ATOM     26  H15 OIC d   1      16.684  19.394  16.152  0.00  0.00     0.037 H 
ATOM     27  H16 OIC d   1      15.191  18.570  16.718  0.00  0.00     0.037 H 
ATOM     28  C5  OIC d   1      13.532  20.873  17.516  0.00  0.00    -0.065 C 
ATOM     29  H19 OIC d   1      13.998  22.199  15.854  0.00  0.00     0.033 H 
ATOM     30  H20 OIC d   1      15.413  21.754  16.867  0.00  0.00     0.033 H 
ATOM     31  C6  OIC d   1      12.225  20.350  16.891  0.00  0.00    -0.063 C 
ATOM     32  H21 OIC d   1      13.301  21.700  18.203  0.00  0.00     0.033 H 
ATOM     33  H22 OIC d   1      14.020  20.059  18.073  0.00  0.00     0.033 H 
ATOM     34  H23 OIC d   1      11.735  21.165  16.339  0.00  0.00     0.033 H 
ATOM     35  H24 OIC d   1      11.557  19.994  17.689  0.00  0.00     0.033 H 
ATOM     36  H25 OIC d   1      12.896  18.333  16.507  0.00  0.00     0.036 H 
ATOM     37  H26 OIC d   1      11.591  18.907  15.414  0.00  0.00     0.036 H 
ATOM     38  H14 OIC d   1      16.309  18.651  13.848  0.00  0.00     0.087 H 
BRANCH  17  39
ATOM     39  CA  DAR d   1      12.219  17.820  12.633  0.00  0.00     0.179 C 
ATOM     40  H4  DAR d   1      11.577  18.161  13.459  0.00  0.00     0.099 H 
BRANCH  39  41
ATOM     41  N   DAR d   1      11.739  16.660  12.205  0.00  0.00    -0.066 N 
ATOM     42  H1  DAR d   1      10.799  16.790  11.866  0.00  0.00     0.275 HD
ATOM     43  H2  DAR d   1      11.734  15.998  12.965  0.00  0.00     0.275 HD
ATOM     44  H3  DAR d   1      12.320  16.311  11.459  0.00  0.00     0.275 HD
ENDBRANCH  39  41
BRANCH  39  45
ATOM     45  CB  DAR d   1      12.304  18.969  11.575  0.00  0.00    -0.014 C 
ATOM     46  H5  DAR d   1      12.607  18.538  10.609  0.00  0.00     0.042 H 
ATOM     47  H6  DAR d   1      13.060  19.697  11.905  0.00  0.00     0.042 H 
BRANCH  45  48
ATOM     48  CG  DAR d   1      10.997  19.680  11.396  0.00  0.00    -0.085 C 
ATOM     49  H7  DAR d   1      11.065  20.751  11.583  0.00  0.00     0.079 H 
BRANCH  48  50
ATOM     50  CD  DAR d   1       9.691  19.260  11.036  0.00  0.00    -0.009 C 
ATOM     51  H8  DAR d   1       8.932  19.983  10.741  0.00  0.00     0.111 H 
BRANCH  50  52
ATOM     52  NE  DAR d   1       9.383  17.786  11.073  0.00  0.00    -0.203 N 
ATOM     53  CZ  DAR d   1       8.393  17.182  10.564  0.00  0.00     0.669 C 
ATOM     54  NH1 DAR d   1       7.441  17.848   9.884  0.00  0.00    -0.235 N 
ATOM     55  NH2 DAR d   1       8.330  15.892  10.706  0.00  0.00    -0.235 N 
ATOM     56  H10 DAR d   1       6.644  17.336   9.478  0.00  0.00     0.174 HD
ATOM     57  H11 DAR d   1       7.509  18.869   9.769  0.00  0.00     0.174 HD
ATOM     58  H12 DAR d   1       9.065  15.395  11.229  0.00  0.00     0.174 HD
ATOM     59  H13 DAR d   1       7.545  15.367  10.296  0.00  0.00     0.174 HD
ATOM     60  H9  DAR d   1      10.062  17.196  11.575  0.00  0.00     0.183 HD
ENDBRANCH  50  52
ENDBRANCH  48  50
ENDBRANCH  45  48
ENDBRANCH  39  45
ENDBRANCH  17  39
ENDBRANCH   1  15
BRANCH   4  61
ATOM     61  C   PRO d   1      17.149  14.333  16.383  0.00  0.00     0.241 C 
ATOM     62  O   PRO d   1      17.826  15.021  17.196  0.00  0.00    -0.271 OA
ATOM     63  N   DAL d   1      16.250  13.346  16.660  0.00  0.00    -0.346 N 
ATOM     64  H34 DAL d   1      15.812  12.923  15.867  0.00  0.00     0.163 HD
BRANCH  63  65
ATOM     65  CA  DAL d   1      15.849  12.833  17.940  0.00  0.00     0.086 C 
ATOM     66  H35 DAL d   1      16.788  13.181  18.395  0.00  0.00     0.086 H 
BRANCH  65  67
ATOM     67  CB  DAL d   1      16.153  11.359  18.200  0.00  0.00    -0.049 C 
ATOM     68  H36 DAL d   1      15.802  11.084  19.206  0.00  0.00     0.030 H 
ATOM     69  H37 DAL d   1      17.238  11.191  18.132  0.00  0.00     0.030 H 
ATOM     70  H38 DAL d   1      15.638  10.741  17.450  0.00  0.00     0.030 H 
ENDBRANCH  65  67
BRANCH  65  71
ATOM     71  C   DAL d   1      15.045  13.510  19.004  0.00  0.00     0.240 C 
ATOM     72  O   DAL d   1      15.126  13.039  20.212  0.00  0.00    -0.271 OA
ATOM     73  N3  4PH d   1      14.325  14.492  18.544  0.00  0.00    -0.346 N 
ATOM     74  H53 4PH d   1      14.394  14.716  17.572  0.00  0.00     0.163 HD
BRANCH  73  75
ATOM     75  C1  4PH d   1      13.432  15.275  19.365  0.00  0.00     0.093 C 
ATOM     76  H39 4PH d   1      13.925  15.661  20.269  0.00  0.00     0.088 H 
BRANCH  75  77
ATOM     77  C3  4PH d   1      13.052  16.384  18.505  0.00  0.00    -0.014 C 
ATOM     78  H40 4PH d   1      12.587  15.983  17.592  0.00  0.00     0.043 H 
ATOM     79  H41 4PH d   1      13.955  16.952  18.237  0.00  0.00     0.043 H 
BRANCH  77  80
ATOM     80  C4  4PH d   1      12.092  17.296  19.171  0.00  0.00    -0.056 A 
ATOM     81  C5  4PH d   1      10.544  17.254  18.929  0.00  0.00    -0.076 A 
ATOM     82  C7  4PH d   1       9.595  18.181  19.589  0.00  0.00    -0.077 A 
ATOM     83  H42 4PH d   1      10.149  16.511  18.246  0.00  0.00     0.084 H 
ATOM     84  C9  4PH d   1      10.134  19.229  20.549  0.00  0.00    -0.062 A 
ATOM     85  H44 4PH d   1       8.532  18.113  19.390  0.00  0.00     0.084 H 
ATOM     86  C8  4PH d   1      11.652  19.336  20.852  0.00  0.00    -0.077 A 
ATOM     87  C6  4PH d   1      12.625  18.347  20.142  0.00  0.00    -0.076 A 
ATOM     88  H45 4PH d   1      12.028  20.082  21.543  0.00  0.00     0.084 H 
ATOM     89  H43 4PH d   1      13.689  18.406  20.339  0.00  0.00     0.084 H 
BRANCH  84  90
ATOM     90  C33 4PH d   1       9.164  20.212  21.225  0.00  0.00    -0.051 C 
ATOM     91  H50 4PH d   1       8.136  19.995  20.900  0.00  0.00     0.033 H 
ATOM     92  H51 4PH d   1       9.428  21.241  20.941  0.00  0.00     0.033 H 
ATOM     93  H52 4PH d   1       9.234  20.103  22.317  0.00  0.00     0.033 H 
ENDBRANCH  84  90
ENDBRANCH  77  80
ENDBRANCH  75  77
BRANCH  75  94
ATOM     94  C32 4PH d   1      12.332  14.292  19.762  0.00  0.00     0.238 C 
ATOM     95  O5  4PH d   1      11.760  13.491  18.969  0.00  0.00    -0.271 OA
ATOM     96  O   NH2 d   1      11.948  14.278  21.035  0.00  0.00    -0.368 N 
ATOM     97  H46 NH2 d   1      11.231  13.649  21.334  0.00  0.00     0.159 HD
ATOM     98  H47 NH2 d   1      12.377  14.897  21.694  0.00  0.00     0.159 HD
ENDBRANCH  75  94
ENDBRANCH  73  75
ENDBRANCH  65  71
ENDBRANCH  63  65
ENDBRANCH   4  61
TORSDOF 16
