REMARK WARNING: 32 MAX_TORS EXCEEDED!!!
REMARK  36 active torsions:
REMARK  status: ('A' for Active; 'I' for Inactive)
REMARK    1  A    between atoms: C5_2  and  N4_1 
REMARK       I    between atoms: N4_1  and  C1_37 
REMARK    2  A    between atoms: C6_3  and  C5_2 
REMARK    3  A    between atoms: C5_2  and  C8_5 
REMARK       I    between atoms: N11_8  and  C6_3 
REMARK    4  A    between atoms: C8_5  and  O9_6 
REMARK    5  A    between atoms: C8_5  and  C10_7 
REMARK    6  A    between atoms: C12_9  and  N11_8 
REMARK    7  A    between atoms: C13_10  and  C12_9 
REMARK    8  A    between atoms: C12_9  and  C15_12 
REMARK       I    between atoms: N19_40  and  C13_10 
REMARK    9  A    between atoms: C15_12  and  C16_13 
REMARK   10  A    between atoms: C15_12  and  C17_14 
REMARK   11  A    between atoms: C16_13  and  C18_15 
REMARK   12  A    between atoms: N36_16  and  C37_17 
REMARK       I    between atoms: C28_49  and  N36_16 
REMARK   13  A    between atoms: C37_17  and  C38_18 
REMARK   14  A    between atoms: C37_17  and  C40_20 
REMARK       I    between atoms: C38_18  and  N45_25 
REMARK   15  A    between atoms: C40_20  and  C41_21 
REMARK   16  A    between atoms: C41_21  and  C42_22 
REMARK       I    between atoms: C42_22  and  N44_24 
REMARK   17  A    between atoms: N45_25  and  C46_26 
REMARK   18  A    between atoms: C46_26  and  C47_27 
REMARK   19  A    between atoms: C46_26  and  C49_30 
REMARK       I    between atoms: C47_27  and  N56_29 
REMARK   20  A    between atoms: C49_30  and  C50_31 
REMARK   21  A    between atoms: C50_31  and  C51_32 
REMARK   22  A    between atoms: C51_32  and  N52_33 
REMARK       I    between atoms: N52_33  and  C53_34 
REMARK       I    between atoms: C53_34  and  N54_35 
REMARK   23  A    between atoms: C1_37  and  C3_39 
REMARK   24  A    between atoms: C20_41  and  N19_40 
REMARK   25  A    between atoms: C21_42  and  C20_41 
REMARK   26  A    between atoms: C20_41  and  C22_43 
REMARK   27  A    between atoms: N26_47  and  C21_42 
REMARK   28  A    between atoms: C22_43  and  C23_44 
REMARK   29  A    between atoms: C23_44  and  C24_45 
REMARK   30  A    between atoms: C24_45  and  C25_46 
REMARK   31  A    between atoms: C27_48  and  N26_47 
REMARK   32  A    between atoms: C27_48  and  C28_49 
REMARK   33  A    between atoms: C27_48  and  C30_51 
REMARK   34  A    between atoms: C30_51  and  C31_52 
REMARK   35  A    between atoms: C31_52  and  C34_53 
REMARK   36  A    between atoms: C34_53  and  C35_54 
ROOT
ATOM      1  N26 2NC d   1      15.678  23.643  17.363  0.00  0.00    -0.060 N 
ATOM      2  H58 2NC d   1      16.444  23.137  16.947  0.00  0.00     0.278 HD
ATOM      3  H59 2NC d   1      15.613  24.558  16.945  0.00  0.00     0.278 HD
ENDROOT
BRANCH   1   4
ATOM      4  C21 2NC d   1      15.973  23.817  18.757  0.00  0.00     0.101 C 
ATOM      5  H47 2NC d   1      15.537  24.771  19.088  0.00  0.00     0.078 H 
ATOM      6  H48 2NC d   1      15.511  22.989  19.316  0.00  0.00     0.078 H 
BRANCH   4   7
ATOM      7  C20 2NC d   1      17.430  23.835  19.062  0.00  0.00     0.035 C 
ATOM      8  H46 2NC d   1      17.809  22.838  18.794  0.00  0.00     0.075 H 
BRANCH   7   9
ATOM      9  N19 2NC d   1      18.191  24.803  18.278  0.00  0.00    -0.353 N 
ATOM     10  C13 2NC d   1      18.978  24.468  17.195  0.00  0.00     0.241 C 
ATOM     11  O14 2NC d   1      19.037  23.332  16.801  0.00  0.00    -0.271 OA
ATOM     12  H45 2NC d   1      18.139  25.766  18.541  0.00  0.00     0.163 HD
BRANCH  10  13
ATOM     13  C12 2NC d   1      19.823  25.580  16.652  0.00  0.00     0.092 C 
ATOM     14  H9  2NC d   1      19.312  26.536  16.840  0.00  0.00     0.088 H 
BRANCH  13  15
ATOM     15  N11 2NC d   1      21.108  25.594  17.357  0.00  0.00    -0.346 N 
ATOM     16  C6  2NC d   1      21.560  26.653  18.006  0.00  0.00     0.243 C 
ATOM     17  O7  2NC d   1      20.908  27.695  18.104  0.00  0.00    -0.271 OA
ATOM     18  H8  2NC d   1      21.668  24.765  17.346  0.00  0.00     0.163 HD
BRANCH  16  19
ATOM     19  C5  2NC d   1      22.957  26.581  18.672  0.00  0.00     0.113 C 
ATOM     20  H2  2NC d   1      22.840  26.894  19.720  0.00  0.00     0.091 H 
BRANCH  19  21
ATOM     21  N4  2NC d   1      23.513  25.263  18.701  0.00  0.00    -0.346 N 
ATOM     22  C1  2NC d   1      23.650  24.506  19.910  0.00  0.00     0.214 C 
ATOM     23  O2  2NC d   1      23.250  25.039  20.946  0.00  0.00    -0.274 OA
ATOM     24  H1  2NC d   1      23.819  24.853  17.842  0.00  0.00     0.163 HD
BRANCH  22  25
ATOM     25  C3  2NC d   1      24.267  23.176  19.750  0.00  0.00    -0.003 C 
ATOM     26  H42 2NC d   1      24.326  22.679  20.730  0.00  0.00     0.040 H 
ATOM     27  H43 2NC d   1      25.279  23.289  19.334  0.00  0.00     0.040 H 
ATOM     28  H44 2NC d   1      23.656  22.568  19.067  0.00  0.00     0.040 H 
ENDBRANCH  22  25
ENDBRANCH  19  21
BRANCH  19  29
ATOM     29  C8  2NC d   1      23.868  27.606  17.980  0.00  0.00     0.060 C 
ATOM     30  H3  2NC d   1      23.400  28.602  17.984  0.00  0.00     0.086 H 
BRANCH  29  31
ATOM     31  O9  2NC d   1      24.035  27.131  16.651  0.00  0.00    -0.393 OA
ATOM     32  H4  2NC d   1      24.594  27.730  16.170  0.00  0.00     0.210 HD
ENDBRANCH  29  31
BRANCH  29  33
ATOM     33  C10 2NC d   1      25.255  27.675  18.678  0.00  0.00    -0.050 C 
ATOM     34  H5  2NC d   1      25.887  28.415  18.165  0.00  0.00     0.031 H 
ATOM     35  H6  2NC d   1      25.737  26.687  18.634  0.00  0.00     0.031 H 
ATOM     36  H7  2NC d   1      25.122  27.972  19.729  0.00  0.00     0.031 H 
ENDBRANCH  29  33
ENDBRANCH  19  29
ENDBRANCH  16  19
ENDBRANCH  13  15
BRANCH  13  37
ATOM     37  C15 2NC d   1      20.009  25.423  15.121  0.00  0.00    -0.030 C 
ATOM     38  H10 2NC d   1      20.377  24.402  14.944  0.00  0.00     0.043 H 
BRANCH  37  39
ATOM     39  C16 2NC d   1      21.047  26.366  14.532  0.00  0.00    -0.063 C 
ATOM     40  H11 2NC d   1      21.179  26.109  13.471  0.00  0.00     0.033 H 
ATOM     41  H12 2NC d   1      21.994  26.209  15.068  0.00  0.00     0.033 H 
BRANCH  39  42
ATOM     42  C18 2NC d   1      20.700  27.818  14.618  0.00  0.00    -0.076 C 
ATOM     43  H16 2NC d   1      21.507  28.415  14.168  0.00  0.00     0.027 H 
ATOM     44  H17 2NC d   1      20.576  28.104  15.673  0.00  0.00     0.027 H 
ATOM     45  H18 2NC d   1      19.761  28.003  14.076  0.00  0.00     0.027 H 
ENDBRANCH  39  42
ENDBRANCH  37  39
BRANCH  37  46
ATOM     46  C17 2NC d   1      18.681  25.544  14.435  0.00  0.00    -0.071 C 
ATOM     47  H13 2NC d   1      17.966  24.845  14.894  0.00  0.00     0.028 H 
ATOM     48  H14 2NC d   1      18.796  25.302  13.368  0.00  0.00     0.028 H 
ATOM     49  H15 2NC d   1      18.307  26.573  14.540  0.00  0.00     0.028 H 
ENDBRANCH  37  46
ENDBRANCH  13  37
ENDBRANCH  10  13
ENDBRANCH   7   9
BRANCH   7  50
ATOM     50  C22 2NC d   1      17.736  24.047  20.558  0.00  0.00    -0.045 C 
ATOM     51  H49 2NC d   1      17.259  23.229  21.117  0.00  0.00     0.036 H 
ATOM     52  H50 2NC d   1      17.289  25.006  20.859  0.00  0.00     0.036 H 
BRANCH  50  53
ATOM     53  C23 2NC d   1      19.191  24.078  20.940  0.00  0.00    -0.064 C 
ATOM     54  H51 2NC d   1      19.254  24.163  22.035  0.00  0.00     0.033 H 
ATOM     55  H52 2NC d   1      19.646  24.966  20.477  0.00  0.00     0.033 H 
BRANCH  53  56
ATOM     56  C24 2NC d   1      19.977  22.893  20.527  0.00  0.00    -0.068 C 
ATOM     57  H53 2NC d   1      21.006  23.011  20.897  0.00  0.00     0.032 H 
ATOM     58  H54 2NC d   1      19.985  22.846  19.428  0.00  0.00     0.032 H 
BRANCH  56  59
ATOM     59  C25 2NC d   1      19.416  21.572  21.066  0.00  0.00    -0.077 C 
ATOM     60  H55 2NC d   1      20.046  20.738  20.722  0.00  0.00     0.027 H 
ATOM     61  H56 2NC d   1      18.389  21.432  20.697  0.00  0.00     0.027 H 
ATOM     62  H57 2NC d   1      19.410  21.598  22.166  0.00  0.00     0.027 H 
ENDBRANCH  56  59
ENDBRANCH  53  56
ENDBRANCH  50  53
ENDBRANCH   7  50
ENDBRANCH   4   7
ENDBRANCH   1   4
BRANCH   1  63
ATOM     63  C27 2NC d   1      14.468  22.935  17.058  0.00  0.00     0.178 C 
ATOM     64  H60 2NC d   1      13.660  23.487  17.560  0.00  0.00     0.099 H 
BRANCH  63  65
ATOM     65  C28 2NC d   1      14.468  21.530  17.648  0.00  0.00     0.249 C 
ATOM     66  N36 2NC d   1      13.295  21.054  18.054  0.00  0.00    -0.346 N 
ATOM     67  H19 2NC d   1      12.507  21.669  18.090  0.00  0.00     0.163 HD
ATOM     68  O29 2NC d   1      15.476  20.812  17.667  0.00  0.00    -0.271 OA
BRANCH  66  69
ATOM     69  C37 2NC d   1      13.125  19.653  18.451  0.00  0.00     0.090 C 
ATOM     70  H20 2NC d   1      13.825  19.037  17.868  0.00  0.00     0.087 H 
BRANCH  69  71
ATOM     71  C38 2NC d   1      11.704  19.239  18.073  0.00  0.00     0.241 C 
ATOM     72  O39 2NC d   1      10.721  19.921  18.356  0.00  0.00    -0.271 OA
ATOM     73  N45 2NC d   1      11.620  18.040  17.535  0.00  0.00    -0.346 N 
ATOM     74  H27 2NC d   1      12.455  17.506  17.401  0.00  0.00     0.163 HD
BRANCH  73  75
ATOM     75  C46 2NC d   1      10.354  17.477  17.134  0.00  0.00     0.089 C 
ATOM     76  H28 2NC d   1       9.544  18.106  17.531  0.00  0.00     0.087 H 
BRANCH  75  77
ATOM     77  C47 2NC d   1      10.245  16.081  17.745  0.00  0.00     0.238 C 
ATOM     78  O48 2NC d   1      11.195  15.303  17.768  0.00  0.00    -0.271 OA
ATOM     79  N56 2NC d   1       8.985  15.722  18.285  0.00  0.00    -0.368 N 
ATOM     80  H29 2NC d   1       8.857  14.820  18.698  0.00  0.00     0.159 HD
ATOM     81  H30 2NC d   1       8.224  16.370  18.253  0.00  0.00     0.159 HD
ENDBRANCH  75  77
BRANCH  75  82
ATOM     82  C49 2NC d   1      10.214  17.419  15.626  0.00  0.00    -0.036 C 
ATOM     83  H31 2NC d   1       9.156  17.236  15.389  0.00  0.00     0.036 H 
ATOM     84  H32 2NC d   1      10.822  16.579  15.259  0.00  0.00     0.036 H 
BRANCH  82  85
ATOM     85  C50 2NC d   1      10.652  18.675  14.890  0.00  0.00    -0.048 C 
ATOM     86  H33 2NC d   1      11.661  18.953  15.228  0.00  0.00     0.035 H 
ATOM     87  H34 2NC d   1       9.950  19.489  15.124  0.00  0.00     0.035 H 
BRANCH  85  88
ATOM     88  C51 2NC d   1      10.678  18.463  13.371  0.00  0.00     0.009 C 
ATOM     89  H35 2NC d   1      11.412  17.680  13.131  0.00  0.00     0.064 H 
ATOM     90  H36 2NC d   1      10.973  19.404  12.883  0.00  0.00     0.064 H 
BRANCH  88  91
ATOM     91  N52 2NC d   1       9.355  18.053  12.863  0.00  0.00    -0.227 N 
ATOM     92  C53 2NC d   1       9.081  17.876  11.592  0.00  0.00     0.665 C 
ATOM     93  N54 2NC d   1      10.098  18.077  10.749  0.00  0.00    -0.235 N 
ATOM     94  N55 2NC d   1       7.884  17.506  11.151  0.00  0.00    -0.235 N 
ATOM     95  H38 2NC d   1       9.958  17.957   9.736  0.00  0.00     0.174 HD
ATOM     96  H39 2NC d   1      11.022  18.352  11.113  0.00  0.00     0.174 HD
ATOM     97  H40 2NC d   1       7.113  17.356  11.818  0.00  0.00     0.174 HD
ATOM     98  H41 2NC d   1       7.726  17.369  10.142  0.00  0.00     0.174 HD
ATOM     99  H37 2NC d   1       8.601  17.896  13.547  0.00  0.00     0.177 HD
ENDBRANCH  88  91
ENDBRANCH  85  88
ENDBRANCH  82  85
ENDBRANCH  75  82
ENDBRANCH  73  75
ENDBRANCH  69  71
BRANCH  69 100
ATOM    100  C40 2NC d   1      13.457  19.451  19.907  0.00  0.00    -0.030 C 
ATOM    101  H21 2NC d   1      12.839  20.144  20.496  0.00  0.00     0.037 H 
ATOM    102  H22 2NC d   1      14.520  19.695  20.051  0.00  0.00     0.037 H 
BRANCH 100 103
ATOM    103  C41 2NC d   1      13.225  18.070  20.426  0.00  0.00     0.011 C 
ATOM    104  H23 2NC d   1      13.898  17.915  21.282  0.00  0.00     0.047 H 
ATOM    105  H24 2NC d   1      13.481  17.362  19.624  0.00  0.00     0.047 H 
BRANCH 103 106
ATOM    106  C42 2NC d   1      11.832  17.765  20.878  0.00  0.00     0.215 C 
ATOM    107  O43 2NC d   1      11.101  18.671  21.259  0.00  0.00    -0.274 OA
ATOM    108  N44 2NC d   1      11.379  16.542  20.819  0.00  0.00    -0.370 N 
ATOM    109  H25 2NC d   1      10.448  16.339  21.121  0.00  0.00     0.159 HD
ATOM    110  H26 2NC d   1      11.963  15.809  20.471  0.00  0.00     0.159 HD
ENDBRANCH 103 106
ENDBRANCH 100 103
ENDBRANCH  69 100
ENDBRANCH  66  69
ENDBRANCH  63  65
BRANCH  63 111
ATOM    111  C30 2NC d   1      14.102  22.911  15.561  0.00  0.00    -0.030 C 
ATOM    112  H61 2NC d   1      14.108  23.942  15.178  0.00  0.00     0.036 H 
ATOM    113  H62 2NC d   1      13.094  22.485  15.450  0.00  0.00     0.036 H 
BRANCH 111 114
ATOM    114  C31 2NC d   1      15.053  22.101  14.765  0.00  0.00    -0.063 C 
ATOM    115  H63 2NC d   1      15.347  21.233  15.373  0.00  0.00     0.033 H 
ATOM    116  H64 2NC d   1      15.937  22.723  14.562  0.00  0.00     0.033 H 
BRANCH 114 117
ATOM    117  C34 2NC d   1      14.535  21.587  13.444  0.00  0.00    -0.068 C 
ATOM    118  H65 2NC d   1      15.338  21.618  12.693  0.00  0.00     0.032 H 
ATOM    119  H66 2NC d   1      13.694  22.211  13.107  0.00  0.00     0.032 H 
BRANCH 117 120
ATOM    120  C35 2NC d   1      14.064  20.150  13.634  0.00  0.00    -0.077 C 
ATOM    121  H67 2NC d   1      13.683  19.760  12.679  0.00  0.00     0.027 H 
ATOM    122  H68 2NC d   1      13.263  20.123  14.387  0.00  0.00     0.027 H 
ATOM    123  H69 2NC d   1      14.907  19.530  13.973  0.00  0.00     0.027 H 
ENDBRANCH 117 120
ENDBRANCH 114 117
ENDBRANCH 111 114
ENDBRANCH  63 111
ENDBRANCH   1  63
TORSDOF 36
