REMARK  16 active torsions:
REMARK  status: ('A' for Active; 'I' for Inactive)
REMARK    1  A    between atoms: C2_2  and  N1_1 
REMARK    2  A    between atoms: S8_8  and  C5_5 
REMARK    3  A    between atoms: N11_11  and  S8_8 
REMARK    4  A    between atoms: N11_11  and  C12_12 
REMARK    5  A    between atoms: C16_16  and  N11_11 
REMARK    6  A    between atoms: C12_12  and  C13_13 
REMARK    7  A    between atoms: C13_13  and  C14_14 
REMARK    8  A    between atoms: C13_13  and  C15_15 
REMARK    9  A    between atoms: C17_17  and  C16_16 
REMARK   10  A    between atoms: C17_17  and  O18_18 
REMARK   11  A    between atoms: C19_19  and  C17_17 
REMARK   12  A    between atoms: C19_19  and  N20_20 
REMARK   13  A    between atoms: C32_32  and  C19_19 
REMARK       I    between atoms: N20_20  and  C21_21 
REMARK   14  A    between atoms: C21_21  and  O23_23 
REMARK   15  A    between atoms: O23_23  and  C24_24 
REMARK   16  A    between atoms: C38_38  and  C32_32 
ROOT
ATOM      1  C19 017 d   1      14.109  63.130  17.006  0.00  0.00     0.044 C 
ATOM      2  H20 017 d   1      13.254  63.727  16.656  0.00  0.00     0.077 H 
ENDROOT
BRANCH   1   3
ATOM      3  C17 017 d   1      13.573  62.041  17.941  0.00  0.00     0.071 C 
ATOM      4  H18 017 d   1      13.052  62.542  18.770  0.00  0.00     0.088 H 
BRANCH   3   5
ATOM      5  C16 017 d   1      12.530  61.107  17.253  0.00  0.00     0.031 C 
ATOM      6  H16 017 d   1      12.827  60.932  16.209  0.00  0.00     0.069 H 
ATOM      7  H17 017 d   1      12.489  60.147  17.788  0.00  0.00     0.069 H 
BRANCH   5   8
ATOM      8  N11 017 d   1      11.183  61.754  17.286  0.00  0.00    -0.304 N 
BRANCH   8   9
ATOM      9  S8  017 d   1      10.442  62.266  15.834  0.00  0.00     0.260 S 
ATOM     10  O9  017 d   1      11.480  62.429  14.837  0.00  0.00    -0.200 OA
ATOM     11  O10 017 d   1       9.523  63.328  16.231  0.00  0.00    -0.200 OA
BRANCH   9  12
ATOM     12  C5  017 d   1       9.354  60.914  15.293  0.00  0.00     0.079 A 
ATOM     13  C4  017 d   1      10.200  60.112  14.551  0.00  0.00    -0.058 A 
ATOM     14  C3  017 d   1       9.757  58.907  14.066  0.00  0.00    -0.056 A 
ATOM     15  H4  017 d   1      11.215  60.435  14.352  0.00  0.00     0.086 H 
ATOM     16  C2  017 d   1       8.455  58.455  14.274  0.00  0.00     0.025 A 
ATOM     17  H3  017 d   1      10.443  58.286  13.502  0.00  0.00     0.086 H 
ATOM     18  C7  017 d   1       7.600  59.252  15.029  0.00  0.00    -0.056 A 
ATOM     19  C6  017 d   1       8.019  60.510  15.474  0.00  0.00    -0.058 A 
ATOM     20  H6  017 d   1       6.606  58.897  15.273  0.00  0.00     0.086 H 
ATOM     21  H5  017 d   1       7.314  61.175  15.959  0.00  0.00     0.086 H 
BRANCH  16  22
ATOM     22  N1  017 d   1       8.034  57.228  13.780  0.00  0.00    -0.399 N 
ATOM     23  H1  017 d   1       8.678  56.649  13.223  0.00  0.00     0.156 HD
ATOM     24  H2  017 d   1       7.078  56.897  13.971  0.00  0.00     0.156 HD
ENDBRANCH  16  22
ENDBRANCH   9  12
ENDBRANCH   8   9
BRANCH   8  25
ATOM     25  C12 017 d   1      10.342  61.550  18.484  0.00  0.00     0.008 C 
ATOM     26  H7  017 d   1      10.341  60.471  18.696  0.00  0.00     0.066 H 
ATOM     27  H8  017 d   1       9.324  61.873  18.221  0.00  0.00     0.066 H 
BRANCH  25  28
ATOM     28  C13 017 d   1      10.719  62.270  19.805  0.00  0.00    -0.045 C 
ATOM     29  H9  017 d   1      11.748  62.046  20.123  0.00  0.00     0.041 H 
BRANCH  28  30
ATOM     30  C14 017 d   1      10.499  63.790  19.599  0.00  0.00    -0.072 C 
ATOM     31  H10 017 d   1      10.759  64.327  20.523  0.00  0.00     0.028 H 
ATOM     32  H11 017 d   1       9.444  63.977  19.351  0.00  0.00     0.028 H 
ATOM     33  H12 017 d   1      11.137  64.145  18.777  0.00  0.00     0.028 H 
ENDBRANCH  28  30
BRANCH  28  34
ATOM     34  C15 017 d   1       9.669  61.789  20.830  0.00  0.00    -0.072 C 
ATOM     35  H13 017 d   1       9.793  60.710  21.003  0.00  0.00     0.028 H 
ATOM     36  H14 017 d   1       8.659  61.983  20.439  0.00  0.00     0.028 H 
ATOM     37  H15 017 d   1       9.806  62.331  21.777  0.00  0.00     0.028 H 
ENDBRANCH  28  34
ENDBRANCH  25  28
ENDBRANCH   8  25
ENDBRANCH   5   8
ENDBRANCH   3   5
BRANCH   3  38
ATOM     38  O18 017 d   1      14.686  61.324  18.498  0.00  0.00    -0.392 OA
ATOM     39  H19 017 d   1      15.134  60.850  17.807  0.00  0.00     0.210 HD
ENDBRANCH   3  38
ENDBRANCH   1   3
BRANCH   1  40
ATOM     40  N20 017 d   1      15.027  63.989  17.796  0.00  0.00    -0.329 N 
ATOM     41  C21 017 d   1      14.705  65.287  18.043  0.00  0.00     0.361 C 
ATOM     42  O22 017 d   1      13.707  65.900  17.656  0.00  0.00    -0.238 OA
ATOM     43  H21 017 d   1      15.884  63.612  18.147  0.00  0.00     0.165 HD
BRANCH  41  44
ATOM     44  O23 017 d   1      15.685  65.803  18.840  0.00  0.00    -0.296 OA
BRANCH  44  45
ATOM     45  C24 017 d   1      15.586  67.239  19.125  0.00  0.00     0.078 C 
ATOM     46  C25 017 d   1      16.206  67.456  20.509  0.00  0.00     0.048 C 
ATOM     47  O26 017 d   1      17.627  67.385  20.310  0.00  0.00    -0.358 OA
ATOM     48  H23 017 d   1      15.876  66.671  21.205  0.00  0.00     0.078 H 
ATOM     49  H24 017 d   1      15.923  68.442  20.907  0.00  0.00     0.078 H 
ATOM     50  C27 017 d   1      17.921  67.929  19.001  0.00  0.00     0.137 C 
ATOM     51  O28 017 d   1      18.756  67.029  18.336  0.00  0.00    -0.361 OA
ATOM     52  C31 017 d   1      16.573  68.003  18.247  0.00  0.00     0.023 C 
ATOM     53  H25 017 d   1      18.392  68.921  19.075  0.00  0.00     0.129 H 
ATOM     54  C29 017 d   1      18.069  66.433  17.262  0.00  0.00     0.023 C 
ATOM     55  C30 017 d   1      16.940  67.403  16.870  0.00  0.00    -0.035 C 
ATOM     56  H26 017 d   1      17.648  65.465  17.571  0.00  0.00     0.074 H 
ATOM     57  H27 017 d   1      18.751  66.281  16.413  0.00  0.00     0.074 H 
ATOM     58  H28 017 d   1      16.088  66.871  16.422  0.00  0.00     0.037 H 
ATOM     59  H29 017 d   1      17.296  68.177  16.174  0.00  0.00     0.037 H 
ATOM     60  H30 017 d   1      16.218  69.036  18.119  0.00  0.00     0.051 H 
ATOM     61  H22 017 d   1      14.553  67.607  19.038  0.00  0.00     0.088 H 
ENDBRANCH  44  45
ENDBRANCH  41  44
ENDBRANCH   1  40
BRANCH   1  62
ATOM     62  C32 017 d   1      14.884  62.633  15.762  0.00  0.00    -0.020 C 
ATOM     63  H31 017 d   1      14.240  61.948  15.191  0.00  0.00     0.043 H 
ATOM     64  H32 017 d   1      15.785  62.097  16.095  0.00  0.00     0.043 H 
BRANCH  62  65
ATOM     65  C38 017 d   1      15.301  63.786  14.858  0.00  0.00    -0.056 A 
ATOM     66  C33 017 d   1      16.612  64.239  14.783  0.00  0.00    -0.077 A 
ATOM     67  C34 017 d   1      17.031  65.316  14.004  0.00  0.00    -0.082 A 
ATOM     68  H33 017 d   1      17.360  63.719  15.370  0.00  0.00     0.084 H 
ATOM     69  C35 017 d   1      16.034  66.011  13.330  0.00  0.00    -0.083 A 
ATOM     70  H34 017 d   1      18.076  65.596  13.928  0.00  0.00     0.083 H 
ATOM     71  C36 017 d   1      14.722  65.593  13.396  0.00  0.00    -0.082 A 
ATOM     72  H35 017 d   1      16.290  66.889  12.748  0.00  0.00     0.083 H 
ATOM     73  C37 017 d   1      14.323  64.523  14.176  0.00  0.00    -0.077 A 
ATOM     74  H36 017 d   1      13.976  66.123  12.815  0.00  0.00     0.083 H 
ATOM     75  H37 017 d   1      13.275  64.260  14.258  0.00  0.00     0.084 H 
ENDBRANCH  62  65
ENDBRANCH   1  62
TORSDOF 16
