REMARK  23 active torsions:
REMARK  status: ('A' for Active; 'I' for Inactive)
REMARK       I    between atoms: C75_3  and  N76_4 
REMARK    1  A    between atoms: C32_5  and  C75_3 
REMARK    2  A    between atoms: C32_5  and  C78_6 
REMARK    3  A    between atoms: N31_13  and  C32_5 
REMARK    4  A    between atoms: C78_6  and  C79_7 
REMARK    5  A    between atoms: C79_7  and  C85_8 
REMARK    6  A    between atoms: C85_8  and  N77_9 
REMARK       I    between atoms: N77_9  and  C86_10 
REMARK       I    between atoms: C86_10  and  N94_11 
REMARK       I    between atoms: C86_10  and  N93_12 
REMARK       I    between atoms: C30_14  and  N31_13 
REMARK    7  A    between atoms: C29_16  and  C30_14 
REMARK    8  A    between atoms: C29_16  and  C37_17 
REMARK    9  A    between atoms: N27_24  and  C29_16 
REMARK   10  A    between atoms: C37_17  and  C38_18 
REMARK   11  A    between atoms: C38_18  and  C39_19 
REMARK   12  A    between atoms: C39_19  and  N40_20 
REMARK       I    between atoms: N40_20  and  C41_21 
REMARK       I    between atoms: C41_21  and  N42_22 
REMARK       I    between atoms: C26_25  and  N27_24 
REMARK   13  A    between atoms: C25_27  and  C26_25 
REMARK   14  A    between atoms: C24_28  and  C25_27 
REMARK   15  A    between atoms: C23_29  and  C24_28 
REMARK   16  A    between atoms: C22_30  and  C23_29 
REMARK   17  A    between atoms: C21_31  and  C22_30 
REMARK   18  A    between atoms: N20_32  and  C21_31 
REMARK       I    between atoms: C5'_33  and  N20_32 
REMARK   19  A    between atoms: C4'_35  and  C5'_33 
REMARK   20  A    between atoms: N9_42  and  C1'_37 
REMARK   21  A    between atoms: C2'_38  and  O2'_39 
REMARK   22  A    between atoms: C3'_40  and  O3'_41 
REMARK   23  A    between atoms: C6_49  and  N6_50 
ROOT
ATOM      1  N27 ARX d   1      35.827  19.374   8.872  0.00  0.00    -0.348 N 
ATOM      2  C26 ARX d   1      35.764  19.764   7.601  0.00  0.00     0.218 C 
ATOM      3  O28 ARX d   1      36.726  20.106   6.922  0.00  0.00    -0.274 OA
ATOM      4  H28 ARX d   1      34.972  19.084   9.303  0.00  0.00     0.163 HD
ENDROOT
BRANCH   1   5
ATOM      5  C29 ARX d   1      37.035  19.332   9.692  0.00  0.00     0.089 C 
ATOM      6  H16 ARX d   1      37.868  18.953   9.082  0.00  0.00     0.087 H 
BRANCH   5   7
ATOM      7  C30 ARX d   1      37.390  20.716  10.189  0.00  0.00     0.241 C 
ATOM      8  N31 ARX d   1      36.350  21.533  10.437  0.00  0.00    -0.346 N 
ATOM      9  H15 ARX d   1      35.607  21.468   9.771  0.00  0.00     0.163 HD
ATOM     10  O35 ARX d   1      38.571  21.028  10.321  0.00  0.00    -0.271 OA
BRANCH   8  11
ATOM     11  C32 ARX d   1      36.113  22.514  11.527  0.00  0.00     0.089 C 
ATOM     12  H3  ARX d   1      35.027  22.684  11.485  0.00  0.00     0.087 H 
BRANCH  11  13
ATOM     13  C75 ARX d   1      36.322  21.996  12.965  0.00  0.00     0.238 C 
ATOM     14  O77 ARX d   1      35.406  21.360  13.500  0.00  0.00    -0.271 OA
ATOM     15  N76 ARX d   1      37.473  22.224  13.637  0.00  0.00    -0.368 N 
ATOM     16  H1  ARX d   1      38.212  22.738  13.202  0.00  0.00     0.159 HD
ATOM     17  H2  ARX d   1      37.585  21.878  14.569  0.00  0.00     0.159 HD
ENDBRANCH  11  13
BRANCH  11  18
ATOM     18  C78 ARX d   1      36.707  23.910  11.219  0.00  0.00    -0.036 C 
ATOM     19  H4  ARX d   1      36.468  24.578  12.060  0.00  0.00     0.036 H 
ATOM     20  H5  ARX d   1      36.232  24.291  10.303  0.00  0.00     0.036 H 
BRANCH  18  21
ATOM     21  C79 ARX d   1      38.228  23.925  11.012  0.00  0.00    -0.048 C 
ATOM     22  H6  ARX d   1      38.469  23.296  10.143  0.00  0.00     0.035 H 
ATOM     23  H7  ARX d   1      38.707  23.508  11.910  0.00  0.00     0.035 H 
BRANCH  21  24
ATOM     24  C85 ARX d   1      38.789  25.325  10.768  0.00  0.00     0.009 C 
ATOM     25  H8  ARX d   1      39.017  25.789  11.739  0.00  0.00     0.064 H 
ATOM     26  H9  ARX d   1      38.029  25.924  10.245  0.00  0.00     0.064 H 
BRANCH  24  27
ATOM     27  N77 ARX d   1      40.001  25.304   9.965  0.00  0.00    -0.227 N 
ATOM     28  C86 ARX d   1      40.269  26.209   9.007  0.00  0.00     0.665 C 
ATOM     29  N94 ARX d   1      40.551  25.820   7.754  0.00  0.00    -0.235 N 
ATOM     30  N93 ARX d   1      40.277  27.444   9.282  0.00  0.00    -0.235 N 
ATOM     31  H11 ARX d   1      40.754  26.524   7.030  0.00  0.00     0.174 HD
ATOM     32  H12 ARX d   1      40.564  24.818   7.516  0.00  0.00     0.174 HD
ATOM     33  H13 ARX d   1      40.063  27.760  10.239  0.00  0.00     0.174 HD
ATOM     34  H14 ARX d   1      40.498  28.133   8.549  0.00  0.00     0.174 HD
ATOM     35  H10 ARX d   1      40.690  24.558  10.139  0.00  0.00     0.177 HD
ENDBRANCH  24  27
ENDBRANCH  21  24
ENDBRANCH  18  21
ENDBRANCH  11  18
ENDBRANCH   8  11
ENDBRANCH   5   7
BRANCH   5  36
ATOM     36  C37 ARX d   1      36.803  18.372  10.875  0.00  0.00    -0.036 C 
ATOM     37  H17 ARX d   1      36.442  17.415  10.470  0.00  0.00     0.036 H 
ATOM     38  H18 ARX d   1      36.029  18.812  11.522  0.00  0.00     0.036 H 
BRANCH  36  39
ATOM     39  C38 ARX d   1      38.034  18.083  11.741  0.00  0.00    -0.048 C 
ATOM     40  H19 ARX d   1      38.933  18.378  11.180  0.00  0.00     0.035 H 
ATOM     41  H20 ARX d   1      38.069  17.003  11.950  0.00  0.00     0.035 H 
BRANCH  39  42
ATOM     42  C39 ARX d   1      38.024  18.842  13.085  0.00  0.00     0.009 C 
ATOM     43  H21 ARX d   1      37.481  19.787  12.937  0.00  0.00     0.064 H 
ATOM     44  H22 ARX d   1      39.067  19.058  13.360  0.00  0.00     0.064 H 
BRANCH  42  45
ATOM     45  N40 ARX d   1      37.400  18.134  14.202  0.00  0.00    -0.227 N 
ATOM     46  C41 ARX d   1      36.153  18.392  14.626  0.00  0.00     0.665 C 
ATOM     47  N42 ARX d   1      35.153  18.026  13.931  0.00  0.00    -0.235 N 
ATOM     48  N43 ARX d   1      35.959  19.023  15.793  0.00  0.00    -0.235 N 
ATOM     49  H24 ARX d   1      34.197  18.225  14.259  0.00  0.00     0.174 HD
ATOM     50  H25 ARX d   1      35.299  17.530  13.040  0.00  0.00     0.174 HD
ATOM     51  H26 ARX d   1      36.767  19.321  16.358  0.00  0.00     0.174 HD
ATOM     52  H27 ARX d   1      35.002  19.210  16.124  0.00  0.00     0.174 HD
ATOM     53  H23 ARX d   1      37.942  17.404  14.685  0.00  0.00     0.177 HD
ENDBRANCH  42  45
ENDBRANCH  39  42
ENDBRANCH  36  39
ENDBRANCH   5  36
ENDBRANCH   1   5
BRANCH   2  54
ATOM     54  C25 ARX d   1      34.401  19.765   6.955  0.00  0.00     0.009 C 
ATOM     55  H29 ARX d   1      33.642  19.491   7.702  0.00  0.00     0.047 H 
ATOM     56  H30 ARX d   1      34.386  19.035   6.132  0.00  0.00     0.047 H 
BRANCH  54  57
ATOM     57  C24 ARX d   1      34.094  21.160   6.405  0.00  0.00    -0.057 C 
ATOM     58  H31 ARX d   1      33.335  21.072   5.614  0.00  0.00     0.033 H 
ATOM     59  H32 ARX d   1      35.016  21.587   5.983  0.00  0.00     0.033 H 
BRANCH  57  60
ATOM     60  C23 ARX d   1      33.571  22.092   7.487  0.00  0.00    -0.063 C 
ATOM     61  H33 ARX d   1      33.192  23.011   7.017  0.00  0.00     0.033 H 
ATOM     62  H34 ARX d   1      34.394  22.343   8.173  0.00  0.00     0.033 H 
BRANCH  60  63
ATOM     63  C22 ARX d   1      32.440  21.435   8.283  0.00  0.00    -0.050 C 
ATOM     64  H35 ARX d   1      32.672  20.366   8.396  0.00  0.00     0.035 H 
ATOM     65  H36 ARX d   1      31.505  21.549   7.714  0.00  0.00     0.035 H 
BRANCH  63  66
ATOM     66  C21 ARX d   1      32.231  22.029   9.672  0.00  0.00    -0.005 C 
ATOM     67  H37 ARX d   1      33.169  21.948  10.242  0.00  0.00     0.064 H 
ATOM     68  H38 ARX d   1      31.439  21.466  10.188  0.00  0.00     0.064 H 
BRANCH  66  69
ATOM     69  N20 ARX d   1      31.846  23.418   9.594  0.00  0.00    -0.359 N 
ATOM     70  C5' ARX d   1      30.539  23.715   9.538  0.00  0.00     0.249 C 
ATOM     71  O5' ARX d   1      29.663  22.845   9.492  0.00  0.00    -0.271 OA
ATOM     72  H39 ARX d   1      32.537  24.141   9.582  0.00  0.00     0.162 HD
BRANCH  70  73
ATOM     73  C4' ARX d   1      30.197  25.185   9.559  0.00  0.00     0.144 C 
ATOM     74  O4' ARX d   1      29.484  25.521   8.344  0.00  0.00    -0.346 OA
ATOM     75  C1' ARX d   1      28.328  26.321   8.635  0.00  0.00     0.140 C 
ATOM     76  C2' ARX d   1      28.391  26.648  10.103  0.00  0.00     0.105 C 
ATOM     77  H41 ARX d   1      28.313  27.231   8.017  0.00  0.00     0.123 H 
ATOM     78  C3' ARX d   1      29.282  25.603  10.742  0.00  0.00     0.098 C 
ATOM     79  H42 ARX d   1      27.398  26.666  10.575  0.00  0.00     0.093 H 
ATOM     80  H44 ARX d   1      28.689  24.738  11.074  0.00  0.00     0.091 H 
ATOM     81  H40 ARX d   1      31.134  25.759   9.614  0.00  0.00     0.102 H 
BRANCH  75  82
ATOM     82  N9  ARX d   1      27.096  25.519   8.428  0.00  0.00    -0.294 N 
ATOM     83  C4  ARX d   1      25.884  26.006   8.128  0.00  0.00     0.167 A 
ATOM     84  C5  ARX d   1      25.013  24.841   8.020  0.00  0.00     0.149 A 
ATOM     85  N3  ARX d   1      25.355  27.237   7.945  0.00  0.00    -0.222 NA
ATOM     86  N7  ARX d   1      25.780  23.763   8.272  0.00  0.00    -0.236 NA
ATOM     87  C6  ARX d   1      23.581  25.069   7.713  0.00  0.00     0.155 A 
ATOM     88  C8  ARX d   1      27.027  24.186   8.513  0.00  0.00     0.071 A 
ATOM     89  H46 ARX d   1      27.868  23.535   8.746  0.00  0.00     0.144 H 
ATOM     90  N1  ARX d   1      23.171  26.369   7.556  0.00  0.00    -0.222 NA
ATOM     91  C2  ARX d   1      24.043  27.381   7.662  0.00  0.00     0.091 A 
ATOM     92  H47 ARX d   1      23.668  28.387   7.510  0.00  0.00     0.146 H 
BRANCH  87  93
ATOM     93  N6  ARX d   1      22.743  23.995   7.609  0.00  0.00    -0.382 N 
ATOM     94  H48 ARX d   1      21.746  24.139   7.396  0.00  0.00     0.157 HD
ATOM     95  H49 ARX d   1      23.109  23.041   7.744  0.00  0.00     0.157 HD
ENDBRANCH  87  93
ENDBRANCH  75  82
BRANCH  76  96
ATOM     96  O2' ARX d   1      29.007  27.910  10.137  0.00  0.00    -0.388 OA
ATOM     97  H43 ARX d   1      29.088  28.197  11.039  0.00  0.00     0.210 HD
ENDBRANCH  76  96
BRANCH  78  98
ATOM     98  O3' ARX d   1      29.964  26.152  11.903  0.00  0.00    -0.390 OA
ATOM     99  H45 ARX d   1      30.498  26.890  11.635  0.00  0.00     0.210 HD
ENDBRANCH  78  98
ENDBRANCH  70  73
ENDBRANCH  66  69
ENDBRANCH  63  66
ENDBRANCH  60  63
ENDBRANCH  57  60
ENDBRANCH  54  57
ENDBRANCH   2  54
TORSDOF 23
