REMARK  5 active torsions:
REMARK  status: ('A' for Active; 'I' for Inactive)
REMARK    1  A    between atoms: P_1  and  O1_5 
REMARK    2  A    between atoms: O1_5  and  C1_6 
REMARK    3  A    between atoms: C1_6  and  C2_7 
REMARK    4  A    between atoms: C2_7  and  C3_9 
REMARK    5  A    between atoms: C3_9  and  O3_10 
ROOT
ATOM      1  C1  13P d   1     -43.060   1.888   5.578  0.00  0.00     0.089 C 
ATOM      2  H1  13P d   1     -44.132   1.674   5.701  0.00  0.00     0.087 H 
ATOM      3  H2  13P d   1     -42.672   2.357   6.494  0.00  0.00     0.087 H 
ENDROOT
BRANCH   1   4
ATOM      4  O1  13P d   1     -42.899   2.819   4.480  0.00  0.00    -0.275 OA
BRANCH   4   5
ATOM      5  P   13P d   1     -43.044   4.402   4.776  0.00  0.00     0.422 P 
ATOM      6  O1P 13P d   1     -44.453   4.563   5.316  0.00  0.00    -0.617 OA
ATOM      7  O2P 13P d   1     -41.909   4.688   5.758  0.00  0.00    -0.617 OA
ATOM      8  O3P 13P d   1     -42.864   5.066   3.420  0.00  0.00    -0.617 OA
ENDBRANCH   4   5
ENDBRANCH   1   4
BRANCH   1   9
ATOM      9  C2  13P d   1     -42.332   0.584   5.360  0.00  0.00     0.174 C 
ATOM     10  O2  13P d   1     -41.534   0.455   4.439  0.00  0.00    -0.293 OA
BRANCH   9  11
ATOM     11  C3  13P d   1     -42.600  -0.574   6.297  0.00  0.00     0.073 C 
ATOM     12  H3  13P d   1     -43.686  -0.696   6.420  0.00  0.00     0.085 H 
ATOM     13  H4  13P d   1     -42.142  -0.362   7.274  0.00  0.00     0.085 H 
BRANCH  11  14
ATOM     14  O3  13P d   1     -42.042  -1.795   5.766  0.00  0.00    -0.394 OA
ATOM     15  H5  13P d   1     -41.103  -1.694   5.661  0.00  0.00     0.209 HD
ENDBRANCH  11  14
ENDBRANCH   9  11
ENDBRANCH   1   9
TORSDOF 5
