REMARK  9 active torsions:
REMARK  status: ('A' for Active; 'I' for Inactive)
REMARK    1  A    between atoms: P1_1  and  O1_5 
REMARK    2  A    between atoms: O1_5  and  C1_6 
REMARK    3  A    between atoms: C1_6  and  C2_7 
REMARK    4  A    between atoms: C2_7  and  O2_8 
REMARK    5  A    between atoms: C3_9  and  O3_10 
REMARK    6  A    between atoms: C4_11  and  O4_12 
REMARK    7  A    between atoms: C5_13  and  C6_15 
REMARK    8  A    between atoms: C6_15  and  O6_16 
REMARK    9  A    between atoms: O6_16  and  P2_17 
ROOT
ATOM      1  C2  FBP d   1      11.992  -0.750   4.246  0.00  0.00     0.213 C 
ATOM      2  C3  FBP d   1      13.041   0.199   4.789  0.00  0.00     0.118 C 
ATOM      3  C4  FBP d   1      13.878  -0.722   5.648  0.00  0.00     0.092 C 
ATOM      4  C5  FBP d   1      13.856  -1.960   4.769  0.00  0.00     0.090 C 
ATOM      5  O5  FBP d   1      12.688  -1.932   3.953  0.00  0.00    -0.341 OA
ATOM      6  H4  FBP d   1      13.640   0.619   3.968  0.00  0.00     0.095 H 
ATOM      7  H6  FBP d   1      13.469  -0.881   6.657  0.00  0.00     0.091 H 
ATOM      8  H8  FBP d   1      14.726  -1.885   4.099  0.00  0.00     0.090 H 
ENDROOT
BRANCH   1   9
ATOM      9  C1  FBP d   1      11.193  -0.239   3.050  0.00  0.00     0.086 C 
ATOM     10  H1  FBP d   1      10.427  -0.987   2.798  0.00  0.00     0.083 H 
ATOM     11  H2  FBP d   1      10.705   0.705   3.334  0.00  0.00     0.083 H 
BRANCH   9  12
ATOM     12  O1  FBP d   1      11.982  -0.007   1.909  0.00  0.00    -0.277 OA
BRANCH  12  13
ATOM     13  P1  FBP d   1      11.418   1.053   0.833  0.00  0.00     0.422 P 
ATOM     14  O1P FBP d   1      11.105   2.334   1.589  0.00  0.00    -0.617 OA
ATOM     15  O2P FBP d   1      10.190   0.519   0.115  0.00  0.00    -0.617 OA
ATOM     16  O3P FBP d   1      12.497   1.305  -0.212  0.00  0.00    -0.617 OA
ENDBRANCH  12  13
ENDBRANCH   9  12
ENDBRANCH   1   9
BRANCH   1  17
ATOM     17  O2  FBP d   1      11.067  -1.068   5.313  0.00  0.00    -0.362 OA
ATOM     18  H3  FBP d   1      10.472  -1.749   5.022  0.00  0.00     0.213 HD
ENDBRANCH   1  17
BRANCH   2  19
ATOM     19  O3  FBP d   1      12.505   1.258   5.536  0.00  0.00    -0.387 OA
ATOM     20  H5  FBP d   1      12.025   0.909   6.278  0.00  0.00     0.210 HD
ENDBRANCH   2  19
BRANCH   3  21
ATOM     21  O4  FBP d   1      15.198  -0.242   5.683  0.00  0.00    -0.390 OA
ATOM     22  H7  FBP d   1      15.206   0.634   6.050  0.00  0.00     0.210 HD
ENDBRANCH   3  21
BRANCH   4  23
ATOM     23  C6  FBP d   1      13.999  -3.271   5.492  0.00  0.00     0.059 C 
ATOM     24  H9  FBP d   1      13.158  -3.420   6.186  0.00  0.00     0.079 H 
ATOM     25  H10 FBP d   1      14.946  -3.299   6.052  0.00  0.00     0.079 H 
BRANCH  23  26
ATOM     26  O6  FBP d   1      13.991  -4.262   4.489  0.00  0.00    -0.280 OA
BRANCH  26  27
ATOM     27  P2  FBP d   1      14.276  -5.783   4.842  0.00  0.00     0.422 P 
ATOM     28  O4P FBP d   1      15.671  -5.907   5.414  0.00  0.00    -0.617 OA
ATOM     29  O5P FBP d   1      14.092  -6.564   3.559  0.00  0.00    -0.617 OA
ATOM     30  O6P FBP d   1      13.240  -6.152   5.860  0.00  0.00    -0.617 OA
ENDBRANCH  26  27
ENDBRANCH  23  26
ENDBRANCH   4  23
TORSDOF 9
