REMARK  7 active torsions:
REMARK  status: ('A' for Active; 'I' for Inactive)
REMARK    1  A    between atoms: C1_1  and  O1_3 
REMARK    2  A    between atoms: C2_2  and  O2_6 
REMARK    3  A    between atoms: C3_5  and  O3_8 
REMARK    4  A    between atoms: C4_7  and  O4_10 
REMARK    5  A    between atoms: C5_9  and  C6_11 
REMARK    6  A    between atoms: C6_11  and  O6_12 
REMARK    7  A    between atoms: O6_12  and  P_13 
ROOT
ATOM      1  C1  BG6 d   1      68.795  84.734  60.606  0.00  0.00     0.156 C 
ATOM      2  C2  BG6 d   1      68.010  85.419  61.731  0.00  0.00     0.110 C 
ATOM      3  O5  BG6 d   1      69.046  83.360  60.970  0.00  0.00    -0.349 OA
ATOM      4  C3  BG6 d   1      68.970  85.597  62.911  0.00  0.00     0.092 C 
ATOM      5  C4  BG6 d   1      69.748  84.263  63.135  0.00  0.00     0.090 C 
ATOM      6  C5  BG6 d   1      70.113  83.361  61.926  0.00  0.00     0.090 C 
ATOM      7  H1  BG6 d   1      69.772  85.233  60.529  0.00  0.00     0.133 H 
ATOM      8  H2  BG6 d   1      67.184  84.760  62.039  0.00  0.00     0.094 H 
ATOM      9  H4  BG6 d   1      69.679  86.412  62.704  0.00  0.00     0.091 H 
ATOM     10  H6  BG6 d   1      69.107  83.652  63.787  0.00  0.00     0.091 H 
ATOM     11  H8  BG6 d   1      71.002  83.785  61.438  0.00  0.00     0.090 H 
ENDROOT
BRANCH   6  12
ATOM     12  C6  BG6 d   1      70.470  81.943  62.400  0.00  0.00     0.059 C 
ATOM     13  H10 BG6 d   1      69.696  81.606  63.105  0.00  0.00     0.079 H 
ATOM     14  H11 BG6 d   1      71.442  81.982  62.914  0.00  0.00     0.079 H 
BRANCH  12  15
ATOM     15  O6  BG6 d   1      70.559  80.982  61.325  0.00  0.00    -0.280 OA
BRANCH  15  16
ATOM     16  P   BG6 d   1      70.644  79.397  61.593  0.00  0.00     0.422 P 
ATOM     17  O1P BG6 d   1      70.428  78.805  60.215  0.00  0.00    -0.617 OA
ATOM     18  O2P BG6 d   1      72.032  79.127  62.125  0.00  0.00    -0.617 OA
ATOM     19  O3P BG6 d   1      69.512  79.080  62.564  0.00  0.00    -0.617 OA
ENDBRANCH  15  16
ENDBRANCH  12  15
ENDBRANCH   6  12
BRANCH   5  20
ATOM     20  O4  BG6 d   1      70.967  84.537  63.834  0.00  0.00    -0.390 OA
ATOM     21  H9  BG6 d   1      71.571  84.983  63.252  0.00  0.00     0.210 HD
ENDBRANCH   5  20
BRANCH   1  22
ATOM     22  O1  BG6 d   1      68.156  84.897  59.353  0.00  0.00    -0.369 OA
ATOM     23  H3  BG6 d   1      68.700  84.523  58.670  0.00  0.00     0.212 HD
ENDBRANCH   1  22
BRANCH   4  24
ATOM     24  O3  BG6 d   1      68.170  85.916  64.105  0.00  0.00    -0.390 OA
ATOM     25  H7  BG6 d   1      68.746  86.010  64.855  0.00  0.00     0.210 HD
ENDBRANCH   4  24
BRANCH   2  26
ATOM     26  O2  BG6 d   1      67.442  86.678  61.314  0.00  0.00    -0.388 OA
ATOM     27  H5  BG6 d   1      66.853  86.532  60.583  0.00  0.00     0.210 HD
ENDBRANCH   2  26
TORSDOF 7
