REMARK WARNING: 32 MAX_TORS EXCEEDED!!!
REMARK  42 active torsions:
REMARK  status: ('A' for Active; 'I' for Inactive)
REMARK    1  A    between atoms: N_1  and  CA_2 
REMARK    2  A    between atoms: CA_2  and  C_3 
REMARK    3  A    between atoms: CA_2  and  CB_5 
REMARK       I    between atoms: C_3  and  N_8 
REMARK    4  A    between atoms: CB_5  and  CG1_6 
REMARK    5  A    between atoms: CB_5  and  CG2_7 
REMARK    6  A    between atoms: N_8  and  CA_9 
REMARK    7  A    between atoms: CA_9  and  C_10 
REMARK    8  A    between atoms: CA_9  and  CB_12 
REMARK       I    between atoms: C_10  and  N_16 
REMARK    9  A    between atoms: CB_12  and  CG_13 
REMARK   10  A    between atoms: CG_13  and  SD_14 
REMARK   11  A    between atoms: SD_14  and  CE_15 
REMARK   12  A    between atoms: N_16  and  CA_17 
REMARK   13  A    between atoms: CA_17  and  C_18 
REMARK   14  A    between atoms: CA_17  and  CB_20 
REMARK       I    between atoms: C_18  and  N_21 
REMARK   15  A    between atoms: CA_22  and  C_23 
REMARK       I    between atoms: C_23  and  N_28 
REMARK   16  A    between atoms: N_28  and  CA_29 
REMARK   17  A    between atoms: CA_29  and  C_30 
REMARK   18  A    between atoms: CA_29  and  CB_32 
REMARK       I    between atoms: C_30  and  N_39 
REMARK   19  A    between atoms: CB_32  and  CG_33 
REMARK   20  A    between atoms: CG_33  and  CD_34 
REMARK   21  A    between atoms: CD_34  and  NE_35 
REMARK       I    between atoms: NE_35  and  CZ_36 
REMARK       I    between atoms: CZ_36  and  NH1_37 
REMARK   22  A    between atoms: N_39  and  CA_40 
REMARK   23  A    between atoms: CA_40  and  C_41 
REMARK   24  A    between atoms: CA_40  and  CB_43 
REMARK       I    between atoms: C_41  and  N_44 
REMARK   25  A    between atoms: N_44  and  CA_45 
REMARK   26  A    between atoms: CA_45  and  C_46 
REMARK   27  A    between atoms: CA_45  and  CB_48 
REMARK       I    between atoms: C_46  and  N_52 
REMARK   28  A    between atoms: CB_48  and  CG_49 
REMARK   29  A    between atoms: CG_49  and  CD1_50 
REMARK   30  A    between atoms: CG_49  and  CD2_51 
REMARK   31  A    between atoms: N_52  and  CA_53 
REMARK   32  A    between atoms: CA_53  and  C_54 
REMARK   33  A    between atoms: CA_53  and  CB_56 
REMARK       I    between atoms: C_54  and  N_60 
REMARK   34  A    between atoms: CB_56  and  CG_57 
REMARK   35  A    between atoms: CG_57  and  CD1_58 
REMARK   36  A    between atoms: CG_57  and  CD2_59 
REMARK   37  A    between atoms: N_60  and  CA_61 
REMARK   38  A    between atoms: CA_61  and  C_62 
REMARK   39  A    between atoms: CA_61  and  CB_64 
REMARK   40  A    between atoms: CB_64  and  CG_65 
REMARK   41  A    between atoms: CG_65  and  CD1_66 
REMARK   42  A    between atoms: CG_65  and  CD2_67 
ROOT
ATOM      1  CA  ARG d   1      18.632 -15.339  18.814  0.00  0.00     0.089 C 
ATOM      2  H34 ARG d   1      18.371 -16.338  18.436  0.00  0.00     0.087 H 
ENDROOT
BRANCH   1   3
ATOM      3  N   ARG d   1      19.790 -14.931  18.144  0.00  0.00    -0.346 N 
ATOM      4  C   PRO d   1      20.601 -15.799  17.575  0.00  0.00     0.241 C 
ATOM      5  O   PRO d   1      20.427 -17.011  17.570  0.00  0.00    -0.271 OA
ATOM      6  H33 ARG d   1      20.008 -13.956  18.096  0.00  0.00     0.163 HD
BRANCH   4   7
ATOM      7  CA  PRO d   1      21.870 -15.253  16.863  0.00  0.00     0.091 C 
ATOM      8  N   PRO d   1      21.987 -13.780  16.574  0.00  0.00    -0.337 N 
ATOM      9  C   ALA d   1      21.311 -13.108  15.646  0.00  0.00     0.243 C 
ATOM     10  CD  PRO d   1      23.068 -13.176  17.366  0.00  0.00    -0.001 C 
ATOM     11  O   ALA d   1      20.525 -13.646  14.966  0.00  0.00    -0.271 OA
ATOM     12  CG  PRO d   1      23.999 -14.323  17.570  0.00  0.00    -0.048 C 
ATOM     13  H31 PRO d   1      22.691 -12.794  18.326  0.00  0.00     0.064 H 
ATOM     14  H32 PRO d   1      23.557 -12.360  16.814  0.00  0.00     0.064 H 
ATOM     15  CB  PRO d   1      23.077 -15.521  17.819  0.00  0.00    -0.036 C 
ATOM     16  H29 PRO d   1      24.617 -14.487  16.675  0.00  0.00     0.035 H 
ATOM     17  H30 PRO d   1      24.651 -14.146  18.438  0.00  0.00     0.035 H 
ATOM     18  H27 PRO d   1      23.580 -16.465  17.563  0.00  0.00     0.036 H 
ATOM     19  H28 PRO d   1      22.748 -15.554  18.868  0.00  0.00     0.036 H 
ATOM     20  H26 PRO d   1      21.985 -15.803  15.917  0.00  0.00     0.087 H 
BRANCH   9  21
ATOM     21  CA  ALA d   1      21.569 -11.611  15.457  0.00  0.00     0.086 C 
ATOM     22  H22 ALA d   1      22.435 -11.342  16.080  0.00  0.00     0.086 H 
BRANCH  21  23
ATOM     23  N   ALA d   1      21.890 -11.293  14.100  0.00  0.00    -0.346 N 
ATOM     24  C   MET d   1      22.834 -11.955  13.475  0.00  0.00     0.241 C 
ATOM     25  O   MET d   1      23.478 -12.850  14.008  0.00  0.00    -0.271 OA
ATOM     26  H21 ALA d   1      21.394 -10.565  13.627  0.00  0.00     0.163 HD
BRANCH  24  27
ATOM     27  CA  MET d   1      23.047 -11.582  12.039  0.00  0.00     0.090 C 
ATOM     28  H13 MET d   1      23.040 -10.484  11.968  0.00  0.00     0.087 H 
BRANCH  27  29
ATOM     29  N   MET d   1      24.329 -12.059  11.513  0.00  0.00    -0.346 N 
ATOM     30  C   VAL d   1      25.436 -11.317  11.614  0.00  0.00     0.249 C 
ATOM     31  O   VAL d   1      25.494 -10.206  12.201  0.00  0.00    -0.271 OA
ATOM     32  H12 MET d   1      24.376 -12.955  11.071  0.00  0.00     0.163 HD
BRANCH  30  33
ATOM     33  CA  VAL d   1      26.707 -11.970  11.056  0.00  0.00     0.178 C 
ATOM     34  H4  VAL d   1      26.489 -12.354  10.049  0.00  0.00     0.099 H 
BRANCH  33  35
ATOM     35  N   VAL d   1      27.837 -11.013  10.939  0.00  0.00    -0.066 N 
ATOM     36  H1  VAL d   1      27.571 -10.252  10.334  0.00  0.00     0.275 HD
ATOM     37  H2  VAL d   1      28.639 -11.486  10.552  0.00  0.00     0.275 HD
ATOM     38  H3  VAL d   1      28.068 -10.652  11.852  0.00  0.00     0.275 HD
ENDBRANCH  33  35
BRANCH  33  39
ATOM     39  CB  VAL d   1      27.079 -13.221  12.021  0.00  0.00    -0.025 C 
ATOM     40  H5  VAL d   1      26.265 -13.960  11.986  0.00  0.00     0.042 H 
BRANCH  39  41
ATOM     41  CG1 VAL d   1      28.379 -13.868  11.618  0.00  0.00    -0.071 C 
ATOM     42  H6  VAL d   1      28.595 -14.709  12.294  0.00  0.00     0.028 H 
ATOM     43  H7  VAL d   1      29.191 -13.129  11.681  0.00  0.00     0.028 H 
ATOM     44  H8  VAL d   1      28.299 -14.239  10.585  0.00  0.00     0.028 H 
ENDBRANCH  39  41
BRANCH  39  45
ATOM     45  CG2 VAL d   1      27.287 -12.717  13.466  0.00  0.00    -0.071 C 
ATOM     46  H9  VAL d   1      26.366 -12.231  13.821  0.00  0.00     0.028 H 
ATOM     47  H10 VAL d   1      28.115 -11.993  13.486  0.00  0.00     0.028 H 
ATOM     48  H11 VAL d   1      27.528 -13.568  14.120  0.00  0.00     0.028 H 
ENDBRANCH  39  45
ENDBRANCH  33  39
ENDBRANCH  30  33
ENDBRANCH  27  29
BRANCH  27  49
ATOM     49  CB  MET d   1      21.891 -12.133  11.191  0.00  0.00    -0.030 C 
ATOM     50  H14 MET d   1      22.037 -11.791  10.156  0.00  0.00     0.037 H 
ATOM     51  H15 MET d   1      20.952 -11.717  11.586  0.00  0.00     0.037 H 
BRANCH  49  52
ATOM     52  CG  MET d   1      21.765 -13.604  11.171  0.00  0.00    -0.021 C 
ATOM     53  H16 MET d   1      21.958 -13.957  12.195  0.00  0.00     0.049 H 
ATOM     54  H17 MET d   1      22.547 -13.985  10.498  0.00  0.00     0.049 H 
BRANCH  52  55
ATOM     55  SD  MET d   1      20.190 -14.352  10.636  0.00  0.00    -0.173 SA
BRANCH  55  56
ATOM     56  CE  MET d   1      20.475 -14.443   9.015  0.00  0.00    -0.035 C 
ATOM     57  H18 MET d   1      19.601 -14.885   8.513  0.00  0.00     0.041 H 
ATOM     58  H19 MET d   1      21.359 -15.072   8.833  0.00  0.00     0.041 H 
ATOM     59  H20 MET d   1      20.654 -13.433   8.617  0.00  0.00     0.041 H 
ENDBRANCH  55  56
ENDBRANCH  52  55
ENDBRANCH  49  52
ENDBRANCH  27  49
ENDBRANCH  24  27
ENDBRANCH  21  23
BRANCH  21  60
ATOM     60  CB  ALA d   1      20.396 -10.789  15.917  0.00  0.00    -0.049 C 
ATOM     61  H23 ALA d   1      20.158 -11.042  16.961  0.00  0.00     0.030 H 
ATOM     62  H24 ALA d   1      19.525 -11.004  15.280  0.00  0.00     0.030 H 
ATOM     63  H25 ALA d   1      20.647  -9.720  15.846  0.00  0.00     0.030 H 
ENDBRANCH  21  60
ENDBRANCH   9  21
ENDBRANCH   4   7
ENDBRANCH   1   3
BRANCH   1  64
ATOM     64  C   ARG d   1      17.428 -14.398  18.489  0.00  0.00     0.241 C 
ATOM     65  O   ARG d   1      17.434 -13.264  18.808  0.00  0.00    -0.271 OA
ATOM     66  N   ALA d   1      16.379 -14.964  17.915  0.00  0.00    -0.346 N 
ATOM     67  H46 ALA d   1      16.430 -15.941  17.706  0.00  0.00     0.163 HD
BRANCH  66  68
ATOM     68  CA  ALA d   1      15.177 -14.267  17.575  0.00  0.00     0.086 C 
ATOM     69  H47 ALA d   1      15.389 -13.188  17.612  0.00  0.00     0.086 H 
BRANCH  68  70
ATOM     70  C   ALA d   1      14.048 -14.569  18.594  0.00  0.00     0.240 C 
ATOM     71  O   ALA d   1      13.593 -15.660  18.688  0.00  0.00    -0.271 OA
ATOM     72  N   LEU d   1      13.573 -13.553  19.293  0.00  0.00    -0.346 N 
ATOM     73  H51 LEU d   1      14.020 -12.664  19.193  0.00  0.00     0.163 HD
BRANCH  72  74
ATOM     74  CA  LEU d   1      12.454 -13.649  20.187  0.00  0.00     0.089 C 
ATOM     75  H52 LEU d   1      12.819 -14.143  21.100  0.00  0.00     0.087 H 
BRANCH  74  76
ATOM     76  C   LEU d   1      11.300 -14.399  19.692  0.00  0.00     0.241 C 
ATOM     77  O   LEU d   1      10.967 -14.308  18.556  0.00  0.00    -0.271 OA
ATOM     78  N   LEU d   1      10.682 -15.116  20.604  0.00  0.00    -0.346 N 
ATOM     79  H62 LEU d   1      11.122 -15.214  21.496  0.00  0.00     0.163 HD
BRANCH  78  80
ATOM     80  CA  LEU d   1       9.382 -15.786  20.401  0.00  0.00     0.089 C 
ATOM     81  H63 LEU d   1       9.184 -15.987  19.338  0.00  0.00     0.087 H 
BRANCH  80  82
ATOM     82  C   LEU d   1       8.381 -14.769  21.000  0.00  0.00     0.241 C 
ATOM     83  O   LEU d   1       8.456 -14.407  22.158  0.00  0.00    -0.271 OA
ATOM     84  N   LEU d   1       7.473 -14.279  20.199  0.00  0.00    -0.345 N 
ATOM     85  H73 LEU d   1       7.419 -14.610  19.257  0.00  0.00     0.163 HD
BRANCH  84  86
ATOM     86  CA  LEU d   1       6.573 -13.298  20.637  0.00  0.00     0.096 C 
ATOM     87  H74 LEU d   1       7.086 -12.619  21.333  0.00  0.00     0.089 H 
BRANCH  86  88
ATOM     88  C   LEU d   1       5.370 -13.966  21.385  0.00  0.00     0.196 C 
ATOM     89  O   LEU d   1       4.536 -13.193  21.848  0.00  0.00    -0.646 OA
ATOM     90  OXT LEU d   1       5.256 -15.234  21.445  0.00  0.00    -0.646 OA
ENDBRANCH  86  88
BRANCH  86  91
ATOM     91  CB  LEU d   1       6.111 -12.514  19.438  0.00  0.00    -0.034 C 
ATOM     92  H75 LEU d   1       5.373 -11.774  19.781  0.00  0.00     0.037 H 
ATOM     93  H76 LEU d   1       5.631 -13.215  18.739  0.00  0.00     0.037 H 
BRANCH  91  94
ATOM     94  CG  LEU d   1       7.176 -11.790  18.700  0.00  0.00    -0.059 C 
ATOM     95  H77 LEU d   1       7.950 -12.520  18.418  0.00  0.00     0.038 H 
BRANCH  94  96
ATOM     96  CD1 LEU d   1       6.554 -11.276  17.394  0.00  0.00    -0.073 C 
ATOM     97  H78 LEU d   1       7.314 -10.731  16.815  0.00  0.00     0.028 H 
ATOM     98  H79 LEU d   1       5.717 -10.601  17.627  0.00  0.00     0.028 H 
ATOM     99  H80 LEU d   1       6.185 -12.127  16.804  0.00  0.00     0.028 H 
ENDBRANCH  94  96
BRANCH  94 100
ATOM    100  CD2 LEU d   1       7.897 -10.723  19.625  0.00  0.00    -0.073 C 
ATOM    101  H81 LEU d   1       8.294 -11.223  20.520  0.00  0.00     0.028 H 
ATOM    102  H82 LEU d   1       7.174  -9.951  19.927  0.00  0.00     0.028 H 
ATOM    103  H83 LEU d   1       8.723 -10.255  19.070  0.00  0.00     0.028 H 
ENDBRANCH  94 100
ENDBRANCH  91  94
ENDBRANCH  86  91
ENDBRANCH  84  86
ENDBRANCH  80  82
BRANCH  80 104
ATOM    104  CB  LEU d   1       9.328 -17.069  21.209  0.00  0.00    -0.035 C 
ATOM    105  H64 LEU d   1       8.266 -17.319  21.350  0.00  0.00     0.037 H 
ATOM    106  H65 LEU d   1       9.788 -16.857  22.186  0.00  0.00     0.037 H 
BRANCH 104 107
ATOM    107  CG  LEU d   1      10.020 -18.325  20.644  0.00  0.00    -0.059 C 
ATOM    108  H66 LEU d   1      10.990 -18.012  20.230  0.00  0.00     0.038 H 
BRANCH 107 109
ATOM    109  CD1 LEU d   1      10.321 -19.464  21.669  0.00  0.00    -0.073 C 
ATOM    110  H67 LEU d   1      10.812 -20.302  21.152  0.00  0.00     0.028 H 
ATOM    111  H68 LEU d   1       9.379 -19.812  22.118  0.00  0.00     0.028 H 
ATOM    112  H69 LEU d   1      10.984 -19.081  22.459  0.00  0.00     0.028 H 
ENDBRANCH 107 109
BRANCH 107 113
ATOM    113  CD2 LEU d   1       9.153 -18.812  19.515  0.00  0.00    -0.073 C 
ATOM    114  H70 LEU d   1       8.963 -17.985  18.816  0.00  0.00     0.028 H 
ATOM    115  H71 LEU d   1       8.197 -19.178  19.918  0.00  0.00     0.028 H 
ATOM    116  H72 LEU d   1       9.665 -19.629  18.986  0.00  0.00     0.028 H 
ENDBRANCH 107 113
ENDBRANCH 104 107
ENDBRANCH  80 104
ENDBRANCH  78  80
ENDBRANCH  74  76
BRANCH  74 117
ATOM    117  CB  LEU d   1      11.888 -12.265  20.557  0.00  0.00    -0.035 C 
ATOM    118  H53 LEU d   1      10.972 -12.428  21.143  0.00  0.00     0.037 H 
ATOM    119  H54 LEU d   1      11.636 -11.748  19.619  0.00  0.00     0.037 H 
BRANCH 117 120
ATOM    120  CG  LEU d   1      12.776 -11.354  21.350  0.00  0.00    -0.059 C 
ATOM    121  H55 LEU d   1      13.557 -10.956  20.686  0.00  0.00     0.038 H 
BRANCH 120 122
ATOM    122  CD1 LEU d   1      11.921 -10.200  21.880  0.00  0.00    -0.073 C 
ATOM    123  H56 LEU d   1      12.552  -9.516  22.467  0.00  0.00     0.028 H 
ATOM    124  H57 LEU d   1      11.121 -10.600  22.520  0.00  0.00     0.028 H 
ATOM    125  H58 LEU d   1      11.476  -9.655  21.035  0.00  0.00     0.028 H 
ENDBRANCH 120 122
BRANCH 120 126
ATOM    126  CD2 LEU d   1      13.412 -12.020  22.456  0.00  0.00    -0.073 C 
ATOM    127  H59 LEU d   1      14.027 -12.850  22.079  0.00  0.00     0.028 H 
ATOM    128  H60 LEU d   1      12.644 -12.413  23.138  0.00  0.00     0.028 H 
ATOM    129  H61 LEU d   1      14.051 -11.306  22.996  0.00  0.00     0.028 H 
ENDBRANCH 120 126
ENDBRANCH 117 120
ENDBRANCH  74 117
ENDBRANCH  72  74
ENDBRANCH  68  70
BRANCH  68 130
ATOM    130  CB  ALA d   1      14.738 -14.605  16.191  0.00  0.00    -0.049 C 
ATOM    131  H48 ALA d   1      13.814 -14.057  15.955  0.00  0.00     0.030 H 
ATOM    132  H49 ALA d   1      14.551 -15.687  16.119  0.00  0.00     0.030 H 
ATOM    133  H50 ALA d   1      15.525 -14.321  15.477  0.00  0.00     0.030 H 
ENDBRANCH  68 130
ENDBRANCH  66  68
ENDBRANCH   1  64
BRANCH   1 134
ATOM    134  CB  ARG d   1      18.881 -15.482  20.348  0.00  0.00    -0.036 C 
ATOM    135  H35 ARG d   1      19.552 -14.670  20.666  0.00  0.00     0.036 H 
ATOM    136  H36 ARG d   1      19.368 -16.452  20.530  0.00  0.00     0.036 H 
BRANCH 134 137
ATOM    137  CG  ARG d   1      17.649 -15.418  21.173  0.00  0.00    -0.048 C 
ATOM    138  H37 ARG d   1      16.972 -16.193  20.784  0.00  0.00     0.035 H 
ATOM    139  H38 ARG d   1      17.208 -14.425  20.999  0.00  0.00     0.035 H 
BRANCH 137 140
ATOM    140  CD  ARG d   1      17.705 -15.616  22.741  0.00  0.00     0.009 C 
ATOM    141  H39 ARG d   1      16.883 -15.063  23.220  0.00  0.00     0.064 H 
ATOM    142  H40 ARG d   1      18.667 -15.254  23.132  0.00  0.00     0.064 H 
BRANCH 140 143
ATOM    143  NE  ARG d   1      17.565 -17.049  23.006  0.00  0.00    -0.227 N 
ATOM    144  CZ  ARG d   1      16.584 -17.667  23.635  0.00  0.00     0.665 C 
ATOM    145  NH1 ARG d   1      15.630 -16.992  24.162  0.00  0.00    -0.235 N 
ATOM    146  NH2 ARG d   1      16.637 -18.989  23.849  0.00  0.00    -0.235 N 
ATOM    147  H42 ARG d   1      14.865 -17.477  24.652  0.00  0.00     0.174 HD
ATOM    148  H43 ARG d   1      15.628 -15.964  24.095  0.00  0.00     0.174 HD
ATOM    149  H44 ARG d   1      17.396 -19.548  23.434  0.00  0.00     0.174 HD
ATOM    150  H45 ARG d   1      15.919 -19.446  24.429  0.00  0.00     0.174 HD
ATOM    151  H41 ARG d   1      18.327 -17.649  22.658  0.00  0.00     0.177 HD
ENDBRANCH 140 143
ENDBRANCH 137 140
ENDBRANCH 134 137
ENDBRANCH   1 134
TORSDOF 42
