REMARK  9 active torsions:
REMARK  status: ('A' for Active; 'I' for Inactive)
REMARK    1  A    between atoms: C1_1  and  O1_6 
REMARK    2  A    between atoms: C2_2  and  O2_7 
REMARK    3  A    between atoms: C3_3  and  O3_8 
REMARK    4  A    between atoms: C4_4  and  C5_5 
REMARK    5  A    between atoms: C5_5  and  O5_10 
REMARK    6  A    between atoms: O1_6  and  PA_15 
REMARK    7  A    between atoms: O5_10  and  P_11 
REMARK    8  A    between atoms: PA_15  and  O3A_18 
REMARK    9  A    between atoms: O3A_18  and  PB_19 
ROOT
ATOM      1  C1  PRP d   1      26.597 -14.916  44.878  0.00  0.00     0.170 C 
ATOM      2  C2  PRP d   1      26.531 -16.231  44.189  0.00  0.00     0.110 C 
ATOM      3  C3  PRP d   1      27.120 -15.808  42.893  0.00  0.00     0.092 C 
ATOM      4  C4  PRP d   1      28.329 -15.071  43.387  0.00  0.00     0.090 C 
ATOM      5  O4  PRP d   1      27.766 -14.291  44.394  0.00  0.00    -0.348 OA
ATOM      6  H1  PRP d   1      25.712 -14.296  44.670  0.00  0.00     0.134 H 
ATOM      7  H2  PRP d   1      25.535 -16.693  44.114  0.00  0.00     0.094 H 
ATOM      8  H3  PRP d   1      26.456 -15.144  42.320  0.00  0.00     0.091 H 
ATOM      9  H4  PRP d   1      29.092 -15.764  43.771  0.00  0.00     0.090 H 
ENDROOT
BRANCH   1  10
ATOM     10  O1  PRP d   1      26.682 -15.216  46.247  0.00  0.00    -0.255 OA
BRANCH  10  11
ATOM     11  PA  PRP d   1      25.791 -14.349  47.212  0.00  0.00     0.420 P 
ATOM     12  O1A PRP d   1      25.136 -13.375  46.321  0.00  0.00    -0.624 OA
ATOM     13  O2A PRP d   1      24.939 -15.263  47.985  0.00  0.00    -0.624 OA
BRANCH  11  14
ATOM     14  O3A PRP d   1      27.047 -13.730  48.313  0.00  0.00    -0.173 OA
BRANCH  14  15
ATOM     15  PB  PRP d   1      27.751 -12.152  47.857  0.00  0.00     0.431 P 
ATOM     16  O1B PRP d   1      26.680 -11.123  47.845  0.00  0.00    -0.616 OA
ATOM     17  O2B PRP d   1      28.472 -12.318  46.604  0.00  0.00    -0.616 OA
ATOM     18  O3B PRP d   1      28.661 -12.022  49.014  0.00  0.00    -0.616 OA
ENDBRANCH  14  15
ENDBRANCH  11  14
ENDBRANCH  10  11
ENDBRANCH   1  10
BRANCH   2  19
ATOM     19  O2  PRP d   1      27.464 -17.006  44.905  0.00  0.00    -0.388 OA
ATOM     20  H7  PRP d   1      28.245 -16.490  45.067  0.00  0.00     0.210 HD
ENDBRANCH   2  19
BRANCH   3  21
ATOM     21  O3  PRP d   1      27.392 -16.979  42.137  0.00  0.00    -0.390 OA
ATOM     22  H8  PRP d   1      27.884 -17.592  42.671  0.00  0.00     0.210 HD
ENDBRANCH   3  21
BRANCH   4  23
ATOM     23  C5  PRP d   1      28.931 -14.170  42.366  0.00  0.00     0.059 C 
ATOM     24  H5  PRP d   1      28.242 -13.340  42.152  0.00  0.00     0.079 H 
ATOM     25  H6  PRP d   1      29.123 -14.734  41.441  0.00  0.00     0.079 H 
BRANCH  23  26
ATOM     26  O5  PRP d   1      30.134 -13.666  42.869  0.00  0.00    -0.280 OA
BRANCH  26  27
ATOM     27  P   PRP d   1      30.766 -12.347  42.334  0.00  0.00     0.422 P 
ATOM     28  O1P PRP d   1      29.854 -11.258  42.524  0.00  0.00    -0.617 OA
ATOM     29  O2P PRP d   1      31.832 -12.240  43.274  0.00  0.00    -0.617 OA
ATOM     30  O3P PRP d   1      31.114 -12.735  40.988  0.00  0.00    -0.617 OA
ENDBRANCH  26  27
ENDBRANCH  23  26
ENDBRANCH   4  23
TORSDOF 9
