REMARK  2 active torsions:
REMARK  status: ('A' for Active; 'I' for Inactive)
REMARK    1  A    between atoms: C2_8  and  C10_3 
REMARK    2  A    between atoms: C3_9  and  C7_6 
ROOT
ATOM      1  C1  PHT d   1     -23.269 -17.832  24.585  0.00  0.00    -0.065 A 
ATOM      2  C2  PHT d   1     -22.693 -16.847  23.788  0.00  0.00     0.057 A 
ATOM      3  C3  PHT d   1     -23.510 -15.974  23.070  0.00  0.00     0.057 A 
ATOM      4  C4  PHT d   1     -24.894 -16.100  23.150  0.00  0.00    -0.065 A 
ATOM      5  C5  PHT d   1     -25.469 -17.088  23.946  0.00  0.00    -0.082 A 
ATOM      6  C6  PHT d   1     -24.654 -17.955  24.666  0.00  0.00    -0.082 A 
ATOM      7  H1  PHT d   1     -22.635 -18.508  25.147  0.00  0.00     0.085 H 
ATOM      8  H2  PHT d   1     -25.529 -15.424  22.589  0.00  0.00     0.085 H 
ATOM      9  H3  PHT d   1     -26.547 -17.181  24.004  0.00  0.00     0.083 H 
ATOM     10  H4  PHT d   1     -25.096 -18.725  25.289  0.00  0.00     0.083 H 
ENDROOT
BRANCH   2  11
ATOM     11  C10 PHT d   1     -21.167 -16.804  23.657  0.00  0.00     0.210 C 
ATOM     12  O11 PHT d   1     -20.479 -17.031  24.676  0.00  0.00    -0.644 OA
ATOM     13  O12 PHT d   1     -20.685 -16.587  22.525  0.00  0.00    -0.644 OA
ENDBRANCH   2  11
BRANCH   3  14
ATOM     14  C7  PHT d   1     -22.925 -14.817  22.255  0.00  0.00     0.210 C 
ATOM     15  O8  PHT d   1     -21.923 -14.225  22.712  0.00  0.00    -0.644 OA
ATOM     16  O9  PHT d   1     -23.462 -14.533  21.163  0.00  0.00    -0.644 OA
ENDBRANCH   3  14
TORSDOF 2
