REMARK  18 active torsions:
REMARK  status: ('A' for Active; 'I' for Inactive)
REMARK    1  A    between atoms: C1_1  and  C2_2 
REMARK    2  A    between atoms: C1_1  and  C3_3 
REMARK    3  A    between atoms: C2_2  and  N2_9 
REMARK    4  A    between atoms: C3_3  and  N1_4 
REMARK    5  A    between atoms: N1_4  and  C4_5 
REMARK    6  A    between atoms: C4_5  and  C5_6 
REMARK    7  A    between atoms: C4_5  and  C6_7 
REMARK    8  A    between atoms: C4_5  and  C7_8 
REMARK    9  A    between atoms: C5_6  and  O4_17 
REMARK   10  A    between atoms: C6_7  and  O5_18 
REMARK   11  A    between atoms: C7_8  and  O6_19 
REMARK   12  A    between atoms: N2_9  and  C8_10 
REMARK   13  A    between atoms: C8_10  and  C9_11 
REMARK   14  A    between atoms: C8_10  and  C10_12 
REMARK   15  A    between atoms: C8_10  and  C11_13 
REMARK   16  A    between atoms: C9_11  and  O1_14 
REMARK   17  A    between atoms: C10_12  and  O2_15 
REMARK   18  A    between atoms: C11_13  and  O3_16 
ROOT
ATOM      1  C1  B3P d   1      61.118  38.132  48.256  0.00  0.00    -0.020 C 
ATOM      2  H1  B3P d   1      61.854  38.776  48.760  0.00  0.00     0.037 H 
ATOM      3  H2  B3P d   1      61.641  37.324  47.724  0.00  0.00     0.037 H 
ENDROOT
BRANCH   1   4
ATOM      4  C2  B3P d   1      60.336  38.961  47.255  0.00  0.00     0.084 C 
ATOM      5  H3  B3P d   1      61.041  39.437  46.558  0.00  0.00     0.075 H 
ATOM      6  H4  B3P d   1      59.776  39.738  47.796  0.00  0.00     0.075 H 
BRANCH   4   7
ATOM      7  N2  B3P d   1      59.410  38.156  46.504  0.00  0.00    -0.060 N 
ATOM      8  H15 B3P d   1      58.685  38.789  46.204  0.00  0.00     0.278 HD
ATOM      9  H16 B3P d   1      59.029  37.498  47.165  0.00  0.00     0.278 HD
BRANCH   7  10
ATOM     10  C8  B3P d   1      59.751  37.370  45.326  0.00  0.00     0.188 C 
BRANCH  10  11
ATOM     11  C9  B3P d   1      60.817  36.298  45.575  0.00  0.00     0.052 C 
ATOM     12  H17 B3P d   1      61.687  36.791  46.033  0.00  0.00     0.078 H 
ATOM     13  H18 B3P d   1      61.105  35.879  44.599  0.00  0.00     0.078 H 
BRANCH  11  14
ATOM     14  O1  B3P d   1      60.437  35.201  46.427  0.00  0.00    -0.398 OA
ATOM     15  H23 B3P d   1      61.168  34.600  46.513  0.00  0.00     0.209 HD
ENDBRANCH  11  14
ENDBRANCH  10  11
BRANCH  10  16
ATOM     16  C10 B3P d   1      60.306  38.234  44.166  0.00  0.00     0.052 C 
ATOM     17  H19 B3P d   1      60.343  37.630  43.248  0.00  0.00     0.078 H 
ATOM     18  H20 B3P d   1      61.320  38.577  44.420  0.00  0.00     0.078 H 
BRANCH  16  19
ATOM     19  O2  B3P d   1      59.449  39.387  43.949  0.00  0.00    -0.398 OA
ATOM     20  H24 B3P d   1      59.417  39.910  44.741  0.00  0.00     0.209 HD
ENDBRANCH  16  19
ENDBRANCH  10  16
BRANCH  10  21
ATOM     21  C11 B3P d   1      58.420  36.780  44.907  0.00  0.00     0.052 C 
ATOM     22  H21 B3P d   1      57.797  37.567  44.457  0.00  0.00     0.078 H 
ATOM     23  H22 B3P d   1      57.909  36.368  45.789  0.00  0.00     0.078 H 
BRANCH  21  24
ATOM     24  O3  B3P d   1      58.631  35.747  43.960  0.00  0.00    -0.398 OA
ATOM     25  H25 B3P d   1      59.072  36.103  43.197  0.00  0.00     0.209 HD
ENDBRANCH  21  24
ENDBRANCH  10  21
ENDBRANCH   7  10
ENDBRANCH   4   7
ENDBRANCH   1   4
BRANCH   1  26
ATOM     26  C3  B3P d   1      60.206  37.532  49.284  0.00  0.00     0.084 C 
ATOM     27  H5  B3P d   1      59.501  36.842  48.798  0.00  0.00     0.075 H 
ATOM     28  H6  B3P d   1      59.646  38.329  49.795  0.00  0.00     0.075 H 
BRANCH  26  29
ATOM     29  N1  B3P d   1      61.024  36.803  50.253  0.00  0.00    -0.060 N 
ATOM     30  H7  B3P d   1      61.288  37.466  50.965  0.00  0.00     0.278 HD
ATOM     31  H8  B3P d   1      61.847  36.494  49.761  0.00  0.00     0.278 HD
BRANCH  29  32
ATOM     32  C4  B3P d   1      60.492  35.641  50.944  0.00  0.00     0.188 C 
BRANCH  32  33
ATOM     33  C5  B3P d   1      61.445  35.115  51.959  0.00  0.00     0.052 C 
ATOM     34  H9  B3P d   1      62.348  34.733  51.461  0.00  0.00     0.078 H 
ATOM     35  H10 B3P d   1      60.971  34.304  52.531  0.00  0.00     0.078 H 
BRANCH  33  36
ATOM     36  O4  B3P d   1      61.808  36.239  52.877  0.00  0.00    -0.398 OA
ATOM     37  H26 B3P d   1      62.417  35.925  53.535  0.00  0.00     0.209 HD
ENDBRANCH  33  36
ENDBRANCH  32  33
BRANCH  32  38
ATOM     38  C6  B3P d   1      59.242  36.059  51.727  0.00  0.00     0.052 C 
ATOM     39  H11 B3P d   1      58.632  36.716  51.090  0.00  0.00     0.078 H 
ATOM     40  H12 B3P d   1      59.558  36.610  52.625  0.00  0.00     0.078 H 
BRANCH  38  41
ATOM     41  O5  B3P d   1      58.440  34.945  52.134  0.00  0.00    -0.398 OA
ATOM     42  H27 B3P d   1      58.954  34.373  52.693  0.00  0.00     0.209 HD
ENDBRANCH  38  41
ENDBRANCH  32  38
BRANCH  32  43
ATOM     43  C7  B3P d   1      60.342  34.527  49.902  0.00  0.00     0.052 C 
ATOM     44  H13 B3P d   1      60.542  33.560  50.386  0.00  0.00     0.078 H 
ATOM     45  H14 B3P d   1      61.075  34.693  49.098  0.00  0.00     0.078 H 
BRANCH  43  46
ATOM     46  O6  B3P d   1      59.039  34.494  49.334  0.00  0.00    -0.398 OA
ATOM     47  H28 B3P d   1      58.399  34.345  50.020  0.00  0.00     0.209 HD
ENDBRANCH  43  46
ENDBRANCH  32  43
ENDBRANCH  29  32
ENDBRANCH  26  29
ENDBRANCH   1  26
TORSDOF 18
