REMARK  1 active torsions:
REMARK  status: ('A' for Active; 'I' for Inactive)
REMARK    1  A    between atoms: C1A_1  and  C1I_2 
ROOT
ATOM      1  C1I DRL d   1      17.911  -5.595  12.324  0.00  0.00     0.103 A 
ATOM      2  N1G DRL d   1      18.325  -6.828  12.019  0.00  0.00    -0.239 NA
ATOM      3  C1J DRL d   1      17.534  -7.752  11.442  0.00  0.00     0.049 A 
ATOM      4  C1D DRL d   1      18.241  -9.100  11.224  0.00  0.00    -0.016 C 
ATOM      5  C1C DRL d   1      17.268 -10.261  10.991  0.00  0.00    -0.018 C 
ATOM      6  S1H DRL d   1      16.137  -9.817   9.640  0.00  0.00    -0.164 SA
ATOM      7  C1E DRL d   1      15.241  -8.456  10.485  0.00  0.00     0.008 C 
ATOM      8  C1K DRL d   1      16.198  -7.447  11.136  0.00  0.00     0.044 A 
ATOM      9  C1L DRL d   1      15.759  -6.158  11.446  0.00  0.00     0.255 A 
ATOM     10  O1B DRL d   1      14.607  -5.798  11.211  0.00  0.00    -0.268 OA
ATOM     11  N1F DRL d   1      16.604  -5.245  12.051  0.00  0.00    -0.311 N 
ATOM     12  H4  DRL d   1      18.847  -9.325  12.114  0.00  0.00     0.043 H 
ATOM     13  H5  DRL d   1      18.898  -9.012  10.346  0.00  0.00     0.043 H 
ATOM     14  H6  DRL d   1      16.691 -10.450  11.909  0.00  0.00     0.049 H 
ATOM     15  H7  DRL d   1      17.831 -11.166  10.719  0.00  0.00     0.049 H 
ATOM     16  H8  DRL d   1      14.597  -8.887  11.265  0.00  0.00     0.056 H 
ATOM     17  H9  DRL d   1      14.620  -7.929   9.746  0.00  0.00     0.056 H 
ATOM     18  H10 DRL d   1      16.269  -4.334  12.290  0.00  0.00     0.170 HD
ENDROOT
BRANCH   1  19
ATOM     19  C1A DRL d   1      18.857  -4.579  12.977  0.00  0.00    -0.021 C 
ATOM     20  H1  DRL d   1      19.848  -5.037  13.115  0.00  0.00     0.037 H 
ATOM     21  H2  DRL d   1      18.453  -4.277  13.955  0.00  0.00     0.037 H 
ATOM     22  H3  DRL d   1      18.949  -3.695  12.329  0.00  0.00     0.037 H 
ENDBRANCH   1  19
TORSDOF 1
