REMARK  9 active torsions:
REMARK  status: ('A' for Active; 'I' for Inactive)
REMARK    1  A    between atoms: C4_2  and  N3_1 
REMARK    2  A    between atoms: N3_1  and  O3_10 
REMARK       I    between atoms: N3_1  and  C2_11 
REMARK    3  A    between atoms: C5_3  and  C4_2 
REMARK    4  A    between atoms: C6_4  and  C5_3 
REMARK    5  A    between atoms: O6_9  and  C6_4 
REMARK    6  A    between atoms: P6_6  and  O6_9 
REMARK    7  A    between atoms: C2_11  and  C1_13 
REMARK    8  A    between atoms: C1_13  and  O1_14 
REMARK    9  A    between atoms: O1_14  and  P1_15 
ROOT
ATOM      1  C4  PH4 d   1      -3.985  -5.234  -6.738  0.00  0.00     0.025 C 
ATOM      2  H1  PH4 d   1      -3.580  -6.257  -6.760  0.00  0.00     0.068 H 
ATOM      3  H2  PH4 d   1      -3.713  -4.712  -7.667  0.00  0.00     0.068 H 
ENDROOT
BRANCH   1   4
ATOM      4  N3  PH4 d   1      -3.426  -4.514  -5.594  0.00  0.00    -0.227 N 
ATOM      5  C2  PH4 d   1      -2.612  -3.317  -5.807  0.00  0.00     0.267 C 
ATOM      6  O2  PH4 d   1      -2.158  -2.733  -4.876  0.00  0.00    -0.269 OA
BRANCH   4   7
ATOM      7  O3  PH4 d   1      -3.669  -4.973  -4.288  0.00  0.00    -0.285 OA
ATOM      8  H7  PH4 d   1      -3.327  -5.854  -4.195  0.00  0.00     0.245 HD
ENDBRANCH   4   7
BRANCH   5   9
ATOM      9  C1  PH4 d   1      -2.344  -2.813  -7.235  0.00  0.00     0.108 C 
ATOM     10  H8  PH4 d   1      -3.277  -2.423  -7.668  0.00  0.00     0.090 H 
ATOM     11  H9  PH4 d   1      -1.972  -3.643  -7.853  0.00  0.00     0.090 H 
BRANCH   9  12
ATOM     12  O1  PH4 d   1      -1.384  -1.792  -7.197  0.00  0.00    -0.273 OA
BRANCH  12  13
ATOM     13  P1  PH4 d   1      -0.859  -1.112  -8.611  0.00  0.00     0.422 P 
ATOM     14  O12 PH4 d   1      -2.154  -0.784  -9.577  0.00  0.00    -0.617 OA
ATOM     15  O13 PH4 d   1       0.153  -2.161  -9.383  0.00  0.00    -0.617 OA
ATOM     16  O11 PH4 d   1      -0.145   0.126  -8.322  0.00  0.00    -0.617 OA
ENDBRANCH  12  13
ENDBRANCH   9  12
ENDBRANCH   5   9
ENDBRANCH   1   4
BRANCH   1  17
ATOM     17  C5  PH4 d   1      -5.523  -5.293  -6.613  0.00  0.00    -0.027 C 
ATOM     18  H3  PH4 d   1      -5.935  -4.276  -6.688  0.00  0.00     0.038 H 
ATOM     19  H4  PH4 d   1      -5.795  -5.728  -5.640  0.00  0.00     0.038 H 
BRANCH  17  20
ATOM     20  C6  PH4 d   1      -6.102  -6.165  -7.743  0.00  0.00     0.034 C 
ATOM     21  H5  PH4 d   1      -6.500  -7.099  -7.320  0.00  0.00     0.075 H 
ATOM     22  H6  PH4 d   1      -5.310  -6.399  -8.469  0.00  0.00     0.075 H 
BRANCH  20  23
ATOM     23  O6  PH4 d   1      -7.134  -5.465  -8.385  0.00  0.00    -0.283 OA
BRANCH  23  24
ATOM     24  P6  PH4 d   1      -8.055  -6.230  -9.515  0.00  0.00     0.422 P 
ATOM     25  O62 PH4 d   1      -7.411  -7.714  -9.834  0.00  0.00    -0.617 OA
ATOM     26  O63 PH4 d   1      -8.084  -5.335 -10.897  0.00  0.00    -0.617 OA
ATOM     27  O61 PH4 d   1      -9.415  -6.388  -9.010  0.00  0.00    -0.617 OA
ENDBRANCH  23  24
ENDBRANCH  20  23
ENDBRANCH  17  20
ENDBRANCH   1  17
TORSDOF 9
