REMARK  4 active torsions:
REMARK  status: ('A' for Active; 'I' for Inactive)
REMARK    1  A    between atoms: C4_7  and  C8_8 
REMARK    2  A    between atoms: C8_8  and  N9_9 
REMARK    3  A    between atoms: C10_13  and  N14_14 
REMARK    4  A    between atoms: N14_14  and  N15_15 
ROOT
ATOM      1  C8  IM4 d   1      56.196 -20.182  -4.526  0.00  0.00     0.041 C 
ATOM      2  H4  IM4 d   1      56.898 -19.347  -4.663  0.00  0.00     0.073 H 
ATOM      3  H5  IM4 d   1      56.733 -21.135  -4.643  0.00  0.00     0.073 H 
ENDROOT
BRANCH   1   4
ATOM      4  C4  IM4 d   1      55.084 -20.091  -5.623  0.00  0.00    -0.022 A 
ATOM      5  C5  IM4 d   1      55.275 -20.512  -6.923  0.00  0.00    -0.071 A 
ATOM      6  C6  IM4 d   1      54.261 -20.401  -7.930  0.00  0.00    -0.043 A 
ATOM      7  H1  IM4 d   1      56.231 -20.945  -7.194  0.00  0.00     0.084 H 
ATOM      8  C1  IM4 d   1      53.029 -19.851  -7.656  0.00  0.00     0.125 A 
ATOM      9  H2  IM4 d   1      54.469 -20.759  -8.932  0.00  0.00     0.088 H 
ATOM     10 CL7  IM4 d   1      51.891 -19.734  -8.658  0.00  0.00    -0.062 Cl
ATOM     11  N2  IM4 d   1      52.934 -19.368  -6.365  0.00  0.00    -0.248 NA
ATOM     12  C3  IM4 d   1      53.853 -19.478  -5.392  0.00  0.00     0.011 A 
ATOM     13  H3  IM4 d   1      53.633 -19.082  -4.407  0.00  0.00     0.115 H 
ENDBRANCH   1   4
BRANCH   1  14
ATOM     14  N9  IM4 d   1      55.638 -20.115  -3.167  0.00  0.00    -0.184 N 
ATOM     15  C13 IM4 d   1      55.598 -18.947  -2.308  0.00  0.00     0.015 A 
ATOM     16  C12 IM4 d   1      54.903 -19.435  -1.010  0.00  0.00     0.036 A 
ATOM     17  H6  IM4 d   1      55.973 -17.948  -2.526  0.00  0.00     0.114 H 
ATOM     18  N11 IM4 d   1      54.656 -20.839  -1.293  0.00  0.00    -0.074 NA
ATOM     19  H7  IM4 d   1      54.661 -18.868  -0.112  0.00  0.00     0.117 H 
ATOM     20  C10 IM4 d   1      55.081 -21.137  -2.531  0.00  0.00     0.725 A 
BRANCH  20  21
ATOM     21  N14 IM4 d   1      55.028 -22.355  -3.086  0.00  0.00    -0.070 N 
ATOM     22  H8  IM4 d   1      55.414 -22.520  -4.026  0.00  0.00     0.212 HD
BRANCH  21  23
ATOM     23  N15 IM4 d   1      54.507 -23.277  -2.449  0.00  0.00    -0.024 N 
ATOM     24  O16 IM4 d   1      54.407 -24.761  -2.958  0.00  0.00    -0.516 OA
ATOM     25  O17 IM4 d   1      53.998 -22.942  -1.144  0.00  0.00    -0.516 OA
ENDBRANCH  21  23
ENDBRANCH  20  21
ENDBRANCH   1  14
TORSDOF 4
