REMARK  3 active torsions:
REMARK  status: ('A' for Active; 'I' for Inactive)
REMARK    1  A    between atoms: C4_7  and  C8_8 
REMARK    2  A    between atoms: C8_8  and  N9_9 
REMARK    3  A    between atoms: C10_13  and  N14_14 
ROOT
ATOM      1  N14 TH4 d   1     -12.043  21.948  63.252  0.00  0.00    -0.149 NA
ATOM      2  C15 TH4 d   1     -11.451  22.979  63.805  0.00  0.00     0.208 C 
ATOM      3  N16 TH4 d   1     -10.963  23.916  64.237  0.00  0.00    -0.170 NA
ENDROOT
BRANCH   1   4
ATOM      4  C10 TH4 d   1     -12.163  20.760  63.839  0.00  0.00     0.176 C 
ATOM      5  N9  TH4 d   1     -12.795  19.721  63.234  0.00  0.00    -0.355 N 
ATOM      6  C13 TH4 d   1     -12.839  18.449  64.011  0.00  0.00     0.005 C 
ATOM      7  C12 TH4 d   1     -12.638  18.819  65.487  0.00  0.00    -0.001 C 
ATOM      8  H6  TH4 d   1     -12.037  17.775  63.678  0.00  0.00     0.065 H 
ATOM      9  H7  TH4 d   1     -13.813  17.956  63.874  0.00  0.00     0.065 H 
ATOM     10  S11 TH4 d   1     -11.569  20.300  65.388  0.00  0.00    -0.090 SA
ATOM     11  H8  TH4 d   1     -12.140  18.006  66.035  0.00  0.00     0.052 H 
ATOM     12  H9  TH4 d   1     -13.597  19.054  65.971  0.00  0.00     0.052 H 
BRANCH   5  13
ATOM     13  C8  TH4 d   1     -13.382  19.817  61.883  0.00  0.00     0.022 C 
ATOM     14  H4  TH4 d   1     -14.055  18.961  61.728  0.00  0.00     0.071 H 
ATOM     15  H5  TH4 d   1     -13.956  20.753  61.813  0.00  0.00     0.071 H 
BRANCH  13  16
ATOM     16  C4  TH4 d   1     -12.306  19.810  60.772  0.00  0.00    -0.023 A 
ATOM     17  C5  TH4 d   1     -12.587  20.427  59.561  0.00  0.00    -0.071 A 
ATOM     18  C6  TH4 d   1     -11.601  20.421  58.551  0.00  0.00    -0.043 A 
ATOM     19  H1  TH4 d   1     -13.546  20.905  59.394  0.00  0.00     0.084 H 
ATOM     20  C1  TH4 d   1     -10.365  19.771  58.715  0.00  0.00     0.125 A 
ATOM     21  H2  TH4 d   1     -11.803  20.934  57.618  0.00  0.00     0.088 H 
ATOM     22 CL7  TH4 d   1      -9.276  19.775  57.560  0.00  0.00    -0.062 Cl
ATOM     23  N2  TH4 d   1     -10.175  19.175  59.919  0.00  0.00    -0.248 NA
ATOM     24  C3  TH4 d   1     -11.035  19.180  60.918  0.00  0.00     0.011 A 
ATOM     25  H3  TH4 d   1     -10.775  18.703  61.856  0.00  0.00     0.115 H 
ENDBRANCH  13  16
ENDBRANCH   5  13
ENDBRANCH   1   4
TORSDOF 3
