REMARK  19 active torsions:
REMARK  status: ('A' for Active; 'I' for Inactive)
REMARK    1  A    between atoms: CA_2  and  N_1 
REMARK    2  A    between atoms: CA_2  and  CB_5 
REMARK    3  A    between atoms: C_3  and  CA_2 
REMARK       I    between atoms: N_12  and  C_3 
REMARK    4  A    between atoms: CB_5  and  CG_6 
REMARK    5  A    between atoms: CG_6  and  CD_7 
REMARK    6  A    between atoms: CD_7  and  NE_8 
REMARK       I    between atoms: NE_8  and  CZ_9 
REMARK       I    between atoms: CZ_9  and  NH2_11 
REMARK       I    between atoms: CZ_9  and  NH1_10 
REMARK    7  A    between atoms: CA_13  and  N_12 
REMARK    8  A    between atoms: CA_13  and  CB_16 
REMARK    9  A    between atoms: C_14  and  CA_13 
REMARK       I    between atoms: N_23  and  C_14 
REMARK   10  A    between atoms: CB_16  and  CG_17 
REMARK   11  A    between atoms: CG_17  and  CD_18 
REMARK   12  A    between atoms: CD_18  and  NE_19 
REMARK       I    between atoms: NE_19  and  CZ_20 
REMARK       I    between atoms: CZ_20  and  NH1_21 
REMARK   13  A    between atoms: CA_24  and  N_23 
REMARK   14  A    between atoms: C_25  and  CA_24 
REMARK       I    between atoms: C_25  and  N_27 
REMARK   15  A    between atoms: N_27  and  CA_28 
REMARK   16  A    between atoms: CA_28  and  CB_31 
REMARK   17  A    between atoms: CA_28  and  C_29 
REMARK   18  A    between atoms: C_29  and  O1_33 
REMARK   19  A    between atoms: CB_31  and  SG_32 
ROOT
ATOM      1  CA  ARG d   1      25.206  23.739  54.805  0.00  0.00     0.089 C 
ATOM      2  H17 ARG d   1      24.488  24.524  55.086  0.00  0.00     0.087 H 
ENDROOT
BRANCH   1   3
ATOM      3  N   ARG d   1      26.193  24.357  53.929  0.00  0.00    -0.346 N 
ATOM      4  C   ARG d   1      26.821  25.498  54.201  0.00  0.00     0.248 C 
ATOM      5  O   ARG d   1      26.657  26.142  55.237  0.00  0.00    -0.271 OA
ATOM      6  H16 ARG d   1      26.412  23.895  53.070  0.00  0.00     0.163 HD
BRANCH   4   7
ATOM      7  CA  ARG d   1      27.795  25.975  53.130  0.00  0.00     0.176 C 
ATOM      8  H4  ARG d   1      27.443  25.618  52.151  0.00  0.00     0.099 H 
BRANCH   7   9
ATOM      9  N   ARG d   1      27.855  27.433  53.095  0.00  0.00    -0.067 N 
ATOM     10  H1  ARG d   1      28.504  27.726  52.381  0.00  0.00     0.275 HD
ATOM     11  H2  ARG d   1      28.163  27.778  53.991  0.00  0.00     0.275 HD
ATOM     12  H3  ARG d   1      26.940  27.802  52.889  0.00  0.00     0.275 HD
ENDBRANCH   7   9
BRANCH   7  13
ATOM     13  CB  ARG d   1      29.179  25.383  53.398  0.00  0.00    -0.029 C 
ATOM     14  H5  ARG d   1      29.082  24.288  53.447  0.00  0.00     0.036 H 
ATOM     15  H6  ARG d   1      29.535  25.763  54.367  0.00  0.00     0.036 H 
BRANCH  13  16
ATOM     16  CG  ARG d   1      30.216  25.721  52.346  0.00  0.00    -0.047 C 
ATOM     17  H7  ARG d   1      30.511  26.775  52.454  0.00  0.00     0.035 H 
ATOM     18  H8  ARG d   1      29.784  25.561  51.347  0.00  0.00     0.035 H 
BRANCH  16  19
ATOM     19  CD  ARG d   1      31.446  24.838  52.507  0.00  0.00     0.009 C 
ATOM     20  H9  ARG d   1      31.149  23.787  52.375  0.00  0.00     0.064 H 
ATOM     21  H10 ARG d   1      31.855  24.979  53.518  0.00  0.00     0.064 H 
BRANCH  19  22
ATOM     22  NE  ARG d   1      32.479  25.162  51.531  0.00  0.00    -0.227 N 
ATOM     23  CZ  ARG d   1      33.236  26.253  51.575  0.00  0.00     0.665 C 
ATOM     24  NH2 ARG d   1      34.146  26.465  50.633  0.00  0.00    -0.235 N 
ATOM     25  NH1 ARG d   1      33.083  27.134  52.555  0.00  0.00    -0.235 N 
ATOM     26  H14 ARG d   1      34.267  25.783  49.871  0.00  0.00     0.174 HD
ATOM     27  H15 ARG d   1      34.731  27.312  50.664  0.00  0.00     0.174 HD
ATOM     28  H12 ARG d   1      33.672  27.978  52.585  0.00  0.00     0.174 HD
ATOM     29  H13 ARG d   1      32.375  26.974  53.286  0.00  0.00     0.174 HD
ATOM     30  H11 ARG d   1      32.632  24.501  50.756  0.00  0.00     0.177 HD
ENDBRANCH  19  22
ENDBRANCH  16  19
ENDBRANCH  13  16
ENDBRANCH   7  13
ENDBRANCH   4   7
ENDBRANCH   1   3
BRANCH   1  31
ATOM     31  CB  ARG d   1      24.454  22.643  54.037  0.00  0.00    -0.036 C 
ATOM     32  H18 ARG d   1      23.964  21.984  54.769  0.00  0.00     0.036 H 
ATOM     33  H19 ARG d   1      25.187  22.064  53.456  0.00  0.00     0.036 H 
BRANCH  31  34
ATOM     34  CG  ARG d   1      23.392  23.166  53.079  0.00  0.00    -0.048 C 
ATOM     35  H20 ARG d   1      23.228  22.428  52.280  0.00  0.00     0.035 H 
ATOM     36  H21 ARG d   1      23.735  24.113  52.638  0.00  0.00     0.035 H 
BRANCH  34  37
ATOM     37  CD  ARG d   1      22.088  23.401  53.820  0.00  0.00     0.009 C 
ATOM     38  H22 ARG d   1      21.288  23.592  53.089  0.00  0.00     0.064 H 
ATOM     39  H23 ARG d   1      22.200  24.276  54.477  0.00  0.00     0.064 H 
BRANCH  37  40
ATOM     40  NE  ARG d   1      21.729  22.240  54.628  0.00  0.00    -0.227 N 
ATOM     41  CZ  ARG d   1      20.572  22.098  55.265  0.00  0.00     0.665 C 
ATOM     42  NH2 ARG d   1      20.346  21.007  55.978  0.00  0.00    -0.235 N 
ATOM     43  NH1 ARG d   1      19.642  23.044  55.192  0.00  0.00    -0.235 N 
ATOM     44  H27 ARG d   1      21.065  20.272  56.036  0.00  0.00     0.174 HD
ATOM     45  H28 ARG d   1      19.451  20.893  56.475  0.00  0.00     0.174 HD
ATOM     46  H25 ARG d   1      18.747  22.926  55.689  0.00  0.00     0.174 HD
ATOM     47  H26 ARG d   1      19.816  23.895  54.639  0.00  0.00     0.174 HD
ATOM     48  H24 ARG d   1      22.419  21.480  54.710  0.00  0.00     0.177 HD
ENDBRANCH  37  40
ENDBRANCH  34  37
ENDBRANCH  31  34
ENDBRANCH   1  31
BRANCH   1  49
ATOM     49  C   ARG d   1      25.749  23.134  56.106  0.00  0.00     0.240 C 
ATOM     50  O   ARG d   1      25.102  23.293  57.165  0.00  0.00    -0.271 OA
ATOM     51  N   GLY d   1      26.913  22.469  56.030  0.00  0.00    -0.351 N 
ATOM     52  H29 GLY d   1      27.407  22.430  55.162  0.00  0.00     0.163 HD
BRANCH  51  53
ATOM     53  CA  GLY d   1      27.463  21.800  57.210  0.00  0.00     0.069 C 
ATOM     54  H30 GLY d   1      27.265  22.424  58.094  0.00  0.00     0.078 H 
ATOM     55  H31 GLY d   1      28.549  21.685  57.077  0.00  0.00     0.078 H 
BRANCH  53  56
ATOM     56  C   GLY d   1      26.843  20.410  57.437  0.00  0.00     0.236 C 
ATOM     57  O   GLY d   1      26.228  19.858  56.491  0.00  0.00    -0.272 OA
ATOM     58  N   CYS d   1      26.992  19.893  58.675  0.00  0.00    -0.344 N 
ATOM     59  H32 CYS d   1      27.470  20.439  59.363  0.00  0.00     0.163 HD
BRANCH  58  60
ATOM     60  CA  CYS d   1      26.484  18.558  59.065  0.00  0.00     0.101 C 
ATOM     61  H33 CYS d   1      26.862  17.832  58.331  0.00  0.00     0.090 H 
BRANCH  60  62
ATOM     62  CB  CYS d   1      26.949  18.109  60.471  0.00  0.00     0.002 C 
ATOM     63  H34 CYS d   1      26.455  17.155  60.707  0.00  0.00     0.052 H 
ATOM     64  H35 CYS d   1      26.635  18.874  61.197  0.00  0.00     0.052 H 
BRANCH  62  65
ATOM     65  SG  CYS d   1      28.735  17.875  60.635  0.00  0.00    -0.180 SA
ATOM     66  H36 CYS d   1      28.950  17.585  61.576  0.00  0.00     0.101 HD
ENDBRANCH  62  65
ENDBRANCH  60  62
BRANCH  60  67
ATOM     67  C   CYS d   1      24.980  18.525  59.044  0.00  0.00     0.164 C 
ATOM     68  O   CYS d   1      24.454  17.408  58.856  0.00  0.00    -0.648 OA
BRANCH  67  69
ATOM     69  O1  CYS d   1      24.251  19.624  59.216  0.00  0.00    -0.775 OA
ATOM     70  H37 CYS d   1      24.828  20.368  59.344  0.00  0.00     0.167 HD
ENDBRANCH  67  69
ENDBRANCH  60  67
ENDBRANCH  58  60
ENDBRANCH  53  56
ENDBRANCH  51  53
ENDBRANCH   1  49
TORSDOF 19
