REMARK  21 active torsions:
REMARK  status: ('A' for Active; 'I' for Inactive)
REMARK    1  A    between atoms: CA_2  and  N_1 
REMARK    2  A    between atoms: CA_2  and  CB_5 
REMARK    3  A    between atoms: C_3  and  CA_2 
REMARK       I    between atoms: N_12  and  C_3 
REMARK    4  A    between atoms: CB_5  and  CG_6 
REMARK    5  A    between atoms: CG_6  and  CD_7 
REMARK    6  A    between atoms: CD_7  and  NE_8 
REMARK       I    between atoms: NE_8  and  CZ_9 
REMARK       I    between atoms: CZ_9  and  NH2_11 
REMARK       I    between atoms: CZ_9  and  NH1_10 
REMARK    7  A    between atoms: CA_13  and  N_12 
REMARK    8  A    between atoms: CA_13  and  CB_16 
REMARK    9  A    between atoms: C_14  and  CA_13 
REMARK       I    between atoms: N_23  and  C_14 
REMARK   10  A    between atoms: CB_16  and  CG_17 
REMARK   11  A    between atoms: CG_17  and  CD_18 
REMARK   12  A    between atoms: CD_18  and  NE_19 
REMARK       I    between atoms: NE_19  and  CZ_20 
REMARK       I    between atoms: CZ_20  and  NH1_21 
REMARK   13  A    between atoms: CA_24  and  N_23 
REMARK   14  A    between atoms: C_25  and  CA_24 
REMARK       I    between atoms: C_25  and  N_27 
REMARK   15  A    between atoms: N_27  and  CA_28 
REMARK   16  A    between atoms: CA_28  and  CB_31 
REMARK   17  A    between atoms: CA_28  and  C_29 
REMARK   18  A    between atoms: C_29  and  O1_35 
REMARK   19  A    between atoms: CB_31  and  CG_32 
REMARK   20  A    between atoms: CG_32  and  CD1_33 
REMARK   21  A    between atoms: CG_32  and  CD2_34 
ROOT
ATOM      1  CA  ARG d   1      24.888  23.953  54.794  0.00  0.00     0.089 C 
ATOM      2  H17 ARG d   1      24.257  24.798  55.106  0.00  0.00     0.087 H 
ENDROOT
BRANCH   1   3
ATOM      3  N   ARG d   1      25.900  24.490  53.890  0.00  0.00    -0.346 N 
ATOM      4  C   ARG d   1      26.597  25.582  54.194  0.00  0.00     0.248 C 
ATOM      5  O   ARG d   1      26.475  26.189  55.261  0.00  0.00    -0.271 OA
ATOM      6  H16 ARG d   1      26.074  24.026  53.021  0.00  0.00     0.163 HD
BRANCH   4   7
ATOM      7  CA  ARG d   1      27.598  26.050  53.153  0.00  0.00     0.176 C 
ATOM      8  H4  ARG d   1      27.289  25.681  52.164  0.00  0.00     0.099 H 
BRANCH   7   9
ATOM      9  N   ARG d   1      27.635  27.509  53.122  0.00  0.00    -0.067 N 
ATOM     10  H1  ARG d   1      28.301  27.814  52.429  0.00  0.00     0.275 HD
ATOM     11  H2  ARG d   1      27.909  27.858  54.027  0.00  0.00     0.275 HD
ATOM     12  H3  ARG d   1      26.721  27.863  52.888  0.00  0.00     0.275 HD
ENDBRANCH   7   9
BRANCH   7  13
ATOM     13  CB  ARG d   1      28.975  25.478  53.489  0.00  0.00    -0.029 C 
ATOM     14  H5  ARG d   1      28.885  24.384  53.561  0.00  0.00     0.036 H 
ATOM     15  H6  ARG d   1      29.289  25.885  54.462  0.00  0.00     0.036 H 
BRANCH  13  16
ATOM     16  CG  ARG d   1      30.050  25.798  52.473  0.00  0.00    -0.047 C 
ATOM     17  H7  ARG d   1      30.294  26.869  52.529  0.00  0.00     0.035 H 
ATOM     18  H8  ARG d   1      29.678  25.559  51.466  0.00  0.00     0.035 H 
BRANCH  16  19
ATOM     19  CD  ARG d   1      31.307  24.983  52.750  0.00  0.00     0.009 C 
ATOM     20  H9  ARG d   1      31.053  23.914  52.705  0.00  0.00     0.064 H 
ATOM     21  H10 ARG d   1      31.675  25.230  53.757  0.00  0.00     0.064 H 
BRANCH  19  22
ATOM     22  NE  ARG d   1      32.365  25.257  51.781  0.00  0.00    -0.227 N 
ATOM     23  CZ  ARG d   1      33.104  26.362  51.764  0.00  0.00     0.665 C 
ATOM     24  NH2 ARG d   1      34.041  26.516  50.837  0.00  0.00    -0.235 N 
ATOM     25  NH1 ARG d   1      32.910  27.313  52.668  0.00  0.00    -0.235 N 
ATOM     26  H14 ARG d   1      34.195  25.780  50.133  0.00  0.00     0.174 HD
ATOM     27  H15 ARG d   1      34.614  27.372  50.821  0.00  0.00     0.174 HD
ATOM     28  H12 ARG d   1      33.486  28.167  52.649  0.00  0.00     0.174 HD
ATOM     29  H13 ARG d   1      32.183  27.198  53.389  0.00  0.00     0.174 HD
ATOM     30  H11 ARG d   1      32.551  24.545  51.061  0.00  0.00     0.177 HD
ENDBRANCH  19  22
ENDBRANCH  16  19
ENDBRANCH  13  16
ENDBRANCH   7  13
ENDBRANCH   4   7
ENDBRANCH   1   3
BRANCH   1  31
ATOM     31  CB  ARG d   1      24.006  22.930  54.077  0.00  0.00    -0.036 C 
ATOM     32  H18 ARG d   1      23.380  22.428  54.830  0.00  0.00     0.036 H 
ATOM     33  H19 ARG d   1      24.661  22.191  53.593  0.00  0.00     0.036 H 
BRANCH  31  34
ATOM     34  CG  ARG d   1      23.101  23.514  53.027  0.00  0.00    -0.048 C 
ATOM     35  H20 ARG d   1      23.651  23.604  52.079  0.00  0.00     0.035 H 
ATOM     36  H21 ARG d   1      22.761  24.509  53.350  0.00  0.00     0.035 H 
BRANCH  34  37
ATOM     37  CD  ARG d   1      21.903  22.613  52.829  0.00  0.00     0.009 C 
ATOM     38  H22 ARG d   1      22.177  21.595  53.142  0.00  0.00     0.064 H 
ATOM     39  H23 ARG d   1      21.641  22.610  51.761  0.00  0.00     0.064 H 
BRANCH  37  40
ATOM     40  NE  ARG d   1      20.728  23.035  53.595  0.00  0.00    -0.227 N 
ATOM     41  CZ  ARG d   1      20.365  22.543  54.777  0.00  0.00     0.665 C 
ATOM     42  NH2 ARG d   1      19.269  22.997  55.373  0.00  0.00    -0.235 N 
ATOM     43  NH1 ARG d   1      21.083  21.595  55.361  0.00  0.00    -0.235 N 
ATOM     44  H27 ARG d   1      18.706  23.734  54.924  0.00  0.00     0.174 HD
ATOM     45  H28 ARG d   1      18.981  22.612  56.284  0.00  0.00     0.174 HD
ATOM     46  H25 ARG d   1      20.794  21.220  56.276  0.00  0.00     0.174 HD
ATOM     47  H26 ARG d   1      21.930  21.233  54.900  0.00  0.00     0.174 HD
ATOM     48  H24 ARG d   1      20.135  23.771  53.186  0.00  0.00     0.177 HD
ENDBRANCH  37  40
ENDBRANCH  34  37
ENDBRANCH  31  34
ENDBRANCH   1  31
BRANCH   1  49
ATOM     49  C   ARG d   1      25.424  23.297  56.049  0.00  0.00     0.240 C 
ATOM     50  O   ARG d   1      24.787  23.358  57.099  0.00  0.00    -0.271 OA
ATOM     51  N   GLY d   1      26.580  22.652  55.943  0.00  0.00    -0.351 N 
ATOM     52  H29 GLY d   1      27.070  22.632  55.071  0.00  0.00     0.163 HD
BRANCH  51  53
ATOM     53  CA  GLY d   1      27.125  21.976  57.106  0.00  0.00     0.069 C 
ATOM     54  H30 GLY d   1      26.903  22.575  58.001  0.00  0.00     0.078 H 
ATOM     55  H31 GLY d   1      28.215  21.886  56.986  0.00  0.00     0.078 H 
BRANCH  53  56
ATOM     56  C   GLY d   1      26.536  20.586  57.288  0.00  0.00     0.236 C 
ATOM     57  O   GLY d   1      25.918  20.053  56.366  0.00  0.00    -0.272 OA
ATOM     58  N   LEU d   1      26.724  20.011  58.475  0.00  0.00    -0.345 N 
ATOM     59  H32 LEU d   1      27.229  20.512  59.178  0.00  0.00     0.163 HD
BRANCH  58  60
ATOM     60  CA  LEU d   1      26.220  18.675  58.787  0.00  0.00     0.093 C 
ATOM     61  H33 LEU d   1      26.413  18.032  57.916  0.00  0.00     0.089 H 
BRANCH  60  62
ATOM     62  CB  LEU d   1      26.968  18.109  59.992  0.00  0.00    -0.034 C 
ATOM     63  H34 LEU d   1      26.493  17.152  60.253  0.00  0.00     0.037 H 
ATOM     64  H35 LEU d   1      26.840  18.820  60.821  0.00  0.00     0.037 H 
BRANCH  62  65
ATOM     65  CG  LEU d   1      28.467  17.848  59.842  0.00  0.00    -0.059 C 
ATOM     66  H36 LEU d   1      28.984  18.803  59.666  0.00  0.00     0.038 H 
BRANCH  65  67
ATOM     67  CD1 LEU d   1      29.018  17.212  61.117  0.00  0.00    -0.073 C 
ATOM     68  H37 LEU d   1      30.096  17.029  60.999  0.00  0.00     0.028 H 
ATOM     69  H38 LEU d   1      28.502  16.259  61.304  0.00  0.00     0.028 H 
ATOM     70  H39 LEU d   1      28.853  17.891  61.967  0.00  0.00     0.028 H 
ENDBRANCH  65  67
BRANCH  65  71
ATOM     71  CD2 LEU d   1      28.700  16.927  58.654  0.00  0.00    -0.073 C 
ATOM     72  H40 LEU d   1      28.299  17.395  57.743  0.00  0.00     0.028 H 
ATOM     73  H41 LEU d   1      28.190  15.968  58.828  0.00  0.00     0.028 H 
ATOM     74  H42 LEU d   1      29.779  16.752  58.532  0.00  0.00     0.028 H 
ENDBRANCH  65  71
ENDBRANCH  62  65
ENDBRANCH  60  62
BRANCH  60  75
ATOM     75  C   LEU d   1      24.723  18.631  59.083  0.00  0.00     0.163 C 
ATOM     76  O   LEU d   1      24.122  17.550  58.887  0.00  0.00    -0.648 OA
BRANCH  75  77
ATOM     77  O1  LEU d   1      24.079  19.704  59.534  0.00  0.00    -0.775 OA
ATOM     78  H43 LEU d   1      24.691  20.425  59.621  0.00  0.00     0.167 HD
ENDBRANCH  75  77
ENDBRANCH  60  75
ENDBRANCH  58  60
ENDBRANCH  53  56
ENDBRANCH  51  53
ENDBRANCH   1  49
TORSDOF 21
