REMARK  21 active torsions:
REMARK  status: ('A' for Active; 'I' for Inactive)
REMARK    1  A    between atoms: CA_2  and  N_1 
REMARK    2  A    between atoms: CA_2  and  CB_5 
REMARK    3  A    between atoms: C_3  and  CA_2 
REMARK       I    between atoms: N_12  and  C_3 
REMARK    4  A    between atoms: CB_5  and  CG_6 
REMARK    5  A    between atoms: CG_6  and  CD_7 
REMARK    6  A    between atoms: CD_7  and  NE_8 
REMARK       I    between atoms: NE_8  and  CZ_9 
REMARK       I    between atoms: CZ_9  and  NH2_11 
REMARK       I    between atoms: CZ_9  and  NH1_10 
REMARK    7  A    between atoms: CA_13  and  N_12 
REMARK    8  A    between atoms: CA_13  and  CB_16 
REMARK    9  A    between atoms: C_14  and  CA_13 
REMARK       I    between atoms: N_23  and  C_14 
REMARK   10  A    between atoms: CB_16  and  CG_17 
REMARK   11  A    between atoms: CG_17  and  CD_18 
REMARK   12  A    between atoms: CD_18  and  NE_19 
REMARK       I    between atoms: NE_19  and  CZ_20 
REMARK       I    between atoms: CZ_20  and  NH1_21 
REMARK   13  A    between atoms: CA_24  and  N_23 
REMARK   14  A    between atoms: C_25  and  CA_24 
REMARK       I    between atoms: C_25  and  N_27 
REMARK   15  A    between atoms: N_27  and  CA_28 
REMARK   16  A    between atoms: CA_28  and  CB_31 
REMARK   17  A    between atoms: CA_28  and  C_29 
REMARK   18  A    between atoms: C_29  and  O1_35 
REMARK   19  A    between atoms: CB_31  and  CG2_33 
REMARK   20  A    between atoms: CB_31  and  CG1_32 
REMARK   21  A    between atoms: CG1_32  and  CD1_34 
ROOT
ATOM      1  CA  ARG d   1      24.669  24.022  54.822  0.00  0.00     0.089 C 
ATOM      2  H17 ARG d   1      24.032  24.864  55.130  0.00  0.00     0.087 H 
ENDROOT
BRANCH   1   3
ATOM      3  N   ARG d   1      25.687  24.551  53.923  0.00  0.00    -0.346 N 
ATOM      4  C   ARG d   1      26.409  25.609  54.252  0.00  0.00     0.248 C 
ATOM      5  O   ARG d   1      26.248  26.206  55.314  0.00  0.00    -0.271 OA
ATOM      6  H16 ARG d   1      25.842  24.106  53.041  0.00  0.00     0.163 HD
BRANCH   4   7
ATOM      7  CA  ARG d   1      27.436  26.073  53.215  0.00  0.00     0.176 C 
ATOM      8  H4  ARG d   1      27.120  25.724  52.221  0.00  0.00     0.099 H 
BRANCH   7   9
ATOM      9  N   ARG d   1      27.520  27.530  53.194  0.00  0.00    -0.067 N 
ATOM     10  H1  ARG d   1      28.199  27.817  52.507  0.00  0.00     0.275 HD
ATOM     11  H2  ARG d   1      27.800  27.864  54.103  0.00  0.00     0.275 HD
ATOM     12  H3  ARG d   1      26.619  27.915  52.957  0.00  0.00     0.275 HD
ENDBRANCH   7   9
BRANCH   7  13
ATOM     13  CB  ARG d   1      28.795  25.470  53.541  0.00  0.00    -0.029 C 
ATOM     14  H5  ARG d   1      28.688  24.376  53.569  0.00  0.00     0.036 H 
ATOM     15  H6  ARG d   1      29.104  25.834  54.532  0.00  0.00     0.036 H 
BRANCH  13  16
ATOM     16  CG  ARG d   1      29.898  25.818  52.538  0.00  0.00    -0.047 C 
ATOM     17  H7  ARG d   1      30.137  26.888  52.621  0.00  0.00     0.035 H 
ATOM     18  H8  ARG d   1      29.543  25.599  51.520  0.00  0.00     0.035 H 
BRANCH  16  19
ATOM     19  CD  ARG d   1      31.146  25.006  52.815  0.00  0.00     0.009 C 
ATOM     20  H9  ARG d   1      30.888  23.938  52.772  0.00  0.00     0.064 H 
ATOM     21  H10 ARG d   1      31.512  25.254  53.822  0.00  0.00     0.064 H 
BRANCH  19  22
ATOM     22  NE  ARG d   1      32.212  25.269  51.853  0.00  0.00    -0.227 N 
ATOM     23  CZ  ARG d   1      32.964  26.367  51.836  0.00  0.00     0.665 C 
ATOM     24  NH2 ARG d   1      33.909  26.508  50.913  0.00  0.00    -0.235 N 
ATOM     25  NH1 ARG d   1      32.780  27.325  52.734  0.00  0.00    -0.235 N 
ATOM     26  H14 ARG d   1      34.058  25.768  50.212  0.00  0.00     0.174 HD
ATOM     27  H15 ARG d   1      34.492  27.357  50.899  0.00  0.00     0.174 HD
ATOM     28  H12 ARG d   1      33.367  28.171  52.712  0.00  0.00     0.174 HD
ATOM     29  H13 ARG d   1      32.050  27.223  53.453  0.00  0.00     0.174 HD
ATOM     30  H11 ARG d   1      32.395  24.553  51.136  0.00  0.00     0.177 HD
ENDBRANCH  19  22
ENDBRANCH  16  19
ENDBRANCH  13  16
ENDBRANCH   7  13
ENDBRANCH   4   7
ENDBRANCH   1   3
BRANCH   1  31
ATOM     31  CB  ARG d   1      23.801  23.002  54.077  0.00  0.00    -0.036 C 
ATOM     32  H18 ARG d   1      22.984  22.686  54.742  0.00  0.00     0.036 H 
ATOM     33  H19 ARG d   1      24.424  22.132  53.823  0.00  0.00     0.036 H 
BRANCH  31  34
ATOM     34  CG  ARG d   1      23.199  23.550  52.804  0.00  0.00    -0.048 C 
ATOM     35  H20 ARG d   1      24.011  23.768  52.095  0.00  0.00     0.035 H 
ATOM     36  H21 ARG d   1      22.659  24.479  53.040  0.00  0.00     0.035 H 
BRANCH  34  37
ATOM     37  CD  ARG d   1      22.237  22.580  52.157  0.00  0.00     0.009 C 
ATOM     38  H22 ARG d   1      22.033  22.912  51.128  0.00  0.00     0.064 H 
ATOM     39  H23 ARG d   1      21.299  22.569  52.732  0.00  0.00     0.064 H 
BRANCH  37  40
ATOM     40  NE  ARG d   1      22.785  21.229  52.119  0.00  0.00    -0.227 N 
ATOM     41  CZ  ARG d   1      22.538  20.296  53.033  0.00  0.00     0.665 C 
ATOM     42  NH2 ARG d   1      23.081  19.096  52.908  0.00  0.00    -0.235 N 
ATOM     43  NH1 ARG d   1      21.748  20.555  54.068  0.00  0.00    -0.235 N 
ATOM     44  H27 ARG d   1      23.695  18.889  52.107  0.00  0.00     0.174 HD
ATOM     45  H28 ARG d   1      22.890  18.369  53.612  0.00  0.00     0.174 HD
ATOM     46  H25 ARG d   1      21.563  19.825  54.770  0.00  0.00     0.174 HD
ATOM     47  H26 ARG d   1      21.320  21.486  54.169  0.00  0.00     0.174 HD
ATOM     48  H24 ARG d   1      23.403  20.982  51.333  0.00  0.00     0.177 HD
ENDBRANCH  37  40
ENDBRANCH  34  37
ENDBRANCH  31  34
ENDBRANCH   1  31
BRANCH   1  49
ATOM     49  C   ARG d   1      25.217  23.370  56.091  0.00  0.00     0.240 C 
ATOM     50  O   ARG d   1      24.564  23.389  57.134  0.00  0.00    -0.271 OA
ATOM     51  N   GLY d   1      26.402  22.779  55.992  0.00  0.00    -0.351 N 
ATOM     52  H29 GLY d   1      26.898  22.802  55.124  0.00  0.00     0.163 HD
BRANCH  51  53
ATOM     53  CA  GLY d   1      26.981  22.100  57.136  0.00  0.00     0.069 C 
ATOM     54  H30 GLY d   1      26.768  22.681  58.046  0.00  0.00     0.078 H 
ATOM     55  H31 GLY d   1      28.069  22.023  56.997  0.00  0.00     0.078 H 
BRANCH  53  56
ATOM     56  C   GLY d   1      26.399  20.706  57.288  0.00  0.00     0.236 C 
ATOM     57  O   GLY d   1      25.663  20.239  56.414  0.00  0.00    -0.272 OA
ATOM     58  N   ILE d   1      26.707  20.045  58.400  0.00  0.00    -0.345 N 
ATOM     59  H32 ILE d   1      27.279  20.484  59.093  0.00  0.00     0.163 HD
BRANCH  58  60
ATOM     60  CA  ILE d   1      26.219  18.685  58.622  0.00  0.00     0.096 C 
ATOM     61  H33 ILE d   1      26.080  18.219  57.635  0.00  0.00     0.090 H 
BRANCH  60  62
ATOM     62  CB  ILE d   1      27.230  17.830  59.427  0.00  0.00    -0.029 C 
ATOM     63  H34 ILE d   1      26.823  16.814  59.538  0.00  0.00     0.043 H 
BRANCH  62  64
ATOM     64  CG2 ILE d   1      28.555  17.739  58.674  0.00  0.00    -0.070 C 
ATOM     65  H37 ILE d   1      28.381  17.307  57.677  0.00  0.00     0.028 H 
ATOM     66  H38 ILE d   1      29.252  17.099  59.235  0.00  0.00     0.028 H 
ATOM     67  H39 ILE d   1      28.986  18.745  58.567  0.00  0.00     0.028 H 
ENDBRANCH  62  64
BRANCH  62  68
ATOM     68  CG1 ILE d   1      27.426  18.428  60.824  0.00  0.00    -0.063 C 
ATOM     69  H35 ILE d   1      26.437  18.662  61.244  0.00  0.00     0.033 H 
ATOM     70  H36 ILE d   1      28.012  19.354  60.727  0.00  0.00     0.033 H 
BRANCH  68  71
ATOM     71  CD1 ILE d   1      28.152  17.496  61.789  0.00  0.00    -0.076 C 
ATOM     72  H40 ILE d   1      28.256  17.989  62.767  0.00  0.00     0.027 H 
ATOM     73  H41 ILE d   1      29.149  17.259  61.390  0.00  0.00     0.027 H 
ATOM     74  H42 ILE d   1      27.574  16.567  61.907  0.00  0.00     0.027 H 
ENDBRANCH  68  71
ENDBRANCH  62  68
ENDBRANCH  60  62
BRANCH  60  75
ATOM     75  C   ILE d   1      24.887  18.652  59.354  0.00  0.00     0.163 C 
ATOM     76  O   ILE d   1      24.272  17.563  59.349  0.00  0.00    -0.648 OA
BRANCH  75  77
ATOM     77  O1  ILE d   1      24.401  19.727  59.968  0.00  0.00    -0.775 OA
ATOM     78  H43 ILE d   1      24.289  19.538  60.893  0.00  0.00     0.167 HD
ENDBRANCH  75  77
ENDBRANCH  60  75
ENDBRANCH  58  60
ENDBRANCH  53  56
ENDBRANCH  51  53
ENDBRANCH   1  49
TORSDOF 21
