REMARK  17 active torsions:
REMARK  status: ('A' for Active; 'I' for Inactive)
REMARK    1  A    between atoms: N1_1  and  C7_4 
REMARK    2  A    between atoms: C5_2  and  C27_24 
REMARK    3  A    between atoms: C6_3  and  C13_7 
REMARK    4  A    between atoms: C12_28  and  C6_3 
REMARK    5  A    between atoms: C6_3  and  C14_29 
REMARK    6  A    between atoms: C7_4  and  C8_5 
REMARK    7  A    between atoms: C8_5  and  C9_22 
REMARK    8  A    between atoms: C10_6  and  C11_20 
REMARK    9  A    between atoms: C9_22  and  C10_6 
REMARK   10  A    between atoms: C26_14  and  O2_40 
REMARK   11  A    between atoms: C35_19  and  C36_17 
REMARK   12  A    between atoms: C11_20  and  C35_19 
REMARK   13  A    between atoms: C11_20  and  O3_21 
REMARK   14  A    between atoms: C9_22  and  O4_23 
REMARK   15  A    between atoms: C3_36  and  C2_30 
REMARK   16  A    between atoms: C1_31  and  C31_32 
REMARK       I    between atoms: N2_38  and  C3_36 
REMARK   17  A    between atoms: N2_38  and  C32_39 
ROOT
ATOM      1  N1  3HI d   1      32.892  -7.287 -12.066  0.00  0.00    -0.347 N 
ATOM      2  C5  3HI d   1      33.076  -6.049 -12.530  0.00  0.00     0.057 A 
ATOM      3  C12 3HI d   1      33.917  -8.085 -12.492  0.00  0.00     0.032 A 
ATOM      4  C2  3HI d   1      34.811  -7.324 -13.266  0.00  0.00     0.068 A 
ATOM      5  C1  3HI d   1      34.320  -6.047 -13.289  0.00  0.00     0.020 A 
ENDROOT
BRANCH   1   6
ATOM      6  C7  3HI d   1      31.724  -7.633 -11.246  0.00  0.00     0.002 C 
ATOM      7  H2  3HI d   1      31.475  -8.694 -11.394  0.00  0.00     0.065 H 
ATOM      8  H3  3HI d   1      30.869  -7.010 -11.546  0.00  0.00     0.065 H 
BRANCH   6   9
ATOM      9  C8  3HI d   1      32.038  -7.387  -9.774  0.00  0.00    -0.026 C 
ATOM     10  H4  3HI d   1      32.474  -6.383  -9.668  0.00  0.00     0.039 H 
ATOM     11  H5  3HI d   1      32.765  -8.140  -9.436  0.00  0.00     0.039 H 
BRANCH   9  12
ATOM     12  C9  3HI d   1      30.792  -7.477  -8.895  0.00  0.00     0.039 C 
ATOM     13  H22 3HI d   1      29.975  -6.904  -9.358  0.00  0.00     0.083 H 
BRANCH  12  14
ATOM     14  C10 3HI d   1      31.115  -6.911  -7.524  0.00  0.00    -0.017 C 
ATOM     15  H6  3HI d   1      30.302  -7.184  -6.835  0.00  0.00     0.040 H 
ATOM     16  H7  3HI d   1      32.057  -7.360  -7.176  0.00  0.00     0.040 H 
BRANCH  14  17
ATOM     17  C11 3HI d   1      31.269  -5.398  -7.509  0.00  0.00     0.047 C 
ATOM     18  H20 3HI d   1      31.922  -5.079  -8.335  0.00  0.00     0.083 H 
BRANCH  17  19
ATOM     19  C35 3HI d   1      31.917  -5.020  -6.175  0.00  0.00     0.039 C 
ATOM     20  H18 3HI d   1      31.206  -5.230  -5.362  0.00  0.00     0.052 H 
ATOM     21  H19 3HI d   1      32.824  -5.627  -6.035  0.00  0.00     0.052 H 
BRANCH  19  22
ATOM     22  C36 3HI d   1      32.294  -3.566  -6.127  0.00  0.00     0.175 C 
ATOM     23  O7  3HI d   1      33.342  -3.219  -6.712  0.00  0.00    -0.648 OA
ATOM     24  O6  3HI d   1      31.561  -2.749  -5.518  0.00  0.00    -0.648 OA
ENDBRANCH  19  22
ENDBRANCH  17  19
BRANCH  17  25
ATOM     25  O3  3HI d   1      29.988  -4.797  -7.671  0.00  0.00    -0.395 OA
ATOM     26  H21 3HI d   1      29.414  -5.084  -6.971  0.00  0.00     0.210 HD
ENDBRANCH  17  25
ENDBRANCH  14  17
ENDBRANCH  12  14
BRANCH  12  27
ATOM     27  O4  3HI d   1      30.390  -8.829  -8.722  0.00  0.00    -0.395 OA
ATOM     28  H23 3HI d   1      30.182  -9.207  -9.568  0.00  0.00     0.210 HD
ENDBRANCH  12  27
ENDBRANCH   9  12
ENDBRANCH   6   9
ENDBRANCH   1   6
BRANCH   2  29
ATOM     29  C27 3HI d   1      32.341  -4.766 -12.382  0.00  0.00    -0.008 A 
ATOM     30  C21 3HI d   1      32.629  -3.997 -11.262  0.00  0.00    -0.068 A 
ATOM     31  C24 3HI d   1      31.975  -2.793 -11.048  0.00  0.00    -0.045 A 
ATOM     32  H14 3HI d   1      33.370  -4.340 -10.550  0.00  0.00     0.085 H 
ATOM     33  C30 3HI d   1      31.030  -2.361 -11.963  0.00  0.00     0.116 A 
ATOM     34  H16 3HI d   1      32.202  -2.196 -10.172  0.00  0.00     0.088 H 
ATOM     35  C15 3HI d   1      30.732  -3.122 -13.087  0.00  0.00    -0.045 A 
ATOM     36  F1  3HI d   1      30.407  -1.199 -11.750  0.00  0.00    -0.206 F 
ATOM     37  C18 3HI d   1      31.391  -4.332 -13.299  0.00  0.00    -0.068 A 
ATOM     38  H11 3HI d   1      29.989  -2.776 -13.797  0.00  0.00     0.088 H 
ATOM     39  H24 3HI d   1      31.164  -4.931 -14.174  0.00  0.00     0.085 H 
ENDBRANCH   2  29
BRANCH   3  40
ATOM     40  C6  3HI d   1      34.111  -9.535 -12.222  0.00  0.00    -0.020 C 
ATOM     41  H1  3HI d   1      34.958  -9.874 -12.837  0.00  0.00     0.048 H 
BRANCH  40  42
ATOM     42  C13 3HI d   1      32.901 -10.369 -12.639  0.00  0.00    -0.068 C 
ATOM     43  H8  3HI d   1      33.093 -11.430 -12.420  0.00  0.00     0.028 H 
ATOM     44  H9  3HI d   1      32.724 -10.244 -13.717  0.00  0.00     0.028 H 
ATOM     45  H10 3HI d   1      32.015 -10.034 -12.080  0.00  0.00     0.028 H 
ENDBRANCH  40  42
BRANCH  40  46
ATOM     46  C14 3HI d   1      34.500  -9.738 -10.764  0.00  0.00    -0.068 C 
ATOM     47  H25 3HI d   1      35.374  -9.113 -10.527  0.00  0.00     0.028 H 
ATOM     48  H26 3HI d   1      34.749 -10.796 -10.595  0.00  0.00     0.028 H 
ATOM     49  H27 3HI d   1      33.658  -9.452 -10.117  0.00  0.00     0.028 H 
ENDBRANCH  40  46
ENDBRANCH   3  40
BRANCH   5  50
ATOM     50  C31 3HI d   1      34.863  -4.851 -13.982  0.00  0.00    -0.023 A 
ATOM     51  C25 3HI d   1      35.518  -3.854 -13.275  0.00  0.00    -0.072 A 
ATOM     52  C22 3HI d   1      36.006  -2.741 -13.946  0.00  0.00    -0.082 A 
ATOM     53  H28 3HI d   1      35.648  -3.943 -12.203  0.00  0.00     0.084 H 
ATOM     54  C28 3HI d   1      35.830  -2.620 -15.318  0.00  0.00    -0.083 A 
ATOM     55  H15 3HI d   1      36.526  -1.964 -13.397  0.00  0.00     0.083 H 
ATOM     56  C19 3HI d   1      35.171  -3.619 -16.034  0.00  0.00    -0.082 A 
ATOM     57  H17 3HI d   1      36.207  -1.745 -15.835  0.00  0.00     0.083 H 
ATOM     58  C16 3HI d   1      34.674  -4.730 -15.356  0.00  0.00    -0.072 A 
ATOM     59  H29 3HI d   1      35.047  -3.532 -17.107  0.00  0.00     0.083 H 
ATOM     60  H30 3HI d   1      34.139  -5.501 -15.899  0.00  0.00     0.084 H 
ENDBRANCH   5  50
BRANCH   4  61
ATOM     61  C3  3HI d   1      36.068  -7.827 -13.897  0.00  0.00     0.259 C 
ATOM     62  O1  3HI d   1      36.877  -8.405 -13.176  0.00  0.00    -0.267 OA
ATOM     63  N2  3HI d   1      36.235  -7.730 -15.213  0.00  0.00    -0.320 N 
ATOM     64  H31 3HI d   1      35.442  -7.487 -15.771  0.00  0.00     0.169 HD
BRANCH  63  65
ATOM     65  C32 3HI d   1      37.470  -7.951 -15.871  0.00  0.00     0.068 A 
ATOM     66  C17 3HI d   1      38.356  -8.949 -15.455  0.00  0.00    -0.054 A 
ATOM     67  C20 3HI d   1      39.561  -9.147 -16.119  0.00  0.00    -0.081 A 
ATOM     68  H12 3HI d   1      38.101  -9.574 -14.607  0.00  0.00     0.087 H 
ATOM     69  C29 3HI d   1      39.892  -8.353 -17.218  0.00  0.00    -0.080 A 
ATOM     70  H13 3HI d   1      40.244  -9.919 -15.783  0.00  0.00     0.083 H 
ATOM     71  C23 3HI d   1      39.018  -7.358 -17.651  0.00  0.00    -0.049 A 
ATOM     72  H34 3HI d   1      40.831  -8.511 -17.736  0.00  0.00     0.083 H 
ATOM     73  C26 3HI d   1      37.809  -7.159 -16.977  0.00  0.00     0.092 A 
ATOM     74  H33 3HI d   1      39.274  -6.742 -18.505  0.00  0.00     0.087 H 
BRANCH  73  75
ATOM     75  O2  3HI d   1      36.985  -6.200 -17.410  0.00  0.00    -0.358 OA
ATOM     76  H32 3HI d   1      37.372  -5.767 -18.162  0.00  0.00     0.217 HD
ENDBRANCH  73  75
ENDBRANCH  63  65
ENDBRANCH   4  61
TORSDOF 17
