REMARK  16 active torsions:
REMARK  status: ('A' for Active; 'I' for Inactive)
REMARK    1  A    between atoms: N1_1  and  C7_6 
REMARK    2  A    between atoms: N2_18  and  C4_3 
REMARK    3  A    between atoms: C4_3  and  C32_19 
REMARK    4  A    between atoms: C5_4  and  C27_25 
REMARK    5  A    between atoms: C6_5  and  C13_9 
REMARK    6  A    between atoms: C12_23  and  C6_5 
REMARK    7  A    between atoms: C6_5  and  C14_24 
REMARK    8  A    between atoms: C7_6  and  C8_7 
REMARK    9  A    between atoms: C8_7  and  C9_29 
REMARK   10  A    between atoms: C9_29  and  C10_8 
REMARK   11  A    between atoms: C10_8  and  C11_31 
REMARK       I    between atoms: C3_17  and  N2_18 
REMARK   12  A    between atoms: C3_17  and  C2_22 
REMARK   13  A    between atoms: C9_29  and  O4_30 
REMARK   14  A    between atoms: C11_31  and  O3_32 
REMARK   15  A    between atoms: C11_31  and  C35_33 
REMARK   16  A    between atoms: C35_33  and  C36_34 
ROOT
ATOM      1  N1  4HI d   1     -14.213   7.477  45.550  0.00  0.00    -0.332 N 
ATOM      2  N3  4HI d   1     -15.760   8.548  46.700  0.00  0.00    -0.223 NA
ATOM      3  C5  4HI d   1     -14.549   8.650  46.140  0.00  0.00     0.141 A 
ATOM      4  C2  4HI d   1     -16.199   7.314  46.461  0.00  0.00     0.149 A 
ATOM      5  C12 4HI d   1     -15.246   6.621  45.720  0.00  0.00     0.051 A 
ENDROOT
BRANCH   1   6
ATOM      6  C7  4HI d   1     -12.965   7.221  44.815  0.00  0.00     0.004 C 
ATOM      7  H4  4HI d   1     -12.770   6.140  44.761  0.00  0.00     0.065 H 
ATOM      8  H5  4HI d   1     -12.121   7.721  45.312  0.00  0.00     0.065 H 
BRANCH   6   9
ATOM      9  C8  4HI d   1     -13.167   7.795  43.407  0.00  0.00    -0.026 C 
ATOM     10  H6  4HI d   1     -13.246   8.888  43.505  0.00  0.00     0.039 H 
ATOM     11  H7  4HI d   1     -14.114   7.392  43.019  0.00  0.00     0.039 H 
BRANCH   9  12
ATOM     12  C9  4HI d   1     -12.080   7.503  42.361  0.00  0.00     0.039 C 
ATOM     13  H26 4HI d   1     -11.156   8.024  42.652  0.00  0.00     0.083 H 
BRANCH  12  14
ATOM     14  C10 4HI d   1     -12.556   7.995  40.997  0.00  0.00    -0.017 C 
ATOM     15  H8  4HI d   1     -13.547   7.560  40.799  0.00  0.00     0.040 H 
ATOM     16  H9  4HI d   1     -11.843   7.646  40.235  0.00  0.00     0.040 H 
BRANCH  14  17
ATOM     17  C11 4HI d   1     -12.668   9.514  40.889  0.00  0.00     0.047 C 
ATOM     18  H28 4HI d   1     -13.393   9.884  41.629  0.00  0.00     0.083 H 
BRANCH  17  19
ATOM     19  O3  4HI d   1     -11.408  10.099  41.123  0.00  0.00    -0.395 OA
ATOM     20  H29 4HI d   1     -10.788   9.781  40.477  0.00  0.00     0.210 HD
ENDBRANCH  17  19
BRANCH  17  21
ATOM     21  C35 4HI d   1     -13.125   9.891  39.484  0.00  0.00     0.039 C 
ATOM     22  H30 4HI d   1     -13.954   9.233  39.185  0.00  0.00     0.052 H 
ATOM     23  H31 4HI d   1     -12.285   9.764  38.785  0.00  0.00     0.052 H 
BRANCH  21  24
ATOM     24  C36 4HI d   1     -13.593  11.330  39.442  0.00  0.00     0.175 C 
ATOM     25  O6  4HI d   1     -12.854  12.187  38.891  0.00  0.00    -0.648 OA
ATOM     26  O7  4HI d   1     -14.700  11.599  39.971  0.00  0.00    -0.648 OA
ENDBRANCH  21  24
ENDBRANCH  17  21
ENDBRANCH  14  17
ENDBRANCH  12  14
BRANCH  12  27
ATOM     27  O4  4HI d   1     -11.815   6.113  42.214  0.00  0.00    -0.395 OA
ATOM     28  H27 4HI d   1     -11.514   5.760  43.043  0.00  0.00     0.210 HD
ENDBRANCH  12  27
ENDBRANCH   9  12
ENDBRANCH   6   9
ENDBRANCH   1   6
BRANCH   3  29
ATOM     29  C27 4HI d   1     -13.773   9.908  46.213  0.00  0.00     0.010 A 
ATOM     30  C21 4HI d   1     -14.310  11.067  45.657  0.00  0.00    -0.067 A 
ATOM     31  C24 4HI d   1     -13.591  12.259  45.727  0.00  0.00    -0.045 A 
ATOM     32  H16 4HI d   1     -15.280  11.042  45.173  0.00  0.00     0.085 H 
ATOM     33  C30 4HI d   1     -12.350  12.296  46.367  0.00  0.00     0.116 A 
ATOM     34  H17 4HI d   1     -13.996  13.161  45.283  0.00  0.00     0.088 H 
ATOM     35  C15 4HI d   1     -11.825  11.137  46.935  0.00  0.00    -0.045 A 
ATOM     36  F1  4HI d   1     -11.655  13.449  46.429  0.00  0.00    -0.206 F 
ATOM     37  C18 4HI d   1     -12.542   9.945  46.870  0.00  0.00    -0.067 A 
ATOM     38  H13 4HI d   1     -10.859  11.163  47.427  0.00  0.00     0.088 H 
ATOM     39  H25 4HI d   1     -12.145   9.047  47.329  0.00  0.00     0.085 H 
ENDBRANCH   3  29
BRANCH   5  40
ATOM     40  C6  4HI d   1     -15.362   5.200  45.294  0.00  0.00    -0.018 C 
ATOM     41  H3  4HI d   1     -16.350   4.839  45.614  0.00  0.00     0.048 H 
BRANCH  40  42
ATOM     42  C13 4HI d   1     -14.307   4.385  46.042  0.00  0.00    -0.068 C 
ATOM     43  H10 4HI d   1     -14.377   3.330  45.740  0.00  0.00     0.028 H 
ATOM     44  H11 4HI d   1     -14.479   4.468  47.125  0.00  0.00     0.028 H 
ATOM     45  H12 4HI d   1     -13.306   4.770  45.799  0.00  0.00     0.028 H 
ENDBRANCH  40  42
BRANCH  40  46
ATOM     46  C14 4HI d   1     -15.297   5.009  43.782  0.00  0.00    -0.068 C 
ATOM     47  H22 4HI d   1     -16.077   5.618  43.302  0.00  0.00     0.028 H 
ATOM     48  H23 4HI d   1     -15.459   3.948  43.539  0.00  0.00     0.028 H 
ATOM     49  H24 4HI d   1     -14.309   5.323  43.415  0.00  0.00     0.028 H 
ENDBRANCH  40  46
ENDBRANCH   5  40
BRANCH   4  50
ATOM     50  C3  4HI d   1     -17.498   6.743  46.886  0.00  0.00     0.272 C 
ATOM     51  O2  4HI d   1     -18.190   6.120  46.085  0.00  0.00    -0.266 OA
ATOM     52  N2  4HI d   1     -17.975   7.173  48.049  0.00  0.00    -0.351 N 
ATOM     53  H19 4HI d   1     -17.348   7.701  48.622  0.00  0.00     0.163 HD
BRANCH  52  54
ATOM     54  C4  4HI d   1     -19.311   6.957  48.576  0.00  0.00     0.019 C 
ATOM     55  H1  4HI d   1     -20.036   6.979  47.749  0.00  0.00     0.071 H 
ATOM     56  H2  4HI d   1     -19.551   7.753  49.296  0.00  0.00     0.071 H 
BRANCH  54  57
ATOM     57  C32 4HI d   1     -19.387   5.616  49.271  0.00  0.00    -0.041 A 
ATOM     58  C17 4HI d   1     -20.609   4.965  49.315  0.00  0.00    -0.075 A 
ATOM     59  C20 4HI d   1     -20.730   3.731  49.948  0.00  0.00    -0.082 A 
ATOM     60  H14 4HI d   1     -21.478   5.420  48.853  0.00  0.00     0.084 H 
ATOM     61  C29 4HI d   1     -19.617   3.151  50.548  0.00  0.00    -0.083 A 
ATOM     62  H15 4HI d   1     -21.688   3.224  49.973  0.00  0.00     0.083 H 
ATOM     63  C23 4HI d   1     -18.390   3.807  50.513  0.00  0.00    -0.082 A 
ATOM     64  H21 4HI d   1     -19.705   2.190  51.042  0.00  0.00     0.083 H 
ATOM     65  C26 4HI d   1     -18.271   5.040  49.876  0.00  0.00    -0.075 A 
ATOM     66  H20 4HI d   1     -17.523   3.357  50.983  0.00  0.00     0.083 H 
ATOM     67  H18 4HI d   1     -17.314   5.550  49.851  0.00  0.00     0.084 H 
ENDBRANCH  54  57
ENDBRANCH  52  54
ENDBRANCH   4  50
TORSDOF 16
