REMARK  18 active torsions:
REMARK  status: ('A' for Active; 'I' for Inactive)
REMARK    1  A    between atoms: N1_1  and  C7_5 
REMARK    2  A    between atoms: C5_3  and  C27_27 
REMARK    3  A    between atoms: C6_4  and  C13_8 
REMARK    4  A    between atoms: C19_25  and  C6_4 
REMARK    5  A    between atoms: C6_4  and  C12_26 
REMARK    6  A    between atoms: C7_5  and  C8_6 
REMARK    7  A    between atoms: C8_6  and  C9_31 
REMARK    8  A    between atoms: C9_31  and  C10_7 
REMARK    9  A    between atoms: C10_7  and  C11_33 
REMARK       I    between atoms: N2_17  and  C3_16 
REMARK   10  A    between atoms: C3_16  and  C2_24 
REMARK   11  A    between atoms: C1_18  and  N2_17 
REMARK   12  A    between atoms: C1_18  and  C14_19 
REMARK   13  A    between atoms: C1_18  and  C32_21 
REMARK   14  A    between atoms: C14_19  and  O5_20 
REMARK   15  A    between atoms: C9_31  and  O4_32 
REMARK   16  A    between atoms: C11_33  and  O3_34 
REMARK   17  A    between atoms: C11_33  and  C35_35 
REMARK   18  A    between atoms: C35_35  and  C36_36 
ROOT
ATOM      1  N1  5HI d   1      78.622   8.087  -4.937  0.00  0.00    -0.332 N 
ATOM      2  N3  5HI d   1      77.397   9.659  -5.852  0.00  0.00    -0.223 NA
ATOM      3  C5  5HI d   1      77.387   8.406  -5.365  0.00  0.00     0.141 A 
ATOM      4  C2  5HI d   1      78.645  10.135  -5.738  0.00  0.00     0.149 A 
ATOM      5  C19 5HI d   1      79.436   9.146  -5.143  0.00  0.00     0.051 A 
ENDROOT
BRANCH   1   6
ATOM      6  C7  5HI d   1      79.003   6.804  -4.333  0.00  0.00     0.004 C 
ATOM      7  H2  5HI d   1      79.957   6.462  -4.761  0.00  0.00     0.065 H 
ATOM      8  H3  5HI d   1      78.223   6.055  -4.532  0.00  0.00     0.065 H 
BRANCH   6   9
ATOM      9  C8  5HI d   1      79.156   6.999  -2.825  0.00  0.00    -0.026 C 
ATOM     10  H4  5HI d   1      78.282   7.553  -2.452  0.00  0.00     0.039 H 
ATOM     11  H5  5HI d   1      80.069   7.583  -2.637  0.00  0.00     0.039 H 
BRANCH   9  12
ATOM     12  C9  5HI d   1      79.257   5.679  -2.064  0.00  0.00     0.039 C 
ATOM     13  H28 5HI d   1      78.583   4.941  -2.524  0.00  0.00     0.083 H 
BRANCH  12  14
ATOM     14  C10 5HI d   1      78.874   5.879  -0.599  0.00  0.00    -0.017 C 
ATOM     15  H6  5HI d   1      79.282   6.841  -0.256  0.00  0.00     0.040 H 
ATOM     16  H7  5HI d   1      79.312   5.063  -0.006  0.00  0.00     0.040 H 
BRANCH  14  17
ATOM     17  C11 5HI d   1      77.364   5.884  -0.383  0.00  0.00     0.047 C 
ATOM     18  H30 5HI d   1      76.913   6.686  -0.986  0.00  0.00     0.083 H 
BRANCH  17  19
ATOM     19  O3  5HI d   1      76.816   4.638  -0.777  0.00  0.00    -0.395 OA
ATOM     20  H31 5HI d   1      77.205   3.944  -0.258  0.00  0.00     0.210 HD
ENDBRANCH  17  19
BRANCH  17  21
ATOM     21  C35 5HI d   1      77.062   6.130   1.091  0.00  0.00     0.039 C 
ATOM     22  H32 5HI d   1      77.718   6.929   1.467  0.00  0.00     0.052 H 
ATOM     23  H33 5HI d   1      77.248   5.206   1.658  0.00  0.00     0.052 H 
BRANCH  21  24
ATOM     24  C36 5HI d   1      75.621   6.543   1.272  0.00  0.00     0.175 C 
ATOM     25  O6  5HI d   1      74.828   5.723   1.780  0.00  0.00    -0.648 OA
ATOM     26  O7  5HI d   1      75.276   7.690   0.908  0.00  0.00    -0.648 OA
ENDBRANCH  21  24
ENDBRANCH  17  21
ENDBRANCH  14  17
ENDBRANCH  12  14
BRANCH  12  27
ATOM     27  O4  5HI d   1      80.592   5.204  -2.111  0.00  0.00    -0.395 OA
ATOM     28  H29 5HI d   1      80.849   5.073  -3.016  0.00  0.00     0.210 HD
ENDBRANCH  12  27
ENDBRANCH   9  12
ENDBRANCH   6   9
ENDBRANCH   1   6
BRANCH   3  29
ATOM     29  C27 5HI d   1      76.158   7.566  -5.342  0.00  0.00     0.010 A 
ATOM     30  C21 5HI d   1      75.253   7.681  -4.290  0.00  0.00    -0.067 A 
ATOM     31  C24 5HI d   1      74.101   6.901  -4.275  0.00  0.00    -0.045 A 
ATOM     32  H14 5HI d   1      75.446   8.378  -3.483  0.00  0.00     0.085 H 
ATOM     33  C30 5HI d   1      73.849   6.013  -5.317  0.00  0.00     0.116 A 
ATOM     34  H15 5HI d   1      73.400   6.985  -3.452  0.00  0.00     0.088 H 
ATOM     35  C15 5HI d   1      74.750   5.901  -6.373  0.00  0.00    -0.045 A 
ATOM     36  F1  5HI d   1      72.735   5.263  -5.302  0.00  0.00    -0.206 F 
ATOM     37  C18 5HI d   1      75.904   6.681  -6.387  0.00  0.00    -0.067 A 
ATOM     38  H11 5HI d   1      74.553   5.208  -7.183  0.00  0.00     0.088 H 
ATOM     39  H27 5HI d   1      76.604   6.599  -7.211  0.00  0.00     0.085 H 
ENDBRANCH   3  29
BRANCH   5  40
ATOM     40  C6  5HI d   1      80.888   9.190  -4.807  0.00  0.00    -0.018 C 
ATOM     41  H1  5HI d   1      81.196   8.173  -4.522  0.00  0.00     0.048 H 
BRANCH  40  42
ATOM     42  C13 5HI d   1      81.703   9.586  -6.038  0.00  0.00    -0.068 C 
ATOM     43  H8  5HI d   1      82.771   9.615  -5.777  0.00  0.00     0.028 H 
ATOM     44  H9  5HI d   1      81.384  10.580  -6.385  0.00  0.00     0.028 H 
ATOM     45  H10 5HI d   1      81.541   8.849  -6.838  0.00  0.00     0.028 H 
ENDBRANCH  40  42
BRANCH  40  46
ATOM     46  C12 5HI d   1      81.153  10.096  -3.603  0.00  0.00    -0.068 C 
ATOM     47  H24 5HI d   1      80.541   9.763  -2.752  0.00  0.00     0.028 H 
ATOM     48  H25 5HI d   1      80.891  11.133  -3.860  0.00  0.00     0.028 H 
ATOM     49  H26 5HI d   1      82.218  10.043  -3.332  0.00  0.00     0.028 H 
ENDBRANCH  40  46
ENDBRANCH   5  40
BRANCH   4  50
ATOM     50  C3  5HI d   1      79.075  11.507  -6.149  0.00  0.00     0.273 C 
ATOM     51  O2  5HI d   1      79.866  12.125  -5.458  0.00  0.00    -0.266 OA
ATOM     52  N2  5HI d   1      78.520  12.015  -7.256  0.00  0.00    -0.345 N 
ATOM     53  H17 5HI d   1      77.885  11.429  -7.759  0.00  0.00     0.163 HD
BRANCH  52  54
ATOM     54  C1  5HI d   1      78.763  13.358  -7.795  0.00  0.00     0.058 C 
ATOM     55  H18 5HI d   1      78.599  14.086  -6.987  0.00  0.00     0.083 H 
BRANCH  54  56
ATOM     56  C14 5HI d   1      77.715  13.563  -8.892  0.00  0.00     0.039 C 
ATOM     57  H19 5HI d   1      77.852  14.560  -9.336  0.00  0.00     0.077 H 
ATOM     58  H20 5HI d   1      76.712  13.495  -8.446  0.00  0.00     0.077 H 
BRANCH  56  59
ATOM     59  O5  5HI d   1      77.836  12.582  -9.911  0.00  0.00    -0.399 OA
ATOM     60  H21 5HI d   1      77.715  11.719  -9.534  0.00  0.00     0.209 HD
ENDBRANCH  56  59
ENDBRANCH  54  56
BRANCH  54  61
ATOM     61  C32 5HI d   1      80.117  13.614  -8.358  0.00  0.00    -0.033 A 
ATOM     62  C17 5HI d   1      80.690  14.870  -8.156  0.00  0.00    -0.075 A 
ATOM     63  C20 5HI d   1      81.949  15.166  -8.672  0.00  0.00    -0.082 A 
ATOM     64  H12 5HI d   1      80.150  15.622  -7.592  0.00  0.00     0.084 H 
ATOM     65  C29 5HI d   1      82.644  14.205  -9.400  0.00  0.00    -0.083 A 
ATOM     66  H13 5HI d   1      82.387  16.144  -8.507  0.00  0.00     0.083 H 
ATOM     67  C23 5HI d   1      82.073  12.953  -9.610  0.00  0.00    -0.082 A 
ATOM     68  H23 5HI d   1      83.625  14.430  -9.802  0.00  0.00     0.083 H 
ATOM     69  C26 5HI d   1      80.812  12.654  -9.094  0.00  0.00    -0.075 A 
ATOM     70  H22 5HI d   1      82.612  12.204 -10.179  0.00  0.00     0.083 H 
ATOM     71  H16 5HI d   1      80.373  11.678  -9.264  0.00  0.00     0.084 H 
ENDBRANCH  54  61
ENDBRANCH  52  54
ENDBRANCH   4  50
TORSDOF 18
