REMARK  16 active torsions:
REMARK  status: ('A' for Active; 'I' for Inactive)
REMARK    1  A    between atoms: C6_4  and  C4_2 
REMARK    2  A    between atoms: C5_3  and  C27_26 
REMARK    3  A    between atoms: C6_4  and  C13_8 
REMARK    4  A    between atoms: N4_24  and  C6_4 
REMARK    5  A    between atoms: C7_5  and  C8_6 
REMARK    6  A    between atoms: C12_25  and  C7_5 
REMARK    7  A    between atoms: C8_6  and  C9_30 
REMARK    8  A    between atoms: C9_30  and  C10_7 
REMARK    9  A    between atoms: C10_7  and  C11_32 
REMARK   10  A    between atoms: C1_19  and  C32_18 
REMARK   11  A    between atoms: N2_20  and  C1_19 
REMARK       I    between atoms: C3_21  and  N2_20 
REMARK   12  A    between atoms: C2_23  and  C3_21 
REMARK   13  A    between atoms: C9_30  and  O4_31 
REMARK   14  A    between atoms: C11_32  and  O3_33 
REMARK   15  A    between atoms: C11_32  and  C35_34 
REMARK   16  A    between atoms: C35_34  and  C36_35 
ROOT
ATOM      1  N3  6HI d   1     -16.128   8.700  46.790  0.00  0.00    -0.223 NA
ATOM      2  C5  6HI d   1     -14.923   8.870  46.263  0.00  0.00     0.092 A 
ATOM      3  C2  6HI d   1     -16.482   7.422  46.563  0.00  0.00     0.200 A 
ATOM      4  N4  6HI d   1     -15.514   6.756  45.883  0.00  0.00    -0.325 N 
ATOM      5  C12 6HI d   1     -14.476   7.592  45.644  0.00  0.00     0.043 A 
ENDROOT
BRANCH   5   6
ATOM      6  C7  6HI d   1     -13.178   7.307  44.895  0.00  0.00    -0.022 C 
ATOM      7  H5  6HI d   1     -12.321   7.642  45.497  0.00  0.00     0.042 H 
ATOM      8  H6  6HI d   1     -13.091   6.228  44.702  0.00  0.00     0.042 H 
BRANCH   6   9
ATOM      9  C8  6HI d   1     -13.206   8.073  43.560  0.00  0.00    -0.036 C 
ATOM     10  H7  6HI d   1     -12.909   9.110  43.775  0.00  0.00     0.037 H 
ATOM     11  H8  6HI d   1     -14.245   8.056  43.198  0.00  0.00     0.037 H 
BRANCH   9  12
ATOM     12  C9  6HI d   1     -12.311   7.573  42.403  0.00  0.00     0.038 C 
ATOM     13  H25 6HI d   1     -11.298   7.976  42.553  0.00  0.00     0.083 H 
BRANCH  12  14
ATOM     14  C10 6HI d   1     -12.869   8.073  41.068  0.00  0.00    -0.017 C 
ATOM     15  H9  6HI d   1     -13.886   7.673  40.944  0.00  0.00     0.040 H 
ATOM     16  H10 6HI d   1     -12.226   7.697  40.259  0.00  0.00     0.040 H 
BRANCH  14  17
ATOM     17  C11 6HI d   1     -12.933   9.598  40.968  0.00  0.00     0.047 C 
ATOM     18  H27 6HI d   1     -13.665   9.979  41.695  0.00  0.00     0.083 H 
BRANCH  17  19
ATOM     19  O3  6HI d   1     -11.648  10.129  41.290  0.00  0.00    -0.395 OA
ATOM     20  H28 6HI d   1     -11.005   9.791  40.678  0.00  0.00     0.210 HD
ENDBRANCH  17  19
BRANCH  17  21
ATOM     21  C35 6HI d   1     -13.387  10.003  39.559  0.00  0.00     0.039 C 
ATOM     22  H29 6HI d   1     -14.223   9.352  39.261  0.00  0.00     0.052 H 
ATOM     23  H30 6HI d   1     -12.545   9.859  38.866  0.00  0.00     0.052 H 
BRANCH  21  24
ATOM     24  C36 6HI d   1     -13.845  11.448  39.466  0.00  0.00     0.175 C 
ATOM     25  O7  6HI d   1     -13.121  12.303  38.963  0.00  0.00    -0.648 OA
ATOM     26  O6  6HI d   1     -15.049  11.820  39.910  0.00  0.00    -0.648 OA
ENDBRANCH  21  24
ENDBRANCH  17  21
ENDBRANCH  14  17
ENDBRANCH  12  14
BRANCH  12  27
ATOM     27  O4  6HI d   1     -12.230   6.151  42.310  0.00  0.00    -0.395 OA
ATOM     28  H26 6HI d   1     -11.886   5.801  43.123  0.00  0.00     0.210 HD
ENDBRANCH  12  27
ENDBRANCH   9  12
ENDBRANCH   6   9
ENDBRANCH   5   6
BRANCH   2  29
ATOM     29  C27 6HI d   1     -14.098  10.100  46.250  0.00  0.00    -0.005 A 
ATOM     30  C21 6HI d   1     -14.666  11.262  45.749  0.00  0.00    -0.068 A 
ATOM     31  C24 6HI d   1     -13.934  12.447  45.738  0.00  0.00    -0.045 A 
ATOM     32  H17 6HI d   1     -15.680  11.248  45.366  0.00  0.00     0.085 H 
ATOM     33  C30 6HI d   1     -12.643  12.479  46.253  0.00  0.00     0.116 A 
ATOM     34  H18 6HI d   1     -14.373  13.348  45.326  0.00  0.00     0.088 H 
ATOM     35  C15 6HI d   1     -12.078  11.316  46.778  0.00  0.00    -0.045 A 
ATOM     36  F1  6HI d   1     -11.946  13.634  46.238  0.00  0.00    -0.206 F 
ATOM     37  C18 6HI d   1     -12.813  10.129  46.788  0.00  0.00    -0.068 A 
ATOM     38  H14 6HI d   1     -11.070  11.334  47.177  0.00  0.00     0.088 H 
ATOM     39  H24 6HI d   1     -12.384   9.230  47.215  0.00  0.00     0.085 H 
ENDBRANCH   2  29
BRANCH   4  40
ATOM     40  C6  6HI d   1     -15.627   5.317  45.506  0.00  0.00     0.012 C 
ATOM     41  H4  6HI d   1     -16.550   4.924  45.957  0.00  0.00     0.072 H 
BRANCH  40  42
ATOM     42  C4  6HI d   1     -14.456   4.547  46.125  0.00  0.00    -0.057 C 
ATOM     43  H1  6HI d   1     -14.531   3.484  45.852  0.00  0.00     0.030 H 
ATOM     44  H2  6HI d   1     -14.489   4.648  47.220  0.00  0.00     0.030 H 
ATOM     45  H3  6HI d   1     -13.507   4.956  45.747  0.00  0.00     0.030 H 
ENDBRANCH  40  42
BRANCH  40  46
ATOM     46  C13 6HI d   1     -15.768   5.140  43.992  0.00  0.00    -0.057 C 
ATOM     47  H11 6HI d   1     -16.628   5.724  43.633  0.00  0.00     0.030 H 
ATOM     48  H12 6HI d   1     -15.924   4.076  43.760  0.00  0.00     0.030 H 
ATOM     49  H13 6HI d   1     -14.852   5.493  43.495  0.00  0.00     0.030 H 
ENDBRANCH  40  46
ENDBRANCH   4  40
BRANCH   3  50
ATOM     50  C3  6HI d   1     -17.793   6.896  47.030  0.00  0.00     0.288 C 
ATOM     51  N2  6HI d   1     -18.273   7.390  48.168  0.00  0.00    -0.350 N 
ATOM     52  H23 6HI d   1     -17.659   7.910  48.762  0.00  0.00     0.163 HD
ATOM     53  O2  6HI d   1     -18.498   6.275  46.241  0.00  0.00    -0.264 OA
BRANCH  51  54
ATOM     54  C1  6HI d   1     -19.654   7.206  48.585  0.00  0.00     0.019 C 
ATOM     55  H21 6HI d   1     -19.923   8.012  49.283  0.00  0.00     0.071 H 
ATOM     56  H22 6HI d   1     -20.302   7.258  47.697  0.00  0.00     0.071 H 
BRANCH  54  57
ATOM     57  C32 6HI d   1     -19.874   5.871  49.273  0.00  0.00    -0.040 A 
ATOM     58  C17 6HI d   1     -18.826   5.100  49.792  0.00  0.00    -0.072 A 
ATOM     59  C20 6HI d   1     -19.094   3.876  50.415  0.00  0.00    -0.045 A 
ATOM     60  H15 6HI d   1     -17.804   5.453  49.711  0.00  0.00     0.084 H 
ATOM     61  C29 6HI d   1     -20.411   3.423  50.525  0.00  0.00     0.116 A 
ATOM     62  H16 6HI d   1     -18.280   3.280  50.812  0.00  0.00     0.088 H 
ATOM     63  F2  6HI d   1     -20.697   2.249  51.122  0.00  0.00    -0.206 F 
ATOM     64  C23 6HI d   1     -21.451   4.192  50.010  0.00  0.00    -0.045 A 
ATOM     65  C26 6HI d   1     -21.179   5.411  49.388  0.00  0.00    -0.072 A 
ATOM     66  H20 6HI d   1     -22.474   3.843  50.092  0.00  0.00     0.088 H 
ATOM     67  H19 6HI d   1     -21.994   6.005  48.991  0.00  0.00     0.084 H 
ENDBRANCH  54  57
ENDBRANCH  51  54
ENDBRANCH   3  50
TORSDOF 16
