REMARK  14 active torsions:
REMARK  status: ('A' for Active; 'I' for Inactive)
REMARK    1  A    between atoms: N1_1  and  C7_5 
REMARK    2  A    between atoms: C6_4  and  C13_8 
REMARK    3  A    between atoms: C12_25  and  C6_4 
REMARK    4  A    between atoms: C7_5  and  C8_6 
REMARK    5  A    between atoms: C8_6  and  C9_31 
REMARK    6  A    between atoms: C9_31  and  C10_7 
REMARK    7  A    between atoms: C10_7  and  C11_33 
REMARK    8  A    between atoms: C29_21  and  C22_13 
REMARK       I    between atoms: C3_17  and  N2_18 
REMARK    9  A    between atoms: C2_24  and  C3_17 
REMARK   10  A    between atoms: N2_18  and  C32_19 
REMARK   11  A    between atoms: C9_31  and  O4_32 
REMARK   12  A    between atoms: C11_33  and  O3_34 
REMARK   13  A    between atoms: C11_33  and  C35_35 
REMARK   14  A    between atoms: C35_35  and  C36_36 
ROOT
ATOM      1  N1  7HI d   1      14.129   6.782  45.359  0.00  0.00    -0.352 N 
ATOM      2  C4  7HI d   1      13.890   3.229  46.785  0.00  0.00    -0.060 C 
ATOM      3  C5  7HI d   1      14.390   5.598  45.965  0.00  0.00     0.019 A 
ATOM      4  C2  7HI d   1      16.040   6.993  46.402  0.00  0.00     0.063 A 
ATOM      5  C12 7HI d   1      15.125   7.655  45.597  0.00  0.00     0.027 A 
ATOM      6  C27 7HI d   1      13.475   4.389  45.884  0.00  0.00    -0.026 C 
ATOM      7  C25 7HI d   1      15.248   2.696  46.400  0.00  0.00    -0.064 C 
ATOM      8  C19 7HI d   1      16.364   3.345  46.727  0.00  0.00    -0.061 C 
ATOM      9  C14 7HI d   1      16.320   4.653  47.470  0.00  0.00    -0.038 C 
ATOM     10  C1  7HI d   1      15.607   5.702  46.642  0.00  0.00    -0.018 A 
ATOM     11  H1  7HI d   1      13.149   2.421  46.694  0.00  0.00     0.033 H 
ATOM     12  H2  7HI d   1      13.925   3.579  47.827  0.00  0.00     0.033 H 
ATOM     13  H24 7HI d   1      12.461   4.704  46.172  0.00  0.00     0.042 H 
ATOM     14  H25 7HI d   1      13.467   4.032  44.844  0.00  0.00     0.042 H 
ATOM     15  H26 7HI d   1      15.249   2.608  45.303  0.00  0.00     0.033 H 
ATOM     16  H27 7HI d   1      15.328   1.694  46.848  0.00  0.00     0.033 H 
ATOM     17  H28 7HI d   1      16.898   3.540  45.785  0.00  0.00     0.033 H 
ATOM     18  H29 7HI d   1      16.955   2.655  47.347  0.00  0.00     0.033 H 
ATOM     19  H30 7HI d   1      17.347   4.989  47.675  0.00  0.00     0.040 H 
ATOM     20  H31 7HI d   1      15.783   4.513  48.420  0.00  0.00     0.040 H 
ENDROOT
BRANCH   4  21
ATOM     21  C3  7HI d   1      17.313   7.579  46.920  0.00  0.00     0.258 C 
ATOM     22  O2  7HI d   1      18.033   8.157  46.122  0.00  0.00    -0.267 OA
ATOM     23  N2  7HI d   1      17.525   7.592  48.240  0.00  0.00    -0.323 N 
ATOM     24  H20 7HI d   1      16.906   7.067  48.824  0.00  0.00     0.169 HD
BRANCH  23  25
ATOM     25  C32 7HI d   1      18.540   8.282  48.832  0.00  0.00     0.035 A 
ATOM     26  C17 7HI d   1      19.881   8.099  48.485  0.00  0.00    -0.056 A 
ATOM     27  C20 7HI d   1      20.886   8.823  49.132  0.00  0.00    -0.070 A 
ATOM     28  H15 7HI d   1      20.144   7.390  47.708  0.00  0.00     0.086 H 
ATOM     29  C29 7HI d   1      20.564   9.742  50.131  0.00  0.00    -0.026 A 
ATOM     30  H16 7HI d   1      21.923   8.669  48.856  0.00  0.00     0.084 H 
ATOM     31  C23 7HI d   1      19.227   9.919  50.481  0.00  0.00    -0.070 A 
ATOM     32  C26 7HI d   1      18.223   9.194  49.838  0.00  0.00    -0.056 A 
ATOM     33  H21 7HI d   1      18.965  10.626  51.260  0.00  0.00     0.084 H 
ATOM     34  H19 7HI d   1      17.188   9.341  50.123  0.00  0.00     0.086 H 
BRANCH  29  35
ATOM     35  C22 7HI d   1      21.621  10.522  50.844  0.00  0.00    -0.026 A 
ATOM     36  C15 7HI d   1      22.639   9.860  51.533  0.00  0.00    -0.072 A 
ATOM     37  C16 7HI d   1      23.623  10.587  52.204  0.00  0.00    -0.082 A 
ATOM     38  H14 7HI d   1      22.665   8.776  51.547  0.00  0.00     0.084 H 
ATOM     39  C21 7HI d   1      23.592  11.981  52.198  0.00  0.00    -0.083 A 
ATOM     40  H23 7HI d   1      24.414  10.066  52.732  0.00  0.00     0.083 H 
ATOM     41  C24 7HI d   1      22.573  12.647  51.522  0.00  0.00    -0.082 A 
ATOM     42  H17 7HI d   1      24.358  12.544  52.718  0.00  0.00     0.083 H 
ATOM     43  C18 7HI d   1      21.590  11.917  50.849  0.00  0.00    -0.072 A 
ATOM     44  H18 7HI d   1      22.542  13.731  51.518  0.00  0.00     0.083 H 
ATOM     45  H22 7HI d   1      20.797  12.439  50.326  0.00  0.00     0.084 H 
ENDBRANCH  29  35
ENDBRANCH  23  25
ENDBRANCH   4  21
BRANCH   5  46
ATOM     46  C6  7HI d   1      15.224   9.090  45.117  0.00  0.00    -0.029 C 
ATOM     47  H3  7HI d   1      14.210   9.463  44.909  0.00  0.00     0.041 H 
ATOM     48  H4  7HI d   1      15.682   9.697  45.912  0.00  0.00     0.041 H 
BRANCH  46  49
ATOM     49  C13 7HI d   1      16.058   9.228  43.861  0.00  0.00    -0.071 C 
ATOM     50  H11 7HI d   1      16.095  10.285  43.560  0.00  0.00     0.028 H 
ATOM     51  H12 7HI d   1      15.607   8.633  43.054  0.00  0.00     0.028 H 
ATOM     52  H13 7HI d   1      17.078   8.867  44.057  0.00  0.00     0.028 H 
ENDBRANCH  46  49
ENDBRANCH   5  46
BRANCH   1  53
ATOM     53  C7  7HI d   1      12.944   7.045  44.533  0.00  0.00     0.002 C 
ATOM     54  H5  7HI d   1      12.724   8.123  44.523  0.00  0.00     0.065 H 
ATOM     55  H6  7HI d   1      12.078   6.498  44.933  0.00  0.00     0.065 H 
BRANCH  53  56
ATOM     56  C8  7HI d   1      13.258   6.562  43.114  0.00  0.00    -0.026 C 
ATOM     57  H7  7HI d   1      13.473   5.484  43.154  0.00  0.00     0.039 H 
ATOM     58  H8  7HI d   1      14.147   7.100  42.753  0.00  0.00     0.039 H 
BRANCH  56  59
ATOM     59  C9  7HI d   1      12.122   6.790  42.121  0.00  0.00     0.039 C 
ATOM     60  H32 7HI d   1      11.222   6.259  42.466  0.00  0.00     0.083 H 
BRANCH  59  61
ATOM     61  C10 7HI d   1      12.509   6.303  40.730  0.00  0.00    -0.017 C 
ATOM     62  H9  7HI d   1      13.481   6.748  40.469  0.00  0.00     0.040 H 
ATOM     63  H10 7HI d   1      11.744   6.651  40.020  0.00  0.00     0.040 H 
BRANCH  61  64
ATOM     64  C11 7HI d   1      12.628   4.790  40.596  0.00  0.00     0.047 C 
ATOM     65  H34 7HI d   1      13.352   4.410  41.331  0.00  0.00     0.083 H 
BRANCH  64  66
ATOM     66  O3  7HI d   1      11.365   4.198  40.815  0.00  0.00    -0.395 OA
ATOM     67  H35 7HI d   1      10.747   4.526  40.172  0.00  0.00     0.210 HD
ENDBRANCH  64  66
BRANCH  64  68
ATOM     68  C35 7HI d   1      13.084   4.435  39.191  0.00  0.00     0.039 C 
ATOM     69  H36 7HI d   1      13.862   5.143  38.868  0.00  0.00     0.052 H 
ATOM     70  H37 7HI d   1      12.228   4.491  38.502  0.00  0.00     0.052 H 
BRANCH  68  71
ATOM     71  C36 7HI d   1      13.644   3.034  39.185  0.00  0.00     0.175 C 
ATOM     72  O7  7HI d   1      12.953   2.102  38.801  0.00  0.00    -0.648 OA
ATOM     73  O6  7HI d   1      14.892   2.820  39.608  0.00  0.00    -0.648 OA
ENDBRANCH  68  71
ENDBRANCH  64  68
ENDBRANCH  61  64
ENDBRANCH  59  61
BRANCH  59  74
ATOM     74  O4  7HI d   1      11.861   8.182  42.021  0.00  0.00    -0.395 OA
ATOM     75  H33 7HI d   1      11.616   8.519  42.875  0.00  0.00     0.210 HD
ENDBRANCH  59  74
ENDBRANCH  56  59
ENDBRANCH  53  56
ENDBRANCH   1  53
TORSDOF 14
