REMARK  16 active torsions:
REMARK  status: ('A' for Active; 'I' for Inactive)
REMARK    1  A    between atoms: N1_1  and  C6_4 
REMARK    2  A    between atoms: C4_2  and  C7_5 
REMARK    3  A    between atoms: C5_3  and  C27_25 
REMARK    4  A    between atoms: C6_4  and  C13_8 
REMARK    5  A    between atoms: C6_4  and  C14_29 
REMARK    6  A    between atoms: C7_5  and  C8_6 
REMARK    7  A    between atoms: C8_6  and  C9_23 
REMARK    8  A    between atoms: C10_7  and  C11_21 
REMARK    9  A    between atoms: C9_23  and  C10_7 
REMARK   10  A    between atoms: C35_20  and  C36_18 
REMARK   11  A    between atoms: C11_21  and  C35_20 
REMARK   12  A    between atoms: C11_21  and  O3_22 
REMARK   13  A    between atoms: C9_23  and  O4_24 
REMARK   14  A    between atoms: C3_37  and  C2_30 
REMARK   15  A    between atoms: C1_31  and  C31_32 
REMARK       I    between atoms: N2_39  and  C3_37 
REMARK   16  A    between atoms: N2_39  and  C32_40 
ROOT
ATOM      1  N1  882 d   1      -4.376 -16.149   5.981  0.00  0.00    -0.340 N 
ATOM      2  C4  882 d   1      -4.314 -16.166   7.337  0.00  0.00     0.025 A 
ATOM      3  C5  882 d   1      -5.592 -15.923   7.783  0.00  0.00     0.010 A 
ATOM      4  C2  882 d   1      -5.651 -15.899   5.575  0.00  0.00     0.116 A 
ATOM      5  C1  882 d   1      -6.400 -15.696   6.719  0.00  0.00     0.020 A 
ENDROOT
BRANCH   2   6
ATOM      6  C7  882 d   1      -3.116 -16.437   8.207  0.00  0.00    -0.023 C 
ATOM      7  H2  882 d   1      -2.614 -17.349   7.853  0.00  0.00     0.042 H 
ATOM      8  H3  882 d   1      -3.451 -16.582   9.245  0.00  0.00     0.042 H 
BRANCH   6   9
ATOM      9  C8  882 d   1      -2.136 -15.281   8.159  0.00  0.00    -0.036 C 
ATOM     10  H4  882 d   1      -2.677 -14.330   8.270  0.00  0.00     0.037 H 
ATOM     11  H5  882 d   1      -1.599 -15.288   7.199  0.00  0.00     0.037 H 
BRANCH   9  12
ATOM     12  C9  882 d   1      -1.146 -15.448   9.304  0.00  0.00     0.038 C 
ATOM     13  H22 882 d   1      -1.653 -15.900  10.169  0.00  0.00     0.083 H 
BRANCH  12  14
ATOM     14  C10 882 d   1      -0.606 -14.078   9.693  0.00  0.00    -0.017 C 
ATOM     15  H6  882 d   1       0.380 -14.198  10.166  0.00  0.00     0.040 H 
ATOM     16  H7  882 d   1      -0.506 -13.458   8.790  0.00  0.00     0.040 H 
BRANCH  14  17
ATOM     17  C11 882 d   1      -1.550 -13.391  10.670  0.00  0.00     0.047 C 
ATOM     18  H20 882 d   1      -2.575 -13.394  10.271  0.00  0.00     0.083 H 
BRANCH  17  19
ATOM     19  C35 882 d   1      -1.102 -11.948  10.874  0.00  0.00     0.039 C 
ATOM     20  H18 882 d   1      -0.171 -11.943  11.460  0.00  0.00     0.052 H 
ATOM     21  H19 882 d   1      -0.919 -11.489   9.891  0.00  0.00     0.052 H 
BRANCH  19  22
ATOM     22  C36 882 d   1      -2.148 -11.136  11.607  0.00  0.00     0.175 C 
ATOM     23  O7  882 d   1      -1.992 -10.922  12.830  0.00  0.00    -0.648 OA
ATOM     24  O6  882 d   1      -3.126 -10.698  10.963  0.00  0.00    -0.648 OA
ENDBRANCH  19  22
ENDBRANCH  17  19
BRANCH  17  25
ATOM     25  O3  882 d   1      -1.507 -14.144  11.870  0.00  0.00    -0.395 OA
ATOM     26  H21 882 d   1      -0.617 -14.156  12.203  0.00  0.00     0.210 HD
ENDBRANCH  17  25
ENDBRANCH  14  17
ENDBRANCH  12  14
BRANCH  12  27
ATOM     27  O4  882 d   1      -0.093 -16.295   8.881  0.00  0.00    -0.395 OA
ATOM     28  H23 882 d   1      -0.447 -17.144   8.643  0.00  0.00     0.210 HD
ENDBRANCH  12  27
ENDBRANCH   9  12
ENDBRANCH   6   9
ENDBRANCH   2   6
BRANCH   1  29
ATOM     29  C6  882 d   1      -3.205 -16.403   5.093  0.00  0.00     0.010 C 
ATOM     30  H1  882 d   1      -2.348 -16.691   5.719  0.00  0.00     0.072 H 
BRANCH  29  31
ATOM     31  C13 882 d   1      -2.812 -15.151   4.314  0.00  0.00    -0.057 C 
ATOM     32  H8  882 d   1      -1.948 -15.375   3.672  0.00  0.00     0.030 H 
ATOM     33  H9  882 d   1      -2.547 -14.349   5.019  0.00  0.00     0.030 H 
ATOM     34  H10 882 d   1      -3.658 -14.827   3.690  0.00  0.00     0.030 H 
ENDBRANCH  29  31
BRANCH  29  35
ATOM     35  C14 882 d   1      -3.544 -17.567   4.181  0.00  0.00    -0.057 C 
ATOM     36  H25 882 d   1      -2.692 -17.772   3.516  0.00  0.00     0.030 H 
ATOM     37  H26 882 d   1      -4.428 -17.314   3.577  0.00  0.00     0.030 H 
ATOM     38  H27 882 d   1      -3.758 -18.459   4.789  0.00  0.00     0.030 H 
ENDBRANCH  29  35
ENDBRANCH   1  29
BRANCH   3  39
ATOM     39  C27 882 d   1      -5.972 -15.788   9.219  0.00  0.00    -0.023 A 
ATOM     40  C21 882 d   1      -5.422 -14.696   9.894  0.00  0.00    -0.069 A 
ATOM     41  C24 882 d   1      -5.709 -14.473  11.235  0.00  0.00    -0.045 A 
ATOM     42  H14 882 d   1      -4.764 -14.015   9.366  0.00  0.00     0.085 H 
ATOM     43  C30 882 d   1      -6.565 -15.343  11.901  0.00  0.00     0.116 A 
ATOM     44  H16 882 d   1      -5.270 -13.630  11.756  0.00  0.00     0.088 H 
ATOM     45  C15 882 d   1      -7.123 -16.434  11.228  0.00  0.00    -0.045 A 
ATOM     46  F1  882 d   1      -6.845 -15.128  13.198  0.00  0.00    -0.206 F 
ATOM     47  C18 882 d   1      -6.830 -16.662   9.881  0.00  0.00    -0.069 A 
ATOM     48  H11 882 d   1      -7.788 -17.108  11.755  0.00  0.00     0.088 H 
ATOM     49  H24 882 d   1      -7.264 -17.507   9.359  0.00  0.00     0.085 H 
ENDBRANCH   3  39
BRANCH   4  50
ATOM     50  C3  882 d   1      -6.203 -15.747   4.202  0.00  0.00     0.273 C 
ATOM     51  O1  882 d   1      -5.809 -14.754   3.600  0.00  0.00    -0.266 OA
ATOM     52  N2  882 d   1      -7.003 -16.674   3.651  0.00  0.00    -0.322 N 
ATOM     53  H31 882 d   1      -7.302 -17.451   4.205  0.00  0.00     0.169 HD
BRANCH  52  54
ATOM     54  C32 882 d   1      -7.434 -16.580   2.305  0.00  0.00     0.035 A 
ATOM     55  C17 882 d   1      -7.856 -15.370   1.745  0.00  0.00    -0.057 A 
ATOM     56  C20 882 d   1      -8.258 -15.307   0.413  0.00  0.00    -0.081 A 
ATOM     57  H12 882 d   1      -7.870 -14.473   2.353  0.00  0.00     0.086 H 
ATOM     58  C29 882 d   1      -8.260 -16.453  -0.377  0.00  0.00    -0.083 A 
ATOM     59  H13 882 d   1      -8.571 -14.360  -0.011  0.00  0.00     0.083 H 
ATOM     60  C23 882 d   1      -7.848 -17.663   0.175  0.00  0.00    -0.081 A 
ATOM     61  H33 882 d   1      -8.579 -16.404  -1.412  0.00  0.00     0.083 H 
ATOM     62  C26 882 d   1      -7.435 -17.725   1.504  0.00  0.00    -0.057 A 
ATOM     63  H32 882 d   1      -7.849 -18.561  -0.432  0.00  0.00     0.083 H 
ATOM     64  H17 882 d   1      -7.111 -18.672   1.921  0.00  0.00     0.086 H 
ENDBRANCH  52  54
ENDBRANCH   4  50
BRANCH   5  65
ATOM     65  C31 882 d   1      -7.851 -15.450   6.887  0.00  0.00    -0.022 A 
ATOM     66  C25 882 d   1      -8.323 -14.339   7.575  0.00  0.00    -0.069 A 
ATOM     67  C22 882 d   1      -9.690 -14.171   7.754  0.00  0.00    -0.045 A 
ATOM     68  H28 882 d   1      -7.628 -13.607   7.970  0.00  0.00     0.085 H 
ATOM     69  C28 882 d   1     -10.580 -15.129   7.272  0.00  0.00     0.116 A 
ATOM     70  H15 882 d   1     -10.065 -13.294   8.269  0.00  0.00     0.088 H 
ATOM     71  F2  882 d   1     -11.895 -14.948   7.452  0.00  0.00    -0.206 F 
ATOM     72  C19 882 d   1     -10.109 -16.256   6.606  0.00  0.00    -0.045 A 
ATOM     73  C16 882 d   1      -8.738 -16.422   6.426  0.00  0.00    -0.069 A 
ATOM     74  H29 882 d   1     -10.803 -16.999   6.230  0.00  0.00     0.088 H 
ATOM     75  H30 882 d   1      -8.360 -17.307   5.927  0.00  0.00     0.085 H 
ENDBRANCH   5  65
TORSDOF 16
