REMARK  18 active torsions:
REMARK  status: ('A' for Active; 'I' for Inactive)
REMARK    1  A    between atoms: N1_1  and  C17_10 
REMARK       I    between atoms: C16_38  and  N1_1 
REMARK    2  A    between atoms: C6_4  and  C3_26 
REMARK    3  A    between atoms: C7_5  and  C26_15 
REMARK    4  A    between atoms: C8_6  and  C16_38 
REMARK    5  A    between atoms: C9_34  and  C10_7 
REMARK    6  A    between atoms: C20_11  and  S_42 
REMARK    7  A    between atoms: C23_32  and  C24_14 
REMARK    8  A    between atoms: C26_15  and  C27_25 
REMARK    9  A    between atoms: C28_16  and  C29_23 
REMARK   10  A    between atoms: C28_16  and  O3_24 
REMARK   11  A    between atoms: C27_25  and  C28_16 
REMARK   12  A    between atoms: C31_20  and  C32_18 
REMARK   13  A    between atoms: C30_21  and  C31_20 
REMARK   14  A    between atoms: C30_21  and  O4_22 
REMARK   15  A    between atoms: C29_23  and  C30_21 
REMARK   16  A    between atoms: N_31  and  C23_32 
REMARK   17  A    between atoms: C23_32  and  C25_33 
REMARK   18  A    between atoms: S_42  and  N2_45 
ROOT
ATOM      1  C6  8HI d   1      18.176  23.771  15.362  0.00  0.00     0.010 A 
ATOM      2  C7  8HI d   1      18.009  23.582  14.003  0.00  0.00     0.025 A 
ATOM      3  C8  8HI d   1      20.063  24.355  14.353  0.00  0.00     0.116 A 
ATOM      4  N   8HI d   1      19.179  23.941  13.411  0.00  0.00    -0.340 N 
ATOM      5  C9  8HI d   1      19.449  24.206  15.595  0.00  0.00     0.020 A 
ENDROOT
BRANCH   2   6
ATOM      6  C26 8HI d   1      16.750  23.107  13.318  0.00  0.00    -0.023 C 
ATOM      7  H11 8HI d   1      16.504  23.807  12.506  0.00  0.00     0.042 H 
ATOM      8  H12 8HI d   1      15.931  23.094  14.052  0.00  0.00     0.042 H 
BRANCH   6   9
ATOM      9  C27 8HI d   1      16.901  21.719  12.734  0.00  0.00    -0.036 C 
ATOM     10  H21 8HI d   1      17.352  21.054  13.486  0.00  0.00     0.037 H 
ATOM     11  H22 8HI d   1      17.551  21.765  11.848  0.00  0.00     0.037 H 
BRANCH   9  12
ATOM     12  C28 8HI d   1      15.531  21.172  12.330  0.00  0.00     0.038 C 
ATOM     13  H13 8HI d   1      14.757  21.595  12.987  0.00  0.00     0.083 H 
BRANCH  12  14
ATOM     14  C29 8HI d   1      15.533  19.658  12.445  0.00  0.00    -0.017 C 
ATOM     15  H18 8HI d   1      16.462  19.265  12.005  0.00  0.00     0.040 H 
ATOM     16  H19 8HI d   1      14.669  19.255  11.897  0.00  0.00     0.040 H 
BRANCH  14  17
ATOM     17  C30 8HI d   1      15.448  19.220  13.896  0.00  0.00     0.047 C 
ATOM     18  H16 8HI d   1      16.208  19.753  14.486  0.00  0.00     0.083 H 
BRANCH  17  19
ATOM     19  C31 8HI d   1      15.694  17.724  14.007  0.00  0.00     0.039 C 
ATOM     20  H14 8HI d   1      14.860  17.176  13.543  0.00  0.00     0.052 H 
ATOM     21  H15 8HI d   1      16.633  17.464  13.496  0.00  0.00     0.052 H 
BRANCH  19  22
ATOM     22  C32 8HI d   1      15.792  17.359  15.461  0.00  0.00     0.175 C 
ATOM     23  O5  8HI d   1      16.804  17.636  16.100  0.00  0.00    -0.648 OA
ATOM     24  O6  8HI d   1      14.763  16.764  16.051  0.00  0.00    -0.648 OA
ENDBRANCH  19  22
ENDBRANCH  17  19
BRANCH  17  25
ATOM     25  O4  8HI d   1      14.161  19.549  14.379  0.00  0.00    -0.395 OA
ATOM     26  H17 8HI d   1      13.505  19.090  13.868  0.00  0.00     0.210 HD
ENDBRANCH  17  25
ENDBRANCH  14  17
ENDBRANCH  12  14
BRANCH  12  27
ATOM     27  O3  8HI d   1      15.256  21.515  10.981  0.00  0.00    -0.395 OA
ATOM     28  H20 8HI d   1      15.251  22.461  10.891  0.00  0.00     0.210 HD
ENDBRANCH  12  27
ENDBRANCH   9  12
ENDBRANCH   6   9
ENDBRANCH   2   6
BRANCH   1  29
ATOM     29  C3  8HI d   1      17.139  23.457  16.390  0.00  0.00    -0.023 A 
ATOM     30  C4  8HI d   1      16.535  24.424  17.181  0.00  0.00    -0.069 A 
ATOM     31  C5  8HI d   1      15.570  24.043  18.118  0.00  0.00    -0.045 A 
ATOM     32  H2  8HI d   1      16.809  25.467  17.073  0.00  0.00     0.085 H 
ATOM     33  C   8HI d   1      15.231  22.701  18.273  0.00  0.00     0.116 A 
ATOM     34  H3  8HI d   1      15.083  24.796  18.727  0.00  0.00     0.088 H 
ATOM     35  C1  8HI d   1      15.842  21.732  17.487  0.00  0.00    -0.045 A 
ATOM     36  F   8HI d   1      14.307  22.330  19.175  0.00  0.00    -0.206 F 
ATOM     37  C2  8HI d   1      16.795  22.116  16.550  0.00  0.00    -0.069 A 
ATOM     38  H24 8HI d   1      15.578  20.687  17.603  0.00  0.00     0.088 H 
ATOM     39  H23 8HI d   1      17.276  21.363  15.937  0.00  0.00     0.085 H 
ENDBRANCH   1  29
BRANCH   4  40
ATOM     40  C23 8HI d   1      19.372  23.914  11.920  0.00  0.00     0.010 C 
ATOM     41  H25 8HI d   1      18.383  23.746  11.469  0.00  0.00     0.072 H 
BRANCH  40  42
ATOM     42  C24 8HI d   1      19.860  25.276  11.424  0.00  0.00    -0.057 C 
ATOM     43  H8  8HI d   1      19.997  25.241  10.333  0.00  0.00     0.030 H 
ATOM     44  H9  8HI d   1      20.818  25.520  11.906  0.00  0.00     0.030 H 
ATOM     45  H10 8HI d   1      19.116  26.046  11.676  0.00  0.00     0.030 H 
ENDBRANCH  40  42
BRANCH  40  46
ATOM     46  C25 8HI d   1      20.250  22.757  11.473  0.00  0.00    -0.057 C 
ATOM     47  H26 8HI d   1      19.841  21.814  11.864  0.00  0.00     0.030 H 
ATOM     48  H27 8HI d   1      21.270  22.901  11.857  0.00  0.00     0.030 H 
ATOM     49  H28 8HI d   1      20.274  22.718  10.374  0.00  0.00     0.030 H 
ENDBRANCH  40  46
ENDBRANCH   4  40
BRANCH   5  50
ATOM     50  C10 8HI d   1      19.979  24.555  16.948  0.00  0.00    -0.023 A 
ATOM     51  C15 8HI d   1      20.085  23.638  17.985  0.00  0.00    -0.072 A 
ATOM     52  C14 8HI d   1      20.574  24.039  19.230  0.00  0.00    -0.082 A 
ATOM     53  H5  8HI d   1      19.787  22.608  17.828  0.00  0.00     0.084 H 
ATOM     54  C13 8HI d   1      20.944  25.363  19.456  0.00  0.00    -0.083 A 
ATOM     55  H31 8HI d   1      20.667  23.312  20.029  0.00  0.00     0.083 H 
ATOM     56  C12 8HI d   1      20.830  26.293  18.426  0.00  0.00    -0.082 A 
ATOM     57  H4  8HI d   1      21.318  25.667  20.427  0.00  0.00     0.083 H 
ATOM     58  C11 8HI d   1      20.338  25.886  17.185  0.00  0.00    -0.072 A 
ATOM     59  H30 8HI d   1      21.121  27.325  18.587  0.00  0.00     0.083 H 
ATOM     60  H29 8HI d   1      20.232  26.615  16.390  0.00  0.00     0.084 H 
ENDBRANCH   5  50
BRANCH   3  61
ATOM     61  C16 8HI d   1      21.477  24.797  14.141  0.00  0.00     0.273 C 
ATOM     62  N1  8HI d   1      21.772  26.098  14.156  0.00  0.00    -0.322 N 
ATOM     63  H1  8HI d   1      21.041  26.727  14.420  0.00  0.00     0.169 HD
ATOM     64  O   8HI d   1      22.173  23.976  13.570  0.00  0.00    -0.266 OA
BRANCH  62  65
ATOM     65  C17 8HI d   1      22.981  26.647  13.843  0.00  0.00     0.035 A 
ATOM     66  C22 8HI d   1      24.218  25.996  13.944  0.00  0.00    -0.056 A 
ATOM     67  C21 8HI d   1      25.392  26.661  13.565  0.00  0.00    -0.058 A 
ATOM     68  H7  8HI d   1      24.267  24.979  14.315  0.00  0.00     0.087 H 
ATOM     69  C20 8HI d   1      25.343  27.970  13.070  0.00  0.00     0.079 A 
ATOM     70  H6  8HI d   1      26.347  26.157  13.656  0.00  0.00     0.086 H 
ATOM     71  C19 8HI d   1      24.111  28.612  12.967  0.00  0.00    -0.058 A 
ATOM     72  C18 8HI d   1      22.946  27.946  13.338  0.00  0.00    -0.056 A 
ATOM     73  H33 8HI d   1      24.059  29.630  12.598  0.00  0.00     0.086 H 
ATOM     74  H32 8HI d   1      21.991  28.448  13.232  0.00  0.00     0.087 H 
BRANCH  69  75
ATOM     75  S   8HI d   1      26.663  28.772  12.643  0.00  0.00     0.256 S 
ATOM     76  O1  8HI d   1      27.739  27.898  12.294  0.00  0.00    -0.201 OA
ATOM     77  O2  8HI d   1      26.359  29.632  11.529  0.00  0.00    -0.201 OA
BRANCH  75  78
ATOM     78  N2  8HI d   1      27.059  29.699  13.885  0.00  0.00    -0.324 N 
ATOM     79  H34 8HI d   1      27.863  30.291  13.831  0.00  0.00     0.169 HD
ATOM     80  H35 8HI d   1      26.502  29.687  14.716  0.00  0.00     0.169 HD
ENDBRANCH  75  78
ENDBRANCH  69  75
ENDBRANCH  62  65
ENDBRANCH   3  61
TORSDOF 18
