REMARK  18 active torsions:
REMARK  status: ('A' for Active; 'I' for Inactive)
REMARK    1  A    between atoms: N1_1  and  C7_5 
REMARK       I    between atoms: C3_18  and  N3_2 
REMARK    2  A    between atoms: C5_3  and  C27_35 
REMARK    3  A    between atoms: C6_4  and  C13_8 
REMARK    4  A    between atoms: C12_33  and  C6_4 
REMARK    5  A    between atoms: C6_4  and  C14_34 
REMARK    6  A    between atoms: C7_5  and  C8_6 
REMARK    7  A    between atoms: C8_6  and  C9_39 
REMARK    8  A    between atoms: C9_39  and  C10_7 
REMARK    9  A    between atoms: C10_7  and  C11_41 
REMARK   10  A    between atoms: C29_19  and  C3_18 
REMARK   11  A    between atoms: N2_22  and  C32_21 
REMARK   12  A    between atoms: S1_23  and  N2_22 
REMARK   13  A    between atoms: C2_26  and  S1_23 
REMARK   14  A    between atoms: C31_28  and  C1_27 
REMARK   15  A    between atoms: C9_39  and  O4_40 
REMARK   16  A    between atoms: C11_41  and  O3_42 
REMARK   17  A    between atoms: C11_41  and  C35_43 
REMARK   18  A    between atoms: C35_43  and  C36_44 
ROOT
ATOM      1  N1  9HI d   1      14.386   6.548  45.477  0.00  0.00    -0.347 N 
ATOM      2  C5  9HI d   1      14.567   5.274  45.862  0.00  0.00     0.058 A 
ATOM      3  C2  9HI d   1      16.162   6.529  46.829  0.00  0.00     0.116 A 
ATOM      4  C1  9HI d   1      15.703   5.252  46.770  0.00  0.00     0.027 A 
ATOM      5  C12 9HI d   1      15.340   7.357  46.045  0.00  0.00     0.040 A 
ENDROOT
BRANCH   1   6
ATOM      6  C7  9HI d   1      13.308   6.934  44.572  0.00  0.00     0.002 C 
ATOM      7  H4  9HI d   1      13.072   7.999  44.717  0.00  0.00     0.065 H 
ATOM      8  H5  9HI d   1      12.415   6.328  44.787  0.00  0.00     0.065 H 
BRANCH   6   9
ATOM      9  C8  9HI d   1      13.739   6.704  43.134  0.00  0.00    -0.026 C 
ATOM     10  H6  9HI d   1      14.285   5.751  43.068  0.00  0.00     0.039 H 
ATOM     11  H7  9HI d   1      14.397   7.527  42.817  0.00  0.00     0.039 H 
BRANCH   9  12
ATOM     12  C9  9HI d   1      12.526   6.651  42.216  0.00  0.00     0.039 C 
ATOM     13  H29 9HI d   1      11.760   5.990  42.647  0.00  0.00     0.083 H 
BRANCH  12  14
ATOM     14  C10 9HI d   1      12.967   6.113  40.862  0.00  0.00    -0.017 C 
ATOM     15  H8  9HI d   1      13.960   6.522  40.625  0.00  0.00     0.040 H 
ATOM     16  H9  9HI d   1      12.245   6.439  40.099  0.00  0.00     0.040 H 
BRANCH  14  17
ATOM     17  C11 9HI d   1      13.046   4.594  40.843  0.00  0.00     0.047 C 
ATOM     18  H31 9HI d   1      13.790   4.255  41.578  0.00  0.00     0.083 H 
BRANCH  17  19
ATOM     19  O3  9HI d   1      11.779   4.051  41.183  0.00  0.00    -0.395 OA
ATOM     20  H32 9HI d   1      11.131   4.343  40.553  0.00  0.00     0.210 HD
ENDBRANCH  17  19
BRANCH  17  21
ATOM     21  C35 9HI d   1      13.478   4.151  39.451  0.00  0.00     0.039 C 
ATOM     22  H33 9HI d   1      14.318   4.779  39.120  0.00  0.00     0.052 H 
ATOM     23  H34 9HI d   1      12.633   4.274  38.758  0.00  0.00     0.052 H 
BRANCH  21  24
ATOM     24  C36 9HI d   1      13.913   2.705  39.444  0.00  0.00     0.175 C 
ATOM     25  O6  9HI d   1      14.961   2.363  39.976  0.00  0.00    -0.648 OA
ATOM     26  O7  9HI d   1      13.148   1.799  38.847  0.00  0.00    -0.648 OA
ENDBRANCH  21  24
ENDBRANCH  17  21
ENDBRANCH  14  17
ENDBRANCH  12  14
BRANCH  12  27
ATOM     27  O4  9HI d   1      11.996   7.958  42.064  0.00  0.00    -0.395 OA
ATOM     28  H30 9HI d   1      11.723   8.288  42.912  0.00  0.00     0.210 HD
ENDBRANCH  12  27
ENDBRANCH   9  12
ENDBRANCH   6   9
ENDBRANCH   1   6
BRANCH   2  29
ATOM     29  C27 9HI d   1      13.891   3.979  45.594  0.00  0.00    -0.008 A 
ATOM     30  C21 9HI d   1      14.209   3.258  44.446  0.00  0.00    -0.068 A 
ATOM     31  C24 9HI d   1      13.575   2.049  44.193  0.00  0.00    -0.045 A 
ATOM     32  H16 9HI d   1      14.949   3.639  43.752  0.00  0.00     0.085 H 
ATOM     33  C30 9HI d   1      12.634   1.565  45.094  0.00  0.00     0.116 A 
ATOM     34  H18 9HI d   1      13.813   1.486  43.298  0.00  0.00     0.088 H 
ATOM     35  C15 9HI d   1      12.319   2.280  46.239  0.00  0.00    -0.045 A 
ATOM     36  F1  9HI d   1      12.024   0.404  44.851  0.00  0.00    -0.206 F 
ATOM     37  C18 9HI d   1      12.951   3.491  46.491  0.00  0.00    -0.068 A 
ATOM     38  H13 9HI d   1      11.582   1.896  46.935  0.00  0.00     0.088 H 
ATOM     39  H28 9HI d   1      12.711   4.053  47.386  0.00  0.00     0.085 H 
ENDBRANCH   2  29
BRANCH   5  40
ATOM     40  C6  9HI d   1      15.494   8.834  45.873  0.00  0.00    -0.019 C 
ATOM     41  H3  9HI d   1      16.272   9.168  46.575  0.00  0.00     0.048 H 
BRANCH  40  42
ATOM     42  C13 9HI d   1      14.220   9.606  46.221  0.00  0.00    -0.068 C 
ATOM     43  H10 9HI d   1      14.393  10.683  46.076  0.00  0.00     0.028 H 
ATOM     44  H11 9HI d   1      13.951   9.416  47.270  0.00  0.00     0.028 H 
ATOM     45  H12 9HI d   1      13.400   9.275  45.567  0.00  0.00     0.028 H 
ENDBRANCH  40  42
BRANCH  40  46
ATOM     46  C14 9HI d   1      15.990   9.138  44.460  0.00  0.00    -0.068 C 
ATOM     47  H25 9HI d   1      16.904   8.560  44.260  0.00  0.00     0.028 H 
ATOM     48  H26 9HI d   1      16.209  10.212  44.371  0.00  0.00     0.028 H 
ATOM     49  H27 9HI d   1      15.214   8.860  43.731  0.00  0.00     0.028 H 
ENDBRANCH  40  46
ENDBRANCH   5  40
BRANCH   4  50
ATOM     50  C31 9HI d   1      16.302   4.067  47.426  0.00  0.00    -0.022 A 
ATOM     51  C25 9HI d   1      16.924   3.142  46.609  0.00  0.00    -0.069 A 
ATOM     52  C22 9HI d   1      17.515   2.029  47.160  0.00  0.00    -0.045 A 
ATOM     53  H22 9HI d   1      16.946   3.293  45.536  0.00  0.00     0.085 H 
ATOM     54  C28 9HI d   1      17.492   1.850  48.527  0.00  0.00     0.116 A 
ATOM     55  H17 9HI d   1      17.997   1.296  46.523  0.00  0.00     0.088 H 
ATOM     56  C19 9HI d   1      16.878   2.777  49.362  0.00  0.00    -0.045 A 
ATOM     57  F2  9HI d   1      18.074   0.760  49.024  0.00  0.00    -0.206 F 
ATOM     58  C16 9HI d   1      16.277   3.895  48.805  0.00  0.00    -0.069 A 
ATOM     59  H24 9HI d   1      16.869   2.627  50.436  0.00  0.00     0.088 H 
ATOM     60  H23 9HI d   1      15.792   4.628  49.439  0.00  0.00     0.085 H 
ENDBRANCH   4  50
BRANCH   3  61
ATOM     61  S1  9HI d   1      17.455   6.958  47.768  0.00  0.00     0.266 S 
ATOM     62  O1  9HI d   1      18.005   8.225  47.398  0.00  0.00    -0.200 OA
ATOM     63  O2  9HI d   1      18.495   5.998  47.561  0.00  0.00    -0.200 OA
BRANCH  61  64
ATOM     64  N2  9HI d   1      17.096   6.970  49.344  0.00  0.00    -0.281 N 
ATOM     65  H21 9HI d   1      17.859   6.797  49.967  0.00  0.00     0.179 HD
BRANCH  64  66
ATOM     66  C32 9HI d   1      15.878   7.187  49.933  0.00  0.00     0.042 A 
ATOM     67  C17 9HI d   1      15.776   7.035  51.322  0.00  0.00    -0.056 A 
ATOM     68  C20 9HI d   1      14.558   7.240  51.982  0.00  0.00    -0.066 A 
ATOM     69  H14 9HI d   1      16.653   6.755  51.894  0.00  0.00     0.087 H 
ATOM     70  C29 9HI d   1      13.416   7.600  51.263  0.00  0.00     0.032 A 
ATOM     71  H15 9HI d   1      14.501   7.119  53.058  0.00  0.00     0.085 H 
ATOM     72  C23 9HI d   1      13.508   7.753  49.886  0.00  0.00    -0.066 A 
ATOM     73  C26 9HI d   1      14.718   7.546  49.238  0.00  0.00    -0.056 A 
ATOM     74  H20 9HI d   1      12.631   8.035  49.315  0.00  0.00     0.085 H 
ATOM     75  H19 9HI d   1      14.766   7.666  48.162  0.00  0.00     0.087 H 
BRANCH  70  76
ATOM     76  C3  9HI d   1      12.095   7.831  51.949  0.00  0.00     0.249 C 
ATOM     77  N3  9HI d   1      10.961   7.424  51.361  0.00  0.00    -0.366 N 
ATOM     78  H1  9HI d   1      10.995   6.960  50.476  0.00  0.00     0.159 HD
ATOM     79  H2  9HI d   1      10.081   7.584  51.808  0.00  0.00     0.159 HD
ATOM     80  O5  9HI d   1      12.084   8.400  53.031  0.00  0.00    -0.268 OA
ENDBRANCH  70  76
ENDBRANCH  64  66
ENDBRANCH  61  64
ENDBRANCH   3  61
TORSDOF 18
