REMARK  3 active torsions:
REMARK  status: ('A' for Active; 'I' for Inactive)
REMARK    1  A    between atoms: C1_1  and  N_9 
REMARK    2  A    between atoms: N_9  and  C11_13 
REMARK    3  A    between atoms: C9_11  and  S_10 
ROOT
ATOM      1  C1  2AN d   1     -24.230  -0.646  -4.192  0.00  0.00     0.045 A 
ATOM      2  C2  2AN d   1     -24.291  -1.848  -4.904  0.00  0.00    -0.056 A 
ATOM      3  C3  2AN d   1     -25.321  -2.758  -4.709  0.00  0.00    -0.080 A 
ATOM      4  C4  2AN d   1     -26.312  -2.464  -3.781  0.00  0.00    -0.072 A 
ATOM      5  C5  2AN d   1     -26.271  -1.275  -3.060  0.00  0.00    -0.022 A 
ATOM      6  C6  2AN d   1     -27.299  -1.047  -2.148  0.00  0.00    -0.072 A 
ATOM      7  C7  2AN d   1     -27.317   0.120  -1.397  0.00  0.00    -0.081 A 
ATOM      8  C8  2AN d   1     -26.300   1.051  -1.565  0.00  0.00    -0.058 A 
ATOM      9  C9  2AN d   1     -25.257   0.845  -2.473  0.00  0.00     0.094 A 
ATOM     10  C10 2AN d   1     -25.231  -0.341  -3.245  0.00  0.00     0.025 A 
ATOM     11  H1  2AN d   1     -23.515  -2.075  -5.626  0.00  0.00     0.086 H 
ATOM     12  H2  2AN d   1     -25.352  -3.684  -5.272  0.00  0.00     0.083 H 
ATOM     13  H3  2AN d   1     -27.122  -3.165  -3.618  0.00  0.00     0.084 H 
ATOM     14  H4  2AN d   1     -28.086  -1.782  -2.025  0.00  0.00     0.084 H 
ATOM     15  H5  2AN d   1     -28.116   0.303  -0.687  0.00  0.00     0.083 H 
ATOM     16  H6  2AN d   1     -26.315   1.961  -0.977  0.00  0.00     0.086 H 
ENDROOT
BRANCH   1  17
ATOM     17  N   2AN d   1     -23.190   0.195  -4.431  0.00  0.00    -0.355 N 
ATOM     18  H7  2AN d   1     -22.906   0.841  -3.680  0.00  0.00     0.166 HD
BRANCH  17  19
ATOM     19  C11 2AN d   1     -22.503   0.234  -5.603  0.00  0.00     0.032 A 
ATOM     20  C12 2AN d   1     -21.482  -0.687  -5.862  0.00  0.00    -0.057 A 
ATOM     21  C13 2AN d   1     -20.776  -0.643  -7.064  0.00  0.00    -0.081 A 
ATOM     22  H8  2AN d   1     -21.238  -1.441  -5.122  0.00  0.00     0.086 H 
ATOM     23  C14 2AN d   1     -21.083   0.335  -8.011  0.00  0.00    -0.083 A 
ATOM     24  H9  2AN d   1     -19.992  -1.365  -7.262  0.00  0.00     0.083 H 
ATOM     25  C15 2AN d   1     -22.098   1.259  -7.755  0.00  0.00    -0.081 A 
ATOM     26  H10 2AN d   1     -20.534   0.377  -8.945  0.00  0.00     0.083 H 
ATOM     27  C16 2AN d   1     -22.805   1.211  -6.553  0.00  0.00    -0.057 A 
ATOM     28  H11 2AN d   1     -22.338   2.016  -8.493  0.00  0.00     0.083 H 
ATOM     29  H12 2AN d   1     -23.589   1.933  -6.357  0.00  0.00     0.086 H 
ENDBRANCH  17  19
ENDBRANCH   1  17
BRANCH   9  30
ATOM     30  S   2AN d   1     -24.158   2.018  -2.541  0.00  0.00     0.138 S 
ATOM     31  O1  2AN d   1     -24.357   2.912  -1.386  0.00  0.00    -0.591 OA
ATOM     32  O2  2AN d   1     -24.306   2.787  -3.797  0.00  0.00    -0.591 OA
ATOM     33  O3  2AN d   1     -22.794   1.461  -2.457  0.00  0.00    -0.591 OA
ENDBRANCH   9  30
TORSDOF 3
