REMARK  7 active torsions:
REMARK  status: ('A' for Active; 'I' for Inactive)
REMARK    1  A    between atoms: C18_2  and  C17_4 
REMARK    2  A    between atoms: C17_4  and  C16_5 
REMARK    3  A    between atoms: C16_5  and  C15_6 
REMARK       I    between atoms: C15_6  and  N2_8 
REMARK    4  A    between atoms: N2_8  and  C14_9 
REMARK    5  A    between atoms: C9_15  and  C8_16 
REMARK       I    between atoms: C8_16  and  N1_18 
REMARK    6  A    between atoms: C4_20  and  C5_21 
REMARK    7  A    between atoms: C2_24  and  C1_25 
ROOT
ATOM      1  C8  SX5 d   1     -25.211  10.062 -14.477  0.00  0.00     0.256 C 
ATOM      2  O1  SX5 d   1     -25.005  10.827 -15.420  0.00  0.00    -0.267 OA
ATOM      3  N1  SX5 d   1     -26.401  10.085 -13.741  0.00  0.00    -0.347 N 
ATOM      4  C6  SX5 d   1     -26.542   9.454 -12.412  0.00  0.00     0.001 C 
ATOM      5  C4  SX5 d   1     -26.936  10.395 -11.275  0.00  0.00    -0.042 C 
ATOM      6  C3  SX5 d   1     -28.102  11.300 -11.671  0.00  0.00    -0.056 C 
ATOM      7  C7  SX5 d   1     -27.391  11.134 -14.054  0.00  0.00     0.001 C 
ATOM      8  C2  SX5 d   1     -27.710  12.095 -12.906  0.00  0.00    -0.042 C 
ATOM      9  H9  SX5 d   1     -25.578   8.993 -12.152  0.00  0.00     0.065 H 
ATOM     10  H10 SX5 d   1     -27.313   8.673 -12.488  0.00  0.00     0.065 H 
ATOM     11  H11 SX5 d   1     -26.071  11.035 -11.047  0.00  0.00     0.042 H 
ATOM     12  H15 SX5 d   1     -28.331  11.990 -10.845  0.00  0.00     0.034 H 
ATOM     13  H16 SX5 d   1     -28.987  10.686 -11.893  0.00  0.00     0.034 H 
ATOM     14  H17 SX5 d   1     -28.327  10.640 -14.354  0.00  0.00     0.065 H 
ATOM     15  H18 SX5 d   1     -27.004  11.727 -14.896  0.00  0.00     0.065 H 
ATOM     16  H19 SX5 d   1     -26.799  12.666 -12.673  0.00  0.00     0.042 H 
ENDROOT
BRANCH   1  17
ATOM     17  C9  SX5 d   1     -24.115   9.101 -14.199  0.00  0.00     0.060 A 
ATOM     18  C14 SX5 d   1     -24.266   7.714 -14.451  0.00  0.00     0.050 A 
ATOM     19  C13 SX5 d   1     -23.192   6.850 -14.195  0.00  0.00    -0.055 A 
ATOM     20  C12 SX5 d   1     -21.980   7.347 -13.714  0.00  0.00    -0.064 A 
ATOM     21  H6  SX5 d   1     -23.304   5.787 -14.372  0.00  0.00     0.087 H 
ATOM     22  C11 SX5 d   1     -21.848   8.718 -13.486  0.00  0.00     0.012 A 
ATOM     23  H7  SX5 d   1     -21.151   6.676 -13.520  0.00  0.00     0.085 H 
ATOM     24 BR1  SX5 d   1     -20.204   9.359 -12.833  0.00  0.00    -0.051 Br
ATOM     25  C10 SX5 d   1     -22.897   9.604 -13.727  0.00  0.00    -0.049 A 
ATOM     26  H8  SX5 d   1     -22.771  10.666 -13.552  0.00  0.00     0.087 H 
BRANCH  18  27
ATOM     27  N2  SX5 d   1     -25.507   7.227 -14.918  0.00  0.00    -0.326 N 
ATOM     28  C15 SX5 d   1     -26.195   6.179 -14.341  0.00  0.00     0.222 C 
ATOM     29  O2  SX5 d   1     -25.811   5.530 -13.364  0.00  0.00    -0.273 OA
ATOM     30  H5  SX5 d   1     -25.913   7.670 -15.717  0.00  0.00     0.169 HD
BRANCH  28  31
ATOM     31  C16 SX5 d   1     -27.503   5.914 -15.071  0.00  0.00     0.018 C 
ATOM     32  H3  SX5 d   1     -28.181   6.761 -14.890  0.00  0.00     0.048 H 
ATOM     33  H4  SX5 d   1     -27.292   5.837 -16.148  0.00  0.00     0.048 H 
BRANCH  31  34
ATOM     34  C17 SX5 d   1     -28.198   4.634 -14.622  0.00  0.00     0.024 C 
ATOM     35  H1  SX5 d   1     -28.290   4.641 -13.526  0.00  0.00     0.049 H 
ATOM     36  H2  SX5 d   1     -29.200   4.593 -15.074  0.00  0.00     0.049 H 
BRANCH  34  37
ATOM     37  C18 SX5 d   1     -27.422   3.419 -15.040  0.00  0.00     0.172 C 
ATOM     38  O3  SX5 d   1     -26.648   3.299 -15.979  0.00  0.00    -0.648 OA
ATOM     39  O4  SX5 d   1     -27.668   2.381 -14.225  0.00  0.00    -0.648 OA
ENDBRANCH  34  37
ENDBRANCH  31  34
ENDBRANCH  28  31
ENDBRANCH  18  27
ENDBRANCH   1  17
BRANCH   5  40
ATOM     40  C5  SX5 d   1     -27.285   9.594 -10.020  0.00  0.00    -0.071 C 
ATOM     41  H12 SX5 d   1     -27.566  10.284  -9.211  0.00  0.00     0.028 H 
ATOM     42  H13 SX5 d   1     -26.412   9.001  -9.709  0.00  0.00     0.028 H 
ATOM     43  H14 SX5 d   1     -28.127   8.921 -10.237  0.00  0.00     0.028 H 
ENDBRANCH   5  40
BRANCH   8  44
ATOM     44  C1  SX5 d   1     -28.800  13.090 -13.297  0.00  0.00    -0.071 C 
ATOM     45  H20 SX5 d   1     -29.003  13.763 -12.451  0.00  0.00     0.028 H 
ATOM     46  H21 SX5 d   1     -29.718  12.544 -13.559  0.00  0.00     0.028 H 
ATOM     47  H22 SX5 d   1     -28.464  13.680 -14.162  0.00  0.00     0.028 H 
ENDBRANCH   8  44
TORSDOF 7
