REMARK  7 active torsions:
REMARK  status: ('A' for Active; 'I' for Inactive)
REMARK       I    between atoms: C18_2  and  N3_3 
REMARK    1  A    between atoms: C18_2  and  C17_9 
REMARK    2  A    between atoms: C17_9  and  C16_10 
REMARK    3  A    between atoms: C16_10  and  C15_11 
REMARK       I    between atoms: C15_11  and  N2_13 
REMARK    4  A    between atoms: N2_13  and  C14_14 
REMARK    5  A    between atoms: C9_20  and  C8_21 
REMARK       I    between atoms: C8_21  and  N1_23 
REMARK    6  A    between atoms: C4_25  and  C5_26 
REMARK    7  A    between atoms: C2_29  and  C1_30 
ROOT
ATOM      1  C14 SX6 d   1       7.294  36.613  77.151  0.00  0.00     0.050 A 
ATOM      2  C13 SX6 d   1       6.408  37.451  76.455  0.00  0.00    -0.055 A 
ATOM      3  C12 SX6 d   1       6.891  38.410  75.560  0.00  0.00    -0.064 A 
ATOM      4  C11 SX6 d   1       8.269  38.520  75.375  0.00  0.00     0.012 A 
ATOM      5 BR1  SX6 d   1       8.971  39.772  74.175  0.00  0.00    -0.051 Br
ATOM      6  C10 SX6 d   1       9.170  37.709  76.039  0.00  0.00    -0.049 A 
ATOM      7  C9  SX6 d   1       8.694  36.749  76.929  0.00  0.00     0.060 A 
ATOM      8  H14 SX6 d   1       5.340  37.353  76.613  0.00  0.00     0.087 H 
ATOM      9  H15 SX6 d   1       6.208  39.056  75.020  0.00  0.00     0.085 H 
ATOM     10  H16 SX6 d   1      10.235  37.819  75.869  0.00  0.00     0.087 H 
ENDROOT
BRANCH   1  11
ATOM     11  N2  SX6 d   1       6.797  35.642  78.049  0.00  0.00    -0.326 N 
ATOM     12  C15 SX6 d   1       5.735  34.811  77.764  0.00  0.00     0.222 C 
ATOM     13  O2  SX6 d   1       5.085  34.809  76.712  0.00  0.00    -0.273 OA
ATOM     14  H13 SX6 d   1       7.240  35.553  78.941  0.00  0.00     0.169 HD
BRANCH  12  15
ATOM     15  C16 SX6 d   1       5.438  33.894  78.937  0.00  0.00     0.017 C 
ATOM     16  H11 SX6 d   1       5.739  32.869  78.674  0.00  0.00     0.047 H 
ATOM     17  H12 SX6 d   1       6.015  34.233  79.810  0.00  0.00     0.047 H 
BRANCH  15  18
ATOM     18  C17 SX6 d   1       3.953  33.897  79.294  0.00  0.00     0.017 C 
ATOM     19  H9  SX6 d   1       3.385  33.641  78.388  0.00  0.00     0.047 H 
ATOM     20  H10 SX6 d   1       3.786  33.127  80.062  0.00  0.00     0.047 H 
BRANCH  18  21
ATOM     21  C18 SX6 d   1       3.417  35.221  79.829  0.00  0.00     0.220 C 
ATOM     22  O3  SX6 d   1       4.049  36.285  79.763  0.00  0.00    -0.273 OA
ATOM     23  N3  SX6 d   1       2.155  35.186  80.408  0.00  0.00    -0.348 N 
ATOM     24  C22 SX6 d   1       1.438  36.348  80.985  0.00  0.00     0.017 C 
ATOM     25  C19 SX6 d   1       1.238  34.028  80.232  0.00  0.00     0.017 C 
ATOM     26  C21 SX6 d   1       0.581  35.986  82.212  0.00  0.00     0.034 C 
ATOM     27  H1  SX6 d   1       0.780  36.771  80.212  0.00  0.00     0.067 H 
ATOM     28  H2  SX6 d   1       2.180  37.101  81.287  0.00  0.00     0.067 H 
ATOM     29  O4  SX6 d   1      -0.320  34.903  81.910  0.00  0.00    -0.388 OA
ATOM     30  H3  SX6 d   1      -0.004  36.867  82.515  0.00  0.00     0.076 H 
ATOM     31  H4  SX6 d   1       1.243  35.684  83.037  0.00  0.00     0.076 H 
ATOM     32  C20 SX6 d   1       0.398  33.727  81.484  0.00  0.00     0.034 C 
ATOM     33  H5  SX6 d   1      -0.322  32.928  81.252  0.00  0.00     0.076 H 
ATOM     34  H6  SX6 d   1       1.064  33.397  82.295  0.00  0.00     0.076 H 
ATOM     35  H7  SX6 d   1       1.839  33.139  79.992  0.00  0.00     0.067 H 
ATOM     36  H8  SX6 d   1       0.556  34.246  79.397  0.00  0.00     0.067 H 
ENDBRANCH  18  21
ENDBRANCH  15  18
ENDBRANCH  12  15
ENDBRANCH   1  11
BRANCH   7  37
ATOM     37  C8  SX6 d   1       9.728  35.931  77.618  0.00  0.00     0.256 C 
ATOM     38  O1  SX6 d   1      10.497  36.535  78.357  0.00  0.00    -0.267 OA
ATOM     39  N1  SX6 d   1       9.850  34.563  77.454  0.00  0.00    -0.347 N 
ATOM     40  C6  SX6 d   1      10.859  33.775  78.170  0.00  0.00     0.001 C 
ATOM     41  C7  SX6 d   1       9.094  33.878  76.382  0.00  0.00     0.001 C 
ATOM     42  C4  SX6 d   1      11.779  32.998  77.233  0.00  0.00    -0.042 C 
ATOM     43  H17 SX6 d   1      10.344  33.060  78.829  0.00  0.00     0.065 H 
ATOM     44  H18 SX6 d   1      11.472  34.458  78.777  0.00  0.00     0.065 H 
ATOM     45  C3  SX6 d   1      10.942  32.154  76.272  0.00  0.00    -0.056 C 
ATOM     46  H19 SX6 d   1      12.357  33.720  76.638  0.00  0.00     0.042 H 
ATOM     47  C2  SX6 d   1       9.955  33.003  75.464  0.00  0.00    -0.042 C 
ATOM     48  H23 SX6 d   1      10.377  31.411  76.854  0.00  0.00     0.034 H 
ATOM     49  H24 SX6 d   1      11.617  31.637  75.575  0.00  0.00     0.034 H 
ATOM     50  H27 SX6 d   1      10.546  33.677  74.827  0.00  0.00     0.042 H 
ATOM     51  H25 SX6 d   1       8.601  34.644  75.765  0.00  0.00     0.065 H 
ATOM     52  H26 SX6 d   1       8.332  33.239  76.852  0.00  0.00     0.065 H 
BRANCH  42  53
ATOM     53  C5  SX6 d   1      12.769  32.144  78.029  0.00  0.00    -0.071 C 
ATOM     54  H20 SX6 d   1      13.421  31.594  77.334  0.00  0.00     0.028 H 
ATOM     55  H21 SX6 d   1      12.216  31.429  78.656  0.00  0.00     0.028 H 
ATOM     56  H22 SX6 d   1      13.383  32.795  78.669  0.00  0.00     0.028 H 
ENDBRANCH  42  53
BRANCH  47  57
ATOM     57  C1  SX6 d   1       9.096  32.143  74.541  0.00  0.00    -0.071 C 
ATOM     58  H28 SX6 d   1       9.747  31.531  73.899  0.00  0.00     0.028 H 
ATOM     59  H29 SX6 d   1       8.469  32.793  73.913  0.00  0.00     0.028 H 
ATOM     60  H30 SX6 d   1       8.454  31.485  75.145  0.00  0.00     0.028 H 
ENDBRANCH  47  57
ENDBRANCH   7  37
TORSDOF 7
