REMARK  18 active torsions:
REMARK  status: ('A' for Active; 'I' for Inactive)
REMARK    1  A    between atoms: C1A_1  and  O1X_7 
REMARK    2  A    between atoms: C2A_2  and  O2A_8 
REMARK    3  A    between atoms: C3A_3  and  O3A_9 
REMARK    4  A    between atoms: C4A_4  and  O4A_10 
REMARK    5  A    between atoms: C5A_5  and  C6A_6 
REMARK    6  A    between atoms: C6A_6  and  O6A_12 
REMARK    7  A    between atoms: O4A_10  and  C1B_13 
REMARK    8  A    between atoms: C2B_14  and  O2B_19 
REMARK    9  A    between atoms: C3B_15  and  O3B_20 
REMARK   10  A    between atoms: C4B_16  and  O4B_21 
REMARK   11  A    between atoms: C5B_17  and  C6B_18 
REMARK   12  A    between atoms: C6B_18  and  O6B_23 
REMARK   13  A    between atoms: O4B_21  and  C1C_24 
REMARK   14  A    between atoms: C2C_25  and  O2C_30 
REMARK   15  A    between atoms: C3C_26  and  O3C_31 
REMARK   16  A    between atoms: C4C_27  and  O4C_32 
REMARK   17  A    between atoms: C5C_28  and  C6C_29 
REMARK   18  A    between atoms: C6C_29  and  O6C_34 
ROOT
ATOM      1  C1B MLR d   1      16.969 -17.244  -6.170  0.00  0.00     0.159 C 
ATOM      2  C2B MLR d   1      17.751 -17.511  -7.481  0.00  0.00     0.110 C 
ATOM      3  C3B MLR d   1      19.135 -18.069  -7.084  0.00  0.00     0.092 C 
ATOM      4  C4B MLR d   1      19.863 -17.017  -6.235  0.00  0.00     0.096 C 
ATOM      5  C5B MLR d   1      18.995 -16.723  -4.970  0.00  0.00     0.089 C 
ATOM      6  O5B MLR d   1      17.673 -16.236  -5.368  0.00  0.00    -0.348 OA
ATOM      7  H12 MLR d   1      15.953 -16.893  -6.401  0.00  0.00     0.133 H 
ATOM      8  H13 MLR d   1      17.862 -16.579  -8.055  0.00  0.00     0.094 H 
ATOM      9  H14 MLR d   1      19.008 -18.994  -6.503  0.00  0.00     0.091 H 
ATOM     10  H15 MLR d   1      20.003 -16.093  -6.816  0.00  0.00     0.091 H 
ATOM     11  H16 MLR d   1      18.880 -17.651  -4.391  0.00  0.00     0.090 H 
ENDROOT
BRANCH   1  12
ATOM     12  O4A MLR d   1      16.913 -18.488  -5.429  0.00  0.00    -0.348 OA
BRANCH  12  13
ATOM     13  C4A MLR d   1      15.668 -18.675  -4.706  0.00  0.00     0.096 C 
ATOM     14  C3A MLR d   1      14.915 -19.869  -5.331  0.00  0.00     0.092 C 
ATOM     15  C2A MLR d   1      13.619 -20.101  -4.538  0.00  0.00     0.110 C 
ATOM     16  H3  MLR d   1      15.542 -20.772  -5.297  0.00  0.00     0.091 H 
ATOM     17  C1A MLR d   1      14.051 -20.422  -3.088  0.00  0.00     0.156 C 
ATOM     18  H2  MLR d   1      12.975 -19.209  -4.564  0.00  0.00     0.094 H 
ATOM     19  O5A MLR d   1      14.732 -19.276  -2.504  0.00  0.00    -0.349 OA
ATOM     20  H1  MLR d   1      14.747 -21.273  -3.111  0.00  0.00     0.133 H 
ATOM     21  C5A MLR d   1      15.973 -19.033  -3.220  0.00  0.00     0.089 C 
ATOM     22  H5  MLR d   1      16.613 -19.927  -3.176  0.00  0.00     0.090 H 
ATOM     23  H4  MLR d   1      15.057 -17.762  -4.761  0.00  0.00     0.091 H 
BRANCH  14  24
ATOM     24  O3A MLR d   1      14.597 -19.547  -6.687  0.00  0.00    -0.390 OA
ATOM     25  H10 MLR d   1      15.399 -19.381  -7.168  0.00  0.00     0.210 HD
ENDBRANCH  14  24
BRANCH  15  26
ATOM     26  O2A MLR d   1      12.936 -21.222  -5.102  0.00  0.00    -0.388 OA
ATOM     27  H9  MLR d   1      12.132 -21.377  -4.620  0.00  0.00     0.210 HD
ENDBRANCH  15  26
BRANCH  17  28
ATOM     28  O1X MLR d   1      12.926 -20.776  -2.282  0.00  0.00    -0.369 OA
ATOM     29  H8  MLR d   1      12.326 -20.041  -2.238  0.00  0.00     0.212 HD
ENDBRANCH  17  28
BRANCH  21  30
ATOM     30  C6A MLR d   1      16.681 -17.844  -2.561  0.00  0.00     0.043 C 
ATOM     31  H6  MLR d   1      16.003 -16.978  -2.540  0.00  0.00     0.078 H 
ATOM     32  H7  MLR d   1      17.584 -17.590  -3.135  0.00  0.00     0.078 H 
BRANCH  30  33
ATOM     33  O6A MLR d   1      17.050 -18.198  -1.216  0.00  0.00    -0.398 OA
ATOM     34  H11 MLR d   1      16.269 -18.418  -0.722  0.00  0.00     0.209 HD
ENDBRANCH  30  33
ENDBRANCH  21  30
ENDBRANCH  12  13
ENDBRANCH   1  12
BRANCH   2  35
ATOM     35  O2B MLR d   1      17.061 -18.495  -8.270  0.00  0.00    -0.388 OA
ATOM     36  H19 MLR d   1      17.567 -18.685  -9.051  0.00  0.00     0.210 HD
ENDBRANCH   2  35
BRANCH   3  37
ATOM     37  O3B MLR d   1      19.907 -18.344  -8.258  0.00  0.00    -0.390 OA
ATOM     38  H20 MLR d   1      20.761 -18.674  -8.004  0.00  0.00     0.210 HD
ENDBRANCH   3  37
BRANCH   5  39
ATOM     39  C6B MLR d   1      19.679 -15.656  -4.091  0.00  0.00     0.043 C 
ATOM     40  H17 MLR d   1      20.685 -16.006  -3.815  0.00  0.00     0.078 H 
ATOM     41  H18 MLR d   1      19.082 -15.501  -3.180  0.00  0.00     0.078 H 
BRANCH  39  42
ATOM     42  O6B MLR d   1      19.789 -14.420  -4.795  0.00  0.00    -0.398 OA
ATOM     43  H21 MLR d   1      18.922 -14.114  -5.032  0.00  0.00     0.209 HD
ENDBRANCH  39  42
ENDBRANCH   5  39
BRANCH   4  44
ATOM     44  O4B MLR d   1      21.145 -17.544  -5.840  0.00  0.00    -0.348 OA
BRANCH  44  45
ATOM     45  C1C MLR d   1      22.224 -16.698  -6.305  0.00  0.00     0.159 C 
ATOM     46  C2C MLR d   1      23.305 -17.557  -7.024  0.00  0.00     0.110 C 
ATOM     47  C3C MLR d   1      23.817 -18.612  -6.019  0.00  0.00     0.092 C 
ATOM     48  H23 MLR d   1      24.136 -16.915  -7.351  0.00  0.00     0.094 H 
ATOM     49  C4C MLR d   1      24.420 -17.873  -4.808  0.00  0.00     0.090 C 
ATOM     50  H24 MLR d   1      22.981 -19.246  -5.689  0.00  0.00     0.091 H 
ATOM     51  C5C MLR d   1      23.315 -16.995  -4.171  0.00  0.00     0.089 C 
ATOM     52  H25 MLR d   1      25.255 -17.237  -5.137  0.00  0.00     0.091 H 
ATOM     53  O5C MLR d   1      22.819 -16.025  -5.152  0.00  0.00    -0.348 OA
ATOM     54  H26 MLR d   1      22.487 -17.632  -3.825  0.00  0.00     0.090 H 
ATOM     55  H22 MLR d   1      21.828 -15.949  -7.006  0.00  0.00     0.133 H 
BRANCH  46  56
ATOM     56  O2C MLR d   1      22.731 -18.215  -8.160  0.00  0.00    -0.388 OA
ATOM     57  H29 MLR d   1      22.006 -18.760  -7.876  0.00  0.00     0.210 HD
ENDBRANCH  46  56
BRANCH  47  58
ATOM     58  O3C MLR d   1      24.821 -19.429  -6.634  0.00  0.00    -0.390 OA
ATOM     59  H30 MLR d   1      25.141 -20.064  -6.004  0.00  0.00     0.210 HD
ENDBRANCH  47  58
BRANCH  49  60
ATOM     60  O4C MLR d   1      24.899 -18.837  -3.850  0.00  0.00    -0.390 OA
ATOM     61  H31 MLR d   1      25.257 -18.382  -3.096  0.00  0.00     0.210 HD
ENDBRANCH  49  60
BRANCH  51  62
ATOM     62  C6C MLR d   1      23.915 -16.229  -2.992  0.00  0.00     0.043 C 
ATOM     63  H27 MLR d   1      24.384 -15.303  -3.355  0.00  0.00     0.078 H 
ATOM     64  H28 MLR d   1      24.672 -16.853  -2.495  0.00  0.00     0.078 H 
BRANCH  62  65
ATOM     65  O6C MLR d   1      22.876 -15.908  -2.065  0.00  0.00    -0.398 OA
ATOM     66  H32 MLR d   1      23.245 -15.432  -1.330  0.00  0.00     0.209 HD
ENDBRANCH  62  65
ENDBRANCH  51  62
ENDBRANCH  44  45
ENDBRANCH   4  44
TORSDOF 18
