REMARK  15 active torsions:
REMARK  status: ('A' for Active; 'I' for Inactive)
REMARK    1  A    between atoms: PA_1  and  O1_4 
REMARK    2  A    between atoms: O3A_11  and  PA_1 
REMARK    3  A    between atoms: PB_2  and  O3A_11 
REMARK    4  A    between atoms: O1_4  and  C1_3 
REMARK    5  A    between atoms: C1_3  and  C2_7 
REMARK    6  A    between atoms: C3_10  and  C4_13 
REMARK    7  A    between atoms: C3_10  and  C5_14 
REMARK    8  A    between atoms: C5_14  and  C6_15 
REMARK    9  A    between atoms: C6_15  and  C7_16 
REMARK   10  A    between atoms: C8_17  and  C9_18 
REMARK   11  A    between atoms: C8_17  and  C10_19 
REMARK   12  A    between atoms: C9_18  and  C11_20 
REMARK   13  A    between atoms: C11_20  and  C12_21 
REMARK   14  A    between atoms: C13_22  and  C14_23 
REMARK   15  A    between atoms: C13_22  and  C15_24 
ROOT
ATOM      1  C6  FDF d   1       1.291 -32.301  20.270  0.00  0.00    -0.046 C 
ATOM      2  H9  FDF d   1       1.993 -33.145  20.202  0.00  0.00     0.039 H 
ATOM      3  H10 FDF d   1       1.749 -31.489  20.854  0.00  0.00     0.039 H 
ENDROOT
BRANCH   1   4
ATOM      4  C5  FDF d   1      -0.021 -32.767  20.962  0.00  0.00    -0.042 C 
ATOM      5  H7  FDF d   1      -0.078 -32.348  21.977  0.00  0.00     0.040 H 
ATOM      6  H8  FDF d   1      -0.891 -32.433  20.378  0.00  0.00     0.040 H 
BRANCH   4   7
ATOM      7  C3  FDF d   1       0.005 -34.281  21.029  0.00  0.00    -0.085 C 
ATOM      8  C2  FDF d   1      -0.917 -35.009  20.338  0.00  0.00    -0.078 C 
ATOM      9  H3  FDF d   1      -1.695 -34.492  19.778  0.00  0.00     0.080 H 
BRANCH   8  10
ATOM     10  C1  FDF d   1      -0.880 -36.520  20.334  0.00  0.00     0.047 C 
ATOM     11  H1  FDF d   1      -0.083 -36.830  19.642  0.00  0.00     0.081 H 
ATOM     12  H2  FDF d   1      -0.627 -36.847  21.353  0.00  0.00     0.081 H 
BRANCH  10  13
ATOM     13  O1  FDF d   1      -2.115 -37.225  19.934  0.00  0.00    -0.286 OA
BRANCH  13  14
ATOM     14  PA  FDF d   1      -1.845 -38.698  19.916  0.00  0.00     0.418 P 
ATOM     15  O1A FDF d   1      -0.325 -39.074  20.056  0.00  0.00    -0.624 OA
ATOM     16  O2A FDF d   1      -2.581 -39.257  21.243  0.00  0.00    -0.624 OA
BRANCH  14  17
ATOM     17  O3A FDF d   1      -2.620 -39.439  18.738  0.00  0.00    -0.173 OA
BRANCH  17  18
ATOM     18  PB  FDF d   1      -1.760 -39.107  17.341  0.00  0.00     0.431 P 
ATOM     19  O1B FDF d   1      -0.559 -38.205  17.665  0.00  0.00    -0.616 OA
ATOM     20  O2B FDF d   1      -1.135 -40.415  16.605  0.00  0.00    -0.616 OA
ATOM     21  O3B FDF d   1      -2.841 -38.416  16.301  0.00  0.00    -0.616 OA
ENDBRANCH  17  18
ENDBRANCH  14  17
ENDBRANCH  13  14
ENDBRANCH  10  13
ENDBRANCH   8  10
BRANCH   7  22
ATOM     22  C4  FDF d   1       1.104 -34.945  21.881  0.00  0.00    -0.055 C 
ATOM     23  H4  FDF d   1       1.729 -34.167  22.344  0.00  0.00     0.033 H 
ATOM     24  H5  FDF d   1       1.729 -35.584  21.240  0.00  0.00     0.033 H 
ATOM     25  H6  FDF d   1       0.639 -35.558  22.667  0.00  0.00     0.033 H 
ENDBRANCH   7  22
ENDBRANCH   4   7
ENDBRANCH   1   4
BRANCH   1  26
ATOM     26  C7  FDF d   1       0.957 -31.803  18.880  0.00  0.00    -0.101 C 
ATOM     27  C8  FDF d   1       1.588 -32.208  17.784  0.00  0.00    -0.087 C 
ATOM     28  H11 FDF d   1       0.156 -31.073  18.773  0.00  0.00     0.077 H 
BRANCH  27  29
ATOM     29  C9  FDF d   1       1.152 -31.631  16.480  0.00  0.00    -0.042 C 
ATOM     30  H12 FDF d   1       2.007 -31.158  15.976  0.00  0.00     0.040 H 
ATOM     31  H13 FDF d   1       0.364 -30.881  16.647  0.00  0.00     0.040 H 
BRANCH  29  32
ATOM     32  C11 FDF d   1       0.610 -32.771  15.623  0.00  0.00    -0.046 C 
ATOM     33  H17 FDF d   1       0.778 -33.727  16.140  0.00  0.00     0.039 H 
ATOM     34  H18 FDF d   1       1.134 -32.780  14.656  0.00  0.00     0.039 H 
BRANCH  32  35
ATOM     35  C12 FDF d   1      -0.875 -32.582  15.388  0.00  0.00    -0.096 C 
ATOM     36  C13 FDF d   1      -1.801 -33.545  15.713  0.00  0.00    -0.027 C 
ATOM     37  H19 FDF d   1      -1.222 -31.649  14.945  0.00  0.00     0.077 H 
BRANCH  36  38
ATOM     38  C14 FDF d   1      -3.133 -33.295  15.428  0.00  0.00     0.080 C 
ATOM     39  F2  FDF d   1      -3.806 -34.265  14.903  0.00  0.00    -0.251 F 
ATOM     40  H20 FDF d   1      -3.171 -32.447  14.729  0.00  0.00     0.089 H 
ATOM     41  H21 FDF d   1      -3.629 -33.017  16.370  0.00  0.00     0.089 H 
ENDBRANCH  36  38
BRANCH  36  42
ATOM     42  C15 FDF d   1      -1.393 -34.789  16.288  0.00  0.00     0.080 C 
ATOM     43  F1  FDF d   1      -1.794 -35.255  17.481  0.00  0.00    -0.251 F 
ATOM     44  H22 FDF d   1      -0.296 -34.739  16.347  0.00  0.00     0.089 H 
ATOM     45  H23 FDF d   1      -1.686 -35.559  15.559  0.00  0.00     0.089 H 
ENDBRANCH  36  42
ENDBRANCH  32  35
ENDBRANCH  29  32
ENDBRANCH  27  29
BRANCH  27  46
ATOM     46  C10 FDF d   1       2.742 -33.239  17.807  0.00  0.00    -0.055 C 
ATOM     47  H14 FDF d   1       2.930 -33.556  18.843  0.00  0.00     0.033 H 
ATOM     48  H15 FDF d   1       3.652 -32.780  17.393  0.00  0.00     0.033 H 
ATOM     49  H16 FDF d   1       2.464 -34.114  17.201  0.00  0.00     0.033 H 
ENDBRANCH  27  46
ENDBRANCH   1  26
TORSDOF 15
