REMARK  17 active torsions:
REMARK  status: ('A' for Active; 'I' for Inactive)
REMARK       I    between atoms: C_1  and  N_3 
REMARK    1  A    between atoms: C_1  and  C30_26 
REMARK    2  A    between atoms: N_3  and  CA_4 
REMARK    3  A    between atoms: CA_4  and  CB_5 
REMARK    4  A    between atoms: CA_4  and  C1_12 
REMARK    5  A    between atoms: CB_5  and  CG_6 
REMARK    6  A    between atoms: C1_12  and  OG_13 
REMARK    7  A    between atoms: C1_12  and  C2_14 
REMARK    8  A    between atoms: C2_14  and  N2_15 
REMARK    9  A    between atoms: N2_15  and  C20_16 
REMARK   10  A    between atoms: C20_16  and  C21_17 
REMARK   11  A    between atoms: C25_21  and  N27_23 
REMARK   12  A    between atoms: N27_23  and  C28_24 
REMARK   13  A    between atoms: N27_23  and  C29_25 
REMARK   14  A    between atoms: N34_30  and  C36_32 
REMARK   15  A    between atoms: C36_32  and  C41_33 
REMARK   16  A    between atoms: C43_35  and  O47_39 
REMARK   17  A    between atoms: O47_39  and  C48_40 
ROOT
ATOM      1  CA  012 d   1      30.717   5.053   9.801  0.00  0.00     0.042 C 
ATOM      2  H2  012 d   1      31.715   5.494   9.659  0.00  0.00     0.077 H 
ENDROOT
BRANCH   1   3
ATOM      3  N   012 d   1      29.760   6.117  10.135  0.00  0.00    -0.352 N 
ATOM      4  C   012 d   1      30.098   7.404  10.486  0.00  0.00     0.242 C 
ATOM      5  O   012 d   1      31.233   7.878  10.579  0.00  0.00    -0.271 OA
ATOM      6  H1  012 d   1      28.787   5.888  10.105  0.00  0.00     0.163 HD
BRANCH   4   7
ATOM      7  C30 012 d   1      28.885   8.245  10.802  0.00  0.00     0.102 C 
ATOM      8  N31 012 d   1      27.672   7.694  10.223  0.00  0.00    -0.333 N 
ATOM      9  C32 012 d   1      26.735   8.176  11.140  0.00  0.00     0.297 C 
ATOM     10  H29 012 d   1      27.545   7.133   9.405  0.00  0.00     0.164 HD
ATOM     11  O33 012 d   1      25.547   8.070  10.906  0.00  0.00    -0.254 OA
ATOM     12  N34 012 d   1      27.233   8.789  12.317  0.00  0.00    -0.228 NA
ATOM     13  C35 012 d   1      28.607   8.331  12.294  0.00  0.00     0.015 C 
ATOM     14  H30 012 d   1      29.277   9.052  12.785  0.00  0.00     0.060 H 
ATOM     15  H31 012 d   1      28.709   7.348  12.777  0.00  0.00     0.060 H 
ATOM     16  H28 012 d   1      29.057   9.255  10.403  0.00  0.00     0.089 H 
BRANCH  12  17
ATOM     17  C36 012 d   1      26.444   8.553  13.567  0.00  0.00     0.012 C 
ATOM     18  H32 012 d   1      25.383   8.670  13.301  0.00  0.00     0.063 H 
ATOM     19  H33 012 d   1      26.732   9.340  14.279  0.00  0.00     0.063 H 
BRANCH  17  20
ATOM     20  C41 012 d   1      26.570   7.233  14.298  0.00  0.00    -0.042 A 
ATOM     21  C42 012 d   1      26.001   6.055  13.761  0.00  0.00    -0.044 A 
ATOM     22  C43 012 d   1      26.097   4.819  14.429  0.00  0.00     0.068 A 
ATOM     23  H34 012 d   1      25.479   6.105  12.812  0.00  0.00     0.088 H 
ATOM     24  C44 012 d   1      26.784   4.761  15.676  0.00  0.00    -0.051 A 
ATOM     25  C45 012 d   1      27.358   5.931  16.231  0.00  0.00    -0.080 A 
ATOM     26  H35 012 d   1      26.868   3.817  16.202  0.00  0.00     0.087 H 
ATOM     27  C46 012 d   1      27.251   7.162  15.546  0.00  0.00    -0.075 A 
ATOM     28  H36 012 d   1      27.879   5.882  17.180  0.00  0.00     0.083 H 
ATOM     29  H37 012 d   1      27.690   8.057  15.973  0.00  0.00     0.084 H 
BRANCH  22  30
ATOM     30  O47 012 d   1      25.491   3.704  13.825  0.00  0.00    -0.356 OA
BRANCH  30  31
ATOM     31  C48 012 d   1      26.393   2.788  13.240  0.00  0.00     0.010 C 
ATOM     32  H38 012 d   1      25.831   1.954  12.795  0.00  0.00     0.066 H 
ATOM     33  H39 012 d   1      27.074   2.401  14.012  0.00  0.00     0.066 H 
ATOM     34  H40 012 d   1      26.976   3.296  12.458  0.00  0.00     0.066 H 
ENDBRANCH  30  31
ENDBRANCH  22  30
ENDBRANCH  17  20
ENDBRANCH  12  17
ENDBRANCH   4   7
ENDBRANCH   1   3
BRANCH   1  35
ATOM     35  CB  012 d   1      30.775   4.059  10.990  0.00  0.00    -0.020 C 
ATOM     36  H3  012 d   1      31.533   3.291  10.776  0.00  0.00     0.043 H 
ATOM     37  H4  012 d   1      29.791   3.581  11.104  0.00  0.00     0.043 H 
BRANCH  35  38
ATOM     38  CG  012 d   1      31.135   4.758  12.288  0.00  0.00    -0.056 A 
ATOM     39  CD1 012 d   1      30.178   4.886  13.329  0.00  0.00    -0.077 A 
ATOM     40  CE1 012 d   1      30.509   5.551  14.536  0.00  0.00    -0.082 A 
ATOM     41  H5  012 d   1      29.185   4.471  13.199  0.00  0.00     0.084 H 
ATOM     42  CZ  012 d   1      31.790   6.098  14.719  0.00  0.00    -0.083 A 
ATOM     43  H7  012 d   1      29.769   5.638  15.323  0.00  0.00     0.083 H 
ATOM     44  CE2 012 d   1      32.748   5.977  13.693  0.00  0.00    -0.082 A 
ATOM     45  H9  012 d   1      32.039   6.609  15.642  0.00  0.00     0.083 H 
ATOM     46  CD2 012 d   1      32.421   5.311  12.487  0.00  0.00    -0.077 A 
ATOM     47  H8  012 d   1      33.739   6.395  13.827  0.00  0.00     0.083 H 
ATOM     48  H6  012 d   1      33.167   5.224  11.705  0.00  0.00     0.084 H 
ENDBRANCH  35  38
ENDBRANCH   1  35
BRANCH   1  49
ATOM     49  C1  012 d   1      30.298   4.365   8.491  0.00  0.00     0.078 C 
ATOM     50  H10 012 d   1      29.302   3.916   8.622  0.00  0.00     0.088 H 
BRANCH  49  51
ATOM     51  OG  012 d   1      31.234   3.352   8.192  0.00  0.00    -0.392 OA
ATOM     52  H11 012 d   1      31.250   2.718   8.899  0.00  0.00     0.210 HD
ENDBRANCH  49  51
BRANCH  49  53
ATOM     53  C2  012 d   1      30.244   5.362   7.347  0.00  0.00     0.107 C 
ATOM     54  H12 012 d   1      31.094   6.054   7.442  0.00  0.00     0.079 H 
ATOM     55  H13 012 d   1      29.302   5.926   7.415  0.00  0.00     0.079 H 
BRANCH  53  56
ATOM     56  N2  012 d   1      30.310   4.708   6.021  0.00  0.00    -0.069 N 
ATOM     57  H14 012 d   1      29.390   4.360   5.801  0.00  0.00     0.277 HD
ATOM     58  H15 012 d   1      30.954   3.936   6.088  0.00  0.00     0.277 HD
BRANCH  56  59
ATOM     59  C20 012 d   1      30.752   5.576   4.897  0.00  0.00     0.105 C 
ATOM     60  H16 012 d   1      30.098   6.459   4.849  0.00  0.00     0.083 H 
ATOM     61  H17 012 d   1      30.675   5.011   3.957  0.00  0.00     0.083 H 
BRANCH  59  62
ATOM     62  C21 012 d   1      32.179   6.031   5.080  0.00  0.00    -0.031 A 
ATOM     63  C22 012 d   1      32.488   7.387   5.374  0.00  0.00    -0.075 A 
ATOM     64  C23 012 d   1      33.831   7.788   5.559  0.00  0.00    -0.080 A 
ATOM     65  H18 012 d   1      31.691   8.117   5.457  0.00  0.00     0.084 H 
ATOM     66  C24 012 d   1      34.871   6.838   5.452  0.00  0.00    -0.057 A 
ATOM     67  H19 012 d   1      34.062   8.823   5.783  0.00  0.00     0.083 H 
ATOM     68  C25 012 d   1      34.582   5.465   5.154  0.00  0.00     0.029 A 
ATOM     69  H20 012 d   1      35.899   7.150   5.597  0.00  0.00     0.086 H 
ATOM     70  C26 012 d   1      33.227   5.089   4.973  0.00  0.00    -0.050 A 
ATOM     71  H21 012 d   1      32.989   4.056   4.747  0.00  0.00     0.087 H 
BRANCH  68  72
ATOM     72  N27 012 d   1      35.607   4.511   5.046  0.00  0.00    -0.390 N 
BRANCH  72  73
ATOM     73  C28 012 d   1      36.977   4.831   5.471  0.00  0.00    -0.019 C 
ATOM     74  H22 012 d   1      37.625   3.958   5.306  0.00  0.00     0.056 H 
ATOM     75  H23 012 d   1      36.978   5.092   6.540  0.00  0.00     0.056 H 
ATOM     76  H24 012 d   1      37.353   5.683   4.885  0.00  0.00     0.056 H 
ENDBRANCH  72  73
BRANCH  72  77
ATOM     77  C29 012 d   1      35.343   3.169   4.506  0.00  0.00    -0.019 C 
ATOM     78  H25 012 d   1      34.280   3.085   4.235  0.00  0.00     0.056 H 
ATOM     79  H26 012 d   1      35.588   2.413   5.266  0.00  0.00     0.056 H 
ATOM     80  H27 012 d   1      35.963   3.005   3.612  0.00  0.00     0.056 H 
ENDBRANCH  72  77
ENDBRANCH  68  72
ENDBRANCH  59  62
ENDBRANCH  56  59
ENDBRANCH  53  56
ENDBRANCH  49  53
ENDBRANCH   1  49
TORSDOF 17
