REMARK  10 active torsions:
REMARK  status: ('A' for Active; 'I' for Inactive)
REMARK    1  A    between atoms: C1_1  and  C2_4 
REMARK    2  A    between atoms: C4_6  and  NE_20 
REMARK    3  A    between atoms: C5_7  and  N5_8 
REMARK       I    between atoms: N5_8  and  C10_9 
REMARK    4  A    between atoms: C10_9  and  C11_11 
REMARK    5  A    between atoms: C6_12  and  C7_14 
REMARK    6  A    between atoms: C7_14  and  O7_15 
REMARK    7  A    between atoms: C7_14  and  C8_16 
REMARK    8  A    between atoms: C8_16  and  O8_17 
REMARK    9  A    between atoms: C8_16  and  C9_18 
REMARK   10  A    between atoms: C9_18  and  O9_19 
REMARK       I    between atoms: NE_20  and  CZ_21 
REMARK       I    between atoms: CZ_21  and  NH1_22 
ROOT
ATOM      1  C2  ZMR d   1     -30.251 -54.384   7.402  0.00  0.00     0.144 C 
ATOM      2  C3  ZMR d   1     -29.129 -55.060   7.751  0.00  0.00    -0.040 C 
ATOM      3  C4  ZMR d   1     -29.170 -56.127   8.840  0.00  0.00     0.068 C 
ATOM      4  C5  ZMR d   1     -30.526 -56.834   8.752  0.00  0.00     0.063 C 
ATOM      5  C6  ZMR d   1     -31.665 -55.809   8.824  0.00  0.00     0.094 C 
ATOM      6  O6  ZMR d   1     -31.572 -54.871   7.750  0.00  0.00    -0.335 OA
ATOM      7  H1  ZMR d   1     -28.189 -54.839   7.248  0.00  0.00     0.084 H 
ATOM      8  H2  ZMR d   1     -29.017 -55.663   9.826  0.00  0.00     0.083 H 
ATOM      9  H3  ZMR d   1     -30.583 -57.336   7.775  0.00  0.00     0.080 H 
ATOM     10  H8  ZMR d   1     -31.597 -55.285   9.789  0.00  0.00     0.091 H 
ENDROOT
BRANCH   5  11
ATOM     11  C7  ZMR d   1     -33.048 -56.422   8.678  0.00  0.00     0.089 C 
ATOM     12  H9  ZMR d   1     -33.178 -57.225   9.419  0.00  0.00     0.091 H 
BRANCH  11  13
ATOM     13  O7  ZMR d   1     -33.159 -56.951   7.356  0.00  0.00    -0.390 OA
ATOM     14  H10 ZMR d   1     -34.018 -57.340   7.243  0.00  0.00     0.210 HD
ENDBRANCH  11  13
BRANCH  11  15
ATOM     15  C8  ZMR d   1     -34.136 -55.358   8.877  0.00  0.00     0.083 C 
ATOM     16  H11 ZMR d   1     -34.019 -54.583   8.106  0.00  0.00     0.090 H 
BRANCH  15  17
ATOM     17  O8  ZMR d   1     -33.975 -54.761  10.173  0.00  0.00    -0.391 OA
ATOM     18  H12 ZMR d   1     -34.646 -54.101  10.302  0.00  0.00     0.210 HD
ENDBRANCH  15  17
BRANCH  15  19
ATOM     19  C9  ZMR d   1     -35.535 -55.960   8.755  0.00  0.00     0.043 C 
ATOM     20  H13 ZMR d   1     -35.594 -56.565   7.838  0.00  0.00     0.078 H 
ATOM     21  H14 ZMR d   1     -36.278 -55.150   8.708  0.00  0.00     0.078 H 
BRANCH  19  22
ATOM     22  O9  ZMR d   1     -35.807 -56.791   9.893  0.00  0.00    -0.398 OA
ATOM     23  H15 ZMR d   1     -35.757 -56.268  10.685  0.00  0.00     0.209 HD
ENDBRANCH  19  22
ENDBRANCH  15  19
ENDBRANCH  11  15
ENDBRANCH   5  11
BRANCH   4  24
ATOM     24  N5  ZMR d   1     -30.667 -57.854   9.782  0.00  0.00    -0.352 N 
ATOM     25  C10 ZMR d   1     -30.613 -59.175   9.562  0.00  0.00     0.214 C 
ATOM     26  O10 ZMR d   1     -30.521 -59.683   8.457  0.00  0.00    -0.274 OA
ATOM     27  H4  ZMR d   1     -30.815 -57.546  10.722  0.00  0.00     0.163 HD
BRANCH  25  28
ATOM     28  C11 ZMR d   1     -30.647 -60.045  10.788  0.00  0.00    -0.003 C 
ATOM     29  H5  ZMR d   1     -30.598 -61.102  10.489  0.00  0.00     0.040 H 
ATOM     30  H6  ZMR d   1     -31.581 -59.864  11.341  0.00  0.00     0.040 H 
ATOM     31  H7  ZMR d   1     -29.788 -59.806  11.431  0.00  0.00     0.040 H 
ENDBRANCH  25  28
ENDBRANCH   4  24
BRANCH   3  32
ATOM     32  NE  ZMR d   1     -28.198 -57.193   8.616  0.00  0.00    -0.217 N 
ATOM     33  CZ  ZMR d   1     -27.556 -57.876   9.472  0.00  0.00     0.665 C 
ATOM     34  NH1 ZMR d   1     -27.680 -57.679  10.782  0.00  0.00    -0.235 N 
ATOM     35  NH2 ZMR d   1     -26.729 -58.836   9.033  0.00  0.00    -0.235 N 
ATOM     36  H17 ZMR d   1     -27.140 -58.256  11.443  0.00  0.00     0.174 HD
ATOM     37  H18 ZMR d   1     -28.316 -56.950  11.135  0.00  0.00     0.174 HD
ATOM     38  H19 ZMR d   1     -26.622 -59.001   8.022  0.00  0.00     0.174 HD
ATOM     39  H20 ZMR d   1     -26.201 -59.408   9.707  0.00  0.00     0.174 HD
ATOM     40  H16 ZMR d   1     -28.007 -57.422   7.630  0.00  0.00     0.178 HD
ENDBRANCH   3  32
BRANCH   1  41
ATOM     41  C1  ZMR d   1     -30.241 -53.130   6.648  0.00  0.00     0.233 C 
ATOM     42  O1A ZMR d   1     -31.333 -52.529   6.494  0.00  0.00    -0.642 OA
ATOM     43  O1B ZMR d   1     -29.181 -52.683   6.179  0.00  0.00    -0.642 OA
ENDBRANCH   1  41
TORSDOF 10
