REMARK  10 active torsions:
REMARK  status: ('A' for Active; 'I' for Inactive)
REMARK    1  A    between atoms: C1_1  and  C2_4 
REMARK    2  A    between atoms: C4_6  and  N4_20 
REMARK    3  A    between atoms: C5_7  and  N5_8 
REMARK       I    between atoms: N5_8  and  C10_9 
REMARK    4  A    between atoms: C10_9  and  C11_11 
REMARK    5  A    between atoms: C6_12  and  O7_14 
REMARK    6  A    between atoms: O7_14  and  C8_15 
REMARK    7  A    between atoms: C8_15  and  C9_16 
REMARK    8  A    between atoms: C8_15  and  C81_17 
REMARK    9  A    between atoms: C9_16  and  C91_19 
REMARK   10  A    between atoms: C81_17  and  C82_18 
ROOT
ATOM      1  C2  G39 d   1     -30.437 -54.486   6.725  0.00  0.00     0.019 C 
ATOM      2  C3  G39 d   1     -29.159 -55.188   7.132  0.00  0.00    -0.006 C 
ATOM      3  C4  G39 d   1     -29.380 -56.162   8.294  0.00  0.00     0.126 C 
ATOM      4  C5  G39 d   1     -30.627 -57.033   8.097  0.00  0.00     0.068 C 
ATOM      5  C6  G39 d   1     -31.883 -56.178   7.937  0.00  0.00     0.077 C 
ATOM      6  C7  G39 d   1     -31.632 -55.093   6.901  0.00  0.00    -0.061 C 
ATOM      7  H1  G39 d   1     -28.421 -54.432   7.439  0.00  0.00     0.043 H 
ATOM      8  H2  G39 d   1     -28.772 -55.749   6.268  0.00  0.00     0.043 H 
ATOM      9  H3  G39 d   1     -29.513 -55.579   9.217  0.00  0.00     0.087 H 
ATOM     10  H4  G39 d   1     -30.489 -57.620   7.177  0.00  0.00     0.080 H 
ATOM     11  H9  G39 d   1     -32.117 -55.706   8.902  0.00  0.00     0.093 H 
ATOM     12  H10 G39 d   1     -32.462 -54.788   6.265  0.00  0.00     0.082 H 
ENDROOT
BRANCH   5  13
ATOM     13  O7  G39 d   1     -33.007 -56.989   7.531  0.00  0.00    -0.375 OA
BRANCH  13  14
ATOM     14  C8  G39 d   1     -34.158 -56.905   8.398  0.00  0.00     0.039 C 
ATOM     15  H11 G39 d   1     -33.812 -57.026   9.435  0.00  0.00     0.083 H 
BRANCH  14  16
ATOM     16  C9  G39 d   1     -34.879 -55.553   8.283  0.00  0.00    -0.044 C 
ATOM     17  H12 G39 d   1     -34.168 -54.755   8.542  0.00  0.00     0.036 H 
ATOM     18  H13 G39 d   1     -35.717 -55.543   8.995  0.00  0.00     0.036 H 
BRANCH  16  19
ATOM     19  C91 G39 d   1     -35.425 -55.279   6.891  0.00  0.00    -0.074 C 
ATOM     20  H19 G39 d   1     -35.926 -54.300   6.880  0.00  0.00     0.027 H 
ATOM     21  H20 G39 d   1     -36.147 -56.063   6.619  0.00  0.00     0.027 H 
ATOM     22  H21 G39 d   1     -34.597 -55.276   6.167  0.00  0.00     0.027 H 
ENDBRANCH  16  19
ENDBRANCH  14  16
BRANCH  14  23
ATOM     23  C81 G39 d   1     -35.153 -58.020   8.079  0.00  0.00    -0.044 C 
ATOM     24  H14 G39 d   1     -35.351 -58.013   6.997  0.00  0.00     0.036 H 
ATOM     25  H15 G39 d   1     -36.087 -57.821   8.624  0.00  0.00     0.036 H 
BRANCH  23  26
ATOM     26  C82 G39 d   1     -34.654 -59.395   8.467  0.00  0.00    -0.074 C 
ATOM     27  H16 G39 d   1     -35.415 -60.147   8.211  0.00  0.00     0.027 H 
ATOM     28  H17 G39 d   1     -34.461 -59.423   9.550  0.00  0.00     0.027 H 
ATOM     29  H18 G39 d   1     -33.724 -59.615   7.922  0.00  0.00     0.027 H 
ENDBRANCH  23  26
ENDBRANCH  14  23
ENDBRANCH  13  14
ENDBRANCH   5  13
BRANCH   4  30
ATOM     30  N5  G39 d   1     -30.803 -57.955   9.206  0.00  0.00    -0.352 N 
ATOM     31  C10 G39 d   1     -30.683 -59.283   9.087  0.00  0.00     0.214 C 
ATOM     32  O10 G39 d   1     -30.629 -59.863   8.010  0.00  0.00    -0.274 OA
ATOM     33  H5  G39 d   1     -31.025 -57.578  10.105  0.00  0.00     0.163 HD
BRANCH  31  34
ATOM     34  C11 G39 d   1     -30.611 -60.040  10.380  0.00  0.00    -0.003 C 
ATOM     35  H6  G39 d   1     -30.514 -61.115  10.170  0.00  0.00     0.040 H 
ATOM     36  H7  G39 d   1     -31.527 -59.861  10.961  0.00  0.00     0.040 H 
ATOM     37  H8  G39 d   1     -29.739 -59.699  10.957  0.00  0.00     0.040 H 
ENDBRANCH  31  34
ENDBRANCH   4  30
BRANCH   3  38
ATOM     38  N4  G39 d   1     -28.195 -56.994   8.430  0.00  0.00    -0.073 N 
ATOM     39  H22 G39 d   1     -27.386 -56.407   8.559  0.00  0.00     0.274 HD
ATOM     40  H23 G39 d   1     -28.078 -57.550   7.598  0.00  0.00     0.274 HD
ATOM     41  H24 G39 d   1     -28.300 -57.601   9.228  0.00  0.00     0.274 HD
ENDBRANCH   3  38
BRANCH   1  42
ATOM     42  C1  G39 d   1     -30.374 -53.143   6.122  0.00  0.00     0.205 C 
ATOM     43  O1A G39 d   1     -31.439 -52.533   5.850  0.00  0.00    -0.644 OA
ATOM     44  O1B G39 d   1     -29.257 -52.625   5.879  0.00  0.00    -0.644 OA
ENDBRANCH   1  42
TORSDOF 10
