REMARK  11 active torsions:
REMARK  status: ('A' for Active; 'I' for Inactive)
REMARK    1  A    between atoms: CAA_1  and  CB_2 
REMARK    2  A    between atoms: CB_2  and  CA_3 
REMARK    3  A    between atoms: CA_3  and  N_4 
REMARK    4  A    between atoms: CA_3  and  C_5 
REMARK       I    between atoms: C_5  and  NAX_7 
REMARK    5  A    between atoms: NAX_7  and  CBH_8 
REMARK    6  A    between atoms: CBE_12  and  CAR_13 
REMARK    7  A    between atoms: CAR_13  and  NAB_14 
REMARK    8  A    between atoms: CBI_20  and  CAZ_21 
REMARK       I    between atoms: CAZ_21  and  NAW_23 
REMARK    9  A    between atoms: NAW_23  and  CBG_24 
REMARK   10  A    between atoms: CBG_24  and  CBC_25 
REMARK   11  A    between atoms: CBG_24  and  CBB_31 
ROOT
ATOM      1  CBH X23 d   1     -22.362   9.786  47.440  0.00  0.00     0.094 C 
ATOM      2  CBA X23 d   1     -23.613   9.741  48.326  0.00  0.00     0.244 C 
ATOM      3  OAF X23 d   1     -24.296  10.758  48.465  0.00  0.00    -0.271 OA
ATOM      4  NBJ X23 d   1     -23.999   8.640  48.935  0.00  0.00    -0.332 N 
ATOM      5  CBE X23 d   1     -21.027   9.404  48.148  0.00  0.00    -0.003 C 
ATOM      6  CAS X23 d   1     -21.262   8.759  49.529  0.00  0.00    -0.056 C 
ATOM      7  CAT X23 d   1     -21.925   7.359  49.484  0.00  0.00    -0.045 C 
ATOM      8  CBF X23 d   1     -23.340   7.319  48.865  0.00  0.00     0.015 C 
ATOM      9  CAU X23 d   1     -24.257   6.392  49.660  0.00  0.00    -0.044 C 
ATOM     10  CAV X23 d   1     -25.610   7.125  49.646  0.00  0.00    -0.036 C 
ATOM     11  CBI X23 d   1     -25.222   8.605  49.741  0.00  0.00     0.092 C 
ATOM     12  H11 X23 d   1     -22.492   9.024  46.657  0.00  0.00     0.088 H 
ATOM     13  H12 X23 d   1     -20.542   8.642  47.520  0.00  0.00     0.046 H 
ATOM     14  H18 X23 d   1     -21.911   9.427  50.114  0.00  0.00     0.033 H 
ATOM     15  H19 X23 d   1     -20.289   8.661  50.032  0.00  0.00     0.033 H 
ATOM     16  H20 X23 d   1     -21.994   6.982  50.515  0.00  0.00     0.036 H 
ATOM     17  H21 X23 d   1     -21.277   6.695  48.894  0.00  0.00     0.036 H 
ATOM     18  H22 X23 d   1     -23.266   6.983  47.820  0.00  0.00     0.072 H 
ATOM     19  H23 X23 d   1     -23.890   6.264  50.689  0.00  0.00     0.036 H 
ATOM     20  H24 X23 d   1     -24.338   5.408  49.175  0.00  0.00     0.036 H 
ATOM     21  H25 X23 d   1     -26.227   6.825  50.506  0.00  0.00     0.036 H 
ATOM     22  H26 X23 d   1     -26.157   6.922  48.713  0.00  0.00     0.036 H 
ATOM     23  H27 X23 d   1     -25.988   9.261  49.302  0.00  0.00     0.087 H 
ENDROOT
BRANCH  11  24
ATOM     24  CAZ X23 d   1     -25.050   8.955  51.226  0.00  0.00     0.241 C 
ATOM     25  OAE X23 d   1     -23.964   9.112  51.773  0.00  0.00    -0.271 OA
ATOM     26  NAW X23 d   1     -26.241   9.054  51.771  0.00  0.00    -0.347 N 
ATOM     27  H28 X23 d   1     -26.979   8.972  51.101  0.00  0.00     0.163 HD
BRANCH  26  28
ATOM     28  CBG X23 d   1     -26.739   9.258  53.139  0.00  0.00     0.063 C 
ATOM     29  H29 X23 d   1     -27.645   8.649  53.005  0.00  0.00     0.088 H 
BRANCH  28  30
ATOM     30  CBC X23 d   1     -26.152   8.314  54.267  0.00  0.00    -0.031 A 
ATOM     31  CAO X23 d   1     -26.641   7.008  54.367  0.00  0.00    -0.074 A 
ATOM     32  CAK X23 d   1     -26.167   6.164  55.376  0.00  0.00    -0.082 A 
ATOM     33  H30 X23 d   1     -27.385   6.651  53.664  0.00  0.00     0.084 H 
ATOM     34  CAH X23 d   1     -25.223   6.640  56.285  0.00  0.00    -0.083 A 
ATOM     35  H31 X23 d   1     -26.531   5.146  55.451  0.00  0.00     0.083 H 
ATOM     36  CAL X23 d   1     -24.757   7.956  56.193  0.00  0.00    -0.082 A 
ATOM     37  H32 X23 d   1     -24.849   5.988  57.066  0.00  0.00     0.083 H 
ATOM     38  CAP X23 d   1     -25.226   8.802  55.187  0.00  0.00    -0.074 A 
ATOM     39  H33 X23 d   1     -24.027   8.321  56.907  0.00  0.00     0.083 H 
ATOM     40  H34 X23 d   1     -24.875   9.825  55.122  0.00  0.00     0.084 H 
ENDBRANCH  28  30
BRANCH  28  41
ATOM     41  CBB X23 d   1     -27.514  10.525  53.398  0.00  0.00    -0.031 A 
ATOM     42  CAM X23 d   1     -27.413  11.604  52.532  0.00  0.00    -0.074 A 
ATOM     43  CAI X23 d   1     -28.225  12.715  52.740  0.00  0.00    -0.082 A 
ATOM     44  H35 X23 d   1     -26.712  11.582  51.706  0.00  0.00     0.084 H 
ATOM     45  CAG X23 d   1     -29.151  12.710  53.777  0.00  0.00    -0.083 A 
ATOM     46  H36 X23 d   1     -28.136  13.582  52.095  0.00  0.00     0.083 H 
ATOM     47  CAJ X23 d   1     -29.281  11.604  54.617  0.00  0.00    -0.082 A 
ATOM     48  H37 X23 d   1     -29.781  13.578  53.935  0.00  0.00     0.083 H 
ATOM     49  CAN X23 d   1     -28.474  10.495  54.406  0.00  0.00    -0.074 A 
ATOM     50  H38 X23 d   1     -30.004  11.611  55.425  0.00  0.00     0.083 H 
ATOM     51  H39 X23 d   1     -28.590   9.611  55.022  0.00  0.00     0.084 H 
ENDBRANCH  28  41
ENDBRANCH  26  28
ENDBRANCH  11  24
BRANCH   1  52
ATOM     52  NAX X23 d   1     -22.419  11.089  46.774  0.00  0.00    -0.346 N 
ATOM     53  C   X23 d   1     -22.104  11.192  45.507  0.00  0.00     0.248 C 
ATOM     54  O   X23 d   1     -21.709  10.246  44.835  0.00  0.00    -0.271 OA
ATOM     55  H10 X23 d   1     -22.699  11.901  47.287  0.00  0.00     0.163 HD
BRANCH  53  56
ATOM     56  CA  X23 d   1     -22.281  12.583  44.938  0.00  0.00     0.175 C 
ATOM     57  H6  X23 d   1     -22.053  13.350  45.693  0.00  0.00     0.099 H 
BRANCH  56  58
ATOM     58  CB  X23 d   1     -23.747  12.638  44.524  0.00  0.00    -0.034 C 
ATOM     59  H4  X23 d   1     -23.883  12.033  43.616  0.00  0.00     0.036 H 
ATOM     60  H5  X23 d   1     -24.362  12.223  45.336  0.00  0.00     0.036 H 
BRANCH  58  61
ATOM     61  CAA X23 d   1     -24.201  14.054  44.241  0.00  0.00    -0.074 C 
ATOM     62  H1  X23 d   1     -25.261  14.047  43.947  0.00  0.00     0.027 H 
ATOM     63  H2  X23 d   1     -23.597  14.477  43.425  0.00  0.00     0.027 H 
ATOM     64  H3  X23 d   1     -24.076  14.667  45.146  0.00  0.00     0.027 H 
ENDBRANCH  58  61
ENDBRANCH  56  58
BRANCH  56  65
ATOM     65  N   X23 d   1     -21.423  12.767  43.765  0.00  0.00    -0.067 N 
ATOM     66  H7  X23 d   1     -20.456  12.729  44.047  0.00  0.00     0.275 HD
ATOM     67  H8  X23 d   1     -21.616  13.663  43.345  0.00  0.00     0.275 HD
ATOM     68  H9  X23 d   1     -21.607  12.036  43.096  0.00  0.00     0.275 HD
ENDBRANCH  56  65
ENDBRANCH  53  56
ENDBRANCH   1  52
BRANCH   5  69
ATOM     69  CAR X23 d   1     -20.059  10.594  48.230  0.00  0.00     0.085 C 
ATOM     70  H13 X23 d   1     -20.620  11.492  48.528  0.00  0.00     0.075 H 
ATOM     71  H14 X23 d   1     -19.607  10.756  47.240  0.00  0.00     0.075 H 
BRANCH  69  72
ATOM     72  NAB X23 d   1     -18.993  10.352  49.208  0.00  0.00    -0.079 N 
ATOM     73  H15 X23 d   1     -18.377  11.149  49.237  0.00  0.00     0.274 HD
ATOM     74  H16 X23 d   1     -18.470   9.533  48.940  0.00  0.00     0.274 HD
ATOM     75  H17 X23 d   1     -19.399  10.207  50.119  0.00  0.00     0.274 HD
ENDBRANCH  69  72
ENDBRANCH   5  69
TORSDOF 11
