REMARK  14 active torsions:
REMARK  status: ('A' for Active; 'I' for Inactive)
REMARK    1  A    between atoms: C6_3  and  N6_31 
REMARK    2  A    between atoms: CBB_8  and  CAA_7 
REMARK    3  A    between atoms: CBB_8  and  CAB_9 
REMARK    4  A    between atoms: CBB_8  and  CAC_10 
REMARK    5  A    between atoms: CAX_11  and  CBB_8 
REMARK    6  A    between atoms: CAX_11  and  OAH_12 
REMARK    7  A    between atoms: CAT_13  and  CAX_11 
REMARK       I    between atoms: NAQ_15  and  CAT_13 
REMARK    8  A    between atoms: SBE_16  and  NAQ_15 
REMARK    9  A    between atoms: O5'_19  and  SBE_16 
REMARK   10  A    between atoms: C5'_20  and  O5'_19 
REMARK   11  A    between atoms: C4'_21  and  C5'_20 
REMARK   12  A    between atoms: C3'_23  and  O3'_24 
REMARK   13  A    between atoms: C2'_25  and  O2'_26 
REMARK   14  A    between atoms: C1'_27  and  N9_28 
ROOT
ATOM      1  C5' 52H d   1      13.724  11.129   2.986  0.00  0.00     0.066 C 
ATOM      2  H14 52H d   1      13.459  12.182   2.813  0.00  0.00     0.080 H 
ATOM      3  H15 52H d   1      13.519  10.867   4.035  0.00  0.00     0.080 H 
ENDROOT
BRANCH   1   4
ATOM      4  O5' 52H d   1      15.156  10.945   2.717  0.00  0.00    -0.257 OA
BRANCH   4   5
ATOM      5  SBE 52H d   1      16.061  11.531   3.695  0.00  0.00     0.364 S 
ATOM      6  OAF 52H d   1      17.399  11.260   3.130  0.00  0.00    -0.175 OA
ATOM      7  OAG 52H d   1      15.720  12.956   3.795  0.00  0.00    -0.175 OA
BRANCH   5   8
ATOM      8  NAQ 52H d   1      15.921  10.867   5.177  0.00  0.00    -0.229 N 
ATOM      9  CAT 52H d   1      15.911   9.569   5.399  0.00  0.00     0.262 C 
ATOM     10  OAE 52H d   1      15.982   8.699   4.524  0.00  0.00    -0.270 OA
ATOM     11  H13 52H d   1      15.838  11.480   5.963  0.00  0.00     0.183 HD
BRANCH   9  12
ATOM     12  CAX 52H d   1      15.919   9.199   6.908  0.00  0.00     0.119 C 
ATOM     13  H11 52H d   1      16.485   9.986   7.428  0.00  0.00     0.099 H 
BRANCH  12  14
ATOM     14  CBB 52H d   1      14.542   9.116   7.630  0.00  0.00    -0.017 C 
BRANCH  14  15
ATOM     15  CAA 52H d   1      14.724   8.730   9.104  0.00  0.00    -0.067 C 
ATOM     16  H2  52H d   1      13.740   8.677   9.593  0.00  0.00     0.028 H 
ATOM     17  H3  52H d   1      15.344   9.487   9.607  0.00  0.00     0.028 H 
ATOM     18  H4  52H d   1      15.218   7.749   9.168  0.00  0.00     0.028 H 
ENDBRANCH  14  15
BRANCH  14  19
ATOM     19  CAB 52H d   1      13.797  10.447   7.604  0.00  0.00    -0.067 C 
ATOM     20  H5  52H d   1      13.645  10.762   6.561  0.00  0.00     0.028 H 
ATOM     21  H6  52H d   1      14.388  11.208   8.134  0.00  0.00     0.028 H 
ATOM     22  H7  52H d   1      12.821  10.331   8.098  0.00  0.00     0.028 H 
ENDBRANCH  14  19
BRANCH  14  23
ATOM     23  CAC 52H d   1      13.760   8.012   6.982  0.00  0.00    -0.067 C 
ATOM     24  H8  52H d   1      14.339   7.078   7.027  0.00  0.00     0.028 H 
ATOM     25  H9  52H d   1      13.562   8.271   5.931  0.00  0.00     0.028 H 
ATOM     26  H10 52H d   1      12.806   7.878   7.513  0.00  0.00     0.028 H 
ENDBRANCH  14  23
ENDBRANCH  12  14
BRANCH  12  27
ATOM     27  OAH 52H d   1      16.672   7.946   7.022  0.00  0.00    -0.385 OA
ATOM     28  H12 52H d   1      16.172   7.240   6.630  0.00  0.00     0.210 HD
ENDBRANCH  12  27
ENDBRANCH   9  12
ENDBRANCH   5   8
ENDBRANCH   4   5
ENDBRANCH   1   4
BRANCH   1  29
ATOM     29  C4' 52H d   1      12.859  10.231   2.062  0.00  0.00     0.090 C 
ATOM     30  O4' 52H d   1      13.050  10.716   0.708  0.00  0.00    -0.353 OA
ATOM     31  C1' 52H d   1      13.377   9.602  -0.146  0.00  0.00     0.139 C 
ATOM     32  C2' 52H d   1      14.167   8.682   0.782  0.00  0.00     0.105 C 
ATOM     33  H21 52H d   1      12.462   9.111  -0.510  0.00  0.00     0.122 H 
ATOM     34  C3' 52H d   1      13.357   8.788   2.083  0.00  0.00     0.091 C 
ATOM     35  H19 52H d   1      15.193   9.047   0.938  0.00  0.00     0.093 H 
ATOM     36  H17 52H d   1      13.982   8.580   2.964  0.00  0.00     0.091 H 
ATOM     37  H16 52H d   1      11.801  10.278   2.359  0.00  0.00     0.090 H 
BRANCH  31  38
ATOM     38  N9  52H d   1      14.220   9.995  -1.310  0.00  0.00    -0.294 N 
ATOM     39  C4  52H d   1      13.899   9.771  -2.581  0.00  0.00     0.167 A 
ATOM     40  C5  52H d   1      14.944  10.278  -3.370  0.00  0.00     0.149 A 
ATOM     41  N3  52H d   1      12.802   9.204  -3.143  0.00  0.00    -0.222 NA
ATOM     42  C6  52H d   1      14.826  10.148  -4.755  0.00  0.00     0.155 A 
ATOM     43  N7  52H d   1      15.883  10.793  -2.555  0.00  0.00    -0.236 NA
ATOM     44  N1  52H d   1      13.695   9.598  -5.245  0.00  0.00    -0.222 NA
ATOM     45  C2  52H d   1      12.729   9.112  -4.472  0.00  0.00     0.091 A 
ATOM     46  H22 52H d   1      11.870   8.634  -4.928  0.00  0.00     0.146 H 
ATOM     47  C8  52H d   1      15.434  10.606  -1.294  0.00  0.00     0.071 A 
ATOM     48  H1  52H d   1      15.969  10.903  -0.393  0.00  0.00     0.144 H 
BRANCH  42  49
ATOM     49  N6  52H d   1      15.796  10.609  -5.571  0.00  0.00    -0.382 N 
ATOM     50  H23 52H d   1      15.701  10.509  -6.592  0.00  0.00     0.157 HD
ATOM     51  H24 52H d   1      16.632  11.061  -5.173  0.00  0.00     0.157 HD
ENDBRANCH  42  49
ENDBRANCH  31  38
BRANCH  32  52
ATOM     52  O2' 52H d   1      14.224   7.352   0.201  0.00  0.00    -0.388 OA
ATOM     53  H20 52H d   1      14.624   6.754   0.821  0.00  0.00     0.210 HD
ENDBRANCH  32  52
BRANCH  34  54
ATOM     54  O3' 52H d   1      12.235   7.923   2.059  0.00  0.00    -0.390 OA
ATOM     55  H18 52H d   1      11.692   8.090   2.820  0.00  0.00     0.210 HD
ENDBRANCH  34  54
ENDBRANCH   1  29
TORSDOF 14
