REMARK  14 active torsions:
REMARK  status: ('A' for Active; 'I' for Inactive)
REMARK    1  A    between atoms: C1_1  and  C3_3 
REMARK       I    between atoms: N2_9  and  C1_1 
REMARK    2  A    between atoms: C3_3  and  C7_7 
REMARK    3  A    between atoms: C3_3  and  N4_17 
REMARK    4  A    between atoms: C6_6  and  N6_31 
REMARK    5  A    between atoms: C7_7  and  C9_14 
REMARK    6  A    between atoms: C7_7  and  C10_15 
REMARK    7  A    between atoms: C7_7  and  C11_16 
REMARK    8  A    between atoms: S1_18  and  N2_9 
REMARK    9  A    between atoms: C22_26  and  O2_12 
REMARK   10  A    between atoms: O5_21  and  S1_18 
REMARK   11  A    between atoms: C25_22  and  O5_21 
REMARK   12  A    between atoms: C24_23  and  C25_22 
REMARK   13  A    between atoms: C23_24  and  O3_25 
REMARK   14  A    between atoms: C21_27  and  N9_29 
ROOT
ATOM      1  C25 53H d   1      13.662  11.308   2.687  0.00  0.00     0.066 C 
ATOM      2  H18 53H d   1      13.357  12.350   2.512  0.00  0.00     0.080 H 
ATOM      3  H19 53H d   1      13.430  11.028   3.725  0.00  0.00     0.080 H 
ENDROOT
BRANCH   1   4
ATOM      4  O5  53H d   1      15.066  11.155   2.435  0.00  0.00    -0.257 OA
BRANCH   4   5
ATOM      5  S1  53H d   1      16.119  11.777   3.516  0.00  0.00     0.364 S 
ATOM      6  O1A 53H d   1      17.397  11.510   2.935  0.00  0.00    -0.175 OA
ATOM      7  O2A 53H d   1      15.810  13.183   3.589  0.00  0.00    -0.175 OA
BRANCH   5   8
ATOM      8  N2  53H d   1      16.041  11.120   4.910  0.00  0.00    -0.230 N 
ATOM      9  C1  53H d   1      15.978   9.785   5.169  0.00  0.00     0.264 C 
ATOM     10  O1  53H d   1      15.981   8.922   4.291  0.00  0.00    -0.270 OA
ATOM     11  H3  53H d   1      16.036  11.734   5.699  0.00  0.00     0.183 HD
BRANCH   9  12
ATOM     12  C3  53H d   1      15.978   9.360   6.623  0.00  0.00     0.183 C 
ATOM     13  H2  53H d   1      16.547  10.141   7.150  0.00  0.00     0.100 H 
BRANCH  12  14
ATOM     14  C7  53H d   1      14.611   9.301   7.327  0.00  0.00    -0.014 C 
BRANCH  14  15
ATOM     15  C9  53H d   1      13.675   8.335   6.649  0.00  0.00    -0.067 C 
ATOM     16  H6  53H d   1      12.712   8.322   7.181  0.00  0.00     0.028 H 
ATOM     17  H7  53H d   1      14.115   7.327   6.663  0.00  0.00     0.028 H 
ATOM     18  H8  53H d   1      13.514   8.650   5.607  0.00  0.00     0.028 H 
ENDBRANCH  14  15
BRANCH  14  19
ATOM     19  C10 53H d   1      14.815   8.799   8.746  0.00  0.00    -0.067 C 
ATOM     20  H9  53H d   1      15.495   9.478   9.281  0.00  0.00     0.028 H 
ATOM     21  H10 53H d   1      15.251   7.790   8.719  0.00  0.00     0.028 H 
ATOM     22  H11 53H d   1      13.846   8.766   9.266  0.00  0.00     0.028 H 
ENDBRANCH  14  19
BRANCH  14  23
ATOM     23  C11 53H d   1      13.918  10.662   7.431  0.00  0.00    -0.067 C 
ATOM     24  H12 53H d   1      13.749  11.066   6.422  0.00  0.00     0.028 H 
ATOM     25  H13 53H d   1      14.554  11.355   8.001  0.00  0.00     0.028 H 
ATOM     26  H14 53H d   1      12.953  10.544   7.945  0.00  0.00     0.028 H 
ENDBRANCH  14  23
ENDBRANCH  12  14
BRANCH  12  27
ATOM     27  N4  53H d   1      16.739   8.047   6.843  0.00  0.00    -0.066 N 
ATOM     28  H15 53H d   1      17.633   8.095   6.379  0.00  0.00     0.275 HD
ATOM     29  H16 53H d   1      16.204   7.281   6.464  0.00  0.00     0.275 HD
ATOM     30  H17 53H d   1      16.881   7.902   7.830  0.00  0.00     0.275 HD
ENDBRANCH  12  27
ENDBRANCH   9  12
ENDBRANCH   5   8
ENDBRANCH   4   5
ENDBRANCH   1   4
BRANCH   1  31
ATOM     31  C24 53H d   1      12.945  10.386   1.726  0.00  0.00     0.090 C 
ATOM     32  C23 53H d   1      13.511   8.974   1.797  0.00  0.00     0.091 C 
ATOM     33  C22 53H d   1      14.285   8.821   0.498  0.00  0.00     0.105 C 
ATOM     34  H21 53H d   1      14.159   8.839   2.676  0.00  0.00     0.091 H 
ATOM     35  C21 53H d   1      13.516   9.763  -0.427  0.00  0.00     0.139 C 
ATOM     36  H23 53H d   1      15.318   9.176   0.631  0.00  0.00     0.093 H 
ATOM     37  O4  53H d   1      13.186  10.871   0.392  0.00  0.00    -0.353 OA
ATOM     38  H24 53H d   1      12.602   9.279  -0.801  0.00  0.00     0.122 H 
ATOM     39  H20 53H d   1      11.868  10.374   1.949  0.00  0.00     0.090 H 
BRANCH  32  40
ATOM     40  O3  53H d   1      12.446   8.041   1.813  0.00  0.00    -0.390 OA
ATOM     41  H22 53H d   1      11.897   8.202   2.571  0.00  0.00     0.210 HD
ENDBRANCH  32  40
BRANCH  33  42
ATOM     42  O2  53H d   1      14.344   7.473   0.001  0.00  0.00    -0.388 OA
ATOM     43  H5  53H d   1      14.767   6.918   0.645  0.00  0.00     0.210 HD
ENDBRANCH  33  42
BRANCH  35  44
ATOM     44  N9  53H d   1      14.364  10.159  -1.578  0.00  0.00    -0.294 N 
ATOM     45  C4  53H d   1      14.043   9.919  -2.851  0.00  0.00     0.167 A 
ATOM     46  C5  53H d   1      15.084  10.428  -3.630  0.00  0.00     0.149 A 
ATOM     47  N3  53H d   1      12.963   9.295  -3.420  0.00  0.00    -0.222 NA
ATOM     48  C6  53H d   1      14.995  10.282  -5.002  0.00  0.00     0.155 A 
ATOM     49  N7  53H d   1      16.007  10.983  -2.804  0.00  0.00    -0.236 NA
ATOM     50  N1  53H d   1      13.895   9.654  -5.520  0.00  0.00    -0.222 NA
ATOM     51  C2  53H d   1      12.904   9.174  -4.750  0.00  0.00     0.091 A 
ATOM     52  H1  53H d   1      12.052   8.686  -5.210  0.00  0.00     0.146 H 
ATOM     53  C8  53H d   1      15.552  10.808  -1.532  0.00  0.00     0.071 A 
ATOM     54  H4  53H d   1      16.060  11.136  -0.626  0.00  0.00     0.144 H 
BRANCH  48  55
ATOM     55  N6  53H d   1      15.996  10.738  -5.804  0.00  0.00    -0.382 N 
ATOM     56  H25 53H d   1      15.928  10.628  -6.826  0.00  0.00     0.157 HD
ATOM     57  H26 53H d   1      16.822  11.193  -5.389  0.00  0.00     0.157 HD
ENDBRANCH  48  55
ENDBRANCH  35  44
ENDBRANCH   1  31
TORSDOF 14
