REMARK  13 active torsions:
REMARK  status: ('A' for Active; 'I' for Inactive)
REMARK    1  A    between atoms: C6_3  and  N6_30 
REMARK    2  A    between atoms: CB_8  and  CG2_7 
REMARK    3  A    between atoms: CB_8  and  CG1_9 
REMARK    4  A    between atoms: CA_10  and  CB_8 
REMARK    5  A    between atoms: CA_10  and  N_11 
REMARK    6  A    between atoms: C_12  and  CA_10 
REMARK       I    between atoms: NAP_14  and  C_12 
REMARK    7  A    between atoms: SBD_15  and  NAP_14 
REMARK    8  A    between atoms: O5'_18  and  SBD_15 
REMARK    9  A    between atoms: C5'_19  and  O5'_18 
REMARK   10  A    between atoms: C4'_20  and  C5'_19 
REMARK   11  A    between atoms: C3'_22  and  O3'_23 
REMARK   12  A    between atoms: C2'_24  and  O2'_25 
REMARK   13  A    between atoms: C1'_26  and  N9_27 
ROOT
ATOM      1  C4' 54H d   1      13.039  10.393   1.811  0.00  0.00     0.090 C 
ATOM      2  O4' 54H d   1      13.296  10.881   0.453  0.00  0.00    -0.353 OA
ATOM      3  C3' 54H d   1      13.598   8.969   1.886  0.00  0.00     0.091 C 
ATOM      4  C2' 54H d   1      14.449   8.864   0.624  0.00  0.00     0.105 C 
ATOM      5  C1' 54H d   1      13.649   9.755  -0.333  0.00  0.00     0.139 C 
ATOM      6  H16 54H d   1      11.961  10.403   2.030  0.00  0.00     0.090 H 
ATOM      7  H17 54H d   1      14.187   8.788   2.797  0.00  0.00     0.091 H 
ATOM      8  H19 54H d   1      15.459   9.265   0.796  0.00  0.00     0.093 H 
ATOM      9  H21 54H d   1      12.751   9.233  -0.695  0.00  0.00     0.122 H 
ENDROOT
BRANCH   1  10
ATOM     10  C5' 54H d   1      13.786  11.253   2.806  0.00  0.00     0.066 C 
ATOM     11  H14 54H d   1      13.466  12.299   2.692  0.00  0.00     0.080 H 
ATOM     12  H15 54H d   1      13.558  10.909   3.825  0.00  0.00     0.080 H 
BRANCH  10  13
ATOM     13  O5' 54H d   1      15.216  11.164   2.581  0.00  0.00    -0.257 OA
BRANCH  13  14
ATOM     14  SBD 54H d   1      16.137  11.692   3.567  0.00  0.00     0.364 S 
ATOM     15  OAF 54H d   1      17.495  11.347   3.061  0.00  0.00    -0.175 OA
ATOM     16  OAG 54H d   1      15.889  13.183   3.673  0.00  0.00    -0.175 OA
BRANCH  14  17
ATOM     17  NAP 54H d   1      15.972  10.984   5.040  0.00  0.00    -0.230 N 
ATOM     18  C   54H d   1      16.004   9.655   5.225  0.00  0.00     0.263 C 
ATOM     19  O   54H d   1      16.160   8.836   4.315  0.00  0.00    -0.270 OA
ATOM     20  H13 54H d   1      15.841  11.572   5.838  0.00  0.00     0.183 HD
BRANCH  18  21
ATOM     21  CA  54H d   1      15.894   9.184   6.710  0.00  0.00     0.179 C 
ATOM     22  H9  54H d   1      16.319   9.992   7.324  0.00  0.00     0.099 H 
BRANCH  21  23
ATOM     23  CB  54H d   1      14.450   8.968   7.217  0.00  0.00    -0.025 C 
ATOM     24  H5  54H d   1      14.494   8.252   8.051  0.00  0.00     0.042 H 
BRANCH  23  25
ATOM     25  CG2 54H d   1      13.548   8.375   6.145  0.00  0.00    -0.071 C 
ATOM     26  H2  54H d   1      12.535   8.240   6.552  0.00  0.00     0.028 H 
ATOM     27  H3  54H d   1      13.948   7.401   5.827  0.00  0.00     0.028 H 
ATOM     28  H4  54H d   1      13.509   9.055   5.281  0.00  0.00     0.028 H 
ENDBRANCH  23  25
BRANCH  23  29
ATOM     29  CG1 54H d   1      13.854  10.273   7.746  0.00  0.00    -0.071 C 
ATOM     30  H6  54H d   1      14.515  10.691   8.520  0.00  0.00     0.028 H 
ATOM     31  H7  54H d   1      12.863  10.074   8.179  0.00  0.00     0.028 H 
ATOM     32  H8  54H d   1      13.756  10.993   6.920  0.00  0.00     0.028 H 
ENDBRANCH  23  29
ENDBRANCH  21  23
BRANCH  21  33
ATOM     33  N   54H d   1      16.732   7.969   6.939  0.00  0.00    -0.066 N 
ATOM     34  H10 54H d   1      17.666   8.137   6.600  0.00  0.00     0.275 HD
ATOM     35  H11 54H d   1      16.331   7.186   6.446  0.00  0.00     0.275 HD
ATOM     36  H12 54H d   1      16.764   7.764   7.925  0.00  0.00     0.275 HD
ENDBRANCH  21  33
ENDBRANCH  18  21
ENDBRANCH  14  17
ENDBRANCH  13  14
ENDBRANCH  10  13
ENDBRANCH   1  10
BRANCH   3  37
ATOM     37  O3' 54H d   1      12.501   8.107   1.810  0.00  0.00    -0.390 OA
ATOM     38  H18 54H d   1      11.913   8.280   2.536  0.00  0.00     0.210 HD
ENDBRANCH   3  37
BRANCH   5  39
ATOM     39  N9  54H d   1      14.492  10.166  -1.498  0.00  0.00    -0.294 N 
ATOM     40  C4  54H d   1      14.144   9.947  -2.761  0.00  0.00     0.167 A 
ATOM     41  C5  54H d   1      15.159  10.464  -3.572  0.00  0.00     0.149 A 
ATOM     42  N3  54H d   1      13.054   9.365  -3.304  0.00  0.00    -0.222 NA
ATOM     43  C6  54H d   1      15.016  10.325  -4.947  0.00  0.00     0.155 A 
ATOM     44  N7  54H d   1      16.100  10.970  -2.765  0.00  0.00    -0.236 NA
ATOM     45  N1  54H d   1      13.895   9.724  -5.430  0.00  0.00    -0.222 NA
ATOM     46  C2  54H d   1      12.940   9.263  -4.628  0.00  0.00     0.091 A 
ATOM     47  H22 54H d   1      12.059   8.799  -5.056  0.00  0.00     0.146 H 
ATOM     48  C8  54H d   1      15.688  10.793  -1.494  0.00  0.00     0.071 A 
ATOM     49  H1  54H d   1      16.233  11.106  -0.605  0.00  0.00     0.144 H 
BRANCH  43  50
ATOM     50  N6  54H d   1      15.957  10.762  -5.782  0.00  0.00    -0.382 N 
ATOM     51  H23 54H d   1      15.835  10.651  -6.799  0.00  0.00     0.157 HD
ATOM     52  H24 54H d   1      16.807  11.211  -5.411  0.00  0.00     0.157 HD
ENDBRANCH  43  50
ENDBRANCH   5  39
BRANCH   4  53
ATOM     53  O2' 54H d   1      14.561   7.513   0.116  0.00  0.00    -0.388 OA
ATOM     54  H20 54H d   1      15.100   7.514  -0.666  0.00  0.00     0.210 HD
ENDBRANCH   4  53
TORSDOF 13
