REMARK  8 active torsions:
REMARK  status: ('A' for Active; 'I' for Inactive)
REMARK    1  A    between atoms: C16_4  and  C17_3 
REMARK    2  A    between atoms: C17_3  and  C23_10 
REMARK    3  A    between atoms: O1_32  and  C15_5 
REMARK    4  A    between atoms: C23_10  and  N2_34 
REMARK    5  A    between atoms: C10_27  and  C11_11 
REMARK    6  A    between atoms: C1_14  and  O1_32 
REMARK    7  A    between atoms: N1_20  and  C4_17 
REMARK    8  A    between atoms: N5_22  and  C7_23 
ROOT
ATOM      1  C18 LG0 d   1       7.178  39.426  59.571  0.00  0.00    -0.074 A 
ATOM      2  C16 LG0 d   1       7.834  39.965  58.392  0.00  0.00    -0.048 A 
ATOM      3  C22 LG0 d   1       6.615  40.354  60.507  0.00  0.00    -0.056 A 
ATOM      4  C7  LG0 d   1       6.734  41.789  60.237  0.00  0.00     0.037 A 
ATOM      5  C44 LG0 d   1       7.394  42.336  59.043  0.00  0.00    -0.056 A 
ATOM      6  C14 LG0 d   1       7.972  41.391  58.100  0.00  0.00    -0.074 A 
ATOM      7  H1  LG0 d   1       7.116  38.357  59.737  0.00  0.00     0.084 H 
ATOM      8  H11 LG0 d   1       6.110  40.000  61.399  0.00  0.00     0.086 H 
ATOM      9  H20 LG0 d   1       7.448  43.405  58.871  0.00  0.00     0.086 H 
ATOM     10  H21 LG0 d   1       8.488  41.733  57.210  0.00  0.00     0.084 H 
ENDROOT
BRANCH   4  11
ATOM     11  N5  LG0 d   1       6.235  42.643  61.202  0.00  0.00    -0.312 N 
ATOM     12  C20 LG0 d   1       4.790  42.574  61.553  0.00  0.00     0.007 C 
ATOM     13  C19 LG0 d   1       4.211  43.935  61.920  0.00  0.00    -0.021 C 
ATOM     14  H7  LG0 d   1       4.236  42.177  60.690  0.00  0.00     0.065 H 
ATOM     15  H8  LG0 d   1       4.668  41.896  62.411  0.00  0.00     0.065 H 
ATOM     16  C12 LG0 d   1       5.118  44.531  62.953  0.00  0.00     0.013 A 
ATOM     17  H5  LG0 d   1       3.197  43.816  62.330  0.00  0.00     0.042 H 
ATOM     18  H6  LG0 d   1       4.174  44.582  61.031  0.00  0.00     0.042 H 
ATOM     19  C13 LG0 d   1       6.492  44.295  62.900  0.00  0.00     0.135 A 
ATOM     20  C10 LG0 d   1       4.843  45.366  64.048  0.00  0.00     0.169 A 
ATOM     21  N1  LG0 d   1       7.035  44.982  63.955  0.00  0.00    -0.227 N 
ATOM     22  C8  LG0 d   1       7.084  43.452  61.943  0.00  0.00     0.277 C 
ATOM     23  N6  LG0 d   1       6.017  45.614  64.626  0.00  0.00    -0.162 NA
ATOM     24  O3  LG0 d   1       8.304  43.446  61.802  0.00  0.00    -0.265 OA
BRANCH  21  25
ATOM     25  C4  LG0 d   1       8.347  45.020  64.412  0.00  0.00     0.059 A 
ATOM     26  C3  LG0 d   1       9.293  46.016  63.893  0.00  0.00    -0.052 A 
ATOM     27  C2  LG0 d   1      10.674  45.954  64.348  0.00  0.00    -0.049 A 
ATOM     28  H17 LG0 d   1       8.972  46.776  63.190  0.00  0.00     0.087 H 
ATOM     29  C1  LG0 d   1      11.082  44.915  65.308  0.00  0.00     0.068 A 
ATOM     30  H16 LG0 d   1      11.400  46.671  63.981  0.00  0.00     0.087 H 
ATOM     31  C6  LG0 d   1      10.111  43.959  65.876  0.00  0.00    -0.049 A 
ATOM     32  C5  LG0 d   1       8.730  44.019  65.422  0.00  0.00    -0.052 A 
ATOM     33  H19 LG0 d   1      10.420  43.228  66.615  0.00  0.00     0.087 H 
ATOM     34  H18 LG0 d   1       7.991  43.334  65.823  0.00  0.00     0.087 H 
BRANCH  29  35
ATOM     35  O1  LG0 d   1      12.440  44.931  65.623  0.00  0.00    -0.356 OA
BRANCH  35  36
ATOM     36  C15 LG0 d   1      13.002  44.088  66.619  0.00  0.00     0.010 C 
ATOM     37  H2  LG0 d   1      14.083  44.276  66.691  0.00  0.00     0.066 H 
ATOM     38  H3  LG0 d   1      12.830  43.036  66.348  0.00  0.00     0.066 H 
ATOM     39  H4  LG0 d   1      12.528  44.299  67.589  0.00  0.00     0.066 H 
ENDBRANCH  35  36
ENDBRANCH  29  35
ENDBRANCH  21  25
BRANCH  20  40
ATOM     40  C11 LG0 d   1       3.468  45.887  64.467  0.00  0.00     0.436 C 
ATOM     41  F1  LG0 d   1       3.599  46.926  65.318  0.00  0.00    -0.164 F 
ATOM     42  F2  LG0 d   1       2.814  46.282  63.386  0.00  0.00    -0.164 F 
ATOM     43  F3  LG0 d   1       2.848  44.880  65.079  0.00  0.00    -0.164 F 
ENDBRANCH  20  40
ENDBRANCH   4  11
BRANCH   2  44
ATOM     44  C17 LG0 d   1       8.369  38.947  57.415  0.00  0.00     0.011 A 
ATOM     45  C21 LG0 d   1       9.764  39.012  56.802  0.00  0.00    -0.051 A 
ATOM     46  C9  LG0 d   1       9.496  38.009  57.879  0.00  0.00    -0.051 A 
ATOM     47  H9  LG0 d   1      10.412  39.876  57.009  0.00  0.00     0.034 H 
ATOM     48  H10 LG0 d   1       9.923  38.674  55.767  0.00  0.00     0.034 H 
ATOM     49  H22 LG0 d   1       9.455  36.938  57.633  0.00  0.00     0.034 H 
ATOM     50  H23 LG0 d   1       9.944  38.140  58.875  0.00  0.00     0.034 H 
BRANCH  44  51
ATOM     51  C23 LG0 d   1       7.508  38.097  56.517  0.00  0.00     0.094 C 
ATOM     52  H12 LG0 d   1       7.122  37.241  57.090  0.00  0.00     0.077 H 
ATOM     53  H13 LG0 d   1       8.114  37.732  55.674  0.00  0.00     0.077 H 
BRANCH  51  54
ATOM     54  N2  LG0 d   1       6.377  38.880  55.997  0.00  0.00    -0.070 N 
ATOM     55  C27 LG0 d   1       6.672  39.555  54.715  0.00  0.00     0.084 C 
ATOM     56  C30 LG0 d   1       5.341  39.512  53.982  0.00  0.00    -0.041 C 
ATOM     57  H14 LG0 d   1       7.448  39.014  54.154  0.00  0.00     0.076 H 
ATOM     58  H15 LG0 d   1       6.997  40.593  54.882  0.00  0.00     0.076 H 
ATOM     59  C29 LG0 d   1       5.026  38.048  54.225  0.00  0.00    -0.041 C 
ATOM     60  H29 LG0 d   1       5.445  39.746  52.912  0.00  0.00     0.035 H 
ATOM     61  H30 LG0 d   1       4.593  40.181  54.433  0.00  0.00     0.035 H 
ATOM     62  C25 LG0 d   1       5.169  38.044  55.736  0.00  0.00     0.084 C 
ATOM     63  H27 LG0 d   1       4.008  37.783  53.903  0.00  0.00     0.035 H 
ATOM     64  H28 LG0 d   1       5.751  37.380  53.737  0.00  0.00     0.035 H 
ATOM     65  H25 LG0 d   1       4.281  38.484  56.212  0.00  0.00     0.076 H 
ATOM     66  H26 LG0 d   1       5.316  37.020  56.110  0.00  0.00     0.076 H 
ATOM     67  H24 LG0 d   1       6.150  39.578  56.688  0.00  0.00     0.279 HD
ENDBRANCH  51  54
ENDBRANCH  44  51
ENDBRANCH   2  44
TORSDOF 8
