REMARK  6 active torsions:
REMARK  status: ('A' for Active; 'I' for Inactive)
REMARK    1  A    between atoms: O7_1  and  C7_2 
REMARK    2  A    between atoms: C1_4  and  O1_5 
REMARK    3  A    between atoms: C2_6  and  O2_7 
REMARK    4  A    between atoms: C3_8  and  C8_9 
REMARK    5  A    between atoms: C8_9  and  O8_10 
REMARK    6  A    between atoms: C6_13  and  OXT_14 
ROOT
ATOM      1  C7  3CU d   1       0.837 -16.391  22.191  0.00  0.00     0.092 C 
ATOM      2  C7A 3CU d   1       0.985 -15.255  21.171  0.00  0.00     0.158 C 
ATOM      3  C1  3CU d   1      -0.113 -15.292  20.086  0.00  0.00     0.092 C 
ATOM      4  C2  3CU d   1       0.705 -14.742  18.914  0.00  0.00     0.092 C 
ATOM      5  C3  3CU d   1       1.867 -15.700  18.998  0.00  0.00     0.151 C 
ATOM      6  N4  3CU d   1       2.248 -15.556  20.421  0.00  0.00    -0.051 N 
ATOM      7  C5  3CU d   1       2.858 -16.806  20.959  0.00  0.00     0.111 C 
ATOM      8  C6  3CU d   1       1.795 -17.516  21.744  0.00  0.00     0.085 C 
ATOM      9  H2  3CU d   1      -0.198 -16.762  22.218  0.00  0.00     0.090 H 
ATOM     10  H3  3CU d   1       1.014 -14.277  21.674  0.00  0.00     0.093 H 
ATOM     11  H4  3CU d   1      -0.462 -16.319  19.900  0.00  0.00     0.090 H 
ATOM     12  H6  3CU d   1       0.991 -13.688  19.045  0.00  0.00     0.090 H 
ATOM     13  H8  3CU d   1       1.562 -16.727  18.749  0.00  0.00     0.092 H 
ATOM     14  H12 3CU d   1       2.904 -14.797  20.523  0.00  0.00     0.281 HD
ATOM     15  H13 3CU d   1       3.708 -16.560  21.613  0.00  0.00     0.080 H 
ATOM     16  H14 3CU d   1       3.204 -17.443  20.132  0.00  0.00     0.080 H 
ATOM     17  H15 3CU d   1       2.213 -18.067  22.599  0.00  0.00     0.089 H 
ENDROOT
BRANCH   5  18
ATOM     18  C8  3CU d   1       3.053 -15.275  18.113  0.00  0.00     0.046 C 
ATOM     19  H9  3CU d   1       2.778 -15.393  17.055  0.00  0.00     0.077 H 
ATOM     20  H10 3CU d   1       3.922 -15.910  18.339  0.00  0.00     0.077 H 
BRANCH  18  21
ATOM     21  O8  3CU d   1       3.387 -13.911  18.365  0.00  0.00    -0.399 OA
ATOM     22  H11 3CU d   1       2.638 -13.361  18.169  0.00  0.00     0.209 HD
ENDBRANCH  18  21
ENDBRANCH   5  18
BRANCH   4  23
ATOM     23  O2  3CU d   1       0.042 -14.937  17.680  0.00  0.00    -0.391 OA
ATOM     24  H7  3CU d   1       0.575 -14.586  16.977  0.00  0.00     0.210 HD
ENDBRANCH   4  23
BRANCH   3  25
ATOM     25  O1  3CU d   1      -1.248 -14.457  20.375  0.00  0.00    -0.391 OA
ATOM     26  H5  3CU d   1      -1.648 -14.739  21.189  0.00  0.00     0.210 HD
ENDBRANCH   3  25
BRANCH   1  27
ATOM     27  O7  3CU d   1       1.203 -15.881  23.461  0.00  0.00    -0.391 OA
ATOM     28  H1  3CU d   1       2.103 -15.578  23.432  0.00  0.00     0.210 HD
ENDBRANCH   1  27
BRANCH   8  29
ATOM     29  OXT 3CU d   1       1.083 -18.391  20.865  0.00  0.00    -0.391 OA
ATOM     30  H16 3CU d   1       0.407 -18.846  21.353  0.00  0.00     0.210 HD
ENDBRANCH   8  29
TORSDOF 6
