REMARK  16 active torsions:
REMARK  status: ('A' for Active; 'I' for Inactive)
REMARK    1  A    between atoms: C2_2  and  N1_1 
REMARK    2  A    between atoms: S8_8  and  C5_5 
REMARK    3  A    between atoms: N11_11  and  S8_8 
REMARK    4  A    between atoms: N11_11  and  C12_12 
REMARK    5  A    between atoms: C16_16  and  N11_11 
REMARK    6  A    between atoms: C12_12  and  C13_13 
REMARK    7  A    between atoms: C13_13  and  C14_14 
REMARK    8  A    between atoms: C13_13  and  C15_15 
REMARK    9  A    between atoms: C17_17  and  C16_16 
REMARK   10  A    between atoms: C17_17  and  O18_18 
REMARK   11  A    between atoms: C19_19  and  C17_17 
REMARK   12  A    between atoms: C19_19  and  N20_20 
REMARK   13  A    between atoms: C32_32  and  C19_19 
REMARK       I    between atoms: N20_20  and  C21_21 
REMARK   14  A    between atoms: C21_21  and  O23_23 
REMARK   15  A    between atoms: O23_23  and  C24_24 
REMARK   16  A    between atoms: C38_38  and  C32_32 
ROOT
ATOM      1  C19 017 d   1     -14.578  19.960 -16.699  0.00  0.00     0.044 C 
ATOM      2  H20 017 d   1     -13.684  20.517 -16.381  0.00  0.00     0.077 H 
ENDROOT
BRANCH   1   3
ATOM      3  C17 017 d   1     -14.073  18.880 -17.669  0.00  0.00     0.071 C 
ATOM      4  H18 017 d   1     -13.661  19.369 -18.564  0.00  0.00     0.088 H 
BRANCH   3   5
ATOM      5  C16 017 d   1     -12.983  17.988 -17.028  0.00  0.00     0.031 C 
ATOM      6  H16 017 d   1     -13.321  17.689 -16.025  0.00  0.00     0.069 H 
ATOM      7  H17 017 d   1     -12.851  17.092 -17.653  0.00  0.00     0.069 H 
BRANCH   5   8
ATOM      8  N11 017 d   1     -11.685  18.666 -16.902  0.00  0.00    -0.304 N 
BRANCH   8   9
ATOM      9  S8  017 d   1     -11.118  18.915 -15.327  0.00  0.00     0.260 S 
ATOM     10  O9  017 d   1     -12.291  19.035 -14.468  0.00  0.00    -0.200 OA
ATOM     11  O10 017 d   1     -10.196  20.046 -15.481  0.00  0.00    -0.200 OA
BRANCH   9  12
ATOM     12  C5  017 d   1     -10.163  17.514 -14.819  0.00  0.00     0.079 A 
ATOM     13  C4  017 d   1     -10.858  16.554 -14.113  0.00  0.00    -0.058 A 
ATOM     14  C3  017 d   1     -10.202  15.384 -13.775  0.00  0.00    -0.056 A 
ATOM     15  H4  017 d   1     -11.892  16.713 -13.830  0.00  0.00     0.086 H 
ATOM     16  C2  017 d   1      -8.878  15.172 -14.157  0.00  0.00     0.025 A 
ATOM     17  H3  017 d   1     -10.724  14.623 -13.206  0.00  0.00     0.086 H 
ATOM     18  C7  017 d   1      -8.214  16.152 -14.918  0.00  0.00    -0.056 A 
ATOM     19  C6  017 d   1      -8.855  17.328 -15.255  0.00  0.00    -0.058 A 
ATOM     20  H6  017 d   1      -7.193  15.983 -15.242  0.00  0.00     0.086 H 
ATOM     21  H5  017 d   1      -8.352  18.086 -15.844  0.00  0.00     0.086 H 
BRANCH  16  22
ATOM     22  N1  017 d   1      -8.235  14.011 -13.768  0.00  0.00    -0.399 N 
ATOM     23  H1  017 d   1      -8.738  13.306 -13.211  0.00  0.00     0.156 HD
ATOM     24  H2  017 d   1      -7.253  13.852 -14.035  0.00  0.00     0.156 HD
ENDBRANCH  16  22
ENDBRANCH   9  12
ENDBRANCH   8   9
BRANCH   8  25
ATOM     25  C12 017 d   1     -10.703  18.425 -17.965  0.00  0.00     0.008 C 
ATOM     26  H7  017 d   1     -10.589  17.337 -18.081  0.00  0.00     0.066 H 
ATOM     27  H8  017 d   1      -9.745  18.863 -17.648  0.00  0.00     0.066 H 
BRANCH  25  28
ATOM     28  C13 017 d   1     -11.063  19.016 -19.343  0.00  0.00    -0.045 C 
ATOM     29  H9  017 d   1     -12.028  18.606 -19.675  0.00  0.00     0.041 H 
BRANCH  28  30
ATOM     30  C14 017 d   1     -11.166  20.537 -19.291  0.00  0.00    -0.072 C 
ATOM     31  H10 017 d   1     -11.423  20.921 -20.289  0.00  0.00     0.028 H 
ATOM     32  H11 017 d   1     -10.201  20.959 -18.973  0.00  0.00     0.028 H 
ATOM     33  H12 017 d   1     -11.948  20.827 -18.573  0.00  0.00     0.028 H 
ENDBRANCH  28  30
BRANCH  28  34
ATOM     34  C15 017 d   1      -9.956  18.596 -20.327  0.00  0.00    -0.072 C 
ATOM     35  H13 017 d   1      -9.890  17.498 -20.357  0.00  0.00     0.028 H 
ATOM     36  H14 017 d   1      -8.993  19.012 -19.995  0.00  0.00     0.028 H 
ATOM     37  H15 017 d   1     -10.194  18.977 -21.331  0.00  0.00     0.028 H 
ENDBRANCH  28  34
ENDBRANCH  25  28
ENDBRANCH   8  25
ENDBRANCH   5   8
ENDBRANCH   3   5
BRANCH   3  38
ATOM     38  O18 017 d   1     -15.167  18.029 -18.041  0.00  0.00    -0.392 OA
ATOM     39  H19 017 d   1     -14.863  17.378 -18.663  0.00  0.00     0.210 HD
ENDBRANCH   3  38
ENDBRANCH   1   3
BRANCH   1  40
ATOM     40  N20 017 d   1     -15.426  20.900 -17.405  0.00  0.00    -0.329 N 
ATOM     41  C21 017 d   1     -15.089  22.188 -17.654  0.00  0.00     0.361 C 
ATOM     42  O22 017 d   1     -14.106  22.785 -17.271  0.00  0.00    -0.238 OA
ATOM     43  H21 017 d   1     -16.316  20.577 -17.729  0.00  0.00     0.165 HD
BRANCH  41  44
ATOM     44  O23 017 d   1     -16.069  22.710 -18.437  0.00  0.00    -0.296 OA
BRANCH  44  45
ATOM     45  C24 017 d   1     -15.993  24.128 -18.724  0.00  0.00     0.078 C 
ATOM     46  C25 017 d   1     -16.560  24.326 -20.128  0.00  0.00     0.048 C 
ATOM     47  O26 017 d   1     -17.969  24.240 -19.950  0.00  0.00    -0.358 OA
ATOM     48  H23 017 d   1     -16.204  23.538 -20.808  0.00  0.00     0.078 H 
ATOM     49  H24 017 d   1     -16.277  25.311 -20.528  0.00  0.00     0.078 H 
ATOM     50  C27 017 d   1     -18.340  24.779 -18.673  0.00  0.00     0.137 C 
ATOM     51  O28 017 d   1     -19.215  23.909 -18.026  0.00  0.00    -0.361 OA
ATOM     52  C31 017 d   1     -17.037  24.875 -17.843  0.00  0.00     0.023 C 
ATOM     53  H25 017 d   1     -18.805  25.769 -18.790  0.00  0.00     0.129 H 
ATOM     54  C29 017 d   1     -18.515  23.265 -16.965  0.00  0.00     0.023 C 
ATOM     55  C30 017 d   1     -17.402  24.225 -16.504  0.00  0.00    -0.035 C 
ATOM     56  H26 017 d   1     -18.075  22.322 -17.322  0.00  0.00     0.074 H 
ATOM     57  H27 017 d   1     -19.202  23.057 -16.132  0.00  0.00     0.074 H 
ATOM     58  H28 017 d   1     -16.550  23.683 -16.068  0.00  0.00     0.037 H 
ATOM     59  H29 017 d   1     -17.775  24.964 -15.780  0.00  0.00     0.037 H 
ATOM     60  H30 017 d   1     -16.715  25.914 -17.678  0.00  0.00     0.051 H 
ATOM     61  H22 017 d   1     -14.972  24.519 -18.605  0.00  0.00     0.088 H 
ENDBRANCH  44  45
ENDBRANCH  41  44
ENDBRANCH   1  40
BRANCH   1  62
ATOM     62  C32 017 d   1     -15.240  19.467 -15.392  0.00  0.00    -0.020 C 
ATOM     63  H31 017 d   1     -14.538  18.806 -14.863  0.00  0.00     0.043 H 
ATOM     64  H32 017 d   1     -16.153  18.907 -15.643  0.00  0.00     0.043 H 
BRANCH  62  65
ATOM     65  C38 017 d   1     -15.609  20.631 -14.477  0.00  0.00    -0.056 C 
ATOM     66  C33 017 d   1     -16.926  21.077 -14.393  0.00  0.00    -0.077 C 
ATOM     67  C34 017 d   1     -17.270  22.147 -13.575  0.00  0.00    -0.082 C 
ATOM     68  H33 017 d   1     -17.695  20.582 -14.975  0.00  0.00     0.084 H 
ATOM     69  C35 017 d   1     -16.273  22.835 -12.884  0.00  0.00    -0.083 C 
ATOM     70  H34 017 d   1     -18.307  22.445 -13.475  0.00  0.00     0.083 H 
ATOM     71  C36 017 d   1     -14.943  22.406 -12.954  0.00  0.00    -0.082 C 
ATOM     72  H35 017 d   1     -16.529  23.705 -12.291  0.00  0.00     0.083 H 
ATOM     73  C37 017 d   1     -14.649  21.256 -13.666  0.00  0.00    -0.077 C 
ATOM     74  H36 017 d   1     -14.157  22.965 -12.459  0.00  0.00     0.083 H 
ATOM     75  H37 017 d   1     -13.655  20.829 -13.596  0.00  0.00     0.084 H 
ENDBRANCH  62  65
ENDBRANCH   1  62
TORSDOF 16
