REMARK  8 active torsions:
REMARK  status: ('A' for Active; 'I' for Inactive)
REMARK    1  A    between atoms: C9_2  and  C10_3 
REMARK    2  A    between atoms: C9_2  and  C8_4 
REMARK    3  A    between atoms: C8_4  and  C7_5 
REMARK    4  A    between atoms: C7_5  and  C6_6 
REMARK    5  A    between atoms: C6_6  and  C5_7 
REMARK    6  A    between atoms: C5_7  and  C4_8 
REMARK    7  A    between atoms: C4_8  and  C3_9 
REMARK    8  A    between atoms: C2_10  and  C1_11 
ROOT
ATOM      1  C6  9OD d   1      15.757  -4.187  -2.148  0.00  0.00    -0.064 C 
ATOM      2  H8  9OD d   1      16.495  -4.753  -1.560  0.00  0.00     0.033 H 
ATOM      3  H9  9OD d   1      15.023  -3.727  -1.470  0.00  0.00     0.033 H 
ENDROOT
BRANCH   1   4
ATOM      4  C7  9OD d   1      15.010  -5.179  -3.052  0.00  0.00    -0.059 C 
ATOM      5  H6  9OD d   1      13.937  -4.939  -3.045  0.00  0.00     0.033 H 
ATOM      6  H7  9OD d   1      15.397  -5.096  -4.078  0.00  0.00     0.033 H 
BRANCH   4   7
ATOM      7  C8  9OD d   1      15.210  -6.617  -2.550  0.00  0.00    -0.010 C 
ATOM      8  H4  9OD d   1      15.762  -7.167  -3.326  0.00  0.00     0.044 H 
ATOM      9  H5  9OD d   1      15.816  -6.569  -1.633  0.00  0.00     0.044 H 
BRANCH   7  10
ATOM     10  C9  9OD d   1      13.956  -7.408  -2.230  0.00  0.00     0.123 C 
ATOM     11  O9  9OD d   1      14.079  -8.553  -1.804  0.00  0.00    -0.298 OA
BRANCH  10  12
ATOM     12  C10 9OD d   1      12.603  -6.802  -2.424  0.00  0.00    -0.021 C 
ATOM     13  H1  9OD d   1      12.712  -5.778  -2.810  0.00  0.00     0.037 H 
ATOM     14  H2  9OD d   1      12.071  -6.776  -1.461  0.00  0.00     0.037 H 
ATOM     15  H3  9OD d   1      12.030  -7.406  -3.143  0.00  0.00     0.037 H 
ENDBRANCH  10  12
ENDBRANCH   7  10
ENDBRANCH   4   7
ENDBRANCH   1   4
BRANCH   1  16
ATOM     16  C5  9OD d   1      16.495  -3.064  -2.876  0.00  0.00    -0.062 C 
ATOM     17  H10 9OD d   1      16.334  -2.106  -2.359  0.00  0.00     0.033 H 
ATOM     18  H11 9OD d   1      16.138  -2.985  -3.913  0.00  0.00     0.033 H 
BRANCH  16  19
ATOM     19  C4  9OD d   1      17.970  -3.431  -2.855  0.00  0.00    -0.050 C 
ATOM     20  H12 9OD d   1      18.058  -4.478  -3.182  0.00  0.00     0.038 H 
ATOM     21  H13 9OD d   1      18.321  -3.340  -1.817  0.00  0.00     0.038 H 
BRANCH  19  22
ATOM     22  C3  9OD d   1      18.887  -2.604  -3.721  0.00  0.00    -0.097 C 
ATOM     23  C2  9OD d   1      20.120  -3.117  -3.815  0.00  0.00    -0.013 C 
ATOM     24  H15 9OD d   1      20.333  -4.062  -3.317  0.00  0.00     0.093 H 
ATOM     25  H14 9OD d   1      18.578  -1.685  -4.218  0.00  0.00     0.077 H 
BRANCH  23  26
ATOM     26  C1  9OD d   1      21.194  -2.458  -4.561  0.00  0.00     0.198 C 
ATOM     27  OE1 9OD d   1      22.360  -2.898  -4.403  0.00  0.00    -0.645 OA
ATOM     28  OE2 9OD d   1      20.942  -1.468  -5.281  0.00  0.00    -0.645 OA
ENDBRANCH  23  26
ENDBRANCH  19  22
ENDBRANCH  16  19
ENDBRANCH   1  16
TORSDOF 8
