REMARK  6 active torsions:
REMARK  status: ('A' for Active; 'I' for Inactive)
REMARK    1  A    between atoms: S_2  and  N10_4 
REMARK    2  A    between atoms: S_2  and  C4_9 
REMARK    3  A    between atoms: N10_4  and  C11_5 
REMARK    4  A    between atoms: C11_5  and  C12_6 
REMARK    5  A    between atoms: C12_6  and  C13_7 
REMARK    6  A    between atoms: C13_7  and  C14_8 
ROOT
ATOM      1  N10 NBB d   1      20.406  -3.111  -3.498  0.00  0.00    -0.315 N 
ATOM      2  H1  NBB d   1      20.749  -3.729  -2.791  0.00  0.00     0.172 HD
ENDROOT
BRANCH   1   3
ATOM      3  S   NBB d   1      21.303  -2.804  -4.785  0.00  0.00     0.258 S 
ATOM      4  O1S NBB d   1      22.697  -2.992  -4.479  0.00  0.00    -0.201 OA
ATOM      5  O2S NBB d   1      21.015  -1.460  -5.210  0.00  0.00    -0.201 OA
BRANCH   3   6
ATOM      6  C4  NBB d   1      20.972  -3.859  -5.938  0.00  0.00     0.079 A 
ATOM      7  C5  NBB d   1      20.986  -3.472  -7.280  0.00  0.00    -0.060 A 
ATOM      8  C6  NBB d   1      20.721  -4.387  -8.295  0.00  0.00    -0.082 A 
ATOM      9  H11 NBB d   1      21.207  -2.442  -7.535  0.00  0.00     0.085 H 
ATOM     10  C1  NBB d   1      20.438  -5.709  -7.965  0.00  0.00    -0.083 A 
ATOM     11  H12 NBB d   1      20.735  -4.073  -9.332  0.00  0.00     0.083 H 
ATOM     12  C2  NBB d   1      20.434  -6.099  -6.630  0.00  0.00    -0.082 A 
ATOM     13  H13 NBB d   1      20.222  -6.431  -8.744  0.00  0.00     0.083 H 
ATOM     14  C3  NBB d   1      20.706  -5.183  -5.618  0.00  0.00    -0.060 A 
ATOM     15  H14 NBB d   1      20.216  -7.130  -6.374  0.00  0.00     0.083 H 
ATOM     16  H15 NBB d   1      20.710  -5.503  -4.582  0.00  0.00     0.085 H 
ENDBRANCH   3   6
ENDBRANCH   1   3
BRANCH   1  17
ATOM     17  C11 NBB d   1      19.104  -2.503  -3.347  0.00  0.00     0.003 C 
ATOM     18  H2  NBB d   1      18.957  -1.772  -4.156  0.00  0.00     0.065 H 
ATOM     19  H3  NBB d   1      19.062  -1.989  -2.376  0.00  0.00     0.065 H 
BRANCH  17  20
ATOM     20  C12 NBB d   1      17.990  -3.528  -3.406  0.00  0.00    -0.050 C 
ATOM     21  H4  NBB d   1      18.248  -4.379  -2.759  0.00  0.00     0.035 H 
ATOM     22  H5  NBB d   1      17.875  -3.877  -4.443  0.00  0.00     0.035 H 
BRANCH  20  23
ATOM     23  C13 NBB d   1      16.674  -2.921  -2.934  0.00  0.00    -0.067 C 
ATOM     24  H6  NBB d   1      15.920  -3.030  -3.728  0.00  0.00     0.032 H 
ATOM     25  H7  NBB d   1      16.825  -1.854  -2.716  0.00  0.00     0.032 H 
BRANCH  23  26
ATOM     26  C14 NBB d   1      16.186  -3.621  -1.684  0.00  0.00    -0.076 C 
ATOM     27  H8  NBB d   1      15.237  -3.171  -1.358  0.00  0.00     0.027 H 
ATOM     28  H9  NBB d   1      16.936  -3.513  -0.887  0.00  0.00     0.027 H 
ATOM     29  H10 NBB d   1      16.030  -4.689  -1.899  0.00  0.00     0.027 H 
ENDBRANCH  23  26
ENDBRANCH  20  23
ENDBRANCH  17  20
ENDBRANCH   1  17
TORSDOF 6
