REMARK  4 active torsions:
REMARK  status: ('A' for Active; 'I' for Inactive)
REMARK    1  A    between atoms: C1_1  and  S1_12 
REMARK    2  A    between atoms: N4_8  and  C2_2 
REMARK    3  A    between atoms: C3_3  and  C4_4 
REMARK       I    between atoms: C3_3  and  N4_8 
REMARK    4  A    between atoms: S1_12  and  N1_5 
ROOT
ATOM      1  C1  AZM d   1      33.819  59.364  18.156  0.00  0.00     0.237 A 
ATOM      2  C2  AZM d   1      35.408  60.050  19.733  0.00  0.00     0.197 A 
ATOM      3  N2  AZM d   1      35.636  58.837  19.290  0.00  0.00    -0.122 NA
ATOM      4  N3  AZM d   1      34.698  58.440  18.363  0.00  0.00    -0.126 NA
ATOM      5  S2  AZM d   1      34.017  60.812  19.053  0.00  0.00    -0.015 SA
ENDROOT
BRANCH   2   6
ATOM      6  N4  AZM d   1      36.240  60.635  20.668  0.00  0.00    -0.305 N 
ATOM      7  C3  AZM d   1      36.094  61.915  21.199  0.00  0.00     0.219 C 
ATOM      8  O3  AZM d   1      35.041  62.532  21.095  0.00  0.00    -0.274 OA
ATOM      9  H6  AZM d   1      37.015  60.092  20.992  0.00  0.00     0.171 HD
BRANCH   7  10
ATOM     10  C4  AZM d   1      37.307  62.447  21.894  0.00  0.00    -0.002 C 
ATOM     11  H1  AZM d   1      37.097  63.456  22.277  0.00  0.00     0.040 H 
ATOM     12  H2  AZM d   1      38.146  62.492  21.184  0.00  0.00     0.040 H 
ATOM     13  H3  AZM d   1      37.570  61.784  22.732  0.00  0.00     0.040 H 
ENDBRANCH   7  10
ENDBRANCH   2   6
BRANCH   1  14
ATOM     14  S1  AZM d   1      32.474  59.156  17.009  0.00  0.00     0.282 S 
ATOM     15  O1  AZM d   1      31.945  57.873  17.326  0.00  0.00    -0.199 OA
ATOM     16  O2  AZM d   1      31.664  60.325  17.142  0.00  0.00    -0.199 OA
BRANCH  14  17
ATOM     17  N1  AZM d   1      33.063  59.114  15.556  0.00  0.00    -0.323 N 
ATOM     18  H4  AZM d   1      32.452  59.002  14.772  0.00  0.00     0.169 HD
ATOM     19  H5  AZM d   1      34.049  59.200  15.414  0.00  0.00     0.169 HD
ENDBRANCH  14  17
ENDBRANCH   1  14
TORSDOF 4
