REMARK  7 active torsions:
REMARK  status: ('A' for Active; 'I' for Inactive)
REMARK       I    between atoms: C21_2  and  N22_3 
REMARK    1  A    between atoms: C21_2  and  C18_4 
REMARK    2  A    between atoms: C19_7  and  N24_8 
REMARK    3  A    between atoms: N24_8  and  C25_9 
REMARK    4  A    between atoms: C25_9  and  C26_10 
REMARK    5  A    between atoms: C26_10  and  O27_11 
REMARK    6  A    between atoms: O27_11  and  C28_12 
REMARK    7  A    between atoms: C15_14  and  N7_15 
ROOT
ATOM      1  C18 SNX d   1      -0.063 -11.539 -24.488  0.00  0.00     0.058 A 
ATOM      2  C17 SNX d   1       0.381 -12.595 -23.697  0.00  0.00    -0.063 A 
ATOM      3  C16 SNX d   1       1.753 -12.812 -23.535  0.00  0.00    -0.056 A 
ATOM      4  C19 SNX d   1       0.927 -10.679 -25.181  0.00  0.00     0.046 A 
ATOM      5  C20 SNX d   1       2.279 -10.969 -24.968  0.00  0.00    -0.030 A 
ATOM      6  C15 SNX d   1       2.735 -12.011 -24.149  0.00  0.00     0.042 A 
ATOM      7  H3  SNX d   1      -0.334 -13.247 -23.208  0.00  0.00     0.085 H 
ATOM      8  H4  SNX d   1       2.075 -13.635 -22.908  0.00  0.00     0.087 H 
ATOM      9  H13 SNX d   1       3.018 -10.351 -25.466  0.00  0.00     0.090 H 
ENDROOT
BRANCH   6  10
ATOM     10  N7  SNX d   1       4.056 -12.238 -24.070  0.00  0.00    -0.314 N 
ATOM     11  C1  SNX d   1       4.986 -11.371 -23.605  0.00  0.00     0.051 A 
ATOM     12  C6  SNX d   1       4.957 -10.125 -22.982  0.00  0.00    -0.056 A 
ATOM     13  C2  SNX d   1       6.311 -12.031 -23.822  0.00  0.00     0.007 A 
ATOM     14  C5  SNX d   1       6.185  -9.560 -22.596  0.00  0.00    -0.081 A 
ATOM     15  H14 SNX d   1       4.021  -9.610 -22.801  0.00  0.00     0.087 H 
ATOM     16  C4  SNX d   1       7.413 -10.197 -22.809  0.00  0.00    -0.082 A 
ATOM     17  H15 SNX d   1       6.181  -8.590 -22.113  0.00  0.00     0.083 H 
ATOM     18  C3  SNX d   1       7.509 -11.446 -23.423  0.00  0.00    -0.070 A 
ATOM     19  H16 SNX d   1       8.322  -9.702 -22.485  0.00  0.00     0.083 H 
ATOM     20  H17 SNX d   1       8.464 -11.934 -23.581  0.00  0.00     0.084 H 
ATOM     21  C9  SNX d   1       5.972 -13.298 -24.490  0.00  0.00     0.045 A 
ATOM     22  C8  SNX d   1       4.522 -13.367 -24.649  0.00  0.00     0.032 A 
ATOM     23  C10 SNX d   1       6.893 -14.366 -24.949  0.00  0.00     0.162 C 
ATOM     24  C13 SNX d   1       3.830 -14.550 -25.288  0.00  0.00    -0.025 C 
ATOM     25  C12 SNX d   1       4.856 -15.458 -25.986  0.00  0.00    -0.054 C 
ATOM     26  H18 SNX d   1       3.103 -14.188 -26.030  0.00  0.00     0.042 H 
ATOM     27  H19 SNX d   1       3.305 -15.126 -24.512  0.00  0.00     0.042 H 
ATOM     28  C11 SNX d   1       6.198 -15.665 -25.285  0.00  0.00    -0.005 C 
ATOM     29  H20 SNX d   1       5.063 -15.024 -26.975  0.00  0.00     0.034 H 
ATOM     30  H21 SNX d   1       4.392 -16.447 -26.110  0.00  0.00     0.034 H 
ATOM     31  H22 SNX d   1       6.852 -16.252 -25.946  0.00  0.00     0.044 H 
ATOM     32  H23 SNX d   1       6.024 -16.222 -24.352  0.00  0.00     0.044 H 
ATOM     33  O14 SNX d   1       8.095 -14.216 -25.067  0.00  0.00    -0.292 OA
ENDBRANCH   6  10
BRANCH   4  34
ATOM     34  N24 SNX d   1       0.527  -9.641 -25.981  0.00  0.00    -0.387 N 
ATOM     35  H5  SNX d   1      -0.480  -9.456 -26.092  0.00  0.00     0.159 HD
BRANCH  34  36
ATOM     36  C25 SNX d   1       1.485  -8.787 -26.683  0.00  0.00     0.012 C 
ATOM     37  H6  SNX d   1       2.132  -9.423 -27.305  0.00  0.00     0.067 H 
ATOM     38  H7  SNX d   1       2.098  -8.259 -25.937  0.00  0.00     0.067 H 
BRANCH  36  39
ATOM     39  C26 SNX d   1       0.809  -7.751 -27.581  0.00  0.00     0.034 C 
ATOM     40  H8  SNX d   1       0.327  -8.257 -28.430  0.00  0.00     0.076 H 
ATOM     41  H9  SNX d   1       1.560  -7.040 -27.956  0.00  0.00     0.076 H 
BRANCH  39  42
ATOM     42  O27 SNX d   1      -0.176  -7.050 -26.817  0.00  0.00    -0.394 OA
BRANCH  42  43
ATOM     43  C28 SNX d   1      -0.129  -5.633 -26.962  0.00  0.00     0.004 C 
ATOM     44  H10 SNX d   1      -0.915  -5.175 -26.344  0.00  0.00     0.066 H 
ATOM     45  H11 SNX d   1      -0.290  -5.367 -28.017  0.00  0.00     0.066 H 
ATOM     46  H12 SNX d   1       0.855  -5.263 -26.636  0.00  0.00     0.066 H 
ENDBRANCH  42  43
ENDBRANCH  39  42
ENDBRANCH  36  39
ENDBRANCH  34  36
ENDBRANCH   4  34
BRANCH   1  47
ATOM     47  C21 SNX d   1      -1.531 -11.325 -24.703  0.00  0.00     0.251 C 
ATOM     48  O23 SNX d   1      -1.874 -10.769 -25.739  0.00  0.00    -0.268 OA
ATOM     49  N22 SNX d   1      -2.414 -11.826 -23.838  0.00  0.00    -0.366 N 
ATOM     50  H1  SNX d   1      -2.096 -12.273 -23.002  0.00  0.00     0.159 HD
ATOM     51  H2  SNX d   1      -3.394 -11.754 -24.026  0.00  0.00     0.159 HD
ENDBRANCH   1  47
TORSDOF 7
