REMARK  12 active torsions:
REMARK  status: ('A' for Active; 'I' for Inactive)
REMARK    1  A    between atoms: C2_4  and  C3_1 
REMARK    2  A    between atoms: N2_2  and  C13_15 
REMARK    3  A    between atoms: C9_23  and  O2_5 
REMARK    4  A    between atoms: O2_5  and  C10_25 
REMARK    5  A    between atoms: C17_9  and  N6_8 
REMARK    6  A    between atoms: C15_14  and  C16_13 
REMARK    7  A    between atoms: C13_15  and  C14_16 
REMARK    8  A    between atoms: C4_17  and  C5_18 
REMARK    9  A    between atoms: C5_18  and  C7_19 
REMARK   10  A    between atoms: C5_18  and  C6_20 
REMARK   11  A    between atoms: C5_18  and  O1_21 
REMARK   12  A    between atoms: C10_25  and  C11_26 
ROOT
ATOM      1  N2  G93 d   1      22.356 -18.599   9.703  0.00  0.00    -0.326 N 
ATOM      2  N3  G93 d   1      22.853 -16.829   8.364  0.00  0.00    -0.223 NA
ATOM      3  C2  G93 d   1      23.230 -18.192   6.272  0.00  0.00     0.141 A 
ATOM      4  N1  G93 d   1      23.212 -19.460   5.809  0.00  0.00    -0.247 NA
ATOM      5  C1  G93 d   1      22.919 -17.947   7.613  0.00  0.00     0.126 A 
ATOM      6  C15 G93 d   1      22.509 -17.261   9.599  0.00  0.00     0.166 A 
ATOM      7  C12 G93 d   1      22.615 -19.029   8.449  0.00  0.00     0.103 A 
ATOM      8  C9  G93 d   1      22.609 -20.337   7.946  0.00  0.00     0.115 A 
ATOM      9  C8  G93 d   1      22.922 -20.507   6.593  0.00  0.00     0.038 A 
ATOM     10  H15 G93 d   1      22.930 -21.505   6.171  0.00  0.00     0.119 H 
ENDROOT
BRANCH   8  11
ATOM     11  O2  G93 d   1      22.308 -21.434   8.724  0.00  0.00    -0.347 OA
BRANCH  11  12
ATOM     12  C10 G93 d   1      22.036 -22.721   8.149  0.00  0.00     0.031 C 
ATOM     13  H16 G93 d   1      22.968 -23.129   7.731  0.00  0.00     0.075 H 
ATOM     14  H17 G93 d   1      21.295 -22.602   7.345  0.00  0.00     0.075 H 
BRANCH  12  15
ATOM     15  C11 G93 d   1      21.489 -23.699   9.184  0.00  0.00    -0.010 C 
ATOM     16  C18 G93 d   1      20.195 -23.178   9.795  0.00  0.00     0.087 C 
ATOM     17  N7  G93 d   1      19.747 -24.015  10.902  0.00  0.00    -0.075 N 
ATOM     18  H19 G93 d   1      19.415 -23.164   9.020  0.00  0.00     0.076 H 
ATOM     19  H20 G93 d   1      20.362 -22.156  10.166  0.00  0.00     0.076 H 
ATOM     20  C19 G93 d   1      20.667 -24.607  11.858  0.00  0.00     0.082 C 
ATOM     21  H21 G93 d   1      19.244 -24.783  10.486  0.00  0.00     0.277 HD
ATOM     22  H22 G93 d   1      19.110 -23.449  11.441  0.00  0.00     0.277 HD
ATOM     23  C20 G93 d   1      22.000 -25.013  11.232  0.00  0.00    -0.042 C 
ATOM     24  H23 G93 d   1      20.196 -25.502  12.290  0.00  0.00     0.075 H 
ATOM     25  H24 G93 d   1      20.863 -23.875  12.655  0.00  0.00     0.075 H 
ATOM     26  C21 G93 d   1      22.507 -23.927  10.293  0.00  0.00    -0.057 C 
ATOM     27  H25 G93 d   1      21.863 -25.946  10.665  0.00  0.00     0.035 H 
ATOM     28  H26 G93 d   1      22.739 -25.174  12.030  0.00  0.00     0.035 H 
ATOM     29  H27 G93 d   1      22.651 -22.993  10.856  0.00  0.00     0.033 H 
ATOM     30  H28 G93 d   1      23.465 -24.241   9.853  0.00  0.00     0.033 H 
ATOM     31  H18 G93 d   1      21.285 -24.658   8.685  0.00  0.00     0.045 H 
ENDBRANCH  12  15
ENDBRANCH  11  12
ENDBRANCH   8  11
BRANCH   1  32
ATOM     32  C13 G93 d   1      21.973 -19.395  10.885  0.00  0.00    -0.001 C 
ATOM     33  H3  G93 d   1      21.309 -20.209  10.560  0.00  0.00     0.064 H 
ATOM     34  H4  G93 d   1      21.436 -18.742  11.589  0.00  0.00     0.064 H 
BRANCH  32  35
ATOM     35  C14 G93 d   1      23.160 -19.998  11.598  0.00  0.00    -0.061 C 
ATOM     36  H5  G93 d   1      22.811 -20.577  12.466  0.00  0.00     0.029 H 
ATOM     37  H6  G93 d   1      23.830 -19.195  11.938  0.00  0.00     0.029 H 
ATOM     38  H7  G93 d   1      23.703 -20.662  10.909  0.00  0.00     0.029 H 
ENDBRANCH  32  35
ENDBRANCH   1  32
BRANCH   6  39
ATOM     39  C16 G93 d   1      22.356 -16.272  10.726  0.00  0.00     0.179 A 
ATOM     40  C17 G93 d   1      22.313 -14.895  10.538  0.00  0.00     0.186 A 
ATOM     41  N5  G93 d   1      22.187 -14.209  11.686  0.00  0.00    -0.085 NA
ATOM     42  O3  G93 d   1      22.190 -15.283  12.642  0.00  0.00    -0.104 OA
ATOM     43  N4  G93 d   1      22.311 -16.593  12.041  0.00  0.00    -0.097 NA
BRANCH  40  44
ATOM     44  N6  G93 d   1      22.362 -14.292   9.314  0.00  0.00    -0.380 N 
ATOM     45  H1  G93 d   1      22.459 -14.863   8.462  0.00  0.00     0.158 HD
ATOM     46  H2  G93 d   1      22.302 -13.266   9.242  0.00  0.00     0.158 HD
ENDBRANCH  40  44
ENDBRANCH   6  39
BRANCH   3  47
ATOM     47  C3  G93 d   1      23.495 -17.251   5.431  0.00  0.00    -0.041 C 
ATOM     48  C4  G93 d   1      23.758 -16.535   4.508  0.00  0.00    -0.062 C 
BRANCH  48  49
ATOM     49  C5  G93 d   1      23.836 -15.626   3.343  0.00  0.00     0.114 C 
BRANCH  49  50
ATOM     50  C7  G93 d   1      23.025 -14.366   3.627  0.00  0.00    -0.038 C 
ATOM     51  H8  G93 d   1      23.083 -13.690   2.761  0.00  0.00     0.033 H 
ATOM     52  H9  G93 d   1      23.432 -13.860   4.515  0.00  0.00     0.033 H 
ATOM     53  H10 G93 d   1      21.975 -14.639   3.810  0.00  0.00     0.033 H 
ENDBRANCH  49  50
BRANCH  49  54
ATOM     54  C6  G93 d   1      25.295 -15.276   3.082  0.00  0.00    -0.038 C 
ATOM     55  H11 G93 d   1      25.862 -16.196   2.880  0.00  0.00     0.033 H 
ATOM     56  H12 G93 d   1      25.715 -14.773   3.966  0.00  0.00     0.033 H 
ATOM     57  H13 G93 d   1      25.361 -14.606   2.212  0.00  0.00     0.033 H 
ENDBRANCH  49  54
BRANCH  49  58
ATOM     58  O1  G93 d   1      23.324 -16.280   2.178  0.00  0.00    -0.378 OA
ATOM     59  H14 G93 d   1      23.833 -17.064   2.007  0.00  0.00     0.211 HD
ENDBRANCH  49  58
ENDBRANCH  48  49
ENDBRANCH   3  47
TORSDOF 12
