REMARK  17 active torsions:
REMARK  status: ('A' for Active; 'I' for Inactive)
REMARK    1  A    between atoms: C1_2  and  C2_4 
REMARK       I    between atoms: N2_13  and  C1_2 
REMARK    2  A    between atoms: C11_14  and  N2_13 
REMARK    3  A    between atoms: C12_15  and  C11_14 
REMARK    4  A    between atoms: C11_14  and  C13_17 
REMARK       I    between atoms: N4_24  and  C12_15 
REMARK    5  A    between atoms: C13_17  and  C14_18 
REMARK       I    between atoms: C14_18  and  N3_20 
REMARK    6  A    between atoms: C15_21  and  O4_22 
REMARK    7  A    between atoms: C16_23  and  C15_21 
REMARK    8  A    between atoms: C15_21  and  C24_33 
REMARK    9  A    between atoms: C16_23  and  N4_24 
REMARK   10  A    between atoms: C16_23  and  C17_25 
REMARK   11  A    between atoms: C17_25  and  C18_26 
REMARK   12  A    between atoms: C24_33  and  N5_32 
REMARK   13  A    between atoms: C25_34  and  C26_35 
REMARK       I    between atoms: C26_35  and  N6_45 
REMARK   14  A    between atoms: N6_45  and  C35_46 
REMARK   15  A    between atoms: C35_46  and  C36_47 
REMARK   16  A    between atoms: C35_46  and  C37_48 
REMARK   17  A    between atoms: C35_46  and  C38_49 
ROOT
ATOM      1  C15 ROC d   1      15.480  24.466  18.138  0.00  0.00     0.078 C 
ATOM      2  H13 ROC d   1      15.565  24.837  17.106  0.00  0.00     0.088 H 
ENDROOT
BRANCH   1   3
ATOM      3  O4  ROC d   1      15.065  25.568  18.933  0.00  0.00    -0.392 OA
ATOM      4  H14 ROC d   1      14.200  25.848  18.658  0.00  0.00     0.210 HD
ENDBRANCH   1   3
BRANCH   1   5
ATOM      5  C16 ROC d   1      16.889  23.923  18.502  0.00  0.00     0.042 C 
ATOM      6  H15 ROC d   1      17.078  23.001  17.933  0.00  0.00     0.077 H 
BRANCH   5   7
ATOM      7  N4  ROC d   1      17.868  24.916  18.112  0.00  0.00    -0.352 N 
ATOM      8  C12 ROC d   1      18.793  24.656  17.178  0.00  0.00     0.241 C 
ATOM      9  O2  ROC d   1      18.877  23.574  16.590  0.00  0.00    -0.271 OA
ATOM     10  H16 ROC d   1      17.854  25.815  18.549  0.00  0.00     0.163 HD
BRANCH   8  11
ATOM     11  C11 ROC d   1      19.736  25.800  16.894  0.00  0.00     0.097 C 
ATOM     12  H8  ROC d   1      19.256  26.737  17.212  0.00  0.00     0.088 H 
BRANCH  11  13
ATOM     13  N2  ROC d   1      20.960  25.617  17.735  0.00  0.00    -0.342 N 
ATOM     14  C1  ROC d   1      21.451  26.582  18.550  0.00  0.00     0.271 C 
ATOM     15  O1  ROC d   1      20.978  27.728  18.549  0.00  0.00    -0.266 OA
ATOM     16  H7  ROC d   1      21.439  24.740  17.694  0.00  0.00     0.163 HD
BRANCH  14  17
ATOM     17  C2  ROC d   1      22.580  26.086  19.401  0.00  0.00     0.125 A 
ATOM     18  N1  ROC d   1      23.319  25.038  18.974  0.00  0.00    -0.243 NA
ATOM     19  C10 ROC d   1      24.355  24.556  19.719  0.00  0.00     0.068 A 
ATOM     20  C5  ROC d   1      24.705  25.145  20.991  0.00  0.00    -0.007 A 
ATOM     21  C9R ROC d   1      25.103  23.467  19.249  0.00  0.00    -0.054 A 
ATOM     22  C4  ROC d   1      23.887  26.259  21.401  0.00  0.00    -0.068 A 
ATOM     23  C6  ROC d   1      25.775  24.610  21.709  0.00  0.00    -0.071 A 
ATOM     24  C3  ROC d   1      22.841  26.710  20.598  0.00  0.00    -0.049 A 
ATOM     25  H2  ROC d   1      24.088  26.752  22.345  0.00  0.00     0.085 H 
ATOM     26  H1  ROC d   1      22.235  27.550  20.916  0.00  0.00     0.087 H 
ATOM     27  C7  ROC d   1      26.508  23.516  21.210  0.00  0.00    -0.082 A 
ATOM     28  H3  ROC d   1      26.046  25.043  22.665  0.00  0.00     0.084 H 
ATOM     29  C8  ROC d   1      26.166  22.937  19.964  0.00  0.00    -0.081 A 
ATOM     30  H4  ROC d   1      27.337  23.116  21.782  0.00  0.00     0.083 H 
ATOM     31  H5  ROC d   1      26.726  22.094  19.576  0.00  0.00     0.083 H 
ATOM     32  H6  ROC d   1      24.841  23.025  18.295  0.00  0.00     0.087 H 
ENDBRANCH  14  17
ENDBRANCH  11  13
BRANCH  11  33
ATOM     33  C13 ROC d   1      19.972  25.906  15.406  0.00  0.00     0.036 C 
ATOM     34  H9  ROC d   1      19.016  25.988  14.869  0.00  0.00     0.051 H 
ATOM     35  H10 ROC d   1      20.524  25.028  15.040  0.00  0.00     0.051 H 
BRANCH  33  36
ATOM     36  C14 ROC d   1      20.794  27.165  15.222  0.00  0.00     0.217 C 
ATOM     37  O3  ROC d   1      20.277  28.268  15.359  0.00  0.00    -0.274 OA
ATOM     38  N3  ROC d   1      22.100  27.039  14.907  0.00  0.00    -0.370 N 
ATOM     39  H11 ROC d   1      22.665  27.855  14.780  0.00  0.00     0.159 HD
ATOM     40  H12 ROC d   1      22.503  26.130  14.800  0.00  0.00     0.159 HD
ENDBRANCH  33  36
ENDBRANCH  11  33
ENDBRANCH   8  11
ENDBRANCH   5   7
BRANCH   5  41
ATOM     41  C17 ROC d   1      16.955  23.589  19.987  0.00  0.00    -0.020 C 
ATOM     42  H17 ROC d   1      16.366  22.678  20.169  0.00  0.00     0.043 H 
ATOM     43  H18 ROC d   1      16.522  24.426  20.555  0.00  0.00     0.043 H 
BRANCH  41  44
ATOM     44  C18 ROC d   1      18.375  23.354  20.474  0.00  0.00    -0.056 A 
ATOM     45  C19 ROC d   1      19.020  22.138  20.278  0.00  0.00    -0.077 A 
ATOM     46  C21 ROC d   1      20.391  21.998  20.707  0.00  0.00    -0.082 A 
ATOM     47  H19 ROC d   1      18.502  21.309  19.811  0.00  0.00     0.084 H 
ATOM     48  C23 ROC d   1      21.044  23.046  21.300  0.00  0.00    -0.083 A 
ATOM     49  H21 ROC d   1      20.908  21.057  20.559  0.00  0.00     0.083 H 
ATOM     50  C22 ROC d   1      20.380  24.283  21.496  0.00  0.00    -0.082 A 
ATOM     51  H23 ROC d   1      22.073  22.929  21.621  0.00  0.00     0.083 H 
ATOM     52  C20 ROC d   1      19.054  24.387  21.070  0.00  0.00    -0.077 A 
ATOM     53  H22 ROC d   1      20.885  25.121  21.962  0.00  0.00     0.083 H 
ATOM     54  H20 ROC d   1      18.537  25.328  21.217  0.00  0.00     0.084 H 
ENDBRANCH  41  44
ENDBRANCH   5  41
ENDBRANCH   1   5
BRANCH   1  55
ATOM     55  C24 ROC d   1      14.389  23.429  18.129  0.00  0.00     0.110 C 
ATOM     56  H25 ROC d   1      13.421  23.940  18.232  0.00  0.00     0.080 H 
ATOM     57  H26 ROC d   1      14.541  22.755  18.985  0.00  0.00     0.080 H 
BRANCH  55  58
ATOM     58  N5  ROC d   1      14.362  22.635  16.919  0.00  0.00    -0.055 N 
ATOM     59  C25 ROC d   1      13.635  21.370  17.114  0.00  0.00     0.180 C 
ATOM     60  C27 ROC d   1      13.696  20.547  15.812  0.00  0.00    -0.026 C 
ATOM     61  H27 ROC d   1      12.601  21.546  17.444  0.00  0.00     0.100 H 
ATOM     62  C28 ROC d   1      12.991  21.313  14.673  0.00  0.00    -0.047 C 
ATOM     63  H28 ROC d   1      13.194  19.581  15.967  0.00  0.00     0.037 H 
ATOM     64  H29 ROC d   1      14.747  20.374  15.539  0.00  0.00     0.037 H 
ATOM     65  C29 ROC d   1      13.119  20.560  13.308  0.00  0.00    -0.061 C 
ATOM     66  C33 ROC d   1      13.649  22.692  14.587  0.00  0.00    -0.027 C 
ATOM     67  H30 ROC d   1      11.924  21.427  14.915  0.00  0.00     0.040 H 
ATOM     68  C30 ROC d   1      14.602  20.443  12.870  0.00  0.00    -0.065 C 
ATOM     69  H31 ROC d   1      12.560  21.113  12.539  0.00  0.00     0.033 H 
ATOM     70  H32 ROC d   1      12.695  19.550  13.414  0.00  0.00     0.033 H 
ATOM     71  C31 ROC d   1      15.097  21.877  12.648  0.00  0.00    -0.065 C 
ATOM     72  H33 ROC d   1      14.680  19.864  11.938  0.00  0.00     0.033 H 
ATOM     73  H34 ROC d   1      15.194  19.953  13.657  0.00  0.00     0.033 H 
ATOM     74  C32 ROC d   1      15.083  22.592  14.016  0.00  0.00    -0.060 C 
ATOM     75  H35 ROC d   1      14.431  22.399  11.945  0.00  0.00     0.033 H 
ATOM     76  H36 ROC d   1      16.119  21.863  12.243  0.00  0.00     0.033 H 
ATOM     77  H37 ROC d   1      15.491  23.606  13.894  0.00  0.00     0.033 H 
ATOM     78  H38 ROC d   1      15.710  22.027  14.721  0.00  0.00     0.033 H 
ATOM     79  C34 ROC d   1      13.598  23.418  15.890  0.00  0.00     0.088 C 
ATOM     80  H39 ROC d   1      13.061  23.285  13.871  0.00  0.00     0.043 H 
ATOM     81  H40 ROC d   1      14.050  24.414  15.775  0.00  0.00     0.076 H 
ATOM     82  H41 ROC d   1      12.551  23.525  16.211  0.00  0.00     0.076 H 
ATOM     83  H24 ROC d   1      15.303  22.450  16.607  0.00  0.00     0.281 HD
BRANCH  59  84
ATOM     84  C26 ROC d   1      14.437  20.541  18.119  0.00  0.00     0.249 C 
ATOM     85  O5  ROC d   1      15.653  20.453  18.161  0.00  0.00    -0.271 OA
ATOM     86  N6  ROC d   1      13.609  19.890  18.990  0.00  0.00    -0.351 N 
ATOM     87  H42 ROC d   1      12.626  20.061  18.922  0.00  0.00     0.163 HD
BRANCH  86  88
ATOM     88  C35 ROC d   1      14.082  18.946  20.030  0.00  0.00     0.022 C 
BRANCH  88  89
ATOM     89  C36 ROC d   1      14.921  17.823  19.407  0.00  0.00    -0.054 C 
ATOM     90  H43 ROC d   1      15.260  17.137  20.197  0.00  0.00     0.030 H 
ATOM     91  H44 ROC d   1      15.795  18.257  18.899  0.00  0.00     0.030 H 
ATOM     92  H45 ROC d   1      14.310  17.270  18.678  0.00  0.00     0.030 H 
ENDBRANCH  88  89
BRANCH  88  93
ATOM     93  C37 ROC d   1      12.782  18.437  20.702  0.00  0.00    -0.054 C 
ATOM     94  H46 ROC d   1      13.037  17.721  21.498  0.00  0.00     0.030 H 
ATOM     95  H47 ROC d   1      12.151  17.940  19.950  0.00  0.00     0.030 H 
ATOM     96  H48 ROC d   1      12.236  19.288  21.135  0.00  0.00     0.030 H 
ENDBRANCH  88  93
BRANCH  88  97
ATOM     97  C38 ROC d   1      14.981  19.714  21.055  0.00  0.00    -0.054 C 
ATOM     98  H49 ROC d   1      15.334  19.016  21.828  0.00  0.00     0.030 H 
ATOM     99  H50 ROC d   1      14.396  20.518  21.526  0.00  0.00     0.030 H 
ATOM    100  H51 ROC d   1      15.845  20.148  20.531  0.00  0.00     0.030 H 
ENDBRANCH  88  97
ENDBRANCH  86  88
ENDBRANCH  59  84
ENDBRANCH  55  58
ENDBRANCH   1  55
TORSDOF 17
