REMARK  16 active torsions:
REMARK  status: ('A' for Active; 'I' for Inactive)
REMARK    1  A    between atoms: C2_2  and  N1_1 
REMARK    2  A    between atoms: S8_8  and  C5_5 
REMARK    3  A    between atoms: N11_11  and  S8_8 
REMARK    4  A    between atoms: N11_11  and  C12_12 
REMARK    5  A    between atoms: C16_16  and  N11_11 
REMARK    6  A    between atoms: C12_12  and  C13_13 
REMARK    7  A    between atoms: C13_13  and  C14_14 
REMARK    8  A    between atoms: C13_13  and  C15_15 
REMARK    9  A    between atoms: C17_17  and  C16_16 
REMARK   10  A    between atoms: C17_17  and  O18_18 
REMARK   11  A    between atoms: C19_19  and  C17_17 
REMARK   12  A    between atoms: C19_19  and  N20_20 
REMARK   13  A    between atoms: C32_32  and  C19_19 
REMARK       I    between atoms: N20_20  and  C21_21 
REMARK   14  A    between atoms: C21_21  and  O23_23 
REMARK   15  A    between atoms: O23_23  and  C24_24 
REMARK   16  A    between atoms: C38_38  and  C32_32 
ROOT
ATOM      1  C19 017 d   1      14.860  23.025  16.999  0.00  0.00     0.044 C 
ATOM      2  H20 017 d   1      15.772  22.485  16.705  0.00  0.00     0.077 H 
ENDROOT
BRANCH   1   3
ATOM      3  C17 017 d   1      15.245  24.185  17.985  0.00  0.00     0.071 C 
ATOM      4  H18 017 d   1      15.572  23.745  18.939  0.00  0.00     0.088 H 
BRANCH   3   5
ATOM      5  C16 017 d   1      16.385  25.095  17.432  0.00  0.00     0.031 C 
ATOM      6  H16 017 d   1      16.148  25.396  16.401  0.00  0.00     0.069 H 
ATOM      7  H17 017 d   1      16.479  25.991  18.063  0.00  0.00     0.069 H 
BRANCH   5   8
ATOM      8  N11 017 d   1      17.683  24.331  17.447  0.00  0.00    -0.304 N 
BRANCH   8   9
ATOM      9  S8  017 d   1      18.304  23.963  15.803  0.00  0.00     0.260 S 
ATOM     10  O9  017 d   1      17.073  23.754  14.890  0.00  0.00    -0.200 OA
ATOM     11  O10 017 d   1      19.324  22.776  16.017  0.00  0.00    -0.200 OA
BRANCH   9  12
ATOM     12  C5  017 d   1      19.235  25.405  15.164  0.00  0.00     0.079 C 
ATOM     13  C4  017 d   1      18.512  26.327  14.415  0.00  0.00    -0.058 C 
ATOM     14  C3  017 d   1      19.168  27.488  14.036  0.00  0.00    -0.056 C 
ATOM     15  H4  017 d   1      17.480  26.146  14.139  0.00  0.00     0.086 H 
ATOM     16  C2  017 d   1      20.472  27.758  14.456  0.00  0.00     0.025 C 
ATOM     17  H3  017 d   1      18.657  28.202  13.400  0.00  0.00     0.086 H 
ATOM     18  C7  017 d   1      21.170  26.823  15.241  0.00  0.00    -0.056 C 
ATOM     19  C6  017 d   1      20.520  25.644  15.675  0.00  0.00    -0.058 C 
ATOM     20  H6  017 d   1      22.203  27.005  15.513  0.00  0.00     0.086 H 
ATOM     21  H5  017 d   1      20.992  24.958  16.369  0.00  0.00     0.086 H 
BRANCH  16  22
ATOM     22  N1  017 d   1      21.070  28.923  14.067  0.00  0.00    -0.399 N 
ATOM     23  H1  017 d   1      20.550  29.602  13.492  0.00  0.00     0.156 HD
ATOM     24  H2  017 d   1      22.040  29.123  14.349  0.00  0.00     0.156 HD
ENDBRANCH  16  22
ENDBRANCH   9  12
ENDBRANCH   8   9
BRANCH   8  25
ATOM     25  C12 017 d   1      18.677  24.680  18.490  0.00  0.00     0.008 C 
ATOM     26  H7  017 d   1      18.730  25.774  18.593  0.00  0.00     0.066 H 
ATOM     27  H8  017 d   1      19.664  24.291  18.199  0.00  0.00     0.066 H 
BRANCH  25  28
ATOM     28  C13 017 d   1      18.256  24.053  19.852  0.00  0.00    -0.045 C 
ATOM     29  H9  017 d   1      17.305  24.487  20.194  0.00  0.00     0.041 H 
BRANCH  28  30
ATOM     30  C14 017 d   1      18.112  22.540  19.732  0.00  0.00    -0.072 C 
ATOM     31  H10 017 d   1      17.815  22.122  20.705  0.00  0.00     0.028 H 
ATOM     32  H11 017 d   1      19.073  22.104  19.424  0.00  0.00     0.028 H 
ATOM     33  H12 017 d   1      17.344  22.303  18.981  0.00  0.00     0.028 H 
ENDBRANCH  28  30
BRANCH  28  34
ATOM     34  C15 017 d   1      19.378  24.389  20.829  0.00  0.00    -0.072 C 
ATOM     35  H13 017 d   1      19.477  25.481  20.912  0.00  0.00     0.028 H 
ATOM     36  H14 017 d   1      20.323  23.962  20.463  0.00  0.00     0.028 H 
ATOM     37  H15 017 d   1      19.143  23.966  21.817  0.00  0.00     0.028 H 
ENDBRANCH  28  34
ENDBRANCH  25  28
ENDBRANCH   8  25
ENDBRANCH   5   8
ENDBRANCH   3   5
BRANCH   3  38
ATOM     38  O18 017 d   1      14.092  24.999  18.201  0.00  0.00    -0.392 OA
ATOM     39  H19 017 d   1      14.300  25.681  18.829  0.00  0.00     0.210 HD
ENDBRANCH   3  38
ENDBRANCH   1   3
BRANCH   1  40
ATOM     40  N20 017 d   1      13.985  22.166  17.737  0.00  0.00    -0.329 N 
ATOM     41  C21 017 d   1      14.276  20.885  18.033  0.00  0.00     0.361 C 
ATOM     42  O22 017 d   1      15.338  20.243  17.754  0.00  0.00    -0.238 OA
ATOM     43  H21 017 d   1      13.111  22.537  18.050  0.00  0.00     0.165 HD
BRANCH  41  44
ATOM     44  O23 017 d   1      13.208  20.304  18.725  0.00  0.00    -0.296 OA
BRANCH  44  45
ATOM     45  C24 017 d   1      13.314  18.859  18.983  0.00  0.00     0.078 C 
ATOM     46  C25 017 d   1      12.664  18.585  20.354  0.00  0.00     0.048 C 
ATOM     47  O26 017 d   1      11.244  18.739  20.123  0.00  0.00    -0.358 OA
ATOM     48  H23 017 d   1      13.016  19.310  21.102  0.00  0.00     0.078 H 
ATOM     49  H24 017 d   1      12.893  17.565  20.695  0.00  0.00     0.078 H 
ATOM     50  C27 017 d   1      11.050  18.225  18.783  0.00  0.00     0.137 C 
ATOM     51  O28 017 d   1      10.148  19.124  18.114  0.00  0.00    -0.361 OA
ATOM     52  C31 017 d   1      12.321  18.165  18.072  0.00  0.00     0.023 C 
ATOM     53  H25 017 d   1      10.611  17.217  18.828  0.00  0.00     0.129 H 
ATOM     54  C29 017 d   1      10.910  19.664  17.001  0.00  0.00     0.023 C 
ATOM     55  C30 017 d   1      11.987  18.603  16.667  0.00  0.00    -0.035 C 
ATOM     56  H26 017 d   1      11.385  20.614  17.288  0.00  0.00     0.074 H 
ATOM     57  H27 017 d   1      10.254  19.829  16.133  0.00  0.00     0.074 H 
ATOM     58  H28 017 d   1      12.855  19.042  16.154  0.00  0.00     0.037 H 
ATOM     59  H29 017 d   1      11.582  17.779  16.062  0.00  0.00     0.037 H 
ATOM     60  H30 017 d   1      12.662  17.122  17.992  0.00  0.00     0.051 H 
ATOM     61  H22 017 d   1      14.345  18.486  18.892  0.00  0.00     0.088 H 
ENDBRANCH  44  45
ENDBRANCH  41  44
ENDBRANCH   1  40
BRANCH   1  62
ATOM     62  C32 017 d   1      14.112  23.485  15.702  0.00  0.00    -0.020 C 
ATOM     63  H31 017 d   1      14.759  24.192  15.161  0.00  0.00     0.043 H 
ATOM     64  H32 017 d   1      13.183  23.993  16.000  0.00  0.00     0.043 H 
BRANCH  62  65
ATOM     65  C38 017 d   1      13.753  22.341  14.756  0.00  0.00    -0.056 A 
ATOM     66  C33 017 d   1      12.414  21.939  14.675  0.00  0.00    -0.077 A 
ATOM     67  C34 017 d   1      12.079  20.865  13.827  0.00  0.00    -0.082 A 
ATOM     68  H33 017 d   1      11.650  22.445  15.254  0.00  0.00     0.084 H 
ATOM     69  C35 017 d   1      13.095  20.186  13.144  0.00  0.00    -0.083 A 
ATOM     70  H34 017 d   1      11.044  20.567  13.704  0.00  0.00     0.083 H 
ATOM     71  C36 017 d   1      14.425  20.578  13.228  0.00  0.00    -0.082 A 
ATOM     72  H35 017 d   1      12.836  19.330  12.532  0.00  0.00     0.083 H 
ATOM     73  C37 017 d   1      14.779  21.675  14.043  0.00  0.00    -0.077 A 
ATOM     74  H36 017 d   1      15.187  20.045  12.671  0.00  0.00     0.083 H 
ATOM     75  H37 017 d   1      15.810  21.999  14.121  0.00  0.00     0.084 H 
ENDBRANCH  62  65
ENDBRANCH   1  62
TORSDOF 16
