REMARK  10 active torsions:
REMARK  status: ('A' for Active; 'I' for Inactive)
REMARK    1  A    between atoms: O3B_8  and  PG_1 
REMARK    2  A    between atoms: PB_5  and  O3B_8 
REMARK    3  A    between atoms: O3A_12  and  PB_5 
REMARK    4  A    between atoms: PA_9  and  O3A_12 
REMARK    5  A    between atoms: PA_9  and  O5'_13 
REMARK    6  A    between atoms: O5'_13  and  C5'_14 
REMARK    7  A    between atoms: C5'_14  and  C4'_15 
REMARK    8  A    between atoms: C3'_17  and  O3'_18 
REMARK    9  A    between atoms: C2'_19  and  O2'_20 
REMARK   10  A    between atoms: C1'_21  and  N9_22 
ROOT
ATOM      1  C4' ATP d   1      87.551  81.913 178.382  0.00  0.00     0.089 C 
ATOM      2  O4' ATP d   1      86.442  82.322 177.556  0.00  0.00    -0.353 OA
ATOM      3  C3' ATP d   1      88.726  82.815 178.045  0.00  0.00     0.091 C 
ATOM      4  C2' ATP d   1      88.067  83.986 177.348  0.00  0.00     0.105 C 
ATOM      5  C1' ATP d   1      86.908  83.334 176.636  0.00  0.00     0.139 C 
ATOM      6  H3  ATP d   1      87.820  80.867 178.175  0.00  0.00     0.090 H 
ATOM      7  H4  ATP d   1      89.294  83.120 178.936  0.00  0.00     0.091 H 
ATOM      8  H6  ATP d   1      87.731  84.746 178.069  0.00  0.00     0.093 H 
ATOM      9  H8  ATP d   1      87.248  82.861 175.703  0.00  0.00     0.122 H 
ENDROOT
BRANCH   1  10
ATOM     10  C5' ATP d   1      87.114  82.047 179.826  0.00  0.00     0.058 C 
ATOM     11  H1  ATP d   1      87.916  81.735 180.511  0.00  0.00     0.079 H 
ATOM     12  H2  ATP d   1      86.819  83.082 180.054  0.00  0.00     0.079 H 
BRANCH  10  13
ATOM     13  O5' ATP d   1      85.999  81.168 179.912  0.00  0.00    -0.287 OA
BRANCH  13  14
ATOM     14  PA  ATP d   1      85.665  80.302 181.207  0.00  0.00     0.417 P 
ATOM     15  O1A ATP d   1      85.464  81.222 182.371  0.00  0.00    -0.624 OA
ATOM     16  O2A ATP d   1      84.530  79.394 180.731  0.00  0.00    -0.624 OA
BRANCH  14  17
ATOM     17  O3A ATP d   1      86.987  79.428 181.442  0.00  0.00    -0.180 OA
BRANCH  17  18
ATOM     18  PB  ATP d   1      87.530  78.666 182.759  0.00  0.00     0.428 P 
ATOM     19  O1B ATP d   1      88.548  79.476 183.468  0.00  0.00    -0.624 OA
ATOM     20  O2B ATP d   1      86.402  78.072 183.576  0.00  0.00    -0.624 OA
BRANCH  18  21
ATOM     21  O3B ATP d   1      88.363  77.492 181.961  0.00  0.00    -0.173 OA
BRANCH  21  22
ATOM     22  PG  ATP d   1      88.283  75.859 182.111  0.00  0.00     0.431 P 
ATOM     23  O1G ATP d   1      89.242  75.535 183.225  0.00  0.00    -0.616 OA
ATOM     24  O2G ATP d   1      88.828  75.310 180.838  0.00  0.00    -0.616 OA
ATOM     25  O3G ATP d   1      86.826  75.580 182.334  0.00  0.00    -0.616 OA
ENDBRANCH  21  22
ENDBRANCH  18  21
ENDBRANCH  17  18
ENDBRANCH  14  17
ENDBRANCH  13  14
ENDBRANCH  10  13
ENDBRANCH   1  10
BRANCH   3  26
ATOM     26  O3' ATP d   1      89.553  82.136 177.106  0.00  0.00    -0.390 OA
ATOM     27  H5  ATP d   1      90.295  82.686 176.883  0.00  0.00     0.210 HD
ENDBRANCH   3  26
BRANCH   5  28
ATOM     28  N9  ATP d   1      85.882  84.340 176.308  0.00  0.00    -0.294 N 
ATOM     29  C8  ATP d   1      85.214  85.083 177.209  0.00  0.00     0.071 A 
ATOM     30  N7  ATP d   1      84.339  85.907 176.602  0.00  0.00    -0.236 NA
ATOM     31  H9  ATP d   1      85.361  85.026 178.286  0.00  0.00     0.144 H 
ATOM     32  C5  ATP d   1      84.451  85.702 175.271  0.00  0.00     0.149 A 
ATOM     33  C6  ATP d   1      83.802  86.251 174.049  0.00  0.00     0.155 A 
ATOM     34  C4  ATP d   1      85.470  84.652 175.079  0.00  0.00     0.167 A 
ATOM     35  N6  ATP d   1      82.848  87.204 174.149  0.00  0.00    -0.382 N 
ATOM     36  N1  ATP d   1      84.204  85.760 172.851  0.00  0.00    -0.222 NA
ATOM     37  H10 ATP d   1      82.403  87.579 173.299  0.00  0.00     0.157 HD
ATOM     38  H11 ATP d   1      82.566  87.555 175.075  0.00  0.00     0.157 HD
ATOM     39  C2  ATP d   1      85.161  84.792 172.749  0.00  0.00     0.091 A 
ATOM     40  N3  ATP d   1      85.774  84.239 173.815  0.00  0.00    -0.222 NA
ATOM     41  H12 ATP d   1      85.443  84.450 171.760  0.00  0.00     0.146 H 
ENDBRANCH   5  28
BRANCH   4  42
ATOM     42  O2' ATP d   1      88.923  84.566 176.398  0.00  0.00    -0.388 OA
ATOM     43  H7  ATP d   1      89.710  84.876 176.830  0.00  0.00     0.210 HD
ENDBRANCH   4  42
TORSDOF 10
