REMARK  5 active torsions:
REMARK  status: ('A' for Active; 'I' for Inactive)
REMARK    1  A    between atoms: C3_3  and  O3_10 
REMARK    2  A    between atoms: C4_4  and  O4_12 
REMARK    3  A    between atoms: C5_5  and  C6_6 
REMARK    4  A    between atoms: C6_6  and  O6_14 
REMARK    5  A    between atoms: C2_13  and  O2_11 
ROOT
ATOM      1  C1  MVL d   1      30.934  65.660  10.227  0.00  0.00     0.138 A 
ATOM      2  N10 MVL d   1      29.831  65.968   9.422  0.00  0.00    -0.332 N 
ATOM      3  C3  MVL d   1      32.549  66.009   8.286  0.00  0.00     0.093 C 
ATOM      4  C4  MVL d   1      31.298  65.813   7.415  0.00  0.00     0.085 C 
ATOM      5  C5  MVL d   1      29.951  66.259   7.988  0.00  0.00     0.065 C 
ATOM      6  C7  MVL d   1      29.161  65.797  11.500  0.00  0.00     0.019 A 
ATOM      7  C8  MVL d   1      28.757  66.070  10.240  0.00  0.00    -0.001 A 
ATOM      8  N1  MVL d   1      30.473  65.563  11.494  0.00  0.00    -0.243 NA
ATOM      9  C2  MVL d   1      32.396  65.556   9.690  0.00  0.00     0.119 C 
ATOM     10  H1  MVL d   1      32.721  67.094   8.343  0.00  0.00     0.091 H 
ATOM     11  H2  MVL d   1      31.238  64.758   7.109  0.00  0.00     0.090 H 
ATOM     12  H3  MVL d   1      29.887  67.351   7.874  0.00  0.00     0.080 H 
ATOM     13  H6  MVL d   1      28.518  65.772  12.379  0.00  0.00     0.117 H 
ATOM     14  H7  MVL d   1      27.744  66.327   9.935  0.00  0.00     0.113 H 
ATOM     15  H11 MVL d   1      32.929  66.311  10.287  0.00  0.00     0.099 H 
ENDROOT
BRANCH   5  16
ATOM     16  C6  MVL d   1      28.831  65.651   7.185  0.00  0.00     0.038 C 
ATOM     17  H4  MVL d   1      28.880  64.555   7.264  0.00  0.00     0.077 H 
ATOM     18  H5  MVL d   1      28.936  65.948   6.131  0.00  0.00     0.077 H 
BRANCH  16  19
ATOM     19  O6  MVL d   1      27.581  66.101   7.676  0.00  0.00    -0.399 OA
ATOM     20  H12 MVL d   1      27.537  67.047   7.607  0.00  0.00     0.209 HD
ENDBRANCH  16  19
ENDBRANCH   5  16
BRANCH   4  21
ATOM     21  O4  MVL d   1      31.458  66.691   6.294  0.00  0.00    -0.391 OA
ATOM     22  H10 MVL d   1      32.279  66.498   5.856  0.00  0.00     0.210 HD
ENDBRANCH   4  21
BRANCH   3  23
ATOM     23  O3  MVL d   1      33.667  65.460   7.632  0.00  0.00    -0.390 OA
ATOM     24  H8  MVL d   1      33.790  65.897   6.797  0.00  0.00     0.210 HD
ENDBRANCH   3  23
BRANCH   9  25
ATOM     25  O2  MVL d   1      33.147  64.374   9.906  0.00  0.00    -0.385 OA
ATOM     26  H9  MVL d   1      34.065  64.547   9.732  0.00  0.00     0.210 HD
ENDBRANCH   9  25
TORSDOF 5
