REMARK  14 active torsions:
REMARK  status: ('A' for Active; 'I' for Inactive)
REMARK    1  A    between atoms: C1_1  and  N1_2 
REMARK    2  A    between atoms: N1_2  and  C8_13 
REMARK    3  A    between atoms: C2_3  and  O2_4 
REMARK    4  A    between atoms: C3_5  and  O3_6 
REMARK    5  A    between atoms: C4_7  and  O4_8 
REMARK    6  A    between atoms: C5_9  and  C6_10 
REMARK    7  A    between atoms: C6_10  and  O6_11 
REMARK    8  A    between atoms: C8_13  and  C9_14 
REMARK    9  A    between atoms: C9_14  and  C10_15 
REMARK   10  A    between atoms: C10_15  and  C11_16 
REMARK   11  A    between atoms: C11_16  and  C12_17 
REMARK   12  A    between atoms: C12_17  and  C13_18 
REMARK   13  A    between atoms: C13_18  and  C14_19 
REMARK   14  A    between atoms: C14_19  and  C15_20 
ROOT
ATOM      1  N1  OEV d   1      30.664  65.654  10.988  0.00  0.00    -0.065 N 
ATOM      2  H2  OEV d   1      31.460  65.591  11.603  0.00  0.00     0.278 HD
ATOM      3  H3  OEV d   1      30.440  64.738  10.632  0.00  0.00     0.278 HD
ENDROOT
BRANCH   1   4
ATOM      4  C1  OEV d   1      31.009  66.499   9.883  0.00  0.00     0.145 C 
ATOM      5  C2  OEV d   1      32.092  65.757   9.039  0.00  0.00     0.093 C 
ATOM      6  C3  OEV d   1      32.452  66.621   7.871  0.00  0.00     0.091 C 
ATOM      7  H4  OEV d   1      31.659  64.822   8.653  0.00  0.00     0.090 H 
ATOM      8  C4  OEV d   1      31.247  66.778   6.926  0.00  0.00     0.086 C 
ATOM      9  H6  OEV d   1      32.700  67.612   8.278  0.00  0.00     0.091 H 
ATOM     10  C5  OEV d   1      29.915  67.005   7.670  0.00  0.00    -0.027 C 
ATOM     11  H8  OEV d   1      31.142  65.817   6.401  0.00  0.00     0.094 H 
ATOM     12  C7  OEV d   1      29.817  66.848   9.023  0.00  0.00    -0.064 C 
ATOM     13  H13 OEV d   1      28.846  66.979   9.498  0.00  0.00     0.080 H 
ATOM     14  H1  OEV d   1      31.435  67.435  10.274  0.00  0.00     0.094 H 
BRANCH   5  15
ATOM     15  O2  OEV d   1      33.175  65.425   9.825  0.00  0.00    -0.390 OA
ATOM     16  H5  OEV d   1      33.555  66.216  10.188  0.00  0.00     0.210 HD
ENDBRANCH   5  15
BRANCH   6  17
ATOM     17  O3  OEV d   1      33.542  66.206   7.120  0.00  0.00    -0.390 OA
ATOM     18  H7  OEV d   1      33.686  66.818   6.408  0.00  0.00     0.210 HD
ENDBRANCH   6  17
BRANCH   8  19
ATOM     19  O4  OEV d   1      31.480  67.732   5.949  0.00  0.00    -0.388 OA
ATOM     20  H9  OEV d   1      32.234  67.476   5.431  0.00  0.00     0.210 HD
ENDBRANCH   8  19
BRANCH  10  21
ATOM     21  C6  OEV d   1      28.692  67.329   6.837  0.00  0.00     0.039 C 
ATOM     22  H10 OEV d   1      28.711  66.709   5.929  0.00  0.00     0.081 H 
ATOM     23  H11 OEV d   1      28.730  68.392   6.556  0.00  0.00     0.081 H 
BRANCH  21  24
ATOM     24  O6  OEV d   1      27.509  67.092   7.509  0.00  0.00    -0.397 OA
ATOM     25  H12 OEV d   1      27.462  66.174   7.750  0.00  0.00     0.209 HD
ENDBRANCH  21  24
ENDBRANCH  10  21
ENDBRANCH   1   4
BRANCH   1  26
ATOM     26  C8  OEV d   1      29.529  66.141  11.753  0.00  0.00     0.083 C 
ATOM     27  H14 OEV d   1      29.392  65.500  12.636  0.00  0.00     0.075 H 
ATOM     28  H15 OEV d   1      28.628  66.097  11.124  0.00  0.00     0.075 H 
BRANCH  26  29
ATOM     29  C9  OEV d   1      29.740  67.565  12.208  0.00  0.00    -0.043 C 
ATOM     30  H16 OEV d   1      29.431  68.240  11.396  0.00  0.00     0.035 H 
ATOM     31  H17 OEV d   1      30.810  67.709  12.417  0.00  0.00     0.035 H 
BRANCH  29  32
ATOM     32  C10 OEV d   1      28.942  67.929  13.476  0.00  0.00    -0.064 C 
ATOM     33  H18 OEV d   1      29.374  68.849  13.897  0.00  0.00     0.033 H 
ATOM     34  H19 OEV d   1      29.056  67.106  14.197  0.00  0.00     0.033 H 
BRANCH  32  35
ATOM     35  C11 OEV d   1      27.462  68.163  13.264  0.00  0.00    -0.065 C 
ATOM     36  H20 OEV d   1      27.230  69.187  13.592  0.00  0.00     0.033 H 
ATOM     37  H21 OEV d   1      26.912  67.444  13.889  0.00  0.00     0.033 H 
BRANCH  35  38
ATOM     38  C12 OEV d   1      26.986  68.010  11.856  0.00  0.00    -0.065 C 
ATOM     39  H22 OEV d   1      27.035  66.942  11.598  0.00  0.00     0.033 H 
ATOM     40  H23 OEV d   1      27.669  68.576  11.206  0.00  0.00     0.033 H 
BRANCH  38  41
ATOM     41  C13 OEV d   1      25.547  68.501  11.572  0.00  0.00    -0.065 C 
ATOM     42  H24 OEV d   1      25.531  69.020  10.602  0.00  0.00     0.033 H 
ATOM     43  H25 OEV d   1      25.244  69.199  12.366  0.00  0.00     0.033 H 
BRANCH  41  44
ATOM     44  C14 OEV d   1      24.571  67.353  11.530  0.00  0.00    -0.069 C 
ATOM     45  H26 OEV d   1      23.806  67.525  12.301  0.00  0.00     0.032 H 
ATOM     46  H27 OEV d   1      25.120  66.428  11.758  0.00  0.00     0.032 H 
BRANCH  44  47
ATOM     47  C15 OEV d   1      23.866  67.169  10.196  0.00  0.00    -0.077 C 
ATOM     48  H28 OEV d   1      23.178  66.313  10.260  0.00  0.00     0.027 H 
ATOM     49  H29 OEV d   1      24.612  66.981   9.410  0.00  0.00     0.027 H 
ATOM     50  H30 OEV d   1      23.298  68.079   9.953  0.00  0.00     0.027 H 
ENDBRANCH  44  47
ENDBRANCH  41  44
ENDBRANCH  38  41
ENDBRANCH  35  38
ENDBRANCH  32  35
ENDBRANCH  29  32
ENDBRANCH  26  29
ENDBRANCH   1  26
TORSDOF 14
