REMARK  6 active torsions:
REMARK  status: ('A' for Active; 'I' for Inactive)
REMARK    1  A    between atoms: N1_2  and  O7_5 
REMARK    2  A    between atoms: C2_3  and  O2_6 
REMARK    3  A    between atoms: C3_7  and  O3_8 
REMARK    4  A    between atoms: C4_9  and  O4_10 
REMARK    5  A    between atoms: C5_11  and  C6_12 
REMARK    6  A    between atoms: C6_12  and  O6_13 
ROOT
ATOM      1  C1  GOX d   1      30.833  65.853   9.760  0.00  0.00     0.159 C 
ATOM      2  N1  GOX d   1      30.725  65.802  11.068  0.00  0.00    -0.120 NA
ATOM      3  C2  GOX d   1      31.983  65.230   9.009  0.00  0.00     0.121 C 
ATOM      4  N5  GOX d   1      29.853  66.458   9.017  0.00  0.00    -0.365 N 
ATOM      5  C3  GOX d   1      32.408  66.197   7.913  0.00  0.00     0.094 C 
ATOM      6  C4  GOX d   1      31.263  66.272   6.903  0.00  0.00     0.084 C 
ATOM      7  C5  GOX d   1      29.902  66.656   7.543  0.00  0.00     0.058 C 
ATOM      8  H1  GOX d   1      31.622  64.303   8.540  0.00  0.00     0.099 H 
ATOM      9  H2  GOX d   1      29.020  66.801   9.516  0.00  0.00     0.161 HD
ATOM     10  H5  GOX d   1      32.654  67.191   8.314  0.00  0.00     0.091 H 
ATOM     11  H7  GOX d   1      31.162  65.280   6.439  0.00  0.00     0.090 H 
ATOM     12  H9  GOX d   1      29.768  67.734   7.372  0.00  0.00     0.079 H 
ENDROOT
BRANCH   7  13
ATOM     13  C6  GOX d   1      28.756  65.948   6.833  0.00  0.00     0.038 C 
ATOM     14  H10 GOX d   1      28.862  64.858   6.939  0.00  0.00     0.077 H 
ATOM     15  H11 GOX d   1      28.751  66.214   5.766  0.00  0.00     0.077 H 
BRANCH  13  16
ATOM     16  O6  GOX d   1      27.533  66.390   7.459  0.00  0.00    -0.399 OA
ATOM     17  H12 GOX d   1      27.454  67.332   7.367  0.00  0.00     0.209 HD
ENDBRANCH  13  16
ENDBRANCH   7  13
BRANCH   6  18
ATOM     18  O4  GOX d   1      31.532  67.224   5.892  0.00  0.00    -0.391 OA
ATOM     19  H8  GOX d   1      32.326  66.980   5.432  0.00  0.00     0.210 HD
ENDBRANCH   6  18
BRANCH   5  20
ATOM     20  O3  GOX d   1      33.537  65.588   7.276  0.00  0.00    -0.390 OA
ATOM     21  H6  GOX d   1      33.847  66.152   6.577  0.00  0.00     0.210 HD
ENDBRANCH   5  20
BRANCH   2  22
ATOM     22  O7  GOX d   1      29.626  66.408  11.611  0.00  0.00    -0.265 OA
ATOM     23  H3  GOX d   1      29.647  66.312  12.556  0.00  0.00     0.247 HD
ENDBRANCH   2  22
BRANCH   3  24
ATOM     24  O2  GOX d   1      33.087  64.890   9.833  0.00  0.00    -0.385 OA
ATOM     25  H4  GOX d   1      33.417  65.673  10.257  0.00  0.00     0.210 HD
ENDBRANCH   3  24
TORSDOF 6
