REMARK  8 active torsions:
REMARK  status: ('A' for Active; 'I' for Inactive)
REMARK    1  A    between atoms: C5_3  and  C6_4 
REMARK    2  A    between atoms: C6_4  and  O6_5 
REMARK    3  A    between atoms: C4_6  and  O4_7 
REMARK    4  A    between atoms: C3_8  and  O3_9 
REMARK    5  A    between atoms: C2_10  and  O2_11 
REMARK    6  A    between atoms: O7_23  and  N1_12 
REMARK    7  A    between atoms: N9_20  and  C9_19 
REMARK       I    between atoms: C8_21  and  N9_20 
REMARK    8  A    between atoms: C8_21  and  O7_23 
ROOT
ATOM      1  C1  GHR d   1      30.598  65.143  10.033  0.00  0.00     0.160 C 
ATOM      2  N5  GHR d   1      29.626  65.806   9.294  0.00  0.00    -0.365 N 
ATOM      3  C5  GHR d   1      29.695  65.973   7.824  0.00  0.00     0.058 C 
ATOM      4  C4  GHR d   1      31.041  65.537   7.197  0.00  0.00     0.084 C 
ATOM      5  C3  GHR d   1      32.168  65.445   8.206  0.00  0.00     0.094 C 
ATOM      6  C2  GHR d   1      31.736  64.468   9.274  0.00  0.00     0.121 C 
ATOM      7  N1  GHR d   1      30.557  65.090  11.365  0.00  0.00    -0.107 NA
ATOM      8  H1  GHR d   1      28.817  66.201   9.794  0.00  0.00     0.161 HD
ATOM      9  H2  GHR d   1      29.606  67.053   7.635  0.00  0.00     0.079 H 
ATOM     10  H6  GHR d   1      30.913  64.542   6.746  0.00  0.00     0.090 H 
ATOM     11  H8  GHR d   1      32.384  66.432   8.641  0.00  0.00     0.091 H 
ATOM     12  H10 GHR d   1      31.365  63.546   8.803  0.00  0.00     0.099 H 
ENDROOT
BRANCH   6  13
ATOM     13  O2  GHR d   1      32.811  64.135  10.119  0.00  0.00    -0.385 OA
ATOM     14  H11 GHR d   1      33.137  64.922  10.540  0.00  0.00     0.210 HD
ENDBRANCH   6  13
BRANCH   7  15
ATOM     15  O7  GHR d   1      29.601  65.613  12.199  0.00  0.00    -0.154 OA
BRANCH  15  16
ATOM     16  C8  GHR d   1      28.760  66.636  11.840  0.00  0.00     0.389 C 
ATOM     17  N9  GHR d   1      28.598  67.644  12.715  0.00  0.00    -0.301 N 
ATOM     18  H16 GHR d   1      27.959  68.377  12.479  0.00  0.00     0.171 HD
ATOM     19  O8  GHR d   1      28.084  66.608  10.817  0.00  0.00    -0.236 OA
BRANCH  17  20
ATOM     20  C9  GHR d   1      29.241  67.720  13.878  0.00  0.00     0.037 A 
ATOM     21  C10 GHR d   1      30.560  67.311  13.994  0.00  0.00    -0.056 A 
ATOM     22  C11 GHR d   1      31.204  67.392  15.210  0.00  0.00    -0.060 A 
ATOM     23  H13 GHR d   1      31.086  66.927  13.127  0.00  0.00     0.087 H 
ATOM     24  C12 GHR d   1      30.563  67.875  16.335  0.00  0.00     0.034 A 
ATOM     25  H12 GHR d   1      32.236  67.070  15.286  0.00  0.00     0.086 H 
ATOM     26 CL12 GHR d   1      31.395  67.959  17.859  0.00  0.00    -0.084 Cl
ATOM     27  C13 GHR d   1      29.239  68.283  16.224  0.00  0.00    -0.060 A 
ATOM     28  C14 GHR d   1      28.582  68.205  14.996  0.00  0.00    -0.056 A 
ATOM     29  H14 GHR d   1      28.716  68.663  17.094  0.00  0.00     0.086 H 
ATOM     30  H15 GHR d   1      27.550  68.526  14.916  0.00  0.00     0.087 H 
ENDBRANCH  17  20
ENDBRANCH  15  16
ENDBRANCH   7  15
BRANCH   3  31
ATOM     31  C6  GHR d   1      28.511  65.310   7.129  0.00  0.00     0.038 C 
ATOM     32  H3  GHR d   1      28.599  64.216   7.208  0.00  0.00     0.077 H 
ATOM     33  H4  GHR d   1      28.492  65.601   6.068  0.00  0.00     0.077 H 
BRANCH  31  34
ATOM     34  O6  GHR d   1      27.329  65.739   7.761  0.00  0.00    -0.399 OA
ATOM     35  H5  GHR d   1      27.260  66.684   7.692  0.00  0.00     0.209 HD
ENDBRANCH  31  34
ENDBRANCH   3  31
BRANCH   5  36
ATOM     36  O3  GHR d   1      33.309  64.926   7.566  0.00  0.00    -0.390 OA
ATOM     37  H9  GHR d   1      33.560  65.502   6.854  0.00  0.00     0.210 HD
ENDBRANCH   5  36
BRANCH   4  38
ATOM     38  O4  GHR d   1      31.338  66.465   6.182  0.00  0.00    -0.391 OA
ATOM     39  H7  GHR d   1      32.162  66.230   5.771  0.00  0.00     0.210 HD
ENDBRANCH   4  38
TORSDOF 8
