REMARK  5 active torsions:
REMARK  status: ('A' for Active; 'I' for Inactive)
REMARK    1  A    between atoms: C1'_19  and  N1_4 
REMARK    2  A    between atoms: C5'_12  and  NBA_11 
REMARK    3  A    between atoms: C4'_13  and  C5'_12 
REMARK    4  A    between atoms: C3'_15  and  O3'_16 
REMARK    5  A    between atoms: C2'_17  and  O2'_18 
ROOT
ATOM      1  C4' U1S d   1      38.752  -0.845  13.902  0.00  0.00     0.091 C 
ATOM      2  O4' U1S d   1      38.813  -1.426  12.554  0.00  0.00    -0.354 OA
ATOM      3  C3' U1S d   1      38.201   0.518  13.566  0.00  0.00     0.091 C 
ATOM      4  C2' U1S d   1      37.008   0.120  12.725  0.00  0.00     0.105 C 
ATOM      5  C1' U1S d   1      37.483  -1.176  12.009  0.00  0.00     0.141 C 
ATOM      6  H17 U1S d   1      38.025  -1.414  14.500  0.00  0.00     0.090 H 
ATOM      7  H18 U1S d   1      38.929   1.127  13.010  0.00  0.00     0.091 H 
ATOM      8  H20 U1S d   1      36.092  -0.045  13.310  0.00  0.00     0.093 H 
ATOM      9  H22 U1S d   1      37.559  -0.970  10.931  0.00  0.00     0.123 H 
ENDROOT
BRANCH   1  10
ATOM     10  C5' U1S d   1      40.044  -0.759  14.748  0.00  0.00     0.110 C 
ATOM     11  H15 U1S d   1      40.210   0.289  15.038  0.00  0.00     0.080 H 
ATOM     12  H16 U1S d   1      39.919  -1.374  15.651  0.00  0.00     0.080 H 
BRANCH  10  13
ATOM     13  NBA U1S d   1      41.222  -1.239  14.004  0.00  0.00    -0.069 N 
ATOM     14  CAM U1S d   1      42.307  -0.232  14.126  0.00  0.00     0.084 C 
ATOM     15  CAK U1S d   1      43.074  -0.329  15.465  0.00  0.00    -0.042 C 
ATOM     16  H8  U1S d   1      43.020  -0.383  13.302  0.00  0.00     0.076 H 
ATOM     17  H9  U1S d   1      41.864   0.772  14.048  0.00  0.00     0.076 H 
ATOM     18  CAV U1S d   1      43.667  -1.728  15.686  0.00  0.00    -0.062 C 
ATOM     19  H6  U1S d   1      43.892   0.407  15.460  0.00  0.00     0.035 H 
ATOM     20  H7  U1S d   1      42.381  -0.102  16.289  0.00  0.00     0.035 H 
ATOM     21  CAJ U1S d   1      43.119  -2.726  14.656  0.00  0.00    -0.042 C 
ATOM     22  H4  U1S d   1      43.406  -2.074  16.697  0.00  0.00     0.033 H 
ATOM     23  H5  U1S d   1      44.761  -1.675  15.588  0.00  0.00     0.033 H 
ATOM     24  CAL U1S d   1      41.597  -2.585  14.491  0.00  0.00     0.084 C 
ATOM     25  H10 U1S d   1      43.349  -3.748  14.991  0.00  0.00     0.035 H 
ATOM     26  H11 U1S d   1      43.603  -2.540  13.686  0.00  0.00     0.035 H 
ATOM     27  H12 U1S d   1      41.115  -2.759  15.464  0.00  0.00     0.076 H 
ATOM     28  H13 U1S d   1      41.246  -3.336  13.768  0.00  0.00     0.076 H 
ATOM     29  H14 U1S d   1      40.981  -1.320  13.029  0.00  0.00     0.280 HD
ENDBRANCH  10  13
ENDBRANCH   1  10
BRANCH   3  30
ATOM     30  O3' U1S d   1      37.740   1.228  14.706  0.00  0.00    -0.390 OA
ATOM     31  H19 U1S d   1      37.406   2.075  14.436  0.00  0.00     0.210 HD
ENDBRANCH   3  30
BRANCH   5  32
ATOM     32  N1  U1S d   1      36.602  -2.390  12.172  0.00  0.00    -0.280 N 
ATOM     33  C6  U1S d   1      36.963  -3.433  13.062  0.00  0.00    -0.008 A 
ATOM     34  C5  U1S d   1      36.158  -4.563  13.213  0.00  0.00    -0.002 A 
ATOM     35  H2  U1S d   1      37.884  -3.351  13.637  0.00  0.00     0.112 H 
ATOM     36  C4  U1S d   1      34.983  -4.678  12.476  0.00  0.00     0.250 A 
ATOM     37  H1  U1S d   1      36.448  -5.352  13.905  0.00  0.00     0.094 H 
ATOM     38  N3  U1S d   1      34.614  -3.662  11.576  0.00  0.00    -0.275 N 
ATOM     39  O4  U1S d   1      34.275  -5.674  12.604  0.00  0.00    -0.268 OA
ATOM     40  C2  U1S d   1      35.416  -2.516  11.424  0.00  0.00     0.331 A 
ATOM     41  H3  U1S d   1      33.775  -3.755  11.040  0.00  0.00     0.173 HD
ATOM     42  O2  U1S d   1      35.066  -1.639  10.635  0.00  0.00    -0.246 OA
ENDBRANCH   5  32
BRANCH   4  43
ATOM     43  O2' U1S d   1      36.867   1.195  11.812  0.00  0.00    -0.388 OA
ATOM     44  H21 U1S d   1      36.716   2.000  12.293  0.00  0.00     0.210 HD
ENDBRANCH   4  43
TORSDOF 5
