REMARK  5 active torsions:
REMARK  status: ('A' for Active; 'I' for Inactive)
REMARK    1  A    between atoms: C1'_19  and  N1_4 
REMARK    2  A    between atoms: C5'_12  and  NBA_11 
REMARK    3  A    between atoms: C4'_13  and  C5'_12 
REMARK    4  A    between atoms: C3'_15  and  O3'_16 
REMARK    5  A    between atoms: C2'_17  and  O2'_18 
ROOT
ATOM      1  C4' U2S d   1      38.557  -0.835  13.849  0.00  0.00     0.091 C 
ATOM      2  O4' U2S d   1      38.709  -1.355  12.477  0.00  0.00    -0.354 OA
ATOM      3  C3' U2S d   1      38.016   0.536  13.534  0.00  0.00     0.091 C 
ATOM      4  C2' U2S d   1      36.865   0.155  12.634  0.00  0.00     0.105 C 
ATOM      5  C1' U2S d   1      37.390  -1.108  11.906  0.00  0.00     0.141 C 
ATOM      6  H15 U2S d   1      37.799  -1.442  14.365  0.00  0.00     0.090 H 
ATOM      7  H16 U2S d   1      38.768   1.150  13.016  0.00  0.00     0.091 H 
ATOM      8  H18 U2S d   1      35.919  -0.029  13.164  0.00  0.00     0.093 H 
ATOM      9  H20 U2S d   1      37.475  -0.896  10.830  0.00  0.00     0.123 H 
ENDROOT
BRANCH   1  10
ATOM     10  C5' U2S d   1      39.752  -0.729  14.812  0.00  0.00     0.110 C 
ATOM     11  H13 U2S d   1      40.025   0.331  14.922  0.00  0.00     0.080 H 
ATOM     12  H14 U2S d   1      39.456  -1.135  15.790  0.00  0.00     0.080 H 
BRANCH  10  13
ATOM     13  NBA U2S d   1      40.917  -1.468  14.328  0.00  0.00    -0.065 N 
ATOM     14  CAM U2S d   1      41.390  -2.310  15.441  0.00  0.00     0.103 C 
ATOM     15  CAK U2S d   1      42.780  -2.888  15.126  0.00  0.00     0.042 C 
ATOM     16  H6  U2S d   1      41.450  -1.701  16.355  0.00  0.00     0.079 H 
ATOM     17  H7  U2S d   1      40.681  -3.136  15.596  0.00  0.00     0.079 H 
ATOM     18  OAM U2S d   1      43.670  -1.800  14.801  0.00  0.00    -0.388 OA
ATOM     19  H4  U2S d   1      43.163  -3.430  16.003  0.00  0.00     0.076 H 
ATOM     20  H5  U2S d   1      42.709  -3.577  14.271  0.00  0.00     0.076 H 
ATOM     21  CAJ U2S d   1      43.245  -1.111  13.604  0.00  0.00     0.042 C 
ATOM     22  CAL U2S d   1      41.900  -0.448  13.918  0.00  0.00     0.103 C 
ATOM     23  H8  U2S d   1      43.128  -1.828  12.778  0.00  0.00     0.076 H 
ATOM     24  H9  U2S d   1      43.986  -0.347  13.325  0.00  0.00     0.076 H 
ATOM     25  H10 U2S d   1      41.532   0.072  13.021  0.00  0.00     0.079 H 
ATOM     26  H11 U2S d   1      42.033   0.278  14.734  0.00  0.00     0.079 H 
ATOM     27  H12 U2S d   1      40.677  -2.050  13.541  0.00  0.00     0.280 HD
ENDBRANCH  10  13
ENDBRANCH   1  10
BRANCH   3  28
ATOM     28  O3' U2S d   1      37.512   1.254  14.655  0.00  0.00    -0.390 OA
ATOM     29  H17 U2S d   1      38.207   1.374  15.291  0.00  0.00     0.210 HD
ENDBRANCH   3  28
BRANCH   5  30
ATOM     30  N1  U2S d   1      36.533  -2.331  12.082  0.00  0.00    -0.280 N 
ATOM     31  C6  U2S d   1      36.910  -3.382  12.962  0.00  0.00    -0.008 A 
ATOM     32  C5  U2S d   1      36.119  -4.523  13.123  0.00  0.00    -0.002 A 
ATOM     33  H2  U2S d   1      37.838  -3.296  13.525  0.00  0.00     0.112 H 
ATOM     34  C4  U2S d   1      34.941  -4.630  12.385  0.00  0.00     0.250 A 
ATOM     35  H1  U2S d   1      36.417  -5.313  13.811  0.00  0.00     0.094 H 
ATOM     36  N3  U2S d   1      34.590  -3.611  11.494  0.00  0.00    -0.275 N 
ATOM     37  O4  U2S d   1      34.221  -5.621  12.475  0.00  0.00    -0.268 OA
ATOM     38  C2  U2S d   1      35.363  -2.462  11.334  0.00  0.00     0.331 A 
ATOM     39  H3  U2S d   1      33.755  -3.710  10.953  0.00  0.00     0.173 HD
ATOM     40  O2  U2S d   1      34.978  -1.579  10.568  0.00  0.00    -0.246 OA
ENDBRANCH   5  30
BRANCH   4  41
ATOM     41  O2' U2S d   1      36.788   1.258  11.753  0.00  0.00    -0.388 OA
ATOM     42  H19 U2S d   1      36.621   2.049  12.252  0.00  0.00     0.210 HD
ENDBRANCH   4  41
TORSDOF 5
