REMARK  17 active torsions:
REMARK  status: ('A' for Active; 'I' for Inactive)
REMARK    1  A    between atoms: PA_1  and  O3A_8 
REMARK    2  A    between atoms: O01_9  and  PA_1 
REMARK    3  A    between atoms: O3A_8  and  PB_5 
REMARK    4  A    between atoms: C01_10  and  O01_9 
REMARK    5  A    between atoms: C05_11  and  C01_10 
REMARK    6  A    between atoms: C04_12  and  C05_11 
REMARK    7  A    between atoms: C03_13  and  CM4_14 
REMARK    8  A    between atoms: C7_32  and  C02_16 
REMARK    9  A    between atoms: N3_17  and  C18_18 
REMARK   10  A    between atoms: C18_18  and  C19_19 
REMARK   11  A    between atoms: C21_21  and  N22_22 
REMARK   12  A    between atoms: C24_24  and  CM2_26 
REMARK   13  A    between atoms: P8_28  and  O9_30 
REMARK   14  A    between atoms: P8_28  and  C7_32 
REMARK   15  A    between atoms: O9_30  and  C10_31 
REMARK   16  A    between atoms: C7_32  and  O7_33 
REMARK   17  A    between atoms: C7_32  and  C2_34 
ROOT
ATOM      1  C04 D7K d   1     -40.273  22.913   4.038  0.00  0.00     0.004 C 
ATOM      2  C03 D7K d   1     -40.812  21.702   3.798  0.00  0.00     0.017 C 
ATOM      3  S1  D7K d   1     -39.628  23.019   5.553  0.00  0.00    -0.102 SA
ATOM      4  C02 D7K d   1     -40.331  21.520   6.134  0.00  0.00     0.107 C 
ATOM      5  N3  D7K d   1     -40.761  20.883   4.882  0.00  0.00    -0.361 N 
ATOM      6  H8  D7K d   1     -41.263  21.786   6.655  0.00  0.00     0.097 H 
ENDROOT
BRANCH   4   7
ATOM      7  C7  D7K d   1     -39.514  20.782   7.248  0.00  0.00     0.220 C 
BRANCH   7   8
ATOM      8  P8  D7K d   1     -37.997  19.867   6.849  0.00  0.00     0.292 P 
ATOM      9  O12 D7K d   1     -38.328  18.582   6.115  0.00  0.00    -0.644 OA
ATOM     10  O11 D7K d   1     -37.153  20.882   6.109  0.00  0.00    -0.644 OA
BRANCH   8  11
ATOM     11  O9  D7K d   1     -37.384  19.391   8.286  0.00  0.00    -0.315 OA
BRANCH  11  12
ATOM     12  C10 D7K d   1     -36.304  20.055   8.942  0.00  0.00     0.014 C 
ATOM     13  H17 D7K d   1     -36.080  19.543   9.889  0.00  0.00     0.067 H 
ATOM     14  H18 D7K d   1     -36.585  21.099   9.147  0.00  0.00     0.067 H 
ATOM     15  H19 D7K d   1     -35.414  20.035   8.295  0.00  0.00     0.067 H 
ENDBRANCH  11  12
ENDBRANCH   8  11
ENDBRANCH   7   8
BRANCH   7  16
ATOM     16  O7  D7K d   1     -40.375  19.782   7.787  0.00  0.00    -0.370 OA
ATOM     17  H20 D7K d   1     -40.521  19.107   7.135  0.00  0.00     0.212 HD
ENDBRANCH   7  16
BRANCH   7  18
ATOM     18  C2  D7K d   1     -39.273  21.821   8.318  0.00  0.00    -0.008 A 
ATOM     19  C3  D7K d   1     -40.195  21.947   9.371  0.00  0.00    -0.073 A 
ATOM     20  C4  D7K d   1     -40.008  22.927  10.362  0.00  0.00    -0.082 A 
ATOM     21  H21 D7K d   1     -41.053  21.287   9.419  0.00  0.00     0.084 H 
ATOM     22  C5  D7K d   1     -38.906  23.806  10.289  0.00  0.00    -0.083 A 
ATOM     23  H22 D7K d   1     -40.711  23.008  11.183  0.00  0.00     0.083 H 
ATOM     24  C6  D7K d   1     -37.994  23.685   9.239  0.00  0.00    -0.082 A 
ATOM     25  H23 D7K d   1     -38.769  24.571  11.044  0.00  0.00     0.083 H 
ATOM     26  C1  D7K d   1     -38.179  22.699   8.268  0.00  0.00    -0.073 A 
ATOM     27  H24 D7K d   1     -37.144  24.355   9.178  0.00  0.00     0.083 H 
ATOM     28  H25 D7K d   1     -37.463  22.610   7.459  0.00  0.00     0.084 H 
ENDBRANCH   7  18
ENDBRANCH   4   7
BRANCH   5  29
ATOM     29  C18 D7K d   1     -41.137  19.487   5.052  0.00  0.00     0.025 C 
ATOM     30  H9  D7K d   1     -40.748  19.114   6.011  0.00  0.00     0.071 H 
ATOM     31  H10 D7K d   1     -40.718  18.890   4.229  0.00  0.00     0.071 H 
BRANCH  29  32
ATOM     32  C19 D7K d   1     -42.628  19.379   5.041  0.00  0.00     0.023 A 
ATOM     33  C20 D7K d   1     -43.268  18.813   3.948  0.00  0.00     0.015 A 
ATOM     34  N25 D7K d   1     -44.615  18.696   3.995  0.00  0.00    -0.245 NA
ATOM     35  H11 D7K d   1     -42.707  18.475   3.084  0.00  0.00     0.116 H 
ATOM     36  C24 D7K d   1     -45.340  19.131   5.049  0.00  0.00     0.124 A 
ATOM     37  N23 D7K d   1     -44.704  19.682   6.109  0.00  0.00    -0.216 NA
ATOM     38  C21 D7K d   1     -43.370  19.801   6.133  0.00  0.00     0.132 A 
BRANCH  36  39
ATOM     39  CM2 D7K d   1     -46.846  19.022   5.110  0.00  0.00    -0.019 C 
ATOM     40  H14 D7K d   1     -47.206  19.442   6.061  0.00  0.00     0.037 H 
ATOM     41  H15 D7K d   1     -47.140  17.964   5.041  0.00  0.00     0.037 H 
ATOM     42  H16 D7K d   1     -47.288  19.581   4.272  0.00  0.00     0.037 H 
ENDBRANCH  36  39
BRANCH  38  43
ATOM     43  N22 D7K d   1     -42.815  20.335   7.249  0.00  0.00    -0.383 N 
ATOM     44  H12 D7K d   1     -43.416  20.632   8.031  0.00  0.00     0.157 HD
ATOM     45  H13 D7K d   1     -41.793  20.444   7.314  0.00  0.00     0.157 HD
ENDBRANCH  38  43
ENDBRANCH  29  32
ENDBRANCH   5  29
BRANCH   1  46
ATOM     46  C05 D7K d   1     -40.231  24.119   3.091  0.00  0.00    -0.013 C 
ATOM     47  H3  D7K d   1     -39.220  24.550   3.133  0.00  0.00     0.044 H 
ATOM     48  H4  D7K d   1     -40.435  23.759   2.072  0.00  0.00     0.044 H 
BRANCH  46  49
ATOM     49  C01 D7K d   1     -41.247  25.245   3.415  0.00  0.00     0.036 C 
ATOM     50  H1  D7K d   1     -42.206  24.785   3.697  0.00  0.00     0.075 H 
ATOM     51  H2  D7K d   1     -40.862  25.837   4.259  0.00  0.00     0.075 H 
BRANCH  49  52
ATOM     52  O01 D7K d   1     -41.467  26.127   2.291  0.00  0.00    -0.289 OA
BRANCH  52  53
ATOM     53  PA  D7K d   1     -42.215  27.562   2.391  0.00  0.00     0.418 P 
ATOM     54  O1A D7K d   1     -42.315  28.125   0.988  0.00  0.00    -0.624 OA
ATOM     55  O2A D7K d   1     -43.548  27.480   3.106  0.00  0.00    -0.624 OA
BRANCH  53  56
ATOM     56  O3A D7K d   1     -41.347  28.480   3.367  0.00  0.00    -0.173 OA
BRANCH  56  57
ATOM     57  PB  D7K d   1     -39.785  28.910   3.356  0.00  0.00     0.431 P 
ATOM     58  O1B D7K d   1     -39.966  30.187   4.166  0.00  0.00    -0.616 OA
ATOM     59  O2B D7K d   1     -39.438  28.975   1.878  0.00  0.00    -0.616 OA
ATOM     60  O3B D7K d   1     -38.924  27.905   4.085  0.00  0.00    -0.616 OA
ENDBRANCH  56  57
ENDBRANCH  53  56
ENDBRANCH  52  53
ENDBRANCH  49  52
ENDBRANCH  46  49
ENDBRANCH   1  46
BRANCH   2  61
ATOM     61  CM4 D7K d   1     -41.439  21.314   2.485  0.00  0.00    -0.037 C 
ATOM     62  H5  D7K d   1     -41.350  22.149   1.775  0.00  0.00     0.035 H 
ATOM     63  H6  D7K d   1     -42.502  21.078   2.642  0.00  0.00     0.035 H 
ATOM     64  H7  D7K d   1     -40.923  20.431   2.079  0.00  0.00     0.035 H 
ENDBRANCH   2  61
TORSDOF 17
