REMARK  7 active torsions:
REMARK  status: ('A' for Active; 'I' for Inactive)
REMARK    1  A    between atoms: C4_8  and  C9_1 
REMARK    2  A    between atoms: N15_14  and  C18_4 
REMARK    3  A    between atoms: C23_26  and  C24_7 
REMARK    4  A    between atoms: C7_11  and  C12_12 
REMARK       I    between atoms: C12_12  and  N15_14 
REMARK    5  A    between atoms: C2_17  and  C1_16 
REMARK    6  A    between atoms: C17_23  and  C14_20 
REMARK       I    between atoms: N19_25  and  C17_23 
REMARK    7  A    between atoms: N19_25  and  C23_26 
ROOT
ATOM      1  C4  GK5 d   1      39.547  31.335  31.353  0.00  0.00    -0.051 A 
ATOM      2  C8  GK5 d   1      38.408  30.525  31.589  0.00  0.00    -0.075 A 
ATOM      3  C13 GK5 d   1      38.312  29.639  32.665  0.00  0.00    -0.067 A 
ATOM      4  C7  GK5 d   1      39.381  29.509  33.571  0.00  0.00     0.032 A 
ATOM      5  C3  GK5 d   1      40.506  30.325  33.311  0.00  0.00    -0.057 A 
ATOM      6  C1  GK5 d   1      40.610  31.227  32.226  0.00  0.00    -0.019 A 
ATOM      7  H10 GK5 d   1      37.572  30.596  30.902  0.00  0.00     0.084 H 
ATOM      8  H11 GK5 d   1      37.412  29.050  32.802  0.00  0.00     0.085 H 
ATOM      9  H13 GK5 d   1      41.348  30.255  33.990  0.00  0.00     0.086 H 
ENDROOT
BRANCH   6  10
ATOM     10  C2  GK5 d   1      41.911  31.977  32.176  0.00  0.00    -0.025 A 
ATOM     11  C5  GK5 d   1      42.987  31.506  31.448  0.00  0.00    -0.071 A 
ATOM     12  C10 GK5 d   1      44.212  32.192  31.466  0.00  0.00    -0.067 A 
ATOM     13  H14 GK5 d   1      42.885  30.601  30.860  0.00  0.00     0.084 H 
ATOM     14  C14 GK5 d   1      44.400  33.346  32.242  0.00  0.00     0.032 A 
ATOM     15  H15 GK5 d   1      45.034  31.820  30.865  0.00  0.00     0.085 H 
ATOM     16  C11 GK5 d   1      43.317  33.773  33.010  0.00  0.00    -0.067 A 
ATOM     17  C6  GK5 d   1      42.099  33.092  32.956  0.00  0.00    -0.071 A 
ATOM     18  H16 GK5 d   1      43.421  34.639  33.653  0.00  0.00     0.085 H 
ATOM     19  H17 GK5 d   1      41.270  33.457  33.552  0.00  0.00     0.084 H 
BRANCH  14  20
ATOM     20  C17 GK5 d   1      45.691  34.092  32.392  0.00  0.00     0.251 C 
ATOM     21  O20 GK5 d   1      45.788  35.270  32.745  0.00  0.00    -0.268 OA
ATOM     22  N19 GK5 d   1      46.791  33.299  32.265  0.00  0.00    -0.356 N 
ATOM     23  H18 GK5 d   1      46.669  32.417  31.809  0.00  0.00     0.162 HD
BRANCH  22  24
ATOM     24  C23 GK5 d   1      48.144  33.629  32.742  0.00  0.00     0.005 C 
ATOM     25  H19 GK5 d   1      48.079  34.148  33.709  0.00  0.00     0.065 H 
ATOM     26  H20 GK5 d   1      48.730  32.706  32.860  0.00  0.00     0.065 H 
BRANCH  24  27
ATOM     27  C24 GK5 d   1      48.811  34.530  31.723  0.00  0.00    -0.006 A 
ATOM     28  C26 GK5 d   1      49.027  33.927  30.393  0.00  0.00    -0.097 A 
ATOM     29  C25 GK5 d   1      50.185  34.214  31.283  0.00  0.00    -0.097 A 
ATOM     30  H7  GK5 d   1      48.630  33.549  29.452  0.00  0.00     0.077 H 
ATOM     31  H8  GK5 d   1      51.258  34.201  31.471  0.00  0.00     0.077 H 
ATOM     32  H9  GK5 d   1      48.485  35.574  31.841  0.00  0.00     0.054 H 
ENDBRANCH  24  27
ENDBRANCH  22  24
ENDBRANCH  14  20
ENDBRANCH   6  10
BRANCH   1  33
ATOM     33  C9  GK5 d   1      39.630  32.309  30.181  0.00  0.00    -0.050 C 
ATOM     34  H1  GK5 d   1      38.699  32.260  29.597  0.00  0.00     0.033 H 
ATOM     35  H2  GK5 d   1      40.480  32.038  29.538  0.00  0.00     0.033 H 
ATOM     36  H3  GK5 d   1      39.770  33.331  30.563  0.00  0.00     0.033 H 
ENDBRANCH   1  33
BRANCH   4  37
ATOM     37  C12 GK5 d   1      39.405  28.585  34.764  0.00  0.00     0.252 C 
ATOM     38  O16 GK5 d   1      40.286  28.721  35.631  0.00  0.00    -0.268 OA
ATOM     39  N15 GK5 d   1      38.417  27.623  34.905  0.00  0.00    -0.346 N 
ATOM     40  H12 GK5 d   1      37.692  27.588  34.217  0.00  0.00     0.163 HD
BRANCH  39  41
ATOM     41  C18 GK5 d   1      38.373  26.666  35.990  0.00  0.00     0.045 A 
ATOM     42  C22 GK5 d   1      36.971  26.719  36.516  0.00  0.00    -0.079 A 
ATOM     43  C21 GK5 d   1      38.058  27.405  37.255  0.00  0.00    -0.079 A 
ATOM     44  H4  GK5 d   1      35.920  26.450  36.423  0.00  0.00     0.080 H 
ATOM     45  H5  GK5 d   1      38.387  28.007  38.101  0.00  0.00     0.080 H 
ATOM     46  H6  GK5 d   1      39.013  25.775  35.904  0.00  0.00     0.085 H 
ENDBRANCH  39  41
ENDBRANCH   4  37
TORSDOF 7
