REMARK  8 active torsions:
REMARK  status: ('A' for Active; 'I' for Inactive)
REMARK       I    between atoms: C24_2  and  N4_3 
REMARK    1  A    between atoms: C24_2  and  C21_8 
REMARK    2  A    between atoms: N4_3  and  C25_4 
REMARK    3  A    between atoms: C25_4  and  C26_5 
REMARK    4  A    between atoms: C18_13  and  C17_14 
REMARK    5  A    between atoms: C2_15  and  C1_16 
REMARK    6  A    between atoms: C5_18  and  N1_21 
REMARK       I    between atoms: N1_21  and  C6_22 
REMARK    7  A    between atoms: C6_22  and  C7_24 
REMARK    8  A    between atoms: C10_26  and  N3_30 
ROOT
ATOM      1  C17 GK6 d   1      41.122  31.128  32.335  0.00  0.00    -0.018 A 
ATOM      2  C2  GK6 d   1      39.964  31.526  31.645  0.00  0.00    -0.051 A 
ATOM      3  C16 GK6 d   1      40.990  30.150  33.336  0.00  0.00    -0.046 A 
ATOM      4  C5  GK6 d   1      39.724  29.613  33.676  0.00  0.00     0.035 A 
ATOM      5  C4  GK6 d   1      38.579  30.037  32.991  0.00  0.00    -0.057 A 
ATOM      6  C3  GK6 d   1      38.705  30.995  31.966  0.00  0.00    -0.074 A 
ATOM      7  H16 GK6 d   1      41.874  29.800  33.858  0.00  0.00     0.088 H 
ATOM      8  H17 GK6 d   1      37.606  29.633  33.247  0.00  0.00     0.086 H 
ATOM      9  H18 GK6 d   1      37.826  31.323  31.423  0.00  0.00     0.084 H 
ENDROOT
BRANCH   4  10
ATOM     10  N1  GK6 d   1      39.581  28.685  34.669  0.00  0.00    -0.323 N 
ATOM     11  C6  GK6 d   1      40.202  28.710  35.876  0.00  0.00     0.256 C 
ATOM     12  O1  GK6 d   1      41.120  29.470  36.168  0.00  0.00    -0.267 OA
ATOM     13  H19 GK6 d   1      38.964  27.919  34.490  0.00  0.00     0.169 HD
BRANCH  11  14
ATOM     14  C7  GK6 d   1      39.799  27.713  36.957  0.00  0.00     0.037 A 
ATOM     15  C11 GK6 d   1      40.100  27.985  38.311  0.00  0.00    -0.024 A 
ATOM     16  C10 GK6 d   1      39.745  27.041  39.298  0.00  0.00     0.126 A 
ATOM     17  H20 GK6 d   1      40.597  28.907  38.588  0.00  0.00     0.090 H 
ATOM     18  N2  GK6 d   1      39.150  25.884  38.914  0.00  0.00    -0.243 NA
ATOM     19  C9  GK6 d   1      38.861  25.597  37.623  0.00  0.00     0.005 A 
ATOM     20  C8  GK6 d   1      39.185  26.500  36.604  0.00  0.00    -0.051 A 
ATOM     21  H21 GK6 d   1      38.375  24.660  37.377  0.00  0.00     0.114 H 
ATOM     22  H22 GK6 d   1      38.967  26.269  35.568  0.00  0.00     0.087 H 
BRANCH  16  23
ATOM     23  N3  GK6 d   1      40.060  27.277  40.659  0.00  0.00    -0.362 N 
ATOM     24  C15 GK6 d   1      39.984  26.146  41.584  0.00  0.00     0.016 C 
ATOM     25  C14 GK6 d   1      39.854  26.637  43.027  0.00  0.00     0.034 C 
ATOM     26  H23 GK6 d   1      40.897  25.540  41.489  0.00  0.00     0.067 H 
ATOM     27  H24 GK6 d   1      39.108  25.531  41.331  0.00  0.00     0.067 H 
ATOM     28  O2  GK6 d   1      40.774  27.698  43.270  0.00  0.00    -0.388 OA
ATOM     29  H25 GK6 d   1      40.068  25.806  43.715  0.00  0.00     0.076 H 
ATOM     30  H26 GK6 d   1      38.829  26.999  43.197  0.00  0.00     0.076 H 
ATOM     31  C13 GK6 d   1      40.355  28.840  42.526  0.00  0.00     0.034 C 
ATOM     32  C12 GK6 d   1      40.592  28.605  41.032  0.00  0.00     0.016 C 
ATOM     33  H27 GK6 d   1      40.930  29.719  42.852  0.00  0.00     0.076 H 
ATOM     34  H28 GK6 d   1      39.284  29.017  42.702  0.00  0.00     0.076 H 
ATOM     35  H29 GK6 d   1      40.077  29.384  40.451  0.00  0.00     0.067 H 
ATOM     36  H30 GK6 d   1      41.671  28.642  40.820  0.00  0.00     0.067 H 
ENDBRANCH  16  23
ENDBRANCH  11  14
ENDBRANCH   4  10
BRANCH   1  37
ATOM     37  C18 GK6 d   1      42.346  31.722  31.944  0.00  0.00    -0.025 A 
ATOM     38  C19 GK6 d   1      43.219  31.071  31.075  0.00  0.00    -0.071 A 
ATOM     39  C20 GK6 d   1      44.399  31.712  30.636  0.00  0.00    -0.067 A 
ATOM     40  H10 GK6 d   1      42.992  30.067  30.734  0.00  0.00     0.084 H 
ATOM     41  C21 GK6 d   1      44.713  33.005  31.055  0.00  0.00     0.032 A 
ATOM     42  H9  GK6 d   1      45.071  31.191  29.963  0.00  0.00     0.085 H 
ATOM     43  C22 GK6 d   1      43.832  33.667  31.915  0.00  0.00    -0.067 A 
ATOM     44  C23 GK6 d   1      42.654  33.028  32.352  0.00  0.00    -0.071 A 
ATOM     45  H11 GK6 d   1      44.055  34.675  32.247  0.00  0.00     0.085 H 
ATOM     46  H12 GK6 d   1      41.976  33.554  33.014  0.00  0.00     0.084 H 
BRANCH  41  47
ATOM     47  C24 GK6 d   1      46.001  33.685  30.574  0.00  0.00     0.251 C 
ATOM     48  O3  GK6 d   1      46.293  34.818  30.977  0.00  0.00    -0.268 OA
ATOM     49  N4  GK6 d   1      46.775  33.042  29.677  0.00  0.00    -0.356 N 
ATOM     50  H1  GK6 d   1      46.507  32.121  29.393  0.00  0.00     0.162 HD
BRANCH  49  51
ATOM     51  C25 GK6 d   1      47.987  33.621  29.097  0.00  0.00    -0.001 C 
ATOM     52  H2  GK6 d   1      48.385  34.378  29.789  0.00  0.00     0.064 H 
ATOM     53  H3  GK6 d   1      47.730  34.098  28.140  0.00  0.00     0.064 H 
BRANCH  51  54
ATOM     54  C26 GK6 d   1      49.069  32.561  28.847  0.00  0.00    -0.039 A 
ATOM     55  C28 GK6 d   1      50.423  33.126  29.281  0.00  0.00    -0.060 A 
ATOM     56  C27 GK6 d   1      49.713  32.097  30.154  0.00  0.00    -0.060 A 
ATOM     57  H5  GK6 d   1      50.501  34.171  29.616  0.00  0.00     0.033 H 
ATOM     58  H6  GK6 d   1      51.336  32.847  28.734  0.00  0.00     0.033 H 
ATOM     59  H7  GK6 d   1      50.114  31.076  30.237  0.00  0.00     0.033 H 
ATOM     60  H8  GK6 d   1      49.279  32.400  31.118  0.00  0.00     0.033 H 
ATOM     61  H4  GK6 d   1      48.902  31.913  27.974  0.00  0.00     0.042 H 
ENDBRANCH  51  54
ENDBRANCH  49  51
ENDBRANCH  41  47
ENDBRANCH   1  37
BRANCH   2  62
ATOM     62  C1  GK6 d   1      40.047  32.566  30.552  0.00  0.00    -0.050 C 
ATOM     63  H13 GK6 d   1      39.044  32.741  30.136  0.00  0.00     0.033 H 
ATOM     64  H14 GK6 d   1      40.717  32.209  29.756  0.00  0.00     0.033 H 
ATOM     65  H15 GK6 d   1      40.440  33.505  30.968  0.00  0.00     0.033 H 
ENDBRANCH   2  62
TORSDOF 8
