REMARK  5 active torsions:
REMARK  status: ('A' for Active; 'I' for Inactive)
REMARK    1  A    between atoms: C6_6  and  S1_7 
REMARK    2  A    between atoms: S1_7  and  N1_10 
REMARK    3  A    between atoms: N1_10  and  C7_11 
REMARK    4  A    between atoms: C8_15  and  S3_16 
REMARK    5  A    between atoms: S3_16  and  N4_19 
ROOT
ATOM      1  S1  D8W d   1      -5.314   6.065  13.244  0.00  0.00     0.264 S 
ATOM      2  O1  D8W d   1      -6.234   6.291  14.344  0.00  0.00    -0.200 OA
ATOM      3  O2  D8W d   1      -5.917   6.548  11.975  0.00  0.00    -0.200 OA
ENDROOT
BRANCH   1   4
ATOM      4  C6  D8W d   1      -4.014   6.955  13.595  0.00  0.00     0.079 A 
ATOM      5  C1  D8W d   1      -3.748   7.217  14.930  0.00  0.00    -0.060 A 
ATOM      6  C2  D8W d   1      -2.652   8.010  15.259  0.00  0.00    -0.082 A 
ATOM      7  H1  D8W d   1      -4.385   6.810  15.707  0.00  0.00     0.085 H 
ATOM      8  C3  D8W d   1      -1.877   8.530  14.225  0.00  0.00    -0.083 A 
ATOM      9  H2  D8W d   1      -2.408   8.218  16.294  0.00  0.00     0.083 H 
ATOM     10  C4  D8W d   1      -2.171   8.292  12.886  0.00  0.00    -0.082 A 
ATOM     11  H3  D8W d   1      -1.016   9.141  14.472  0.00  0.00     0.083 H 
ATOM     12  C5  D8W d   1      -3.266   7.485  12.557  0.00  0.00    -0.060 A 
ATOM     13  H4  D8W d   1      -1.558   8.727  12.105  0.00  0.00     0.083 H 
ATOM     14  H5  D8W d   1      -3.520   7.281  11.523  0.00  0.00     0.085 H 
ENDBRANCH   1   4
BRANCH   1  15
ATOM     15  N1  D8W d   1      -4.770   4.671  13.015  0.00  0.00    -0.257 N 
ATOM     16  H6  D8W d   1      -4.340   4.508  12.127  0.00  0.00     0.181 HD
BRANCH  15  17
ATOM     17  C7  D8W d   1      -4.794   3.614  13.868  0.00  0.00     0.204 A 
ATOM     18  S2  D8W d   1      -5.929   3.440  15.133  0.00  0.00    -0.015 SA
ATOM     19  C8  D8W d   1      -5.209   1.938  15.606  0.00  0.00     0.237 A 
ATOM     20  N3  D8W d   1      -4.167   1.623  14.817  0.00  0.00    -0.126 NA
ATOM     21  N2  D8W d   1      -3.919   2.582  13.798  0.00  0.00    -0.122 NA
BRANCH  19  22
ATOM     22  S3  D8W d   1      -5.916   0.903  16.706  0.00  0.00     0.282 S 
ATOM     23  O3  D8W d   1      -5.352   1.221  17.984  0.00  0.00    -0.199 OA
ATOM     24  O4  D8W d   1      -7.305   1.148  16.663  0.00  0.00    -0.199 OA
BRANCH  22  25
ATOM     25  N4  D8W d   1      -5.533  -0.579  16.299  0.00  0.00    -0.323 N 
ATOM     26  H7  D8W d   1      -5.866  -1.349  16.843  0.00  0.00     0.169 HD
ATOM     27  H8  D8W d   1      -4.958  -0.745  15.498  0.00  0.00     0.169 HD
ENDBRANCH  22  25
ENDBRANCH  19  22
ENDBRANCH  15  17
ENDBRANCH   1  15
TORSDOF 5
