REMARK  5 active torsions:
REMARK  status: ('A' for Active; 'I' for Inactive)
REMARK    1  A    between atoms: N25_5  and  C5'_6 
REMARK    2  A    between atoms: C5'_6  and  C4'_7 
REMARK    3  A    between atoms: C3'_9  and  O3'_10 
REMARK    4  A    between atoms: C1'_12  and  N1_13 
REMARK    5  A    between atoms: C5_15  and  C5M_16 
ROOT
ATOM      1  C4' TXS d   1      39.059  -0.475  13.182  0.00  0.00     0.089 C 
ATOM      2  O4' TXS d   1      38.653  -1.403  12.145  0.00  0.00    -0.357 OA
ATOM      3  C3' TXS d   1      38.145   0.751  12.936  0.00  0.00     0.066 C 
ATOM      4  C2' TXS d   1      36.972   0.142  12.146  0.00  0.00     0.002 C 
ATOM      5  C1' TXS d   1      37.272  -1.306  12.522  0.00  0.00     0.116 C 
ATOM      6  H12 TXS d   1      38.803  -0.915  14.157  0.00  0.00     0.090 H 
ATOM      7  H13 TXS d   1      38.649   1.557  12.382  0.00  0.00     0.087 H 
ATOM      8  H15 TXS d   1      37.046   0.325  11.064  0.00  0.00     0.043 H 
ATOM      9  H16 TXS d   1      35.991   0.482  12.509  0.00  0.00     0.043 H 
ATOM     10  H17 TXS d   1      37.295  -1.269  13.621  0.00  0.00     0.118 H 
ENDROOT
BRANCH   1  11
ATOM     11  C5' TXS d   1      40.549  -0.141  13.245  0.00  0.00     0.110 C 
ATOM     12  H10 TXS d   1      41.088  -0.658  12.437  0.00  0.00     0.080 H 
ATOM     13  H11 TXS d   1      40.698   0.945  13.149  0.00  0.00     0.080 H 
BRANCH  11  14
ATOM     14  N25 TXS d   1      41.032  -0.604  14.552  0.00  0.00    -0.069 N 
ATOM     15  C21 TXS d   1      41.988   0.383  15.087  0.00  0.00     0.084 C 
ATOM     16  C22 TXS d   1      42.903  -0.417  16.033  0.00  0.00    -0.041 C 
ATOM     17  H1  TXS d   1      42.574   0.834  14.273  0.00  0.00     0.076 H 
ATOM     18  H2  TXS d   1      41.459   1.174  15.639  0.00  0.00     0.076 H 
ATOM     19  C23 TXS d   1      42.680  -1.888  15.654  0.00  0.00    -0.041 C 
ATOM     20  H3  TXS d   1      42.622  -0.241  17.082  0.00  0.00     0.035 H 
ATOM     21  H4  TXS d   1      43.956  -0.135  15.883  0.00  0.00     0.035 H 
ATOM     22  C24 TXS d   1      41.829  -1.833  14.385  0.00  0.00     0.084 C 
ATOM     23  H5  TXS d   1      42.147  -2.420  16.456  0.00  0.00     0.035 H 
ATOM     24  H6  TXS d   1      43.640  -2.388  15.457  0.00  0.00     0.035 H 
ATOM     25  H7  TXS d   1      41.177  -2.716  14.311  0.00  0.00     0.076 H 
ATOM     26  H8  TXS d   1      42.464  -1.770  13.489  0.00  0.00     0.076 H 
ATOM     27  H9  TXS d   1      40.259  -0.750  15.182  0.00  0.00     0.280 HD
ENDBRANCH  11  14
ENDBRANCH   1  11
BRANCH   3  28
ATOM     28  O3' TXS d   1      37.688   1.201  14.216  0.00  0.00    -0.393 OA
ATOM     29  H14 TXS d   1      37.122   1.956  14.102  0.00  0.00     0.210 HD
ENDBRANCH   3  28
BRANCH   5  30
ATOM     30  N1  TXS d   1      36.380  -2.479  12.341  0.00  0.00    -0.282 N 
ATOM     31  C6  TXS d   1      36.735  -3.575  13.139  0.00  0.00    -0.002 A 
ATOM     32  C5  TXS d   1      35.984  -4.738  13.121  0.00  0.00     0.022 A 
ATOM     33  H18 TXS d   1      37.612  -3.511  13.781  0.00  0.00     0.113 H 
ATOM     34  C4  TXS d   1      34.851  -4.815  12.311  0.00  0.00     0.256 A 
ATOM     35  O4  TXS d   1      34.176  -5.842  12.285  0.00  0.00    -0.267 OA
ATOM     36  N3  TXS d   1      34.471  -3.717  11.515  0.00  0.00    -0.275 N 
ATOM     37  C2  TXS d   1      35.229  -2.529  11.526  0.00  0.00     0.331 A 
ATOM     38  H22 TXS d   1      33.657  -3.781  10.938  0.00  0.00     0.173 HD
ATOM     39  O2  TXS d   1      34.885  -1.578  10.830  0.00  0.00    -0.246 OA
BRANCH  32  40
ATOM     40  C5M TXS d   1      36.439  -5.896  13.999  0.00  0.00    -0.045 C 
ATOM     41  H19 TXS d   1      37.349  -5.607  14.544  0.00  0.00     0.033 H 
ATOM     42  H20 TXS d   1      36.652  -6.772  13.369  0.00  0.00     0.033 H 
ATOM     43  H21 TXS d   1      35.645  -6.145  14.718  0.00  0.00     0.033 H 
ENDBRANCH  32  40
ENDBRANCH   5  30
TORSDOF 5
