REMARK  3 active torsions:
REMARK  status: ('A' for Active; 'I' for Inactive)
REMARK    1  A    between atoms: S1_2  and  N3_4 
REMARK    2  A    between atoms: S1_2  and  C8_5 
REMARK    3  A    between atoms: C7_9  and  C1_10 
ROOT
ATOM      1  C8  D9Z d   1      -5.256   1.687  16.170  0.00  0.00     0.236 A 
ATOM      2  S2  D9Z d   1      -5.845   2.955  15.177  0.00  0.00    -0.033 SA
ATOM      3  N2  D9Z d   1      -3.918   1.698  16.311  0.00  0.00    -0.128 NA
ATOM      4  N1  D9Z d   1      -3.360   2.698  15.557  0.00  0.00    -0.140 NA
ATOM      5  C7  D9Z d   1      -4.221   3.480  14.885  0.00  0.00     0.134 A 
ENDROOT
BRANCH   5   6
ATOM      6  C1  D9Z d   1      -3.771   4.560  14.123  0.00  0.00     0.023 A 
ATOM      7  C6  D9Z d   1      -2.418   4.846  14.019  0.00  0.00    -0.069 A 
ATOM      8  C5  D9Z d   1      -2.027   5.945  13.230  0.00  0.00    -0.082 A 
ATOM      9  H3  D9Z d   1      -1.680   4.239  14.532  0.00  0.00     0.085 H 
ATOM     10  C4  D9Z d   1      -2.974   6.710  12.572  0.00  0.00    -0.081 A 
ATOM     11  H6  D9Z d   1      -0.976   6.194  13.137  0.00  0.00     0.083 H 
ATOM     12  C3  D9Z d   1      -4.339   6.423  12.690  0.00  0.00    -0.061 A 
ATOM     13  H5  D9Z d   1      -2.654   7.543  11.957  0.00  0.00     0.083 H 
ATOM     14  C2  D9Z d   1      -4.680   5.352  13.486  0.00  0.00     0.047 A 
ATOM     15  H4  D9Z d   1      -5.091   7.015  12.180  0.00  0.00     0.086 H 
ATOM     16 CL1  D9Z d   1      -6.376   5.316  13.427  0.00  0.00    -0.083 Cl
ENDBRANCH   5   6
BRANCH   1  17
ATOM     17  S1  D9Z d   1      -6.040   0.434  16.896  0.00  0.00     0.282 S 
ATOM     18  O2  D9Z d   1      -7.433   0.679  16.665  0.00  0.00    -0.199 OA
ATOM     19  O1  D9Z d   1      -5.660   0.528  18.267  0.00  0.00    -0.199 OA
BRANCH  17  20
ATOM     20  N3  D9Z d   1      -5.617  -0.984  16.324  0.00  0.00    -0.323 N 
ATOM     21  H1  D9Z d   1      -5.811  -1.217  15.371  0.00  0.00     0.169 HD
ATOM     22  H2  D9Z d   1      -5.157  -1.645  16.916  0.00  0.00     0.169 HD
ENDBRANCH  17  20
ENDBRANCH   1  17
TORSDOF 3
