REMARK  9 active torsions:
REMARK  status: ('A' for Active; 'I' for Inactive)
REMARK    1  A    between atoms: C2_2  and  C1_1 
REMARK    2  A    between atoms: C3_3  and  C2_2 
REMARK    3  A    between atoms: N4_16  and  C3_3 
REMARK    4  A    between atoms: C7_4  and  C5_17 
REMARK    5  A    between atoms: C15_9  and  C13_8 
REMARK       I    between atoms: C13_8  and  N12_19 
REMARK    6  A    between atoms: C17_21  and  C15_9 
REMARK    7  A    between atoms: C15_9  and  N30_28 
REMARK    8  A    between atoms: C24_14  and  C17_21 
REMARK       I    between atoms: C5_17  and  N4_16 
REMARK    9  A    between atoms: C17_21  and  C18_22 
ROOT
ATOM      1  C15 44U d   1      17.729 -14.970  23.552  0.00  0.00     0.187 C 
ATOM      2  H15 44U d   1      18.517 -15.492  22.989  0.00  0.00     0.100 H 
ENDROOT
BRANCH   1   3
ATOM      3  C13 44U d   1      17.456 -13.638  22.902  0.00  0.00     0.252 C 
ATOM      4  N12 44U d   1      18.250 -13.192  21.908  0.00  0.00    -0.337 N 
ATOM      5  C7  44U d   1      18.094 -11.915  21.185  0.00  0.00     0.091 C 
ATOM      6  C11 44U d   1      19.404 -13.910  21.313  0.00  0.00    -0.001 C 
ATOM      7  C9  44U d   1      19.118 -11.915  20.026  0.00  0.00    -0.036 C 
ATOM      8  H8  44U d   1      18.296 -11.068  21.857  0.00  0.00     0.087 H 
ATOM      9  C10 44U d   1      20.243 -12.838  20.576  0.00  0.00    -0.048 C 
ATOM     10  H9  44U d   1      19.496 -10.901  19.829  0.00  0.00     0.036 H 
ATOM     11  H10 44U d   1      18.678 -12.328  19.106  0.00  0.00     0.036 H 
ATOM     12  H11 44U d   1      20.908 -12.299  21.267  0.00  0.00     0.035 H 
ATOM     13  H12 44U d   1      20.839 -13.279  19.763  0.00  0.00     0.035 H 
ATOM     14  H13 44U d   1      20.003 -14.389  22.101  0.00  0.00     0.064 H 
ATOM     15  H14 44U d   1      19.053 -14.675  20.604  0.00  0.00     0.064 H 
ATOM     16  O14 44U d   1      16.511 -12.981  23.316  0.00  0.00    -0.271 OA
BRANCH   5  17
ATOM     17  C5  44U d   1      16.670 -11.828  20.676  0.00  0.00     0.240 C 
ATOM     18  N4  44U d   1      15.992 -10.664  20.819  0.00  0.00    -0.359 N 
ATOM     19  H21 44U d   1      16.449  -9.881  21.242  0.00  0.00     0.162 HD
ATOM     20  O6  44U d   1      16.158 -12.816  20.162  0.00  0.00    -0.271 OA
BRANCH  18  21
ATOM     21  C3  44U d   1      14.608 -10.526  20.369  0.00  0.00    -0.005 C 
ATOM     22  H6  44U d   1      14.582  -9.977  19.416  0.00  0.00     0.064 H 
ATOM     23  H7  44U d   1      14.163 -11.523  20.230  0.00  0.00     0.064 H 
BRANCH  21  24
ATOM     24  C2  44U d   1      13.819  -9.754  21.430  0.00  0.00    -0.054 C 
ATOM     25  H4  44U d   1      13.850 -10.302  22.384  0.00  0.00     0.034 H 
ATOM     26  H5  44U d   1      14.262  -8.756  21.566  0.00  0.00     0.034 H 
BRANCH  24  27
ATOM     27  C1  44U d   1      12.368  -9.612  20.967  0.00  0.00    -0.075 C 
ATOM     28  H1  44U d   1      11.794  -9.058  21.724  0.00  0.00     0.027 H 
ATOM     29  H2  44U d   1      11.927 -10.611  20.831  0.00  0.00     0.027 H 
ATOM     30  H3  44U d   1      12.339  -9.065  20.013  0.00  0.00     0.027 H 
ENDBRANCH  24  27
ENDBRANCH  21  24
ENDBRANCH  18  21
ENDBRANCH   5  17
ENDBRANCH   1   3
BRANCH   1  31
ATOM     31  C17 44U d   1      18.229 -14.763  25.000  0.00  0.00     0.033 C 
ATOM     32  H22 44U d   1      17.559 -14.019  25.455  0.00  0.00     0.058 H 
BRANCH  31  33
ATOM     33  C24 44U d   1      19.644 -14.198  25.077  0.00  0.00    -0.047 A 
ATOM     34  C25 44U d   1      20.689 -14.747  24.333  0.00  0.00    -0.076 A 
ATOM     35  C26 44U d   1      21.976 -14.226  24.404  0.00  0.00    -0.082 A 
ATOM     36  H24 44U d   1      20.494 -15.596  23.688  0.00  0.00     0.084 H 
ATOM     37  C27 44U d   1      22.242 -13.142  25.225  0.00  0.00    -0.083 A 
ATOM     38  H25 44U d   1      22.772 -14.668  23.816  0.00  0.00     0.083 H 
ATOM     39  C28 44U d   1      21.210 -12.591  25.982  0.00  0.00    -0.082 A 
ATOM     40  H20 44U d   1      23.242 -12.727  25.278  0.00  0.00     0.083 H 
ATOM     41  C29 44U d   1      19.922 -13.117  25.912  0.00  0.00    -0.076 A 
ATOM     42  H26 44U d   1      21.411 -11.746  26.631  0.00  0.00     0.083 H 
ATOM     43  H27 44U d   1      19.130 -12.682  26.511  0.00  0.00     0.084 H 
ENDBRANCH  31  33
BRANCH  31  44
ATOM     44  C18 44U d   1      18.142 -16.020  25.848  0.00  0.00    -0.047 A 
ATOM     45  C19 44U d   1      18.601 -17.254  25.379  0.00  0.00    -0.076 A 
ATOM     46  C20 44U d   1      18.518 -18.387  26.188  0.00  0.00    -0.082 A 
ATOM     47  H16 44U d   1      19.023 -17.331  24.383  0.00  0.00     0.084 H 
ATOM     48  C21 44U d   1      17.970 -18.290  27.466  0.00  0.00    -0.083 A 
ATOM     49  H17 44U d   1      18.879 -19.342  25.823  0.00  0.00     0.083 H 
ATOM     50  C22 44U d   1      17.522 -17.059  27.936  0.00  0.00    -0.082 A 
ATOM     51  H18 44U d   1      17.893 -19.171  28.092  0.00  0.00     0.083 H 
ATOM     52  C23 44U d   1      17.613 -15.928  27.125  0.00  0.00    -0.076 A 
ATOM     53  H19 44U d   1      17.102 -16.979  28.932  0.00  0.00     0.083 H 
ATOM     54  H23 44U d   1      17.267 -14.970  27.497  0.00  0.00     0.084 H 
ENDBRANCH  31  44
ENDBRANCH   1  31
BRANCH   1  55
ATOM     55  N30 44U d   1      16.494 -15.764  23.478  0.00  0.00    -0.065 N 
ATOM     56  H28 44U d   1      16.217 -15.866  22.514  0.00  0.00     0.275 HD
ATOM     57  H29 44U d   1      15.763 -15.296  23.990  0.00  0.00     0.275 HD
ATOM     58  H30 44U d   1      16.655 -16.675  23.879  0.00  0.00     0.275 HD
ENDBRANCH   1  55
TORSDOF 9
