REMARK  5 active torsions:
REMARK  status: ('A' for Active; 'I' for Inactive)
REMARK    1  A    between atoms: N1_1  and  S1_2 
REMARK    2  A    between atoms: S1_2  and  C1_5 
REMARK    3  A    between atoms: C2_7  and  N4_11 
REMARK    4  A    between atoms: N2_8  and  C5_9 
REMARK       I    between atoms: N4_11  and  C3_12 
REMARK    5  A    between atoms: C3_12  and  C4_14 
ROOT
ATOM      1  C1  MZM d   1      -5.170   1.791  15.980  0.00  0.00     0.235 A 
ATOM      2  S2  MZM d   1      -6.100   2.952  15.106  0.00  0.00    -0.017 SA
ATOM      3  C2  MZM d   1      -4.623   3.633  14.591  0.00  0.00     0.172 A 
ATOM      4  N2  MZM d   1      -3.595   3.080  15.083  0.00  0.00    -0.250 N 
ATOM      5  N3  MZM d   1      -3.885   1.976  15.851  0.00  0.00    -0.149 NA
ENDROOT
BRANCH   3   6
ATOM      6  N4  MZM d   1      -4.795   4.737  13.767  0.00  0.00    -0.306 N 
ATOM      7  C3  MZM d   1      -5.641   5.433  13.203  0.00  0.00     0.219 C 
ATOM      8  O3  MZM d   1      -5.590   6.418  12.461  0.00  0.00    -0.274 OA
ATOM      9  H6  MZM d   1      -3.892   5.107  13.549  0.00  0.00     0.171 HD
BRANCH   7  10
ATOM     10  C4  MZM d   1      -6.889   4.964  13.547  0.00  0.00    -0.002 C 
ATOM     11  H7  MZM d   1      -7.659   5.574  13.052  0.00  0.00     0.040 H 
ATOM     12  H8  MZM d   1      -7.016   5.027  14.638  0.00  0.00     0.040 H 
ATOM     13  H9  MZM d   1      -6.989   3.917  13.226  0.00  0.00     0.040 H 
ENDBRANCH   7  10
ENDBRANCH   3   6
BRANCH   4  14
ATOM     14  C5  MZM d   1      -2.203   3.520  14.814  0.00  0.00     0.005 C 
ATOM     15  H3  MZM d   1      -1.502   2.873  15.362  0.00  0.00     0.059 H 
ATOM     16  H4  MZM d   1      -2.077   4.561  15.146  0.00  0.00     0.059 H 
ATOM     17  H5  MZM d   1      -1.999   3.452  13.735  0.00  0.00     0.059 H 
ENDBRANCH   4  14
BRANCH   1  18
ATOM     18  S1  MZM d   1      -6.000   0.560  16.809  0.00  0.00     0.282 S 
ATOM     19  O1  MZM d   1      -7.186   0.666  16.685  0.00  0.00    -0.199 OA
ATOM     20  O2  MZM d   1      -5.598   0.655  17.850  0.00  0.00    -0.199 OA
BRANCH  18  21
ATOM     21  N1  MZM d   1      -5.555  -0.451  16.468  0.00  0.00    -0.323 N 
ATOM     22  H1  MZM d   1      -5.752  -0.801  15.552  0.00  0.00     0.169 HD
ATOM     23  H2  MZM d   1      -4.973  -0.976  17.089  0.00  0.00     0.169 HD
ENDBRANCH  18  21
ENDBRANCH   1  18
TORSDOF 5
