REMARK  5 active torsions:
REMARK  status: ('A' for Active; 'I' for Inactive)
REMARK    1  A    between atoms: C6_6  and  S1_7 
REMARK    2  A    between atoms: S1_7  and  N1_10 
REMARK    3  A    between atoms: N1_10  and  C7_11 
REMARK    4  A    between atoms: C8_15  and  S3_16 
REMARK    5  A    between atoms: S3_16  and  N4_19 
ROOT
ATOM      1  S1  D8W d   1      -5.167   6.053  13.169  0.00  0.00     0.264 S 
ATOM      2  O1  D8W d   1      -6.158   6.266  14.232  0.00  0.00    -0.200 OA
ATOM      3  O2  D8W d   1      -5.708   6.488  11.861  0.00  0.00    -0.200 OA
ENDROOT
BRANCH   1   4
ATOM      4  C6  D8W d   1      -3.941   7.025  13.556  0.00  0.00     0.079 A 
ATOM      5  C1  D8W d   1      -3.742   7.307  14.898  0.00  0.00    -0.060 A 
ATOM      6  C2  D8W d   1      -2.692   8.151  15.259  0.00  0.00    -0.082 A 
ATOM      7  H1  D8W d   1      -4.391   6.879  15.654  0.00  0.00     0.085 H 
ATOM      8  C3  D8W d   1      -1.884   8.690  14.266  0.00  0.00    -0.083 A 
ATOM      9  H2  D8W d   1      -2.509   8.383  16.302  0.00  0.00     0.083 H 
ATOM     10  C4  D8W d   1      -2.103   8.421  12.920  0.00  0.00    -0.082 A 
ATOM     11  H3  D8W d   1      -1.061   9.337  14.548  0.00  0.00     0.083 H 
ATOM     12  C5  D8W d   1      -3.146   7.568  12.560  0.00  0.00    -0.060 A 
ATOM     13  H4  D8W d   1      -1.472   8.868  12.161  0.00  0.00     0.083 H 
ATOM     14  H5  D8W d   1      -3.332   7.334  11.518  0.00  0.00     0.085 H 
ENDBRANCH   1   4
BRANCH   1  15
ATOM     15  N1  D8W d   1      -4.582   4.673  13.035  0.00  0.00    -0.257 N 
ATOM     16  H6  D8W d   1      -4.124   4.479  12.168  0.00  0.00     0.181 HD
BRANCH  15  17
ATOM     17  C7  D8W d   1      -4.593   3.658  13.933  0.00  0.00     0.204 A 
ATOM     18  S2  D8W d   1      -5.854   3.434  15.068  0.00  0.00    -0.015 SA
ATOM     19  C8  D8W d   1      -5.086   2.019  15.682  0.00  0.00     0.237 A 
ATOM     20  N3  D8W d   1      -3.923   1.750  15.050  0.00  0.00    -0.126 NA
ATOM     21  N2  D8W d   1      -3.641   2.699  14.026  0.00  0.00    -0.122 NA
BRANCH  19  22
ATOM     22  S3  D8W d   1      -5.855   0.983  16.727  0.00  0.00     0.282 S 
ATOM     23  O3  D8W d   1      -5.290   1.221  18.021  0.00  0.00    -0.199 OA
ATOM     24  O4  D8W d   1      -7.246   1.208  16.685  0.00  0.00    -0.199 OA
BRANCH  22  25
ATOM     25  N4  D8W d   1      -5.503  -0.517  16.288  0.00  0.00    -0.323 N 
ATOM     26  H7  D8W d   1      -5.877  -1.289  16.802  0.00  0.00     0.169 HD
ATOM     27  H8  D8W d   1      -4.909  -0.681  15.500  0.00  0.00     0.169 HD
ENDBRANCH  22  25
ENDBRANCH  19  22
ENDBRANCH  15  17
ENDBRANCH   1  15
TORSDOF 5
