REMARK  4 active torsions:
REMARK  status: ('A' for Active; 'I' for Inactive)
REMARK    1  A    between atoms: C1_1  and  S1_12 
REMARK    2  A    between atoms: N4_8  and  C2_2 
REMARK    3  A    between atoms: C3_3  and  C4_4 
REMARK    4  A    between atoms: S1_12  and  N1_5 
ROOT
ATOM      1  C1  AZM d   1      -5.171   2.053  15.988  0.00  0.00     0.237 C 
ATOM      2  C2  AZM d   1      -4.726   3.847  14.562  0.00  0.00     0.196 C 
ATOM      3  N2  AZM d   1      -3.595   3.279  15.057  0.00  0.00    -0.122 NA
ATOM      4  N3  AZM d   1      -3.853   2.168  15.932  0.00  0.00    -0.126 NA
ATOM      5  S2  AZM d   1      -6.065   3.319  15.240  0.00  0.00    -0.015 SA
ENDROOT
BRANCH   2   6
ATOM      6  N4  AZM d   1      -4.641   5.095  13.961  0.00  0.00    -0.316 N 
ATOM      7  C3  AZM d   1      -5.532   5.753  13.264  0.00  0.00     0.153 C 
ATOM      8  O3  AZM d   1      -6.980   5.606  13.577  0.00  0.00    -0.177 OA
ATOM      9  H6  AZM d   1      -3.765   5.563  14.079  0.00  0.00     0.170 HD
BRANCH   7  10
ATOM     10  C4  AZM d   1      -5.207   6.698  12.497  0.00  0.00    -0.014 C 
ATOM     11  H1  AZM d   1      -6.108   7.105  12.015  0.00  0.00     0.038 H 
ATOM     12  H2  AZM d   1      -4.516   6.324  11.727  0.00  0.00     0.038 H 
ATOM     13  H3  AZM d   1      -4.713   7.490  13.079  0.00  0.00     0.038 H 
ENDBRANCH   7  10
ENDBRANCH   2   6
BRANCH   1  14
ATOM     14  S1  AZM d   1      -5.963   0.821  16.904  0.00  0.00     0.282 S 
ATOM     15  O1  AZM d   1      -5.494   0.927  18.280  0.00  0.00    -0.199 OA
ATOM     16  O2  AZM d   1      -7.374   1.021  16.711  0.00  0.00    -0.199 OA
BRANCH  14  17
ATOM     17  N1  AZM d   1      -5.492  -0.586  16.315  0.00  0.00    -0.323 N 
ATOM     18  H4  AZM d   1      -5.840  -1.436  16.711  0.00  0.00     0.169 HD
ATOM     19  H5  AZM d   1      -4.849  -0.618  15.550  0.00  0.00     0.169 HD
ENDBRANCH  14  17
ENDBRANCH   1  14
TORSDOF 4
