REMARK  3 active torsions:
REMARK  status: ('A' for Active; 'I' for Inactive)
REMARK    1  A    between atoms: S1_2  and  N3_4 
REMARK    2  A    between atoms: S1_2  and  C8_5 
REMARK    3  A    between atoms: C7_9  and  C1_10 
ROOT
ATOM      1  C8  D9Z d   1      -5.228   1.692  16.171  0.00  0.00     0.236 A 
ATOM      2  S2  D9Z d   1      -5.866   2.957  15.204  0.00  0.00    -0.033 SA
ATOM      3  N2  D9Z d   1      -3.899   1.700  16.301  0.00  0.00    -0.128 NA
ATOM      4  N1  D9Z d   1      -3.354   2.748  15.564  0.00  0.00    -0.140 NA
ATOM      5  C7  D9Z d   1      -4.246   3.527  14.925  0.00  0.00     0.134 A 
ENDROOT
BRANCH   5   6
ATOM      6  C1  D9Z d   1      -3.824   4.632  14.170  0.00  0.00     0.023 A 
ATOM      7  C6  D9Z d   1      -2.479   4.934  14.050  0.00  0.00    -0.069 A 
ATOM      8  C5  D9Z d   1      -2.100   6.054  13.273  0.00  0.00    -0.082 A 
ATOM      9  H3  D9Z d   1      -1.730   4.324  14.542  0.00  0.00     0.085 H 
ATOM     10  C4  D9Z d   1      -3.058   6.811  12.629  0.00  0.00    -0.081 A 
ATOM     11  H6  D9Z d   1      -1.053   6.319  13.183  0.00  0.00     0.083 H 
ATOM     12  C3  D9Z d   1      -4.427   6.505  12.752  0.00  0.00    -0.061 A 
ATOM     13  H5  D9Z d   1      -2.752   7.654  12.020  0.00  0.00     0.083 H 
ATOM     14  C2  D9Z d   1      -4.747   5.424  13.543  0.00  0.00     0.047 A 
ATOM     15  H4  D9Z d   1      -5.189   7.090  12.250  0.00  0.00     0.086 H 
ATOM     16 CL1  D9Z d   1      -6.446   5.333  13.505  0.00  0.00    -0.083 Cl
ENDBRANCH   5   6
BRANCH   1  17
ATOM     17  S1  D9Z d   1      -6.067   0.470  16.907  0.00  0.00     0.282 S 
ATOM     18  O2  D9Z d   1      -7.422   0.690  16.638  0.00  0.00    -0.199 OA
ATOM     19  O1  D9Z d   1      -5.689   0.592  18.289  0.00  0.00    -0.199 OA
BRANCH  17  20
ATOM     20  N3  D9Z d   1      -5.478  -0.904  16.356  0.00  0.00    -0.323 N 
ATOM     21  H1  D9Z d   1      -5.636  -1.170  15.405  0.00  0.00     0.169 HD
ATOM     22  H2  D9Z d   1      -4.950  -1.500  16.961  0.00  0.00     0.169 HD
ENDBRANCH  17  20
ENDBRANCH   1  17
TORSDOF 3
