REMARK  5 active torsions:
REMARK  status: ('A' for Active; 'I' for Inactive)
REMARK    1  A    between atoms: CAF_7  and  CAH_8 
REMARK    2  A    between atoms: CAH_8  and  CAI_9 
REMARK    3  A    between atoms: CAS_19  and  OAT_20 
REMARK    4  A    between atoms: OAT_20  and  SAU_21 
REMARK    5  A    between atoms: SAU_21  and  NAV_24 
ROOT
ATOM      1  CAH 2C7 d   1      -1.995   7.508  12.168  0.00  0.00    -0.027 C 
ATOM      2  H14 2C7 d   1      -1.375   7.041  11.388  0.00  0.00     0.041 H 
ATOM      3  H15 2C7 d   1      -2.757   8.147  11.697  0.00  0.00     0.041 H 
ENDROOT
BRANCH   1   4
ATOM      4  CAF 2C7 d   1      -1.074   8.434  12.974  0.00  0.00    -0.050 C 
ATOM      5  CAE 2C7 d   1      -1.286   9.849  12.412  0.00  0.00    -0.061 C 
ATOM      6  CAA 2C7 d   1       0.025  10.653  12.369  0.00  0.00    -0.065 C 
ATOM      7  H1  2C7 d   1      -1.688   9.769  11.391  0.00  0.00     0.033 H 
ATOM      8  H2  2C7 d   1      -2.008  10.380  13.050  0.00  0.00     0.033 H 
ATOM      9  CAB 2C7 d   1       0.418  11.210  13.751  0.00  0.00    -0.065 C 
ATOM     10  H3  2C7 d   1      -0.099  11.494  11.671  0.00  0.00     0.033 H 
ATOM     11  H4  2C7 d   1       0.831   9.996  12.011  0.00  0.00     0.033 H 
ATOM     12  CAC 2C7 d   1       0.612  10.083  14.785  0.00  0.00    -0.065 C 
ATOM     13  H5  2C7 d   1      -0.377  11.884  14.103  0.00  0.00     0.033 H 
ATOM     14  H6  2C7 d   1       1.359  11.771  13.655  0.00  0.00     0.033 H 
ATOM     15  CAD 2C7 d   1      -0.732   9.554  15.322  0.00  0.00    -0.065 C 
ATOM     16  H7  2C7 d   1       1.203  10.472  15.628  0.00  0.00     0.033 H 
ATOM     17  H8  2C7 d   1       1.155   9.254  14.309  0.00  0.00     0.033 H 
ATOM     18  CAG 2C7 d   1      -1.366   8.416  14.493  0.00  0.00    -0.061 C 
ATOM     19  H9  2C7 d   1      -1.443  10.393  15.348  0.00  0.00     0.033 H 
ATOM     20  H10 2C7 d   1      -0.568   9.181  16.344  0.00  0.00     0.033 H 
ATOM     21  H11 2C7 d   1      -2.457   8.471  14.626  0.00  0.00     0.033 H 
ATOM     22  H12 2C7 d   1      -0.996   7.461  14.895  0.00  0.00     0.033 H 
ATOM     23  H13 2C7 d   1      -0.030   8.126  12.819  0.00  0.00     0.040 H 
ENDBRANCH   1   4
BRANCH   1  24
ATOM     24  CAI 2C7 d   1      -2.750   6.364  12.885  0.00  0.00     0.043 A 
ATOM     25  CAJ 2C7 d   1      -4.060   6.241  13.169  0.00  0.00    -0.054 A 
ATOM     26  CAK 2C7 d   1      -4.450   5.087  13.763  0.00  0.00    -0.013 A 
ATOM     27  H16 2C7 d   1      -4.772   7.030  12.933  0.00  0.00     0.086 H 
ATOM     28  CAQ 2C7 d   1      -3.419   4.159  13.981  0.00  0.00     0.076 A 
ATOM     29  CAL 2C7 d   1      -5.740   4.698  14.137  0.00  0.00    -0.069 A 
ATOM     30  SAP 2C7 d   1      -1.998   4.925  13.413  0.00  0.00     0.204 S 
ATOM     31  CAR 2C7 d   1      -3.661   2.910  14.568  0.00  0.00    -0.027 A 
ATOM     32  OAO 2C7 d   1      -1.382   4.229  12.223  0.00  0.00    -0.217 OA
ATOM     33  OAW 2C7 d   1      -1.020   5.162  14.525  0.00  0.00    -0.217 OA
ATOM     34  CAS 2C7 d   1      -4.956   2.552  14.962  0.00  0.00     0.092 A 
ATOM     35  H17 2C7 d   1      -2.841   2.217  14.718  0.00  0.00     0.090 H 
ATOM     36  CAM 2C7 d   1      -5.987   3.452  14.713  0.00  0.00    -0.048 A 
ATOM     37  H19 2C7 d   1      -7.004   3.179  14.972  0.00  0.00     0.087 H 
ATOM     38  H18 2C7 d   1      -6.567   5.380  13.976  0.00  0.00     0.085 H 
BRANCH  34  39
ATOM     39  OAT 2C7 d   1      -5.182   1.298  15.494  0.00  0.00    -0.217 OA
BRANCH  39  40
ATOM     40  SAU 2C7 d   1      -5.873   0.950  16.749  0.00  0.00     0.360 S 
ATOM     41  OAA 2C7 d   1      -5.128   1.443  17.949  0.00  0.00    -0.176 OA
ATOM     42  OAN 2C7 d   1      -7.265   1.468  16.763  0.00  0.00    -0.176 OA
BRANCH  40  43
ATOM     43  NAV 2C7 d   1      -5.848  -0.638  16.783  0.00  0.00    -0.305 N 
ATOM     44  H20 2C7 d   1      -6.263  -1.128  17.550  0.00  0.00     0.171 HD
ATOM     45  H21 2C7 d   1      -5.418  -1.147  16.038  0.00  0.00     0.171 HD
ENDBRANCH  40  43
ENDBRANCH  39  40
ENDBRANCH  34  39
ENDBRANCH   1  24
TORSDOF 5
