REMARK  8 active torsions:
REMARK  status: ('A' for Active; 'I' for Inactive)
REMARK    1  A    between atoms: C10_6  and  C8_7 
REMARK    2  A    between atoms: C8_7  and  C9_8 
REMARK    3  A    between atoms: C8_7  and  N7_10 
REMARK    4  A    between atoms: C9_8  and  O9_9 
REMARK    5  A    between atoms: N7_10  and  C6_11 
REMARK    6  A    between atoms: C6_11  and  C5_12 
REMARK    7  A    between atoms: C3_16  and  O3_17 
REMARK    8  A    between atoms: C4_18  and  O4_19 
ROOT
ATOM      1  N7  GB6 d   1      30.090  65.376  11.028  0.00  0.00    -0.063 N 
ATOM      2  H10 GB6 d   1      30.194  64.390  10.845  0.00  0.00     0.278 HD
ATOM      3  H11 GB6 d   1      30.897  65.711  11.530  0.00  0.00     0.278 HD
ENDROOT
BRANCH   1   4
ATOM      4  C8  GB6 d   1      28.852  65.591  11.884  0.00  0.00     0.147 C 
ATOM      5  H6  GB6 d   1      27.991  65.093  11.415  0.00  0.00     0.095 H 
BRANCH   4   6
ATOM      6  C10 GB6 d   1      28.558  67.094  12.092  0.00  0.00    -0.026 A 
ATOM      7  C15 GB6 d   1      27.285  67.637  11.531  0.00  0.00    -0.075 A 
ATOM      8  C14 GB6 d   1      27.037  68.977  11.761  0.00  0.00    -0.082 A 
ATOM      9  H1  GB6 d   1      26.594  67.015  10.974  0.00  0.00     0.084 H 
ATOM     10  C13 GB6 d   1      27.931  69.790  12.458  0.00  0.00    -0.083 A 
ATOM     11  H2  GB6 d   1      26.117  69.411  11.387  0.00  0.00     0.083 H 
ATOM     12  C12 GB6 d   1      29.124  69.270  12.982  0.00  0.00    -0.082 A 
ATOM     13  H3  GB6 d   1      27.700  70.840  12.597  0.00  0.00     0.083 H 
ATOM     14  C11 GB6 d   1      29.427  67.934  12.805  0.00  0.00    -0.075 A 
ATOM     15  H4  GB6 d   1      29.806  69.915  13.524  0.00  0.00     0.083 H 
ATOM     16  H5  GB6 d   1      30.344  67.531  13.220  0.00  0.00     0.084 H 
ENDBRANCH   4   6
BRANCH   4  17
ATOM     17  C9  GB6 d   1      29.104  65.027  13.327  0.00  0.00     0.047 C 
ATOM     18  H7  GB6 d   1      28.293  65.321  14.010  0.00  0.00     0.077 H 
ATOM     19  H8  GB6 d   1      30.066  65.384  13.725  0.00  0.00     0.077 H 
BRANCH  17  20
ATOM     20  O9  GB6 d   1      29.124  63.617  13.143  0.00  0.00    -0.398 OA
ATOM     21  H9  GB6 d   1      29.273  63.192  13.979  0.00  0.00     0.209 HD
ENDBRANCH  17  20
ENDBRANCH   4  17
ENDBRANCH   1   4
BRANCH   1  22
ATOM     22  C6  GB6 d   1      29.995  66.098   9.733  0.00  0.00     0.103 C 
ATOM     23  H12 GB6 d   1      30.085  67.177   9.928  0.00  0.00     0.079 H 
ATOM     24  H13 GB6 d   1      29.012  65.887   9.287  0.00  0.00     0.079 H 
BRANCH  22  25
ATOM     25  C5  GB6 d   1      31.083  65.693   8.726  0.00  0.00     0.063 C 
ATOM     26  N1  GB6 d   1      30.780  66.399   7.457  0.00  0.00    -0.350 N 
ATOM     27  C2  GB6 d   1      31.787  67.031   6.895  0.00  0.00     0.249 C 
ATOM     28  H15 GB6 d   1      29.865  66.395   7.053  0.00  0.00     0.163 HD
ATOM     29  O2  GB6 d   1      31.786  67.641   5.806  0.00  0.00    -0.271 OA
ATOM     30  C3  GB6 d   1      33.018  66.884   7.776  0.00  0.00     0.138 C 
ATOM     31  C4  GB6 d   1      32.490  66.252   9.039  0.00  0.00     0.089 C 
ATOM     32  H16 GB6 d   1      33.503  67.849   7.983  0.00  0.00     0.102 H 
ATOM     33  H18 GB6 d   1      32.407  67.027   9.815  0.00  0.00     0.090 H 
ATOM     34  H14 GB6 d   1      31.105  64.599   8.613  0.00  0.00     0.079 H 
BRANCH  30  35
ATOM     35  O3  GB6 d   1      33.928  65.984   7.073  0.00  0.00    -0.383 OA
ATOM     36  H17 GB6 d   1      34.715  65.863   7.591  0.00  0.00     0.210 HD
ENDBRANCH  30  35
BRANCH  31  37
ATOM     37  O4  GB6 d   1      33.347  65.208   9.537  0.00  0.00    -0.390 OA
ATOM     38  H19 GB6 d   1      34.205  65.568   9.728  0.00  0.00     0.210 HD
ENDBRANCH  31  37
ENDBRANCH  22  25
ENDBRANCH   1  22
TORSDOF 8
