REMARK  9 active torsions:
REMARK  status: ('A' for Active; 'I' for Inactive)
REMARK    1  A    between atoms: C10_6  and  C8_7 
REMARK    2  A    between atoms: C8_7  and  C9_8 
REMARK    3  A    between atoms: C8_7  and  N7_10 
REMARK    4  A    between atoms: C9_8  and  O9_9 
REMARK    5  A    between atoms: N7_10  and  C6_11 
REMARK    6  A    between atoms: C6_11  and  C5_12 
REMARK    7  A    between atoms: N1_13  and  C1_14 
REMARK    8  A    between atoms: C3_17  and  O3_18 
REMARK    9  A    between atoms: C4_19  and  O4_20 
ROOT
ATOM      1  N7  GB7 d   1      30.160  65.427  11.082  0.00  0.00    -0.063 N 
ATOM      2  H10 GB7 d   1      30.291  64.441  10.922  0.00  0.00     0.278 HD
ATOM      3  H11 GB7 d   1      30.948  65.792  11.594  0.00  0.00     0.278 HD
ENDROOT
BRANCH   1   4
ATOM      4  C8  GB7 d   1      28.940  65.619  11.888  0.00  0.00     0.147 C 
ATOM      5  H6  GB7 d   1      28.085  65.167  11.365  0.00  0.00     0.095 H 
BRANCH   4   6
ATOM      6  C10 GB7 d   1      28.678  67.094  12.173  0.00  0.00    -0.026 A 
ATOM      7  C11 GB7 d   1      29.692  67.798  12.808  0.00  0.00    -0.075 A 
ATOM      8  C12 GB7 d   1      29.471  69.124  13.124  0.00  0.00    -0.082 A 
ATOM      9  H1  GB7 d   1      30.634  67.319  13.050  0.00  0.00     0.084 H 
ATOM     10  C13 GB7 d   1      28.352  69.856  12.739  0.00  0.00    -0.083 A 
ATOM     11  H2  GB7 d   1      30.224  69.632  13.715  0.00  0.00     0.083 H 
ATOM     12  C14 GB7 d   1      27.365  69.110  12.115  0.00  0.00    -0.082 A 
ATOM     13  H3  GB7 d   1      28.260  70.922  12.913  0.00  0.00     0.083 H 
ATOM     14  C15 GB7 d   1      27.531  67.761  11.803  0.00  0.00    -0.075 A 
ATOM     15  H4  GB7 d   1      26.429  69.593  11.860  0.00  0.00     0.083 H 
ATOM     16  H5  GB7 d   1      26.752  67.233  11.265  0.00  0.00     0.084 H 
ENDBRANCH   4   6
BRANCH   4  17
ATOM     17  C9  GB7 d   1      29.111  65.009  13.283  0.00  0.00     0.047 C 
ATOM     18  H7  GB7 d   1      28.210  65.222  13.877  0.00  0.00     0.077 H 
ATOM     19  H8  GB7 d   1      29.986  65.468  13.767  0.00  0.00     0.077 H 
BRANCH  17  20
ATOM     20  O9  GB7 d   1      29.302  63.605  13.227  0.00  0.00    -0.398 OA
ATOM     21  H9  GB7 d   1      29.404  63.265  14.108  0.00  0.00     0.209 HD
ENDBRANCH  17  20
ENDBRANCH   4  17
ENDBRANCH   1   4
BRANCH   1  22
ATOM     22  C6  GB7 d   1      30.082  66.118   9.769  0.00  0.00     0.103 C 
ATOM     23  H12 GB7 d   1      30.157  67.201   9.948  0.00  0.00     0.079 H 
ATOM     24  H13 GB7 d   1      29.105  65.888   9.320  0.00  0.00     0.079 H 
BRANCH  22  25
ATOM     25  C5  GB7 d   1      31.178  65.723   8.759  0.00  0.00     0.065 C 
ATOM     26  N1  GB7 d   1      30.875  66.399   7.481  0.00  0.00    -0.345 N 
ATOM     27  C2  GB7 d   1      31.915  66.995   6.903  0.00  0.00     0.251 C 
ATOM     28  O2  GB7 d   1      31.909  67.585   5.829  0.00  0.00    -0.270 OA
ATOM     29  C3  GB7 d   1      33.155  66.744   7.753  0.00  0.00     0.139 C 
ATOM     30  C4  GB7 d   1      32.605  66.179   9.062  0.00  0.00     0.090 C 
ATOM     31  H18 GB7 d   1      33.630  67.707   7.991  0.00  0.00     0.102 H 
ATOM     32  H20 GB7 d   1      32.538  67.010   9.780  0.00  0.00     0.090 H 
ATOM     33  H14 GB7 d   1      31.165  64.629   8.644  0.00  0.00     0.079 H 
BRANCH  26  34
ATOM     34  C1  GB7 d   1      29.547  66.259   6.852  0.00  0.00    -0.015 C 
ATOM     35  H15 GB7 d   1      29.523  66.834   5.915  0.00  0.00     0.056 H 
ATOM     36  H16 GB7 d   1      28.775  66.641   7.536  0.00  0.00     0.056 H 
ATOM     37  H17 GB7 d   1      29.354  65.198   6.636  0.00  0.00     0.056 H 
ENDBRANCH  26  34
BRANCH  29  38
ATOM     38  O3  GB7 d   1      34.115  66.008   7.012  0.00  0.00    -0.383 OA
ATOM     39  H19 GB7 d   1      34.362  66.501   6.238  0.00  0.00     0.210 HD
ENDBRANCH  29  38
BRANCH  30  40
ATOM     40  O4  GB7 d   1      33.432  65.217   9.669  0.00  0.00    -0.390 OA
ATOM     41  H21 GB7 d   1      34.276  65.606   9.866  0.00  0.00     0.210 HD
ENDBRANCH  30  40
ENDBRANCH  22  25
ENDBRANCH   1  22
TORSDOF 9
