REMARK  10 active torsions:
REMARK  status: ('A' for Active; 'I' for Inactive)
REMARK    1  A    between atoms: O3B_8  and  PG_1 
REMARK    2  A    between atoms: PB_5  and  O3B_8 
REMARK    3  A    between atoms: O3A_12  and  PB_5 
REMARK    4  A    between atoms: PA_9  and  O3A_12 
REMARK    5  A    between atoms: PA_9  and  O5'_13 
REMARK    6  A    between atoms: O5'_13  and  C5'_14 
REMARK    7  A    between atoms: C5'_14  and  C4'_15 
REMARK    8  A    between atoms: C3'_17  and  O3'_18 
REMARK    9  A    between atoms: C2'_19  and  O2'_20 
REMARK   10  A    between atoms: C1'_21  and  N9_22 
ROOT
ATOM      1  C4' ATP d   1     -25.194  15.345 -22.778  0.00  0.00     0.089 C 
ATOM      2  O4' ATP d   1     -26.413  15.961 -22.353  0.00  0.00    -0.353 OA
ATOM      3  C3' ATP d   1     -24.102  15.821 -21.843  0.00  0.00     0.091 C 
ATOM      4  C2' ATP d   1     -24.850  16.491 -20.748  0.00  0.00     0.105 C 
ATOM      5  C1' ATP d   1     -26.066  16.994 -21.495  0.00  0.00     0.139 C 
ATOM      6  H3  ATP d   1     -24.952  15.567 -23.828  0.00  0.00     0.090 H 
ATOM      7  H4  ATP d   1     -23.446  15.008 -21.497  0.00  0.00     0.091 H 
ATOM      8  H6  ATP d   1     -25.090  15.836 -19.898  0.00  0.00     0.093 H 
ATOM      9  H8  ATP d   1     -25.817  17.901 -22.065  0.00  0.00     0.122 H 
ENDROOT
BRANCH   1  10
ATOM     10  C5' ATP d   1     -25.430  13.876 -22.546  0.00  0.00     0.058 C 
ATOM     11  H1  ATP d   1     -26.129  13.451 -23.281  0.00  0.00     0.079 H 
ATOM     12  H2  ATP d   1     -24.492  13.302 -22.557  0.00  0.00     0.079 H 
BRANCH  10  13
ATOM     13  O5' ATP d   1     -26.001  13.939 -21.241  0.00  0.00    -0.287 OA
BRANCH  13  14
ATOM     14  PA  ATP d   1     -25.588  12.903 -20.067  0.00  0.00     0.417 P 
ATOM     15  O1A ATP d   1     -26.816  12.521 -19.241  0.00  0.00    -0.624 OA
ATOM     16  O2A ATP d   1     -24.771  11.789 -20.767  0.00  0.00    -0.624 OA
BRANCH  14  17
ATOM     17  O3A ATP d   1     -24.668  13.812 -19.069  0.00  0.00    -0.180 OA
BRANCH  17  18
ATOM     18  PB  ATP d   1     -23.983  13.073 -17.787  0.00  0.00     0.428 P 
ATOM     19  O1B ATP d   1     -22.692  12.417 -18.305  0.00  0.00    -0.624 OA
ATOM     20  O2B ATP d   1     -24.003  13.984 -16.566  0.00  0.00    -0.624 OA
BRANCH  18  21
ATOM     21  O3B ATP d   1     -24.983  11.809 -17.458  0.00  0.00    -0.173 OA
BRANCH  21  22
ATOM     22  PG  ATP d   1     -24.541  10.227 -17.460  0.00  0.00     0.431 P 
ATOM     23  O1G ATP d   1     -24.204   9.967 -18.922  0.00  0.00    -0.616 OA
ATOM     24  O2G ATP d   1     -25.807   9.515 -17.000  0.00  0.00    -0.616 OA
ATOM     25  O3G ATP d   1     -23.360  10.191 -16.473  0.00  0.00    -0.616 OA
ENDBRANCH  21  22
ENDBRANCH  18  21
ENDBRANCH  17  18
ENDBRANCH  14  17
ENDBRANCH  13  14
ENDBRANCH  10  13
ENDBRANCH   1  10
BRANCH   3  26
ATOM     26  O3' ATP d   1     -23.387  16.863 -22.500  0.00  0.00    -0.390 OA
ATOM     27  H5  ATP d   1     -22.695  17.178 -21.931  0.00  0.00     0.210 HD
ENDBRANCH   3  26
BRANCH   5  28
ATOM     28  N9  ATP d   1     -27.146  17.281 -20.592  0.00  0.00    -0.294 N 
ATOM     29  C8  ATP d   1     -27.743  16.451 -19.729  0.00  0.00     0.071 A 
ATOM     30  N7  ATP d   1     -28.701  17.140 -19.020  0.00  0.00    -0.236 NA
ATOM     31  H9  ATP d   1     -27.508  15.395 -19.607  0.00  0.00     0.144 H 
ATOM     32  C5  ATP d   1     -28.707  18.423 -19.427  0.00  0.00     0.149 A 
ATOM     33  C6  ATP d   1     -29.443  19.637 -19.093  0.00  0.00     0.155 A 
ATOM     34  C4  ATP d   1     -27.684  18.508 -20.458  0.00  0.00     0.167 A 
ATOM     35  N6  ATP d   1     -30.412  19.612 -18.142  0.00  0.00    -0.382 N 
ATOM     36  N1  ATP d   1     -29.132  20.784 -19.749  0.00  0.00    -0.222 NA
ATOM     37  H10 ATP d   1     -30.928  20.473 -17.910  0.00  0.00     0.157 HD
ATOM     38  H11 ATP d   1     -30.631  18.733 -17.652  0.00  0.00     0.157 HD
ATOM     39  C2  ATP d   1     -28.198  20.767 -20.691  0.00  0.00     0.091 A 
ATOM     40  N3  ATP d   1     -27.485  19.683 -21.064  0.00  0.00    -0.222 NA
ATOM     41  H12 ATP d   1     -27.990  21.700 -21.203  0.00  0.00     0.146 H 
ENDBRANCH   5  28
BRANCH   4  42
ATOM     42  O2' ATP d   1     -24.070  17.614 -20.373  0.00  0.00    -0.388 OA
ATOM     43  H7  ATP d   1     -23.966  18.190 -21.121  0.00  0.00     0.210 HD
ENDBRANCH   4  42
TORSDOF 10
