REMARK  17 active torsions:
REMARK  status: ('A' for Active; 'I' for Inactive)
REMARK    1  A    between atoms: C2_1  and  O39_2 
REMARK    2  A    between atoms: O39_2  and  C40_3 
REMARK    3  A    between atoms: S8_9  and  C5_6 
REMARK    4  A    between atoms: N11_12  and  S8_9 
REMARK    5  A    between atoms: N11_12  and  C12_13 
REMARK    6  A    between atoms: C16_17  and  N11_12 
REMARK    7  A    between atoms: C12_13  and  C13_14 
REMARK    8  A    between atoms: C13_14  and  C14_15 
REMARK    9  A    between atoms: C13_14  and  C15_16 
REMARK   10  A    between atoms: C17_18  and  C16_17 
REMARK   11  A    between atoms: C17_18  and  O18_19 
REMARK   12  A    between atoms: C19_20  and  C17_18 
REMARK   13  A    between atoms: C19_20  and  N20_21 
REMARK   14  A    between atoms: C32_32  and  C19_20 
REMARK       I    between atoms: N20_21  and  C21_22 
REMARK   15  A    between atoms: C21_22  and  O23_24 
REMARK   16  A    between atoms: O23_24  and  C24_25 
REMARK   17  A    between atoms: C38_38  and  C32_32 
ROOT
ATOM      1  C17 G55 d   1      15.344  24.291  18.131  0.00  0.00     0.071 C 
ATOM      2  H19 G55 d   1      15.716  23.848  19.066  0.00  0.00     0.088 H 
ENDROOT
BRANCH   1   3
ATOM      3  C16 G55 d   1      16.437  25.196  17.583  0.00  0.00     0.031 C 
ATOM      4  H17 G55 d   1      16.148  25.522  16.573  0.00  0.00     0.069 H 
ATOM      5  H18 G55 d   1      16.528  26.073  18.240  0.00  0.00     0.069 H 
BRANCH   3   6
ATOM      6  N11 G55 d   1      17.732  24.540  17.505  0.00  0.00    -0.304 N 
BRANCH   6   7
ATOM      7  S8  G55 d   1      18.381  24.222  16.038  0.00  0.00     0.260 S 
ATOM      8  O9  G55 d   1      17.300  24.119  15.075  0.00  0.00    -0.200 OA
ATOM      9  O10 G55 d   1      19.246  23.113  16.229  0.00  0.00    -0.200 OA
BRANCH   7  10
ATOM     10  C5  G55 d   1      19.346  25.628  15.539  0.00  0.00     0.079 C 
ATOM     11  C4  G55 d   1      20.736  25.597  15.811  0.00  0.00    -0.058 C 
ATOM     12  C3  G55 d   1      21.461  26.726  15.541  0.00  0.00    -0.049 C 
ATOM     13  H5  G55 d   1      21.209  24.711  16.218  0.00  0.00     0.086 H 
ATOM     14  C2  G55 d   1      20.869  27.890  15.059  0.00  0.00     0.068 C 
ATOM     15  H4  G55 d   1      22.532  26.713  15.708  0.00  0.00     0.087 H 
ATOM     16  C7  G55 d   1      19.515  27.814  14.660  0.00  0.00    -0.049 C 
ATOM     17  C6  G55 d   1      18.755  26.706  14.939  0.00  0.00    -0.058 C 
ATOM     18  H7  G55 d   1      19.070  28.645  14.125  0.00  0.00     0.087 H 
ATOM     19  H6  G55 d   1      17.701  26.685  14.687  0.00  0.00     0.086 H 
BRANCH  14  20
ATOM     20  O39 G55 d   1      21.493  29.041  14.763  0.00  0.00    -0.356 OA
BRANCH  20  21
ATOM     21  C40 G55 d   1      22.877  29.103  15.088  0.00  0.00     0.010 C 
ATOM     22  H1  G55 d   1      23.277  30.087  14.801  0.00  0.00     0.066 H 
ATOM     23  H2  G55 d   1      23.417  28.315  14.543  0.00  0.00     0.066 H 
ATOM     24  H3  G55 d   1      23.006  28.956  16.170  0.00  0.00     0.066 H 
ENDBRANCH  20  21
ENDBRANCH  14  20
ENDBRANCH   7  10
ENDBRANCH   6   7
BRANCH   6  25
ATOM     25  C12 G55 d   1      18.661  24.819  18.572  0.00  0.00     0.008 C 
ATOM     26  H8  G55 d   1      18.663  25.906  18.742  0.00  0.00     0.066 H 
ATOM     27  H9  G55 d   1      19.660  24.498  18.242  0.00  0.00     0.066 H 
BRANCH  25  28
ATOM     28  C13 G55 d   1      18.361  24.124  19.932  0.00  0.00    -0.045 C 
ATOM     29  H10 G55 d   1      17.353  24.381  20.289  0.00  0.00     0.041 H 
BRANCH  28  30
ATOM     30  C14 G55 d   1      18.470  22.622  19.776  0.00  0.00    -0.072 C 
ATOM     31  H11 G55 d   1      18.257  22.137  20.740  0.00  0.00     0.028 H 
ATOM     32  H12 G55 d   1      19.488  22.360  19.451  0.00  0.00     0.028 H 
ATOM     33  H13 G55 d   1      17.745  22.278  19.024  0.00  0.00     0.028 H 
ENDBRANCH  28  30
BRANCH  28  34
ATOM     34  C15 G55 d   1      19.419  24.675  20.882  0.00  0.00    -0.072 C 
ATOM     35  H14 G55 d   1      19.304  25.766  20.966  0.00  0.00     0.028 H 
ATOM     36  H15 G55 d   1      20.420  24.441  20.491  0.00  0.00     0.028 H 
ATOM     37  H16 G55 d   1      19.296  24.216  21.874  0.00  0.00     0.028 H 
ENDBRANCH  28  34
ENDBRANCH  25  28
ENDBRANCH   6  25
ENDBRANCH   3   6
ENDBRANCH   1   3
BRANCH   1  38
ATOM     38  O18 G55 d   1      14.173  25.100  18.429  0.00  0.00    -0.392 OA
ATOM     39  H20 G55 d   1      14.400  25.759  19.075  0.00  0.00     0.210 HD
ENDBRANCH   1  38
BRANCH   1  40
ATOM     40  C19 G55 d   1      14.928  23.125  17.193  0.00  0.00     0.044 C 
ATOM     41  H21 G55 d   1      15.841  22.602  16.872  0.00  0.00     0.077 H 
BRANCH  40  42
ATOM     42  N20 G55 d   1      14.055  22.193  17.921  0.00  0.00    -0.329 N 
ATOM     43  C21 G55 d   1      14.440  21.011  18.364  0.00  0.00     0.361 C 
ATOM     44  O22 G55 d   1      15.533  20.583  18.269  0.00  0.00    -0.238 OA
ATOM     45  H22 G55 d   1      13.110  22.472  18.091  0.00  0.00     0.165 HD
BRANCH  43  46
ATOM     46  O23 G55 d   1      13.451  20.339  19.002  0.00  0.00    -0.296 OA
BRANCH  46  47
ATOM     47  C24 G55 d   1      13.767  18.994  19.378  0.00  0.00     0.072 C 
ATOM     48  C25 G55 d   1      12.794  18.591  20.460  0.00  0.00     0.047 C 
ATOM     49  O26 G55 d   1      11.440  18.657  20.087  0.00  0.00    -0.364 OA
ATOM     50  H24 G55 d   1      12.945  19.258  21.322  0.00  0.00     0.078 H 
ATOM     51  H25 G55 d   1      13.018  17.555  20.754  0.00  0.00     0.078 H 
ATOM     52  C27 G55 d   1      10.848  17.560  19.450  0.00  0.00     0.103 C 
ATOM     53  O28 G55 d   1      11.659  16.919  18.512  0.00  0.00    -0.367 OA
ATOM     54  H26 G55 d   1       9.942  17.912  18.935  0.00  0.00     0.117 H 
ATOM     55  H27 G55 d   1      10.570  16.826  20.221  0.00  0.00     0.117 H 
ATOM     56  C29 G55 d   1      12.261  17.857  17.612  0.00  0.00     0.024 C 
ATOM     57  C30 G55 d   1      13.657  18.148  18.120  0.00  0.00    -0.018 C 
ATOM     58  H28 G55 d   1      11.670  18.785  17.587  0.00  0.00     0.074 H 
ATOM     59  H29 G55 d   1      12.312  17.427  16.601  0.00  0.00     0.074 H 
ATOM     60  H30 G55 d   1      14.144  17.183  18.324  0.00  0.00     0.040 H 
ATOM     61  H31 G55 d   1      14.200  18.671  17.319  0.00  0.00     0.040 H 
ATOM     62  H23 G55 d   1      14.793  18.932  19.770  0.00  0.00     0.087 H 
ENDBRANCH  46  47
ENDBRANCH  43  46
ENDBRANCH  40  42
BRANCH  40  63
ATOM     63  C32 G55 d   1      14.156  23.560  15.957  0.00  0.00    -0.020 C 
ATOM     64  H32 G55 d   1      14.751  24.306  15.409  0.00  0.00     0.043 H 
ATOM     65  H33 G55 d   1      13.203  24.010  16.272  0.00  0.00     0.043 H 
BRANCH  63  66
ATOM     66  C38 G55 d   1      13.869  22.400  15.045  0.00  0.00    -0.056 A 
ATOM     67  C33 G55 d   1      12.617  21.786  15.045  0.00  0.00    -0.077 A 
ATOM     68  C34 G55 d   1      12.411  20.617  14.352  0.00  0.00    -0.082 A 
ATOM     69  H34 G55 d   1      11.799  22.235  15.597  0.00  0.00     0.084 H 
ATOM     70  C35 G55 d   1      13.404  20.047  13.556  0.00  0.00    -0.083 A 
ATOM     71  H35 G55 d   1      11.449  20.124  14.426  0.00  0.00     0.083 H 
ATOM     72  C36 G55 d   1      14.632  20.698  13.469  0.00  0.00    -0.082 A 
ATOM     73  H36 G55 d   1      13.225  19.122  13.020  0.00  0.00     0.083 H 
ATOM     74  C37 G55 d   1      14.866  21.862  14.227  0.00  0.00    -0.077 A 
ATOM     75  H37 G55 d   1      15.407  20.309  12.819  0.00  0.00     0.083 H 
ATOM     76  H38 G55 d   1      15.834  22.348  14.175  0.00  0.00     0.084 H 
ENDBRANCH  63  66
ENDBRANCH  40  63
ENDBRANCH   1  40
TORSDOF 17
