REMARK  6 active torsions:
REMARK  status: ('A' for Active; 'I' for Inactive)
REMARK    1  A    between atoms: C1'_17  and  N1_1 
REMARK    2  A    between atoms: C5'_10  and  O5'_9 
REMARK    3  A    between atoms: C4'_11  and  C5'_10 
REMARK    4  A    between atoms: C3'_13  and  O3'_14 
REMARK    5  A    between atoms: O3'_14  and  P_19 
REMARK    6  A    between atoms: C2'_15  and  O2'_16 
ROOT
ATOM      1  C4' UA3 d   1      30.201  40.496  10.107  0.00  0.00     0.089 C 
ATOM      2  O4' UA3 d   1      29.466  40.401   8.885  0.00  0.00    -0.353 OA
ATOM      3  C3' UA3 d   1      31.314  39.454  10.053  0.00  0.00     0.107 C 
ATOM      4  C2' UA3 d   1      31.120  38.636   8.797  0.00  0.00     0.106 C 
ATOM      5  C1' UA3 d   1      29.889  39.258   8.127  0.00  0.00     0.141 C 
ATOM      6  H7  UA3 d   1      29.540  40.251  10.951  0.00  0.00     0.090 H 
ATOM      7  H8  UA3 d   1      32.306  39.923  10.124  0.00  0.00     0.092 H 
ATOM      8  H9  UA3 d   1      30.858  37.603   9.071  0.00  0.00     0.093 H 
ATOM      9  H11 UA3 d   1      29.107  38.494   8.248  0.00  0.00     0.123 H 
ENDROOT
BRANCH   5  10
ATOM     10  N1  UA3 d   1      29.850  39.582   6.692  0.00  0.00    -0.280 N 
ATOM     11  C2  UA3 d   1      29.596  38.563   5.744  0.00  0.00     0.331 A 
ATOM     12  O2  UA3 d   1      29.495  37.380   6.120  0.00  0.00    -0.246 OA
ATOM     13  N3  UA3 d   1      29.491  38.880   4.446  0.00  0.00    -0.275 N 
ATOM     14  C4  UA3 d   1      29.627  40.142   4.010  0.00  0.00     0.250 A 
ATOM     15  H1  UA3 d   1      29.306  38.155   3.783  0.00  0.00     0.173 HD
ATOM     16  O4  UA3 d   1      29.541  40.383   2.783  0.00  0.00    -0.268 OA
ATOM     17  C5  UA3 d   1      29.857  41.175   4.919  0.00  0.00    -0.002 A 
ATOM     18  C6  UA3 d   1      29.947  40.856   6.274  0.00  0.00    -0.008 A 
ATOM     19  H2  UA3 d   1      29.964  42.204   4.579  0.00  0.00     0.094 H 
ATOM     20  H3  UA3 d   1      30.098  41.650   7.004  0.00  0.00     0.112 H 
ENDBRANCH   5  10
BRANCH   4  21
ATOM     21  O2' UA3 d   1      32.337  38.562   8.084  0.00  0.00    -0.388 OA
ATOM     22  H10 UA3 d   1      32.619  39.438   7.849  0.00  0.00     0.210 HD
ENDBRANCH   4  21
BRANCH   1  23
ATOM     23  C5' UA3 d   1      30.684  41.934  10.288  0.00  0.00     0.043 C 
ATOM     24  H5  UA3 d   1      29.966  42.476  10.921  0.00  0.00     0.078 H 
ATOM     25  H6  UA3 d   1      31.669  41.922  10.778  0.00  0.00     0.078 H 
BRANCH  23  26
ATOM     26  O5' UA3 d   1      30.798  42.609   9.028  0.00  0.00    -0.398 OA
ATOM     27  H4  UA3 d   1      29.949  42.627   8.601  0.00  0.00     0.209 HD
ENDBRANCH  23  26
ENDBRANCH   1  23
BRANCH   3  28
ATOM     28  O3' UA3 d   1      31.109  38.453  11.025  0.00  0.00    -0.272 OA
BRANCH  28  29
ATOM     29  P   UA3 d   1      32.201  38.239  12.179  0.00  0.00     0.422 P 
ATOM     30  O3P UA3 d   1      32.281  39.830  12.966  0.00  0.00    -0.617 OA
ATOM     31  O1P UA3 d   1      33.624  37.862  11.553  0.00  0.00    -0.617 OA
ATOM     32  O2P UA3 d   1      31.710  36.947  13.292  0.00  0.00    -0.617 OA
ENDBRANCH  28  29
ENDBRANCH   3  28
TORSDOF 6
