REMARK  7 active torsions:
REMARK  status: ('A' for Active; 'I' for Inactive)
REMARK    1  A    between atoms: O3'_10  and  P_1 
REMARK    2  A    between atoms: C5'_6  and  O5'_5 
REMARK    3  A    between atoms: C4'_7  and  C5'_6 
REMARK    4  A    between atoms: C3'_9  and  O3'_10 
REMARK    5  A    between atoms: C2'_11  and  O2'_12 
REMARK    6  A    between atoms: C1'_13  and  N1_14 
REMARK    7  A    between atoms: C4_17  and  N4_21 
ROOT
ATOM      1  C4' C3P d   1      30.301  40.187   9.860  0.00  0.00     0.089 C 
ATOM      2  O4' C3P d   1      29.640  40.194   8.589  0.00  0.00    -0.353 OA
ATOM      3  C3' C3P d   1      31.353  39.076   9.782  0.00  0.00     0.107 C 
ATOM      4  C2' C3P d   1      31.094  38.350   8.475  0.00  0.00     0.106 C 
ATOM      5  C1' C3P d   1      30.563  39.545   7.711  0.00  0.00     0.141 C 
ATOM      6  H4  C3P d   1      29.576  39.942  10.650  0.00  0.00     0.090 H 
ATOM      7  H5  C3P d   1      32.367  39.501   9.805  0.00  0.00     0.092 H 
ATOM      8  H6  C3P d   1      30.364  37.531   8.555  0.00  0.00     0.093 H 
ATOM      9  H8  C3P d   1      31.434  40.215   7.656  0.00  0.00     0.123 H 
ENDROOT
BRANCH   5  10
ATOM     10  N1  C3P d   1      30.123  39.512   6.313  0.00  0.00    -0.280 N 
ATOM     11  C2  C3P d   1      29.762  38.390   5.508  0.00  0.00     0.330 A 
ATOM     12  N3  C3P d   1      29.422  38.627   4.220  0.00  0.00    -0.293 N 
ATOM     13  O2  C3P d   1      29.737  37.207   5.927  0.00  0.00    -0.246 OA
ATOM     14  C4  C3P d   1      29.428  39.877   3.687  0.00  0.00     0.125 A 
ATOM     15  H9  C3P d   1      29.157  37.856   3.641  0.00  0.00     0.172 HD
ATOM     16  C5  C3P d   1      29.791  40.965   4.459  0.00  0.00    -0.024 A 
ATOM     17  C6  C3P d   1      30.135  40.739   5.774  0.00  0.00    -0.009 A 
ATOM     18  H10 C3P d   1      29.805  41.970   4.040  0.00  0.00     0.091 H 
ATOM     19  H11 C3P d   1      30.426  41.585   6.395  0.00  0.00     0.112 H 
BRANCH  14  20
ATOM     20  N4  C3P d   1      29.084  40.093   2.398  0.00  0.00    -0.284 NA
ATOM     21  H12 C3P d   1      29.096  41.029   2.023  0.00  0.00     0.188 HD
ENDBRANCH  14  20
ENDBRANCH   5  10
BRANCH   4  22
ATOM     22  O2' C3P d   1      32.332  37.872   7.967  0.00  0.00    -0.388 OA
ATOM     23  H7  C3P d   1      32.917  38.606   7.819  0.00  0.00     0.210 HD
ENDBRANCH   4  22
BRANCH   1  24
ATOM     24  C5' C3P d   1      30.903  41.559  10.173  0.00  0.00     0.043 C 
ATOM     25  H2  C3P d   1      30.154  42.161  10.708  0.00  0.00     0.078 H 
ATOM     26  H3  C3P d   1      31.788  41.421  10.812  0.00  0.00     0.078 H 
BRANCH  24  27
ATOM     27  O5' C3P d   1      31.296  42.259   8.982  0.00  0.00    -0.398 OA
ATOM     28  H1  C3P d   1      30.536  42.388   8.426  0.00  0.00     0.209 HD
ENDBRANCH  24  27
ENDBRANCH   1  24
BRANCH   3  29
ATOM     29  O3' C3P d   1      31.187  38.156  10.838  0.00  0.00    -0.272 OA
BRANCH  29  30
ATOM     30  P   C3P d   1      32.093  38.128  12.167  0.00  0.00     0.422 P 
ATOM     31  O1P C3P d   1      32.958  39.374  12.156  0.00  0.00    -0.617 OA
ATOM     32  O2P C3P d   1      32.848  36.828  12.020  0.00  0.00    -0.617 OA
ATOM     33  O3P C3P d   1      31.049  38.119  13.258  0.00  0.00    -0.617 OA
ENDBRANCH  29  30
ENDBRANCH   3  29
TORSDOF 7
