REMARK  17 active torsions:
REMARK  status: ('A' for Active; 'I' for Inactive)
REMARK    1  A    between atoms: C2_1  and  O39_2 
REMARK    2  A    between atoms: O39_2  and  C40_3 
REMARK    3  A    between atoms: S8_9  and  C5_6 
REMARK    4  A    between atoms: N11_12  and  S8_9 
REMARK    5  A    between atoms: N11_12  and  C12_13 
REMARK    6  A    between atoms: C16_17  and  N11_12 
REMARK    7  A    between atoms: C12_13  and  C13_14 
REMARK    8  A    between atoms: C13_14  and  C14_15 
REMARK    9  A    between atoms: C13_14  and  C15_16 
REMARK   10  A    between atoms: C17_18  and  C16_17 
REMARK   11  A    between atoms: C17_18  and  O18_19 
REMARK   12  A    between atoms: C19_20  and  C17_18 
REMARK   13  A    between atoms: C19_20  and  N20_21 
REMARK   14  A    between atoms: C32_34  and  C19_20 
REMARK       I    between atoms: N20_21  and  C21_22 
REMARK   15  A    between atoms: C21_22  and  O23_24 
REMARK   16  A    between atoms: O23_24  and  C24_25 
REMARK   17  A    between atoms: C38_40  and  C32_34 
ROOT
ATOM      1  C19 G05 d   1      14.866  23.085  17.034  0.00  0.00     0.044 C 
ATOM      2  H21 G05 d   1      15.784  22.551  16.748  0.00  0.00     0.077 H 
ENDROOT
BRANCH   1   3
ATOM      3  C17 G05 d   1      15.232  24.227  17.979  0.00  0.00     0.071 C 
ATOM      4  H19 G05 d   1      15.597  23.780  18.915  0.00  0.00     0.088 H 
BRANCH   3   5
ATOM      5  C16 G05 d   1      16.334  25.144  17.441  0.00  0.00     0.031 C 
ATOM      6  H17 G05 d   1      16.064  25.471  16.426  0.00  0.00     0.069 H 
ATOM      7  H18 G05 d   1      16.422  26.022  18.098  0.00  0.00     0.069 H 
BRANCH   5   8
ATOM      8  N11 G05 d   1      17.626  24.454  17.392  0.00  0.00    -0.304 N 
BRANCH   8   9
ATOM      9  S8  G05 d   1      18.299  24.159  15.900  0.00  0.00     0.260 S 
ATOM     10  O9  G05 d   1      17.184  24.054  14.947  0.00  0.00    -0.200 OA
ATOM     11  O10 G05 d   1      19.187  23.020  16.050  0.00  0.00    -0.200 OA
BRANCH   9  12
ATOM     12  C5  G05 d   1      19.283  25.531  15.425  0.00  0.00     0.079 A 
ATOM     13  C4  G05 d   1      20.641  25.519  15.731  0.00  0.00    -0.058 A 
ATOM     14  C3  G05 d   1      21.434  26.614  15.484  0.00  0.00    -0.049 A 
ATOM     15  H5  G05 d   1      21.080  24.631  16.171  0.00  0.00     0.086 H 
ATOM     16  C2  G05 d   1      20.868  27.733  14.885  0.00  0.00     0.068 A 
ATOM     17  H4  G05 d   1      22.484  26.605  15.752  0.00  0.00     0.087 H 
ATOM     18  C7  G05 d   1      19.525  27.759  14.600  0.00  0.00    -0.049 A 
ATOM     19  C6  G05 d   1      18.709  26.650  14.853  0.00  0.00    -0.058 A 
ATOM     20  H7  G05 d   1      19.089  28.654  14.171  0.00  0.00     0.087 H 
ATOM     21  H6  G05 d   1      17.654  26.669  14.606  0.00  0.00     0.086 H 
BRANCH  16  22
ATOM     22  O39 G05 d   1      21.458  28.959  14.713  0.00  0.00    -0.356 OA
BRANCH  22  23
ATOM     23  C40 G05 d   1      22.829  28.946  15.025  0.00  0.00     0.010 C 
ATOM     24  H1  G05 d   1      23.250  29.950  14.870  0.00  0.00     0.066 H 
ATOM     25  H2  G05 d   1      23.347  28.227  14.373  0.00  0.00     0.066 H 
ATOM     26  H3  G05 d   1      22.963  28.651  16.076  0.00  0.00     0.066 H 
ENDBRANCH  22  23
ENDBRANCH  16  22
ENDBRANCH   9  12
ENDBRANCH   8   9
BRANCH   8  27
ATOM     27  C12 G05 d   1      18.571  24.734  18.462  0.00  0.00     0.008 C 
ATOM     28  H8  G05 d   1      18.565  25.819  18.641  0.00  0.00     0.066 H 
ATOM     29  H9  G05 d   1      19.569  24.424  18.119  0.00  0.00     0.066 H 
BRANCH  27  30
ATOM     30  C13 G05 d   1      18.297  24.036  19.801  0.00  0.00    -0.045 C 
ATOM     31  H10 G05 d   1      17.289  24.314  20.141  0.00  0.00     0.041 H 
BRANCH  30  32
ATOM     32  C14 G05 d   1      18.346  22.513  19.659  0.00  0.00    -0.072 C 
ATOM     33  H11 G05 d   1      18.146  22.047  20.635  0.00  0.00     0.028 H 
ATOM     34  H12 G05 d   1      19.343  22.209  19.305  0.00  0.00     0.028 H 
ATOM     35  H13 G05 d   1      17.585  22.188  18.934  0.00  0.00     0.028 H 
ENDBRANCH  30  32
BRANCH  30  36
ATOM     36  C15 G05 d   1      19.329  24.542  20.846  0.00  0.00    -0.072 C 
ATOM     37  H14 G05 d   1      19.267  25.638  20.922  0.00  0.00     0.028 H 
ATOM     38  H15 G05 d   1      20.342  24.254  20.530  0.00  0.00     0.028 H 
ATOM     39  H16 G05 d   1      19.109  24.093  21.826  0.00  0.00     0.028 H 
ENDBRANCH  30  36
ENDBRANCH  27  30
ENDBRANCH   8  27
ENDBRANCH   5   8
ENDBRANCH   3   5
BRANCH   3  40
ATOM     40  O18 G05 d   1      14.060  25.011  18.274  0.00  0.00    -0.392 OA
ATOM     41  H20 G05 d   1      13.759  25.439  17.481  0.00  0.00     0.210 HD
ENDBRANCH   3  40
ENDBRANCH   1   3
BRANCH   1  42
ATOM     42  N20 G05 d   1      13.952  22.182  17.754  0.00  0.00    -0.329 N 
ATOM     43  C21 G05 d   1      14.295  20.994  18.159  0.00  0.00     0.361 C 
ATOM     44  O22 G05 d   1      15.402  20.442  18.002  0.00  0.00    -0.238 OA
ATOM     45  H22 G05 d   1      13.022  22.498  17.941  0.00  0.00     0.165 HD
BRANCH  43  46
ATOM     46  O23 G05 d   1      13.303  20.356  18.809  0.00  0.00    -0.298 OA
BRANCH  46  47
ATOM     47  C24 G05 d   1      13.561  18.997  19.235  0.00  0.00     0.054 C 
ATOM     48  C25 G05 d   1      12.338  18.610  20.080  0.00  0.00    -0.014 C 
ATOM     49  C26 G05 d   1      11.302  18.009  19.107  0.00  0.00     0.066 C 
ATOM     50  H24 G05 d   1      11.922  19.500  20.575  0.00  0.00     0.040 H 
ATOM     51  H25 G05 d   1      12.621  17.866  20.839  0.00  0.00     0.040 H 
ATOM     52  O27 G05 d   1      10.655  19.144  18.421  0.00  0.00    -0.381 OA
ATOM     53  C31 G05 d   1      12.149  17.285  18.136  0.00  0.00     0.066 C 
ATOM     54  H26 G05 d   1      10.569  17.356  19.603  0.00  0.00     0.087 H 
ATOM     55  C28 G05 d   1       9.933  18.706  17.258  0.00  0.00     0.040 C 
ATOM     56  C29 G05 d   1      10.955  18.123  16.278  0.00  0.00     0.040 C 
ATOM     57  H27 G05 d   1       9.412  19.558  16.796  0.00  0.00     0.077 H 
ATOM     58  H28 G05 d   1       9.199  17.936  17.539  0.00  0.00     0.077 H 
ATOM     59  O30 G05 d   1      11.518  16.951  16.881  0.00  0.00    -0.381 OA
ATOM     60  H29 G05 d   1      11.747  18.860  16.081  0.00  0.00     0.077 H 
ATOM     61  H30 G05 d   1      10.458  17.856  15.333  0.00  0.00     0.077 H 
ATOM     62  C41 G05 d   1      13.448  18.059  18.026  0.00  0.00    -0.014 C 
ATOM     63  H31 G05 d   1      12.397  16.317  18.596  0.00  0.00     0.087 H 
ATOM     64  H32 G05 d   1      14.297  17.360  18.019  0.00  0.00     0.040 H 
ATOM     65  H33 G05 d   1      13.451  18.649  17.098  0.00  0.00     0.040 H 
ATOM     66  H23 G05 d   1      14.519  18.897  19.767  0.00  0.00     0.084 H 
ENDBRANCH  46  47
ENDBRANCH  43  46
ENDBRANCH   1  42
BRANCH   1  67
ATOM     67  C32 G05 d   1      14.144  23.531  15.781  0.00  0.00    -0.020 C 
ATOM     68  H34 G05 d   1      14.793  24.230  15.234  0.00  0.00     0.043 H 
ATOM     69  H35 G05 d   1      13.217  24.045  16.076  0.00  0.00     0.043 H 
BRANCH  67  70
ATOM     70  C38 G05 d   1      13.785  22.382  14.856  0.00  0.00    -0.056 A 
ATOM     71  C33 G05 d   1      12.508  21.835  14.817  0.00  0.00    -0.077 A 
ATOM     72  C34 G05 d   1      12.234  20.682  14.094  0.00  0.00    -0.082 A 
ATOM     73  H36 G05 d   1      11.707  22.320  15.364  0.00  0.00     0.084 H 
ATOM     74  C35 G05 d   1      13.223  20.052  13.350  0.00  0.00    -0.083 A 
ATOM     75  H37 G05 d   1      11.233  20.267  14.110  0.00  0.00     0.083 H 
ATOM     76  C36 G05 d   1      14.500  20.609  13.378  0.00  0.00    -0.082 A 
ATOM     77  H38 G05 d   1      13.010  19.161  12.770  0.00  0.00     0.083 H 
ATOM     78  C37 G05 d   1      14.782  21.764  14.124  0.00  0.00    -0.077 A 
ATOM     79  H39 G05 d   1      15.295  20.139  12.810  0.00  0.00     0.083 H 
ATOM     80  H40 G05 d   1      15.786  22.173  14.126  0.00  0.00     0.084 H 
ENDBRANCH  67  70
ENDBRANCH   1  67
TORSDOF 17
