REMARK  5 active torsions:
REMARK  status: ('A' for Active; 'I' for Inactive)
REMARK    1  A    between atoms: N_1  and  CA_2 
REMARK    2  A    between atoms: CA_2  and  C_3 
REMARK    3  A    between atoms: CA_2  and  CB_5 
REMARK    4  A    between atoms: CB_5  and  CG_6 
REMARK    5  A    between atoms: CG_6  and  CD_7 
ROOT
ATOM      1  CA  GLU d   1      20.570  19.376  14.053  0.00  0.00     0.183 C 
ATOM      2  H4  GLU d   1      21.068  18.578  13.483  0.00  0.00     0.101 H 
ENDROOT
BRANCH   1   3
ATOM      3  N   GLU d   1      20.806  20.678  13.358  0.00  0.00    -0.065 N 
ATOM      4  H1  GLU d   1      21.796  20.864  13.319  0.00  0.00     0.275 HD
ATOM      5  H2  GLU d   1      20.345  21.418  13.864  0.00  0.00     0.275 HD
ATOM      6  H3  GLU d   1      20.436  20.631  12.421  0.00  0.00     0.275 HD
ENDBRANCH   1   3
BRANCH   1   7
ATOM      7  C   GLU d   1      19.078  19.065  14.128  0.00  0.00     0.204 C 
ATOM      8  O   GLU d   1      18.722  18.034  14.727  0.00  0.00    -0.646 OA
ATOM      9  OXT GLU d   1      18.285  19.864  13.581  0.00  0.00    -0.646 OA
ENDBRANCH   1   7
BRANCH   1  10
ATOM     10  CB  GLU d   1      21.163  19.419  15.466  0.00  0.00    -0.020 C 
ATOM     11  H5  GLU d   1      20.745  18.580  16.041  0.00  0.00     0.037 H 
ATOM     12  H6  GLU d   1      20.868  20.369  15.935  0.00  0.00     0.037 H 
BRANCH  10  13
ATOM     13  CG  GLU d   1      22.682  19.317  15.508  0.00  0.00     0.018 C 
ATOM     14  H7  GLU d   1      23.027  19.628  16.505  0.00  0.00     0.049 H 
ATOM     15  H8  GLU d   1      23.100  19.993  14.748  0.00  0.00     0.049 H 
BRANCH  13  16
ATOM     16  CD  GLU d   1      23.186  17.914  15.238  0.00  0.00     0.172 C 
ATOM     17  OE1 GLU d   1      24.390  17.761  14.934  0.00  0.00    -0.648 OA
ATOM     18  OE2 GLU d   1      22.387  16.957  15.343  0.00  0.00    -0.648 OA
ENDBRANCH  13  16
ENDBRANCH  10  13
ENDBRANCH   1  10
TORSDOF 5
