REMARK  2 active torsions:
REMARK  status: ('A' for Active; 'I' for Inactive)
REMARK    1  A    between atoms: C5_6  and  C2_7 
REMARK    2  A    between atoms: C2_7  and  C1_8 
ROOT
ATOM      1  C2  LL2 d   1       7.784  11.015   5.123  0.00  0.00    -0.009 C 
ATOM      2  H6  LL2 d   1       8.130  12.004   4.789  0.00  0.00     0.048 H 
ATOM      3  H7  LL2 d   1       7.904  10.934   6.213  0.00  0.00     0.048 H 
ENDROOT
BRANCH   1   4
ATOM      4  C5  LL2 d   1       8.613   9.908   4.423  0.00  0.00    -0.053 A 
ATOM      5  C8  LL2 d   1       8.910   9.983   3.043  0.00  0.00    -0.077 A 
ATOM      6  C11 LL2 d   1       9.668   8.991   2.390  0.00  0.00    -0.082 A 
ATOM      7  H1  LL2 d   1       8.544  10.828   2.471  0.00  0.00     0.084 H 
ATOM      8  C13 LL2 d   1      10.144   7.873   3.096  0.00  0.00    -0.083 A 
ATOM      9  H2  LL2 d   1       9.886   9.091   1.333  0.00  0.00     0.083 H 
ATOM     10  C12 LL2 d   1       9.837   7.805   4.464  0.00  0.00    -0.082 A 
ATOM     11  H3  LL2 d   1      10.722   7.098   2.606  0.00  0.00     0.083 H 
ATOM     12  C9  LL2 d   1       9.087   8.797   5.139  0.00  0.00    -0.077 A 
ATOM     13  H4  LL2 d   1      10.191   6.952   5.031  0.00  0.00     0.083 H 
ATOM     14  H5  LL2 d   1       8.880   8.700   6.199  0.00  0.00     0.084 H 
ENDBRANCH   1   4
BRANCH   1  15
ATOM     15  C1  LL2 d   1       6.295  10.829   4.747  0.00  0.00     0.008 A 
ATOM     16  S4  LL2 d   1       5.885  10.823   3.145  0.00  0.00    -0.056 SA
ATOM     17  C7  LL2 d   1       4.189  10.552   3.397  0.00  0.00     0.164 A 
ATOM     18  N6  LL2 d   1       3.972  10.487   4.748  0.00  0.00    -0.236 NA
ATOM     19  N10 LL2 d   1       3.297  10.444   2.410  0.00  0.00    -0.378 N 
ATOM     20  C3  LL2 d   1       5.143  10.646   5.471  0.00  0.00     0.018 A 
ATOM     21  H8  LL2 d   1       5.149  10.627   6.560  0.00  0.00     0.116 H 
ATOM     22  H9  LL2 d   1       2.304  10.283   2.629  0.00  0.00     0.158 HD
ATOM     23  H10 LL2 d   1       3.602  10.522   1.429  0.00  0.00     0.158 HD
ENDBRANCH   1  15
TORSDOF 2
