REMARK  1 active torsions:
REMARK  status: ('A' for Active; 'I' for Inactive)
REMARK    1  A    between atoms: C13_9  and  C14_10 
ROOT
ATOM      1  C4  LL1 d   1       8.177  10.453   3.588  0.00  0.00     0.023 A 
ATOM      2  C5  LL1 d   1       8.490  10.906   4.898  0.00  0.00    -0.068 A 
ATOM      3  C6  LL1 d   1       9.832  11.148   5.300  0.00  0.00    -0.082 A 
ATOM      4  C1  LL1 d   1      10.884  10.975   4.363  0.00  0.00    -0.081 A 
ATOM      5  C2  LL1 d   1      10.577  10.505   3.031  0.00  0.00    -0.055 A 
ATOM      6  C3  LL1 d   1       9.246  10.278   2.640  0.00  0.00     0.062 A 
ATOM      7  N11 LL1 d   1       8.675   9.922   1.452  0.00  0.00    -0.277 N 
ATOM      8  N12 LL1 d   1       7.423   9.851   1.607  0.00  0.00    -0.173 NA
ATOM      9  C13 LL1 d   1       6.989  10.156   2.855  0.00  0.00     0.099 A 
ATOM     10  H1  LL1 d   1       7.687  11.071   5.607  0.00  0.00     0.085 H 
ATOM     11  H2  LL1 d   1      10.050  11.462   6.314  0.00  0.00     0.083 H 
ATOM     12  H3  LL1 d   1      11.908  11.193   4.644  0.00  0.00     0.083 H 
ATOM     13  H4  LL1 d   1      11.381  10.326   2.327  0.00  0.00     0.087 H 
ATOM     14  H5  LL1 d   1       9.182   9.741   0.574  0.00  0.00     0.189 HD
ENDROOT
BRANCH   9  15
ATOM     15  C14 LL1 d   1       5.603  10.185   3.295  0.00  0.00    -0.002 A 
ATOM     16  C15 LL1 d   1       4.577  10.269   2.332  0.00  0.00    -0.054 A 
ATOM     17  C16 LL1 d   1       3.209  10.258   2.686  0.00  0.00     0.003 A 
ATOM     18  H6  LL1 d   1       4.846  10.345   1.285  0.00  0.00     0.087 H 
ATOM     19  N17 LL1 d   1       2.907  10.209   4.003  0.00  0.00    -0.273 NA
ATOM     20  H7  LL1 d   1       2.432  10.288   1.931  0.00  0.00     0.114 H 
ATOM     21  C18 LL1 d   1       3.795  10.112   5.001  0.00  0.00     0.003 A 
ATOM     22  C19 LL1 d   1       5.203  10.099   4.669  0.00  0.00    -0.054 A 
ATOM     23  H8  LL1 d   1       3.467  10.045   6.032  0.00  0.00     0.114 H 
ATOM     24  H9  LL1 d   1       5.949  10.025   5.452  0.00  0.00     0.087 H 
ENDBRANCH   9  15
TORSDOF 1
