REMARK  5 active torsions:
REMARK  status: ('A' for Active; 'I' for Inactive)
REMARK    1  A    between atoms: N_1  and  CA_2 
REMARK    2  A    between atoms: CA_2  and  C_3 
REMARK    3  A    between atoms: CA_2  and  CB_6 
REMARK    4  A    between atoms: CB_6  and  CG_7 
REMARK    5  A    between atoms: CD2_9  and  CE2_10 
ROOT
ATOM      1  CB  AMQ d   1      21.433  19.732  15.552  0.00  0.00     0.002 C 
ATOM      2  H5  AMQ d   1      21.296  18.816  16.145  0.00  0.00     0.044 H 
ATOM      3  H6  AMQ d   1      20.946  20.576  16.063  0.00  0.00     0.044 H 
ENDROOT
BRANCH   1   4
ATOM      4  CA  AMQ d   1      20.756  19.532  14.166  0.00  0.00     0.186 C 
ATOM      5  H4  AMQ d   1      21.251  18.694  13.654  0.00  0.00     0.101 H 
BRANCH   4   6
ATOM      6  N   AMQ d   1      20.939  20.780  13.346  0.00  0.00    -0.065 N 
ATOM      7  H1  AMQ d   1      21.922  20.988  13.266  0.00  0.00     0.275 HD
ATOM      8  H2  AMQ d   1      20.468  21.549  13.795  0.00  0.00     0.275 HD
ATOM      9  H3  AMQ d   1      20.550  20.638  12.427  0.00  0.00     0.275 HD
ENDBRANCH   4   6
BRANCH   4  10
ATOM     10  C   AMQ d   1      19.225  19.194  14.299  0.00  0.00     0.204 C 
ATOM     11  OT1 AMQ d   1      18.418  19.948  13.735  0.00  0.00    -0.646 OA
ATOM     12  OT2 AMQ d   1      18.904  18.184  14.960  0.00  0.00    -0.646 OA
ENDBRANCH   4  10
ENDBRANCH   1   4
BRANCH   1  13
ATOM     13  CG  AMQ d   1      22.919  20.023  15.445  0.00  0.00     0.031 A 
ATOM     14  CD1 AMQ d   1      23.977  19.077  15.303  0.00  0.00     0.207 A 
ATOM     15  OE1 AMQ d   1      23.640  17.797  15.260  0.00  0.00    -0.170 OA
ATOM     16  NE1 AMQ d   1      25.204  19.511  15.221  0.00  0.00    -0.236 N 
ATOM     17  OE2 AMQ d   1      24.980  20.933  15.320  0.00  0.00    -0.240 OA
ATOM     18  H10 AMQ d   1      26.059  19.002  15.118  0.00  0.00     0.197 HD
ATOM     19  CD2 AMQ d   1      23.627  21.188  15.450  0.00  0.00     0.083 A 
BRANCH  19  20
ATOM     20  CE2 AMQ d   1      23.281  22.637  15.559  0.00  0.00    -0.029 C 
ATOM     21  H7  AMQ d   1      24.201  23.238  15.515  0.00  0.00     0.036 H 
ATOM     22  H8  AMQ d   1      22.768  22.821  16.515  0.00  0.00     0.036 H 
ATOM     23  H9  AMQ d   1      22.619  22.919  14.727  0.00  0.00     0.036 H 
ENDBRANCH  19  20
ENDBRANCH   1  13
TORSDOF 5
