REMARK  10 active torsions:
REMARK  status: ('A' for Active; 'I' for Inactive)
REMARK    1  A    between atoms: C3'_6  and  O3'_5 
REMARK    2  A    between atoms: C4'_7  and  C5'_8 
REMARK    3  A    between atoms: C5'_8  and  S5'_9 
REMARK    4  A    between atoms: S5'_9  and  C20_10 
REMARK    5  A    between atoms: C20_10  and  C21_11 
REMARK    6  A    between atoms: C21_11  and  C22_12 
REMARK    7  A    between atoms: C22_12  and  C23_13 
REMARK    8  A    between atoms: C10_17  and  N1'_15 
REMARK    9  A    between atoms: C10_17  and  C9_22 
REMARK   10  A    between atoms: C6_19  and  N6_20 
ROOT
ATOM      1  C3' BIG d   1      -1.219   1.114   7.158  0.00  0.00     0.064 C 
ATOM      2  C4' BIG d   1      -2.117   1.510   5.992  0.00  0.00     0.004 C 
ATOM      3  C1' BIG d   1      -3.459   0.879   6.322  0.00  0.00     0.090 C 
ATOM      4  N1' BIG d   1      -3.255   0.114   7.571  0.00  0.00    -0.064 N 
ATOM      5  C2' BIG d   1      -1.825  -0.155   7.709  0.00  0.00     0.108 C 
ATOM      6  H4  BIG d   1      -0.184   0.960   6.819  0.00  0.00     0.086 H 
ATOM      7  H5  BIG d   1      -2.187   2.604   5.902  0.00  0.00     0.047 H 
ATOM      8  H17 BIG d   1      -3.775   0.207   5.510  0.00  0.00     0.076 H 
ATOM      9  H18 BIG d   1      -4.221   1.658   6.471  0.00  0.00     0.076 H 
ATOM     10  H19 BIG d   1      -3.564   0.688   8.340  0.00  0.00     0.280 HD
ATOM     11  H20 BIG d   1      -1.546  -0.308   8.762  0.00  0.00     0.080 H 
ATOM     12  H21 BIG d   1      -1.524  -1.032   7.118  0.00  0.00     0.080 H 
ENDROOT
BRANCH   4  13
ATOM     13  C10 BIG d   1      -3.975  -1.176   7.647  0.00  0.00     0.111 C 
ATOM     14  H22 BIG d   1      -4.974  -0.962   8.055  0.00  0.00     0.083 H 
ATOM     15  H23 BIG d   1      -3.420  -1.812   8.352  0.00  0.00     0.083 H 
BRANCH  13  16
ATOM     16  C9  BIG d   1      -4.176  -1.981   6.396  0.00  0.00     0.014 A 
ATOM     17  C4  BIG d   1      -3.235  -2.914   5.756  0.00  0.00     0.098 A 
ATOM     18  C5  BIG d   1      -3.934  -3.464   4.593  0.00  0.00     0.107 A 
ATOM     19  N3  BIG d   1      -1.962  -3.258   6.082  0.00  0.00    -0.239 NA
ATOM     20  N7  BIG d   1      -5.158  -2.903   4.555  0.00  0.00    -0.360 N 
ATOM     21  C6  BIG d   1      -3.159  -4.431   3.790  0.00  0.00     0.151 A 
ATOM     22  C8  BIG d   1      -5.326  -2.046   5.613  0.00  0.00    -0.012 A 
ATOM     23  H24 BIG d   1      -5.868  -3.091   3.833  0.00  0.00     0.165 HD
ATOM     24  H2  BIG d   1      -6.240  -1.489   5.814  0.00  0.00     0.112 H 
ATOM     25  N1  BIG d   1      -1.892  -4.695   4.204  0.00  0.00    -0.223 NA
ATOM     26  C2  BIG d   1      -1.321  -4.128   5.295  0.00  0.00     0.089 A 
ATOM     27  H1  BIG d   1      -0.299  -4.392   5.540  0.00  0.00     0.146 H 
BRANCH  21  28
ATOM     28  N6  BIG d   1      -3.684  -5.023   2.689  0.00  0.00    -0.382 N 
ATOM     29  H25 BIG d   1      -3.121  -5.694   2.147  0.00  0.00     0.157 HD
ATOM     30  H26 BIG d   1      -4.646  -4.802   2.394  0.00  0.00     0.157 HD
ENDBRANCH  21  28
ENDBRANCH  13  16
ENDBRANCH   4  13
BRANCH   2  31
ATOM     31  C5' BIG d   1      -1.644   0.896   4.676  0.00  0.00    -0.016 C 
ATOM     32  H6  BIG d   1      -2.506   0.811   3.998  0.00  0.00     0.049 H 
ATOM     33  H7  BIG d   1      -1.238  -0.106   4.881  0.00  0.00     0.049 H 
BRANCH  31  34
ATOM     34  S5' BIG d   1      -0.393   1.862   3.883  0.00  0.00    -0.169 SA
BRANCH  34  35
ATOM     35  C20 BIG d   1      -1.338   3.108   3.054  0.00  0.00    -0.023 C 
ATOM     36  H8  BIG d   1      -2.013   3.594   3.774  0.00  0.00     0.048 H 
ATOM     37  H9  BIG d   1      -1.931   2.644   2.252  0.00  0.00     0.048 H 
BRANCH  35  38
ATOM     38  C21 BIG d   1      -0.402   4.151   2.453  0.00  0.00    -0.058 C 
ATOM     39  H10 BIG d   1       0.016   3.758   1.514  0.00  0.00     0.034 H 
ATOM     40  H11 BIG d   1       0.414   4.350   3.163  0.00  0.00     0.034 H 
BRANCH  38  41
ATOM     41  C22 BIG d   1      -1.135   5.457   2.161  0.00  0.00    -0.068 C 
ATOM     42  H12 BIG d   1      -0.715   6.258   2.787  0.00  0.00     0.032 H 
ATOM     43  H13 BIG d   1      -2.204   5.334   2.391  0.00  0.00     0.032 H 
BRANCH  41  44
ATOM     44  C23 BIG d   1      -0.977   5.826   0.704  0.00  0.00    -0.076 C 
ATOM     45  H14 BIG d   1      -1.509   6.768   0.505  0.00  0.00     0.027 H 
ATOM     46  H15 BIG d   1      -1.398   5.027   0.076  0.00  0.00     0.027 H 
ATOM     47  H16 BIG d   1       0.091   5.951   0.471  0.00  0.00     0.027 H 
ENDBRANCH  41  44
ENDBRANCH  38  41
ENDBRANCH  35  38
ENDBRANCH  34  35
ENDBRANCH  31  34
ENDBRANCH   2  31
BRANCH   1  48
ATOM     48  O3' BIG d   1      -1.263   2.082   8.214  0.00  0.00    -0.393 OA
ATOM     49  H3  BIG d   1      -0.693   1.803   8.921  0.00  0.00     0.210 HD
ENDBRANCH   1  48
TORSDOF 10
