REMARK  30 active torsions:
REMARK  status: ('A' for Active; 'I' for Inactive)
REMARK    1  A    between atoms: N_1  and  CA_2 
REMARK    2  A    between atoms: CA_2  and  C_3 
REMARK    3  A    between atoms: CA_2  and  CB_5 
REMARK       I    between atoms: C_3  and  N_6 
REMARK    4  A    between atoms: N_6  and  CA_7 
REMARK    5  A    between atoms: CA_7  and  C_8 
REMARK    6  A    between atoms: CA_7  and  CB_10 
REMARK       I    between atoms: C_8  and  N_12 
REMARK    7  A    between atoms: CB_10  and  OG_11 
REMARK    8  A    between atoms: N_12  and  CA_13 
REMARK    9  A    between atoms: CA_13  and  C_14 
REMARK   10  A    between atoms: CA_13  and  CB_16 
REMARK       I    between atoms: C_14  and  N_20 
REMARK   11  A    between atoms: CB_16  and  CG_17 
REMARK       I    between atoms: CG_17  and  ND2_19 
REMARK   12  A    between atoms: N_20  and  CA_21 
REMARK   13  A    between atoms: CA_21  and  C_22 
REMARK   14  A    between atoms: CA_21  and  CB_24 
REMARK       I    between atoms: C_22  and  N_26 
REMARK   15  A    between atoms: CB_24  and  OG_25 
REMARK   16  A    between atoms: N_26  and  CA_27 
REMARK   17  A    between atoms: CA_27  and  C_28 
REMARK   18  A    between atoms: CA_27  and  CB_30 
REMARK       I    between atoms: C_28  and  N_34 
REMARK   19  A    between atoms: CB_30  and  CG1_31 
REMARK   20  A    between atoms: CB_30  and  CG2_32 
REMARK   21  A    between atoms: CG1_31  and  CD1_33 
REMARK   22  A    between atoms: N_34  and  CA_35 
REMARK   23  A    between atoms: CA_35  and  C_36 
REMARK   24  A    between atoms: CA_35  and  CB_38 
REMARK       I    between atoms: C_36  and  N_39 
REMARK   25  A    between atoms: N_39  and  CA_40 
REMARK   26  A    between atoms: CA_40  and  C_41 
REMARK   27  A    between atoms: CA_40  and  CB_43 
REMARK       I    between atoms: C_41  and  N_45 
REMARK   28  A    between atoms: CB_43  and  OG_44 
REMARK   29  A    between atoms: N_45  and  CA_46 
REMARK   30  A    between atoms: CA_46  and  C_47 
ROOT
ATOM      1  C   SER d   1      10.278  51.240  26.223  0.00  0.00     0.243 C 
ATOM      2  O   SER d   1       9.674  50.317  26.607  0.00  0.00    -0.271 OA
ATOM      3  N   ILE d   1       9.913  52.485  26.427  0.00  0.00    -0.346 N 
ATOM      4  H24 ILE d   1      10.507  53.219  26.098  0.00  0.00     0.163 HD
ENDROOT
BRANCH   1   5
ATOM      5  CA  SER d   1      11.575  51.065  25.431  0.00  0.00     0.109 C 
ATOM      6  H20 SER d   1      12.158  51.993  25.523  0.00  0.00     0.090 H 
BRANCH   5   7
ATOM      7  N   SER d   1      12.368  49.965  26.010  0.00  0.00    -0.344 N 
ATOM      8  C   ASN d   1      13.673  50.063  26.276  0.00  0.00     0.241 C 
ATOM      9  O   ASN d   1      14.326  51.018  26.056  0.00  0.00    -0.271 OA
ATOM     10  H19 SER d   1      11.905  49.102  26.214  0.00  0.00     0.163 HD
BRANCH   8  11
ATOM     11  CA  ASN d   1      14.326  48.835  26.891  0.00  0.00     0.097 C 
ATOM     12  H14 ASN d   1      13.666  47.965  26.756  0.00  0.00     0.088 H 
BRANCH  11  13
ATOM     13  N   ASN d   1      15.601  48.568  26.202  0.00  0.00    -0.345 N 
ATOM     14  C   SER d   1      15.656  48.024  25.017  0.00  0.00     0.243 C 
ATOM     15  O   SER d   1      14.715  47.605  24.472  0.00  0.00    -0.271 OA
ATOM     16  H13 ASN d   1      16.456  48.813  26.660  0.00  0.00     0.163 HD
BRANCH  14  17
ATOM     17  CA  SER d   1      17.063  47.951  24.393  0.00  0.00     0.109 C 
ATOM     18  H9  SER d   1      17.757  47.572  25.158  0.00  0.00     0.090 H 
BRANCH  17  19
ATOM     19  N   SER d   1      17.064  47.025  23.271  0.00  0.00    -0.344 N 
ATOM     20  C   ALA d   1      18.160  46.354  22.960  0.00  0.00     0.248 C 
ATOM     21  O   ALA d   1      19.142  46.351  23.651  0.00  0.00    -0.271 OA
ATOM     22  H8  SER d   1      16.232  46.895  22.732  0.00  0.00     0.163 HD
BRANCH  20  23
ATOM     23  CA  ALA d   1      18.108  45.529  21.642  0.00  0.00     0.172 C 
ATOM     24  H4  ALA d   1      17.229  45.863  21.071  0.00  0.00     0.098 H 
BRANCH  23  25
ATOM     25  N   ALA d   1      19.307  45.799  20.873  0.00  0.00    -0.067 N 
ATOM     26  H1  ALA d   1      19.283  45.269  20.016  0.00  0.00     0.275 HD
ATOM     27  H2  ALA d   1      20.118  45.533  21.410  0.00  0.00     0.275 HD
ATOM     28  H3  ALA d   1      19.354  46.783  20.658  0.00  0.00     0.275 HD
ENDBRANCH  23  25
BRANCH  23  29
ATOM     29  CB  ALA d   1      17.997  43.962  21.838  0.00  0.00    -0.042 C 
ATOM     30  H5  ALA d   1      17.093  43.728  22.420  0.00  0.00     0.030 H 
ATOM     31  H6  ALA d   1      18.884  43.596  22.376  0.00  0.00     0.030 H 
ATOM     32  H7  ALA d   1      17.936  43.473  20.855  0.00  0.00     0.030 H 
ENDBRANCH  23  29
ENDBRANCH  20  23
ENDBRANCH  17  19
BRANCH  17  33
ATOM     33  CB  SER d   1      17.556  49.320  23.946  0.00  0.00     0.044 C 
ATOM     34  H10 SER d   1      18.548  49.227  23.479  0.00  0.00     0.077 H 
ATOM     35  H11 SER d   1      17.621  49.995  24.812  0.00  0.00     0.077 H 
BRANCH  33  36
ATOM     36  OG  SER d   1      16.637  49.824  23.016  0.00  0.00    -0.398 OA
ATOM     37  H12 SER d   1      16.924  50.680  22.721  0.00  0.00     0.209 HD
ENDBRANCH  33  36
ENDBRANCH  17  33
ENDBRANCH  14  17
ENDBRANCH  11  13
BRANCH  11  38
ATOM     38  CB  ASN d   1      14.515  49.083  28.410  0.00  0.00     0.036 C 
ATOM     39  H15 ASN d   1      13.534  49.320  28.848  0.00  0.00     0.051 H 
ATOM     40  H16 ASN d   1      15.192  49.940  28.541  0.00  0.00     0.051 H 
BRANCH  38  41
ATOM     41  CG  ASN d   1      15.099  47.889  29.154  0.00  0.00     0.217 C 
ATOM     42  OD1 ASN d   1      14.482  46.876  29.288  0.00  0.00    -0.274 OA
ATOM     43  ND2 ASN d   1      16.325  48.033  29.604  0.00  0.00    -0.370 N 
ATOM     44  H17 ASN d   1      16.766  47.286  30.101  0.00  0.00     0.159 HD
ATOM     45  H18 ASN d   1      16.817  48.890  29.449  0.00  0.00     0.159 HD
ENDBRANCH  38  41
ENDBRANCH  11  38
ENDBRANCH   8  11
ENDBRANCH   5   7
BRANCH   5  46
ATOM     46  CB  SER d   1      11.301  50.828  23.928  0.00  0.00     0.044 C 
ATOM     47  H21 SER d   1      10.570  51.569  23.572  0.00  0.00     0.077 H 
ATOM     48  H22 SER d   1      10.894  49.816  23.790  0.00  0.00     0.077 H 
BRANCH  46  49
ATOM     49  OG  SER d   1      12.538  50.960  23.154  0.00  0.00    -0.398 OA
ATOM     50  H23 SER d   1      12.891  51.834  23.270  0.00  0.00     0.209 HD
ENDBRANCH  46  49
ENDBRANCH   5  46
ENDBRANCH   1   5
BRANCH   3  51
ATOM     51  CA  ILE d   1       8.679  52.842  27.113  0.00  0.00     0.092 C 
ATOM     52  H25 ILE d   1       8.593  52.266  28.046  0.00  0.00     0.088 H 
BRANCH  51  53
ATOM     53  C   ILE d   1       7.470  52.593  26.222  0.00  0.00     0.241 C 
ATOM     54  O   ILE d   1       7.391  53.089  25.122  0.00  0.00    -0.271 OA
ATOM     55  N   ALA d   1       6.550  51.803  26.713  0.00  0.00    -0.346 N 
ATOM     56  H35 ALA d   1       6.665  51.451  27.642  0.00  0.00     0.163 HD
BRANCH  55  57
ATOM     57  CA  ALA d   1       5.365  51.416  25.959  0.00  0.00     0.086 C 
ATOM     58  H36 ALA d   1       5.545  51.614  24.892  0.00  0.00     0.086 H 
BRANCH  57  59
ATOM     59  C   ALA d   1       4.159  52.253  26.419  0.00  0.00     0.240 C 
ATOM     60  O   ALA d   1       4.076  52.616  27.499  0.00  0.00    -0.271 OA
ATOM     61  N   SER d   1       3.261  52.534  25.490  0.00  0.00    -0.344 N 
ATOM     62  H40 SER d   1       3.385  52.179  24.563  0.00  0.00     0.163 HD
BRANCH  61  63
ATOM     63  CA  SER d   1       2.082  53.359  25.796  0.00  0.00     0.109 C 
ATOM     64  H41 SER d   1       2.429  54.173  26.449  0.00  0.00     0.090 H 
BRANCH  63  65
ATOM     65  C   SER d   1       0.981  52.643  26.556  0.00  0.00     0.243 C 
ATOM     66  O   SER d   1       0.277  53.290  27.275  0.00  0.00    -0.271 OA
ATOM     67  N   GLY d   1       0.895  51.336  26.452  0.00  0.00    -0.349 N 
ATOM     68  H45 GLY d   1       1.563  50.828  25.909  0.00  0.00     0.163 HD
BRANCH  67  69
ATOM     69  CA  GLY d   1      -0.177  50.638  27.132  0.00  0.00     0.075 C 
ATOM     70  H46 GLY d   1      -0.493  49.771  26.533  0.00  0.00     0.080 H 
ATOM     71  H47 GLY d   1      -1.031  51.317  27.273  0.00  0.00     0.080 H 
BRANCH  69  72
ATOM     72  C   GLY d   1       0.321  50.177  28.457  0.00  0.00     0.191 C 
ATOM     73  O   GLY d   1       1.088  49.178  28.440  0.00  0.00    -0.647 OA
ATOM     74  O48 GLY d   1      -0.005  50.752  29.530  0.00  0.00    -0.647 OA
ENDBRANCH  69  72
ENDBRANCH  67  69
ENDBRANCH  63  65
BRANCH  63  75
ATOM     75  CB  SER d   1       1.558  53.988  24.540  0.00  0.00     0.044 C 
ATOM     76  H42 SER d   1       2.347  54.612  24.096  0.00  0.00     0.077 H 
ATOM     77  H43 SER d   1       0.690  54.616  24.789  0.00  0.00     0.077 H 
BRANCH  75  78
ATOM     78  OG  SER d   1       1.164  53.010  23.604  0.00  0.00    -0.398 OA
ATOM     79  H44 SER d   1       1.911  52.467  23.382  0.00  0.00     0.209 HD
ENDBRANCH  75  78
ENDBRANCH  63  75
ENDBRANCH  61  63
ENDBRANCH  57  59
BRANCH  57  80
ATOM     80  CB  ALA d   1       5.080  49.886  26.140  0.00  0.00    -0.049 C 
ATOM     81  H37 ALA d   1       4.184  49.610  25.566  0.00  0.00     0.030 H 
ATOM     82  H38 ALA d   1       4.915  49.667  27.205  0.00  0.00     0.030 H 
ATOM     83  H39 ALA d   1       5.942  49.307  25.776  0.00  0.00     0.030 H 
ENDBRANCH  57  80
ENDBRANCH  55  57
ENDBRANCH  51  53
BRANCH  51  84
ATOM     84  CB  ILE d   1       8.682  54.344  27.401  0.00  0.00    -0.030 C 
ATOM     85  H26 ILE d   1       8.746  54.870  26.437  0.00  0.00     0.043 H 
BRANCH  84  86
ATOM     86  CG1 ILE d   1       9.894  54.770  28.256  0.00  0.00    -0.063 C 
ATOM     87  H27 ILE d   1      10.813  54.404  27.774  0.00  0.00     0.033 H 
ATOM     88  H28 ILE d   1       9.799  54.319  29.255  0.00  0.00     0.033 H 
BRANCH  86  89
ATOM     89  CD1 ILE d   1       9.994  56.334  28.415  0.00  0.00    -0.076 C 
ATOM     90  H32 ILE d   1      10.871  56.585  29.030  0.00  0.00     0.027 H 
ATOM     91  H33 ILE d   1       9.084  56.712  28.903  0.00  0.00     0.027 H 
ATOM     92  H34 ILE d   1      10.098  56.798  27.423  0.00  0.00     0.027 H 
ENDBRANCH  86  89
ENDBRANCH  84  86
BRANCH  84  93
ATOM     93  CG2 ILE d   1       7.427  54.752  28.067  0.00  0.00    -0.071 C 
ATOM     94  H29 ILE d   1       6.569  54.445  27.451  0.00  0.00     0.028 H 
ATOM     95  H30 ILE d   1       7.417  55.845  28.192  0.00  0.00     0.028 H 
ATOM     96  H31 ILE d   1       7.362  54.270  29.054  0.00  0.00     0.028 H 
ENDBRANCH  84  93
ENDBRANCH  51  84
ENDBRANCH   3  51
TORSDOF 30
