REMARK  26 active torsions:
REMARK  status: ('A' for Active; 'I' for Inactive)
REMARK    1  A    between atoms: N_1  and  CA_2 
REMARK    2  A    between atoms: CA_2  and  C_3 
REMARK    3  A    between atoms: CA_2  and  CB_5 
REMARK       I    between atoms: C_3  and  N_12 
REMARK    4  A    between atoms: CB_5  and  CG_6 
REMARK    5  A    between atoms: CG_6  and  CD_7 
REMARK    6  A    between atoms: CD_7  and  NE_8 
REMARK       I    between atoms: NE_8  and  CZ_9 
REMARK       I    between atoms: CZ_9  and  NH1_10 
REMARK    7  A    between atoms: CA_13  and  C_14 
REMARK       I    between atoms: C_14  and  N_19 
REMARK    8  A    between atoms: CA_20  and  C_21 
REMARK       I    between atoms: C_21  and  N_26 
REMARK    9  A    between atoms: N_26  and  CA_27 
REMARK   10  A    between atoms: CA_27  and  C_28 
REMARK       I    between atoms: C_28  and  N_30 
REMARK   11  A    between atoms: N_30  and  CA_31 
REMARK   12  A    between atoms: CA_31  and  C_32 
REMARK   13  A    between atoms: CA_31  and  CB_34 
REMARK       I    between atoms: C_32  and  N_41 
REMARK   14  A    between atoms: CB_34  and  CG_35 
REMARK   15  A    between atoms: N_41  and  CA_42 
REMARK   16  A    between atoms: CA_42  and  C_43 
REMARK   17  A    between atoms: CA_42  and  CB_45 
REMARK       I    between atoms: C_43  and  N_47 
REMARK   18  A    between atoms: CB_45  and  OG_46 
REMARK   19  A    between atoms: CA_48  and  C_49 
REMARK       I    between atoms: C_49  and  N_54 
REMARK   20  A    between atoms: N_54  and  CA_55 
REMARK   21  A    between atoms: CA_55  and  C_56 
REMARK   22  A    between atoms: CA_55  and  CB_58 
REMARK       I    between atoms: C_56  and  N_65 
REMARK   23  A    between atoms: CB_58  and  CG_59 
REMARK   24  A    between atoms: N_65  and  CA_66 
REMARK   25  A    between atoms: CA_66  and  C_67 
REMARK   26  A    between atoms: CA_66  and  CB_69 
ROOT
ATOM      1  CA  PHE d   1      -8.132 -12.639  19.196  0.00  0.00     0.093 C 
ATOM      2  H34 PHE d   1      -8.845 -13.064  18.475  0.00  0.00     0.088 H 
ENDROOT
BRANCH   1   3
ATOM      3  N   PHE d   1      -8.492 -11.244  19.438  0.00  0.00    -0.346 N 
ATOM      4  C   GLY d   1      -9.736 -10.873  19.731  0.00  0.00     0.236 C 
ATOM      5  O   GLY d   1     -10.691 -11.652  19.731  0.00  0.00    -0.272 OA
ATOM      6  H33 PHE d   1      -7.780 -10.544  19.382  0.00  0.00     0.163 HD
BRANCH   4   7
ATOM      7  CA  GLY d   1      -9.935  -9.408  20.065  0.00  0.00     0.069 C 
ATOM      8  H31 GLY d   1      -9.899  -9.290  21.158  0.00  0.00     0.078 H 
ATOM      9  H32 GLY d   1      -9.119  -8.830  19.606  0.00  0.00     0.078 H 
BRANCH   7  10
ATOM     10  N   GLY d   1     -11.209  -8.881  19.581  0.00  0.00    -0.351 N 
ATOM     11  C   PRO d   1     -11.341  -7.623  19.169  0.00  0.00     0.241 C 
ATOM     12  O   PRO d   1     -10.420  -6.804  19.191  0.00  0.00    -0.271 OA
ATOM     13  H30 GLY d   1     -12.006  -9.485  19.559  0.00  0.00     0.163 HD
BRANCH  11  14
ATOM     14  CA  PRO d   1     -12.730  -7.208  18.674  0.00  0.00     0.091 C 
ATOM     15  N   PRO d   1     -13.030  -5.815  19.013  0.00  0.00    -0.337 N 
ATOM     16  C   PRO d   1     -13.099  -5.458  20.312  0.00  0.00     0.243 C 
ATOM     17  CD  PRO d   1     -13.262  -4.996  17.809  0.00  0.00    -0.001 C 
ATOM     18  O   PRO d   1     -13.021  -6.275  21.234  0.00  0.00    -0.271 OA
ATOM     19  CG  PRO d   1     -12.620  -5.801  16.729  0.00  0.00    -0.048 C 
ATOM     20  H28 PRO d   1     -12.785  -4.009  17.904  0.00  0.00     0.064 H 
ATOM     21  H29 PRO d   1     -14.338  -4.867  17.620  0.00  0.00     0.064 H 
ATOM     22  CB  PRO d   1     -12.787  -7.223  17.141  0.00  0.00    -0.036 C 
ATOM     23  H26 PRO d   1     -13.118  -5.619  15.765  0.00  0.00     0.035 H 
ATOM     24  H27 PRO d   1     -11.553  -5.548  16.643  0.00  0.00     0.035 H 
ATOM     25  H24 PRO d   1     -13.755  -7.613  16.795  0.00  0.00     0.036 H 
ATOM     26  H25 PRO d   1     -11.975  -7.841  16.731  0.00  0.00     0.036 H 
ATOM     27  H23 PRO d   1     -13.485  -7.884  19.102  0.00  0.00     0.087 H 
BRANCH  16  28
ATOM     28  CA  PRO d   1     -13.296  -3.972  20.634  0.00  0.00     0.092 C 
ATOM     29  N   PRO d   1     -13.763  -3.760  22.002  0.00  0.00    -0.337 N 
ATOM     30  C   ARG d   1     -15.098  -3.786  22.227  0.00  0.00     0.251 C 
ATOM     31  CD  PRO d   1     -12.626  -3.654  22.939  0.00  0.00    -0.001 C 
ATOM     32  O   ARG d   1     -15.905  -4.105  21.359  0.00  0.00    -0.271 OA
ATOM     33  CG  PRO d   1     -11.470  -3.256  22.045  0.00  0.00    -0.048 C 
ATOM     34  H21 PRO d   1     -12.430  -4.618  23.430  0.00  0.00     0.064 H 
ATOM     35  H22 PRO d   1     -12.816  -2.885  23.703  0.00  0.00     0.064 H 
ATOM     36  CB  PRO d   1     -11.953  -3.234  20.614  0.00  0.00    -0.036 C 
ATOM     37  H19 PRO d   1     -11.108  -2.257  22.329  0.00  0.00     0.035 H 
ATOM     38  H20 PRO d   1     -10.653  -3.985  22.149  0.00  0.00     0.035 H 
ATOM     39  H17 PRO d   1     -12.086  -2.199  20.267  0.00  0.00     0.036 H 
ATOM     40  H18 PRO d   1     -11.238  -3.751  19.957  0.00  0.00     0.036 H 
ATOM     41  H16 PRO d   1     -13.999  -3.534  19.910  0.00  0.00     0.087 H 
BRANCH  30  42
ATOM     42  CA  ARG d   1     -15.615  -3.411  23.627  0.00  0.00     0.176 C 
ATOM     43  H4  ARG d   1     -16.712  -3.357  23.558  0.00  0.00     0.099 H 
BRANCH  42  44
ATOM     44  N   ARG d   1     -15.292  -4.452  24.648  0.00  0.00    -0.067 N 
ATOM     45  H1  ARG d   1     -15.649  -4.164  25.546  0.00  0.00     0.275 HD
ATOM     46  H2  ARG d   1     -14.292  -4.568  24.705  0.00  0.00     0.275 HD
ATOM     47  H3  ARG d   1     -15.717  -5.327  24.382  0.00  0.00     0.275 HD
ENDBRANCH  42  44
BRANCH  42  48
ATOM     48  CB  ARG d   1     -15.121  -2.023  24.075  0.00  0.00    -0.029 C 
ATOM     49  H5  ARG d   1     -14.102  -2.138  24.473  0.00  0.00     0.036 H 
ATOM     50  H6  ARG d   1     -15.788  -1.667  24.874  0.00  0.00     0.036 H 
BRANCH  48  51
ATOM     51  CG  ARG d   1     -15.083  -0.951  22.977  0.00  0.00    -0.047 C 
ATOM     52  H7  ARG d   1     -16.081  -0.496  22.891  0.00  0.00     0.035 H 
ATOM     53  H8  ARG d   1     -14.815  -1.429  22.024  0.00  0.00     0.035 H 
BRANCH  51  54
ATOM     54  CD  ARG d   1     -14.065   0.149  23.280  0.00  0.00     0.009 C 
ATOM     55  H9  ARG d   1     -14.339   0.625  24.233  0.00  0.00     0.064 H 
ATOM     56  H10 ARG d   1     -14.107   0.895  22.473  0.00  0.00     0.064 H 
BRANCH  54  57
ATOM     57  NE  ARG d   1     -12.690  -0.341  23.386  0.00  0.00    -0.227 N 
ATOM     58  CZ  ARG d   1     -11.985  -0.398  24.516  0.00  0.00     0.665 C 
ATOM     59  NH1 ARG d   1     -10.744  -0.869  24.497  0.00  0.00    -0.235 N 
ATOM     60  NH2 ARG d   1     -12.510   0.016  25.663  0.00  0.00    -0.235 N 
ATOM     61  H12 ARG d   1     -10.197  -0.914  25.369  0.00  0.00     0.174 HD
ATOM     62  H13 ARG d   1     -10.328  -1.189  23.611  0.00  0.00     0.174 HD
ATOM     63  H14 ARG d   1     -13.472   0.383  25.686  0.00  0.00     0.174 HD
ATOM     64  H15 ARG d   1     -11.955  -0.030  26.530  0.00  0.00     0.174 HD
ATOM     65  H11 ARG d   1     -12.232  -0.666  22.522  0.00  0.00     0.177 HD
ENDBRANCH  54  57
ENDBRANCH  51  54
ENDBRANCH  48  51
ENDBRANCH  42  48
ENDBRANCH  30  42
ENDBRANCH  16  28
ENDBRANCH  11  14
ENDBRANCH   7  10
ENDBRANCH   4   7
ENDBRANCH   1   3
BRANCH   1  66
ATOM     66  C   PHE d   1      -8.216 -13.436  20.497  0.00  0.00     0.241 C 
ATOM     67  O   PHE d   1      -7.626 -13.054  21.509  0.00  0.00    -0.271 OA
ATOM     68  N   SER d   1      -8.967 -14.533  20.465  0.00  0.00    -0.344 N 
ATOM     69  H42 SER d   1      -9.447 -14.767  19.620  0.00  0.00     0.163 HD
BRANCH  68  70
ATOM     70  CA  SER d   1      -9.112 -15.406  21.624  0.00  0.00     0.109 C 
ATOM     71  H43 SER d   1      -8.634 -14.923  22.489  0.00  0.00     0.090 H 
BRANCH  70  72
ATOM     72  C   SER d   1      -8.408 -16.738  21.362  0.00  0.00     0.245 C 
ATOM     73  O   SER d   1      -8.252 -17.125  20.202  0.00  0.00    -0.271 OA
ATOM     74  N   PRO d   1      -7.964 -17.429  22.435  0.00  0.00    -0.337 N 
ATOM     75  CA  PRO d   1      -7.273 -18.725  22.329  0.00  0.00     0.091 C 
ATOM     76  CD  PRO d   1      -7.955 -16.932  23.821  0.00  0.00    -0.001 C 
ATOM     77  CB  PRO d   1      -7.041 -19.132  23.795  0.00  0.00    -0.036 C 
ATOM     78  H47 PRO d   1      -6.309 -18.578  21.820  0.00  0.00     0.087 H 
ATOM     79  CG  PRO d   1      -7.863 -18.186  24.616  0.00  0.00    -0.048 C 
ATOM     80  H48 PRO d   1      -5.976 -19.039  24.055  0.00  0.00     0.036 H 
ATOM     81  H49 PRO d   1      -7.370 -20.169  23.961  0.00  0.00     0.036 H 
ATOM     82  H50 PRO d   1      -7.373 -17.992  25.582  0.00  0.00     0.035 H 
ATOM     83  H51 PRO d   1      -8.866 -18.603  24.791  0.00  0.00     0.035 H 
ATOM     84  H52 PRO d   1      -8.880 -16.383  24.052  0.00  0.00     0.064 H 
ATOM     85  H53 PRO d   1      -7.087 -16.282  24.004  0.00  0.00     0.064 H 
BRANCH  75  86
ATOM     86  C   PRO d   1      -8.039 -19.825  21.573  0.00  0.00     0.241 C 
ATOM     87  O   PRO d   1      -7.421 -20.563  20.803  0.00  0.00    -0.271 OA
ATOM     88  N   PHE d   1      -9.353 -19.930  21.798  0.00  0.00    -0.346 N 
ATOM     89  H54 PHE d   1      -9.764 -19.315  22.471  0.00  0.00     0.163 HD
BRANCH  88  90
ATOM     90  CA  PHE d   1     -10.238 -20.901  21.113  0.00  0.00     0.093 C 
ATOM     91  H55 PHE d   1     -10.741 -20.369  20.293  0.00  0.00     0.088 H 
BRANCH  90  92
ATOM     92  C   PHE d   1     -11.323 -21.438  22.061  0.00  0.00     0.241 C 
ATOM     93  O   PHE d   1     -11.648 -22.630  22.044  0.00  0.00    -0.271 OA
ATOM     94  N   ALA d   1     -11.875 -20.546  22.884  0.00  0.00    -0.345 N 
ATOM     95  H63 ALA d   1     -11.577 -19.593  22.826  0.00  0.00     0.163 HD
BRANCH  94  96
ATOM     96  CA  ALA d   1     -12.900 -20.903  23.870  0.00  0.00     0.093 C 
ATOM     97  H64 ALA d   1     -13.542 -21.677  23.424  0.00  0.00     0.089 H 
BRANCH  96  98
ATOM     98  C   ALA d   1     -13.788 -19.704  24.221  0.00  0.00     0.196 C 
ATOM     99  O   ALA d   1     -13.588 -19.018  25.259  0.00  0.00    -0.646 OA
ATOM    100  O65 ALA d   1     -14.740 -19.397  23.454  0.00  0.00    -0.646 OA
ENDBRANCH  96  98
BRANCH  96 101
ATOM    101  CB  ALA d   1     -12.255 -21.491  25.128  0.00  0.00    -0.048 C 
ATOM    102  H65 ALA d   1     -13.039 -21.752  25.854  0.00  0.00     0.030 H 
ATOM    103  H66 ALA d   1     -11.576 -20.749  25.573  0.00  0.00     0.030 H 
ATOM    104  H67 ALA d   1     -11.687 -22.395  24.861  0.00  0.00     0.030 H 
ENDBRANCH  96 101
ENDBRANCH  94  96
ENDBRANCH  90  92
BRANCH  90 105
ATOM    105  CB  PHE d   1      -9.442 -22.067  20.497  0.00  0.00    -0.014 C 
ATOM    106  H56 PHE d   1      -9.409 -22.887  21.229  0.00  0.00     0.043 H 
ATOM    107  H57 PHE d   1      -8.420 -21.717  20.292  0.00  0.00     0.043 H 
BRANCH 105 108
ATOM    108  CG  PHE d   1     -10.027 -22.602  19.212  0.00  0.00    -0.056 A 
ATOM    109  CD1 PHE d   1      -9.759 -21.977  17.996  0.00  0.00    -0.077 A 
ATOM    110  CE1 PHE d   1     -10.291 -22.471  16.804  0.00  0.00    -0.082 A 
ATOM    111  H58 PHE d   1      -9.129 -21.095  17.975  0.00  0.00     0.084 H 
ATOM    112  CZ  PHE d   1     -11.095 -23.609  16.819  0.00  0.00    -0.083 A 
ATOM    113  H60 PHE d   1     -10.079 -21.970  15.867  0.00  0.00     0.083 H 
ATOM    114  CE2 PHE d   1     -11.366 -24.248  18.026  0.00  0.00    -0.082 A 
ATOM    115  H62 PHE d   1     -11.508 -23.995  15.894  0.00  0.00     0.083 H 
ATOM    116  CD2 PHE d   1     -10.829 -23.745  19.214  0.00  0.00    -0.077 A 
ATOM    117  H61 PHE d   1     -11.992 -25.133  18.044  0.00  0.00     0.083 H 
ATOM    118  H59 PHE d   1     -11.038 -24.249  20.151  0.00  0.00     0.084 H 
ENDBRANCH 105 108
ENDBRANCH  90 105
ENDBRANCH  88  90
ENDBRANCH  75  86
ENDBRANCH  70  72
BRANCH  70 119
ATOM    119  CB  SER d   1     -10.593 -15.625  21.950  0.00  0.00     0.044 C 
ATOM    120  H44 SER d   1     -11.054 -14.656  22.190  0.00  0.00     0.077 H 
ATOM    121  H45 SER d   1     -10.673 -16.294  22.819  0.00  0.00     0.077 H 
BRANCH 119 122
ATOM    122  OG  SER d   1     -11.282 -16.205  20.856  0.00  0.00    -0.398 OA
ATOM    123  H46 SER d   1     -11.220 -15.629  20.103  0.00  0.00     0.209 HD
ENDBRANCH 119 122
ENDBRANCH  70 119
ENDBRANCH  68  70
ENDBRANCH   1  66
BRANCH   1 124
ATOM    124  CB  PHE d   1      -6.721 -12.745  18.607  0.00  0.00    -0.014 C 
ATOM    125  H35 PHE d   1      -6.420 -13.803  18.619  0.00  0.00     0.043 H 
ATOM    126  H36 PHE d   1      -6.037 -12.162  19.242  0.00  0.00     0.043 H 
BRANCH 124 127
ATOM    127  CG  PHE d   1      -6.604 -12.236  17.194  0.00  0.00    -0.056 A 
ATOM    128  CD1 PHE d   1      -6.768 -13.100  16.116  0.00  0.00    -0.077 A 
ATOM    129  CE1 PHE d   1      -6.656 -12.640  14.808  0.00  0.00    -0.082 A 
ATOM    130  H37 PHE d   1      -6.986 -14.146  16.298  0.00  0.00     0.084 H 
ATOM    131  CZ  PHE d   1      -6.374 -11.303  14.568  0.00  0.00    -0.083 A 
ATOM    132  H39 PHE d   1      -6.789 -13.325  13.978  0.00  0.00     0.083 H 
ATOM    133  CE2 PHE d   1      -6.206 -10.430  15.637  0.00  0.00    -0.082 A 
ATOM    134  H41 PHE d   1      -6.285 -10.940  13.550  0.00  0.00     0.083 H 
ATOM    135  CD2 PHE d   1      -6.316 -10.899  16.940  0.00  0.00    -0.077 A 
ATOM    136  H40 PHE d   1      -5.989  -9.384  15.454  0.00  0.00     0.083 H 
ATOM    137  H38 PHE d   1      -6.176 -10.215  17.769  0.00  0.00     0.084 H 
ENDBRANCH 124 127
ENDBRANCH   1 124
TORSDOF 26
