REMARK  20 active torsions:
REMARK  status: ('A' for Active; 'I' for Inactive)
REMARK    1  A    between atoms: N_1  and  CA_2 
REMARK    2  A    between atoms: CA_2  and  C_3 
REMARK    3  A    between atoms: CA_2  and  CB_5 
REMARK       I    between atoms: C_3  and  N_6 
REMARK    4  A    between atoms: N_6  and  CA_7 
REMARK    5  A    between atoms: CA_7  and  C_8 
REMARK    6  A    between atoms: CA_7  and  CB_10 
REMARK       I    between atoms: C_8  and  N_11 
REMARK    7  A    between atoms: N_11  and  CA_12 
REMARK    8  A    between atoms: CA_12  and  C_13 
REMARK    9  A    between atoms: CA_12  and  CB_15 
REMARK       I    between atoms: C_13  and  N_17 
REMARK   10  A    between atoms: CB_15  and  OG_16 
REMARK   11  A    between atoms: N_17  and  CA_18 
REMARK   12  A    between atoms: CA_18  and  C_19 
REMARK   13  A    between atoms: CA_18  and  CB_21 
REMARK       I    between atoms: C_19  and  N_22 
REMARK   14  A    between atoms: N_22  and  CA_23 
REMARK   15  A    between atoms: CA_23  and  C_24 
REMARK   16  A    between atoms: CA_23  and  CB_26 
REMARK       I    between atoms: C_24  and  N_28 
REMARK   17  A    between atoms: CB_26  and  OG_27 
REMARK   18  A    between atoms: N_28  and  CA_29 
REMARK   19  A    between atoms: CA_29  and  C_30 
REMARK   20  A    between atoms: CA_29  and  CB_32 
ROOT
ATOM      1  N   ALA d   1      -2.008  18.642   4.175  0.00  0.00    -0.346 N 
ATOM      2  H18 ALA d   1      -1.141  18.332   4.566  0.00  0.00     0.163 HD
ATOM      3  C   SER d   1      -1.979  19.368   3.059  0.00  0.00     0.243 C 
ATOM      4  O   SER d   1      -2.985  19.833   2.518  0.00  0.00    -0.271 OA
ENDROOT
BRANCH   3   5
ATOM      5  CA  SER d   1      -0.596  19.601   2.455  0.00  0.00     0.109 C 
ATOM      6  H14 SER d   1       0.019  18.709   2.643  0.00  0.00     0.090 H 
BRANCH   5   7
ATOM      7  N   SER d   1      -0.707  19.797   1.025  0.00  0.00    -0.344 N 
ATOM      8  C   ALA d   1      -0.458  18.820   0.161  0.00  0.00     0.240 C 
ATOM      9  O   ALA d   1      -0.254  17.661   0.505  0.00  0.00    -0.271 OA
ATOM     10  H13 SER d   1      -0.979  20.694   0.678  0.00  0.00     0.163 HD
BRANCH   8  11
ATOM     11  CA  ALA d   1      -0.427  19.225  -1.309  0.00  0.00     0.086 C 
ATOM     12  H9  ALA d   1      -0.443  18.322  -1.937  0.00  0.00     0.086 H 
BRANCH  11  13
ATOM     13  N   ALA d   1      -1.592  20.046  -1.611  0.00  0.00    -0.346 N 
ATOM     14  C   ALA d   1      -2.690  19.561  -2.186  0.00  0.00     0.248 C 
ATOM     15  O   ALA d   1      -2.769  18.418  -2.654  0.00  0.00    -0.271 OA
ATOM     16  H8  ALA d   1      -1.565  21.018  -1.376  0.00  0.00     0.163 HD
BRANCH  14  17
ATOM     17  CA  ALA d   1      -3.875  20.511  -2.277  0.00  0.00     0.172 C 
ATOM     18  H4  ALA d   1      -4.754  19.983  -1.878  0.00  0.00     0.098 H 
BRANCH  17  19
ATOM     19  N   ALA d   1      -3.691  21.761  -1.465  0.00  0.00    -0.067 N 
ATOM     20  H1  ALA d   1      -4.504  22.349  -1.564  0.00  0.00     0.275 HD
ATOM     21  H2  ALA d   1      -2.876  22.257  -1.791  0.00  0.00     0.275 HD
ATOM     22  H3  ALA d   1      -3.569  21.517  -0.495  0.00  0.00     0.275 HD
ENDBRANCH  17  19
BRANCH  17  23
ATOM     23  CB  ALA d   1      -4.153  20.861  -3.716  0.00  0.00    -0.042 C 
ATOM     24  H5  ALA d   1      -4.286  19.938  -4.299  0.00  0.00     0.030 H 
ATOM     25  H6  ALA d   1      -3.307  21.434  -4.124  0.00  0.00     0.030 H 
ATOM     26  H7  ALA d   1      -5.069  21.467  -3.776  0.00  0.00     0.030 H 
ENDBRANCH  17  23
ENDBRANCH  14  17
ENDBRANCH  11  13
BRANCH  11  27
ATOM     27  CB  ALA d   1       0.839  20.018  -1.596  0.00  0.00    -0.049 C 
ATOM     28  H10 ALA d   1       1.719  19.399  -1.368  0.00  0.00     0.030 H 
ATOM     29  H11 ALA d   1       0.855  20.922  -0.970  0.00  0.00     0.030 H 
ATOM     30  H12 ALA d   1       0.858  20.306  -2.657  0.00  0.00     0.030 H 
ENDBRANCH  11  27
ENDBRANCH   8  11
ENDBRANCH   5   7
BRANCH   5  31
ATOM     31  CB  SER d   1       0.098  20.811   3.086  0.00  0.00     0.044 C 
ATOM     32  H15 SER d   1       0.257  20.620   4.157  0.00  0.00     0.077 H 
ATOM     33  H16 SER d   1      -0.539  21.699   2.963  0.00  0.00     0.077 H 
BRANCH  31  34
ATOM     34  OG  SER d   1       1.362  21.045   2.455  0.00  0.00    -0.398 OA
ATOM     35  H17 SER d   1       1.780  21.798   2.856  0.00  0.00     0.209 HD
ENDBRANCH  31  34
ENDBRANCH   5  31
ENDBRANCH   3   5
BRANCH   1  36
ATOM     36  CA  ALA d   1      -3.252  18.277   4.854  0.00  0.00     0.086 C 
ATOM     37  H19 ALA d   1      -4.091  18.782   4.353  0.00  0.00     0.086 H 
BRANCH  36  38
ATOM     38  C   ALA d   1      -3.212  18.706   6.306  0.00  0.00     0.240 C 
ATOM     39  O   ALA d   1      -2.157  18.686   6.939  0.00  0.00    -0.271 OA
ATOM     40  N   SER d   1      -4.380  19.065   6.831  0.00  0.00    -0.344 N 
ATOM     41  H23 SER d   1      -5.142  19.279   6.220  0.00  0.00     0.163 HD
BRANCH  40  42
ATOM     42  CA  SER d   1      -4.580  19.155   8.273  0.00  0.00     0.109 C 
ATOM     43  H24 SER d   1      -3.982  19.989   8.671  0.00  0.00     0.090 H 
BRANCH  42  44
ATOM     44  C   SER d   1      -4.113  17.843   8.917  0.00  0.00     0.243 C 
ATOM     45  O   SER d   1      -4.514  16.756   8.495  0.00  0.00    -0.271 OA
ATOM     46  N   ALA d   1      -3.241  17.938   9.911  0.00  0.00    -0.345 N 
ATOM     47  H28 ALA d   1      -2.892  18.838  10.171  0.00  0.00     0.163 HD
BRANCH  46  48
ATOM     48  CA  ALA d   1      -2.782  16.760  10.631  0.00  0.00     0.093 C 
ATOM     49  H29 ALA d   1      -3.556  16.495  11.366  0.00  0.00     0.089 H 
BRANCH  48  50
ATOM     50  C   ALA d   1      -1.502  17.028  11.381  0.00  0.00     0.196 C 
ATOM     51  O   ALA d   1      -0.995  16.111  12.081  0.00  0.00    -0.646 OA
ATOM     52  O30 ALA d   1      -0.946  18.156  11.309  0.00  0.00    -0.646 OA
ENDBRANCH  48  50
BRANCH  48  53
ATOM     53  CB  ALA d   1      -2.594  15.557   9.682  0.00  0.00    -0.048 C 
ATOM     54  H30 ALA d   1      -2.247  14.686  10.258  0.00  0.00     0.030 H 
ATOM     55  H31 ALA d   1      -1.848  15.809   8.914  0.00  0.00     0.030 H 
ATOM     56  H32 ALA d   1      -3.553  15.319   9.198  0.00  0.00     0.030 H 
ENDBRANCH  48  53
ENDBRANCH  46  48
ENDBRANCH  42  44
BRANCH  42  57
ATOM     57  CB  SER d   1      -6.064  19.404   8.597  0.00  0.00     0.044 C 
ATOM     58  H25 SER d   1      -6.202  19.348   9.687  0.00  0.00     0.077 H 
ATOM     59  H26 SER d   1      -6.668  18.625   8.110  0.00  0.00     0.077 H 
BRANCH  57  60
ATOM     60  OG  SER d   1      -6.512  20.685   8.142  0.00  0.00    -0.398 OA
ATOM     61  H27 SER d   1      -7.429  20.795   8.363  0.00  0.00     0.209 HD
ENDBRANCH  57  60
ENDBRANCH  42  57
ENDBRANCH  40  42
ENDBRANCH  36  38
BRANCH  36  62
ATOM     62  CB  ALA d   1      -3.466  16.762   4.787  0.00  0.00    -0.049 C 
ATOM     63  H20 ALA d   1      -4.403  16.501   5.300  0.00  0.00     0.030 H 
ATOM     64  H21 ALA d   1      -2.625  16.251   5.278  0.00  0.00     0.030 H 
ATOM     65  H22 ALA d   1      -3.524  16.446   3.735  0.00  0.00     0.030 H 
ENDBRANCH  36  62
ENDBRANCH   1  36
TORSDOF 20
