REMARK  27 active torsions:
REMARK  status: ('A' for Active; 'I' for Inactive)
REMARK    1  A    between atoms: N1_1  and  C4_3 
REMARK    2  A    between atoms: C11_30  and  N1_1 
REMARK    3  A    between atoms: N1_1  and  C2_34 
REMARK    4  A    between atoms: N3_2  and  C8_7 
REMARK    5  A    between atoms: N3_2  and  C10_8 
REMARK    6  A    between atoms: C14_23  and  N3_2 
REMARK    7  A    between atoms: C4_3  and  C3_31 
REMARK    8  A    between atoms: C6_5  and  C5_4 
REMARK    9  A    between atoms: N2_26  and  C6_5 
REMARK   10  A    between atoms: C8_7  and  C7_6 
REMARK   11  A    between atoms: C10_8  and  C9_20 
REMARK   12  A    between atoms: N2_26  and  C13_9 
REMARK   13  A    between atoms: C22_14  and  N4_41 
REMARK   14  A    between atoms: N4_41  and  C26_16 
REMARK   15  A    between atoms: C26_16  and  S1_42 
REMARK   16  A    between atoms: N5_43  and  C28_17 
REMARK   17  A    between atoms: C28_17  and  C29_44 
REMARK   18  A    between atoms: C28_17  and  C30_46 
REMARK   19  A    between atoms: C28_17  and  C27_48 
REMARK   20  A    between atoms: C12_29  and  N2_26 
REMARK   21  A    between atoms: C11_30  and  C12_29 
REMARK   22  A    between atoms: C25_38  and  C11_30 
REMARK   23  A    between atoms: C2_34  and  C1_35 
REMARK   24  A    between atoms: C25_38  and  C19_39 
REMARK   25  A    between atoms: C29_44  and  O11_45 
REMARK   26  A    between atoms: C30_46  and  O12_47 
REMARK   27  A    between atoms: C27_48  and  O13_49 
ROOT
ATOM      1  C11 LIZ d   1      -0.572  56.735  67.515  0.00  0.00     0.132 C 
ATOM      2  H27 LIZ d   1      -1.267  56.805  66.666  0.00  0.00     0.087 H 
ENDROOT
BRANCH   1   3
ATOM      3  N1  LIZ d   1      -1.194  57.383  68.682  0.00  0.00    -0.046 N 
ATOM      4  H1  LIZ d   1      -1.192  58.378  68.522  0.00  0.00     0.281 HD
BRANCH   3   5
ATOM      5  C4  LIZ d   1      -0.454  57.123  69.924  0.00  0.00     0.163 C 
ATOM      6  H3  LIZ d   1       0.089  56.171  69.830  0.00  0.00     0.093 H 
ATOM      7  H4  LIZ d   1      -1.163  57.060  70.762  0.00  0.00     0.093 H 
BRANCH   5   8
ATOM      8  C3  LIZ d   1       0.548  58.251  70.194  0.00  0.00     0.199 C 
ATOM      9  O4  LIZ d   1       1.444  58.032  71.036  0.00  0.00    -0.647 OA
ATOM     10  O3  LIZ d   1       0.396  59.310  69.549  0.00  0.00    -0.647 OA
ENDBRANCH   5   8
ENDBRANCH   3   5
BRANCH   3  11
ATOM     11  C2  LIZ d   1      -2.590  56.938  68.826  0.00  0.00     0.163 C 
ATOM     12  H28 LIZ d   1      -2.618  55.997  69.395  0.00  0.00     0.093 H 
ATOM     13  H29 LIZ d   1      -3.028  56.777  67.830  0.00  0.00     0.093 H 
BRANCH  11  14
ATOM     14  C1  LIZ d   1      -3.391  58.008  69.569  0.00  0.00     0.199 C 
ATOM     15  O2  LIZ d   1      -4.502  57.665  70.030  0.00  0.00    -0.647 OA
ATOM     16  O1  LIZ d   1      -2.880  59.145  69.664  0.00  0.00    -0.647 OA
ENDBRANCH  11  14
ENDBRANCH   3  11
ENDBRANCH   1   3
BRANCH   1  17
ATOM     17  C12 LIZ d   1       0.720  57.457  67.134  0.00  0.00     0.111 C 
ATOM     18  H25 LIZ d   1       1.376  57.499  68.016  0.00  0.00     0.079 H 
ATOM     19  H26 LIZ d   1       1.218  56.893  66.332  0.00  0.00     0.079 H 
BRANCH  17  20
ATOM     20  N2  LIZ d   1       0.469  58.831  66.663  0.00  0.00    -0.053 N 
ATOM     21  H24 LIZ d   1      -0.191  59.283  67.276  0.00  0.00     0.281 HD
BRANCH  20  22
ATOM     22  C6  LIZ d   1      -0.088  58.793  65.301  0.00  0.00     0.162 C 
ATOM     23  H5  LIZ d   1       0.095  59.765  64.820  0.00  0.00     0.093 H 
ATOM     24  H6  LIZ d   1       0.424  58.001  64.734  0.00  0.00     0.093 H 
BRANCH  22  25
ATOM     25  C5  LIZ d   1      -1.589  58.514  65.281  0.00  0.00     0.199 C 
ATOM     26  O6  LIZ d   1      -2.071  58.030  64.234  0.00  0.00    -0.647 OA
ATOM     27  O5  LIZ d   1      -2.252  58.801  66.303  0.00  0.00    -0.647 OA
ENDBRANCH  22  25
ENDBRANCH  20  22
BRANCH  20  28
ATOM     28  C13 LIZ d   1       1.746  59.567  66.693  0.00  0.00     0.132 C 
ATOM     29  C15 LIZ d   1       2.686  59.046  65.604  0.00  0.00    -0.036 C 
ATOM     30  C16 LIZ d   1       4.041  59.753  65.668  0.00  0.00    -0.063 C 
ATOM     31  H12 LIZ d   1       2.231  59.227  64.619  0.00  0.00     0.036 H 
ATOM     32  H13 LIZ d   1       2.837  57.965  65.745  0.00  0.00     0.036 H 
ATOM     33  C17 LIZ d   1       3.884  61.272  65.571  0.00  0.00    -0.063 C 
ATOM     34  H22 LIZ d   1       4.667  59.404  64.833  0.00  0.00     0.033 H 
ATOM     35  H23 LIZ d   1       4.530  59.504  66.621  0.00  0.00     0.033 H 
ATOM     36  C18 LIZ d   1       2.911  61.782  66.633  0.00  0.00    -0.036 C 
ATOM     37  H14 LIZ d   1       4.865  61.747  65.722  0.00  0.00     0.033 H 
ATOM     38  H15 LIZ d   1       3.500  61.532  64.574  0.00  0.00     0.033 H 
ATOM     39  C14 LIZ d   1       1.561  61.071  66.506  0.00  0.00     0.132 C 
ATOM     40  H20 LIZ d   1       2.764  62.864  66.501  0.00  0.00     0.036 H 
ATOM     41  H21 LIZ d   1       3.330  61.588  67.631  0.00  0.00     0.036 H 
ATOM     42  H19 LIZ d   1       1.174  61.241  65.490  0.00  0.00     0.087 H 
ATOM     43  H11 LIZ d   1       2.213  59.396  67.674  0.00  0.00     0.087 H 
BRANCH  39  44
ATOM     44  N3  LIZ d   1       0.596  61.640  67.458  0.00  0.00    -0.046 N 
ATOM     45  H2  LIZ d   1      -0.114  60.950  67.647  0.00  0.00     0.281 HD
BRANCH  44  46
ATOM     46  C8  LIZ d   1       1.226  62.024  68.731  0.00  0.00     0.163 C 
ATOM     47  H7  LIZ d   1       1.783  62.963  68.596  0.00  0.00     0.093 H 
ATOM     48  H8  LIZ d   1       1.917  61.231  69.052  0.00  0.00     0.093 H 
BRANCH  46  49
ATOM     49  C7  LIZ d   1       0.146  62.221  69.797  0.00  0.00     0.199 C 
ATOM     50  O7  LIZ d   1      -1.014  61.864  69.503  0.00  0.00    -0.647 OA
ATOM     51  O8  LIZ d   1       0.501  62.709  70.891  0.00  0.00    -0.647 OA
ENDBRANCH  46  49
ENDBRANCH  44  46
BRANCH  44  52
ATOM     52  C10 LIZ d   1      -0.029  62.822  66.851  0.00  0.00     0.163 C 
ATOM     53  H9  LIZ d   1       0.749  63.453  66.396  0.00  0.00     0.093 H 
ATOM     54  H10 LIZ d   1      -0.558  63.394  67.627  0.00  0.00     0.093 H 
BRANCH  52  55
ATOM     55  C9  LIZ d   1      -1.025  62.386  65.773  0.00  0.00     0.199 C 
ATOM     56  O10 LIZ d   1      -1.207  63.167  64.816  0.00  0.00    -0.647 OA
ATOM     57  O9  LIZ d   1      -1.587  61.282  65.937  0.00  0.00    -0.647 OA
ENDBRANCH  52  55
ENDBRANCH  44  52
ENDBRANCH  39  44
ENDBRANCH  20  28
ENDBRANCH  17  20
ENDBRANCH   1  17
BRANCH   1  58
ATOM     58  C25 LIZ d   1      -0.323  55.249  67.809  0.00  0.00    -0.013 C 
ATOM     59  H30 LIZ d   1      -1.264  54.807  68.168  0.00  0.00     0.043 H 
ATOM     60  H31 LIZ d   1       0.439  55.178  68.599  0.00  0.00     0.043 H 
BRANCH  58  61
ATOM     61  C19 LIZ d   1       0.158  54.436  66.608  0.00  0.00    -0.056 A 
ATOM     62  C20 LIZ d   1      -0.575  54.343  65.422  0.00  0.00    -0.075 A 
ATOM     63  C21 LIZ d   1      -0.084  53.638  64.333  0.00  0.00    -0.057 A 
ATOM     64  H16 LIZ d   1      -1.542  54.829  65.352  0.00  0.00     0.084 H 
ATOM     65  C22 LIZ d   1       1.160  52.998  64.410  0.00  0.00     0.034 A 
ATOM     66  H17 LIZ d   1      -0.665  53.582  63.419  0.00  0.00     0.086 H 
ATOM     67  C23 LIZ d   1       1.865  53.064  65.601  0.00  0.00    -0.057 A 
ATOM     68  C24 LIZ d   1       1.376  53.784  66.690  0.00  0.00    -0.075 A 
ATOM     69  H32 LIZ d   1       2.814  52.547  65.688  0.00  0.00     0.086 H 
ATOM     70  H18 LIZ d   1       1.953  53.834  67.606  0.00  0.00     0.084 H 
BRANCH  65  71
ATOM     71  N4  LIZ d   1       1.740  52.322  63.425  0.00  0.00    -0.336 N 
ATOM     72  H33 LIZ d   1       2.631  51.871  63.678  0.00  0.00     0.168 HD
BRANCH  71  73
ATOM     73  C26 LIZ d   1       1.355  52.131  62.157  0.00  0.00     0.160 C 
ATOM     74  N5  LIZ d   1       2.141  51.363  61.405  0.00  0.00    -0.249 NA
BRANCH  73  75
ATOM     75  S1  LIZ d   1       0.047  53.050  61.444  0.00  0.00    -0.105 SA
ATOM     76  H34 LIZ d   1      -0.086  52.758  60.488  0.00  0.00     0.110 HD
ENDBRANCH  73  75
BRANCH  74  77
ATOM     77  C28 LIZ d   1       1.931  51.071  59.980  0.00  0.00     0.119 C 
BRANCH  77  78
ATOM     78  C29 LIZ d   1       2.235  52.311  59.136  0.00  0.00     0.046 C 
ATOM     79  H35 LIZ d   1       1.643  53.159  59.510  0.00  0.00     0.078 H 
ATOM     80  H36 LIZ d   1       1.968  52.111  58.088  0.00  0.00     0.078 H 
BRANCH  78  81
ATOM     81  O11 LIZ d   1       3.625  52.633  59.217  0.00  0.00    -0.398 OA
ATOM     82  H37 LIZ d   1       4.138  51.902  58.893  0.00  0.00     0.209 HD
ENDBRANCH  78  81
ENDBRANCH  77  78
BRANCH  77  83
ATOM     83  C30 LIZ d   1       0.499  50.618  59.696  0.00  0.00     0.046 C 
ATOM     84  H38 LIZ d   1       0.112  51.161  58.822  0.00  0.00     0.078 H 
ATOM     85  H39 LIZ d   1      -0.132  50.834  60.571  0.00  0.00     0.078 H 
BRANCH  83  86
ATOM     86  O12 LIZ d   1       0.475  49.214  59.430  0.00  0.00    -0.398 OA
ATOM     87  H40 LIZ d   1      -0.418  48.941  59.255  0.00  0.00     0.209 HD
ENDBRANCH  83  86
ENDBRANCH  77  83
BRANCH  77  88
ATOM     88  C27 LIZ d   1       2.892  49.951  59.582  0.00  0.00     0.046 C 
ATOM     89  H41 LIZ d   1       2.819  49.778  58.498  0.00  0.00     0.078 H 
ATOM     90  H42 LIZ d   1       2.620  49.031  60.120  0.00  0.00     0.078 H 
BRANCH  88  91
ATOM     91  O13 LIZ d   1       4.236  50.313  59.914  0.00  0.00    -0.398 OA
ATOM     92  H43 LIZ d   1       4.473  51.107  59.449  0.00  0.00     0.209 HD
ENDBRANCH  88  91
ENDBRANCH  77  88
ENDBRANCH  74  77
ENDBRANCH  71  73
ENDBRANCH  65  71
ENDBRANCH  58  61
ENDBRANCH   1  58
TORSDOF 27
