REMARK  4 active torsions:
REMARK  status: ('A' for Active; 'I' for Inactive)
REMARK    1  A    between atoms: O3_1  and  C3_2 
REMARK    2  A    between atoms: C2_3  and  O2_4 
REMARK    3  A    between atoms: C1_5  and  N1_6 
REMARK    4  A    between atoms: C4_8  and  O4_9 
ROOT
ATOM      1  C3  YHO d   1      32.933  66.821   7.799  0.00  0.00     0.087 C 
ATOM      2  C2  YHO d   1      32.552  66.289   9.193  0.00  0.00     0.090 C 
ATOM      3  C1  YHO d   1      31.071  65.839   9.086  0.00  0.00     0.129 C 
ATOM      4  C5  YHO d   1      30.742  65.899   7.595  0.00  0.00    -0.010 C 
ATOM      5  C4  YHO d   1      31.557  67.127   7.185  0.00  0.00     0.065 C 
ATOM      6  H2  YHO d   1      33.531  67.741   7.876  0.00  0.00     0.091 H 
ATOM      7  H3  YHO d   1      32.641  67.096   9.935  0.00  0.00     0.090 H 
ATOM      8  H5  YHO d   1      30.412  66.519   9.646  0.00  0.00     0.088 H 
ATOM      9  H9  YHO d   1      29.666  66.048   7.421  0.00  0.00     0.040 H 
ATOM     10  H10 YHO d   1      31.077  64.994   7.067  0.00  0.00     0.040 H 
ATOM     11  H11 YHO d   1      31.129  68.036   7.632  0.00  0.00     0.087 H 
ENDROOT
BRANCH   3  12
ATOM     12  N1  YHO d   1      30.953  64.481   9.638  0.00  0.00    -0.072 N 
ATOM     13  H6  YHO d   1      29.995  64.175   9.575  0.00  0.00     0.274 HD
ATOM     14  H7  YHO d   1      31.242  64.484  10.604  0.00  0.00     0.274 HD
ATOM     15  H8  YHO d   1      31.541  63.853   9.114  0.00  0.00     0.274 HD
ENDBRANCH   3  12
BRANCH   2  16
ATOM     16  O2  YHO d   1      33.406  65.201   9.594  0.00  0.00    -0.391 OA
ATOM     17  H4  YHO d   1      34.307  65.501   9.622  0.00  0.00     0.210 HD
ENDBRANCH   2  16
BRANCH   1  18
ATOM     18  O3  YHO d   1      33.699  65.828   7.068  0.00  0.00    -0.390 OA
ATOM     19  H1  YHO d   1      34.493  65.625   7.549  0.00  0.00     0.210 HD
ENDBRANCH   1  18
BRANCH   5  20
ATOM     20  O4  YHO d   1      31.623  67.310   5.773  0.00  0.00    -0.393 OA
ATOM     21  H12 YHO d   1      32.139  68.084   5.579  0.00  0.00     0.210 HD
ENDBRANCH   5  20
TORSDOF 4
