REMARK  6 active torsions:
REMARK  status: ('A' for Active; 'I' for Inactive)
REMARK    1  A    between atoms: S6_2  and  C7_3 
REMARK    2  A    between atoms: S6_2  and  C1_4 
REMARK    3  A    between atoms: C5_5  and  N5_6 
REMARK    4  A    between atoms: C4_7  and  O4_8 
REMARK    5  A    between atoms: C3_9  and  O3_10 
REMARK    6  A    between atoms: C2_11  and  O2_12 
ROOT
ATOM      1  C1  MZB d   1      30.727  65.868   7.915  0.00  0.00     0.076 C 
ATOM      2  C5  MZB d   1      31.183  65.740   9.362  0.00  0.00     0.143 C 
ATOM      3  C4  MZB d   1      32.686  66.109   9.378  0.00  0.00     0.091 C 
ATOM      4  C3  MZB d   1      33.006  66.636   7.975  0.00  0.00     0.088 C 
ATOM      5  C2  MZB d   1      31.632  66.993   7.405  0.00  0.00     0.079 C 
ATOM      6  H4  MZB d   1      30.857  64.935   7.346  0.00  0.00     0.067 H 
ATOM      7  H5  MZB d   1      30.625  66.466   9.972  0.00  0.00     0.090 H 
ATOM      8  H9  MZB d   1      32.864  66.904  10.117  0.00  0.00     0.090 H 
ATOM      9  H11 MZB d   1      33.657  67.521   8.023  0.00  0.00     0.091 H 
ATOM     10  H13 MZB d   1      31.297  67.945   7.842  0.00  0.00     0.089 H 
ENDROOT
BRANCH   1  11
ATOM     11  S6  MZB d   1      29.025  66.398   7.891  0.00  0.00     0.020 S 
ATOM     12  O6  MZB d   1      28.260  65.243   8.850  0.00  0.00    -0.258 OA
BRANCH  11  13
ATOM     13  C7  MZB d   1      28.597  65.865   6.269  0.00  0.00    -0.007 C 
ATOM     14  H1  MZB d   1      29.042  66.547   5.530  0.00  0.00     0.045 H 
ATOM     15  H2  MZB d   1      27.503  65.869   6.159  0.00  0.00     0.045 H 
ATOM     16  H3  MZB d   1      28.979  64.847   6.105  0.00  0.00     0.045 H 
ENDBRANCH  11  13
ENDBRANCH   1  11
BRANCH   2  17
ATOM     17  N5  MZB d   1      30.962  64.410   9.936  0.00  0.00    -0.071 N 
ATOM     18  H6  MZB d   1      31.286  64.398  10.891  0.00  0.00     0.274 HD
ATOM     19  H7  MZB d   1      31.471  63.724   9.400  0.00  0.00     0.274 HD
ATOM     20  H8  MZB d   1      29.978  64.193   9.912  0.00  0.00     0.274 HD
ENDBRANCH   2  17
BRANCH   5  21
ATOM     21  O2  MZB d   1      31.631  67.162   5.981  0.00  0.00    -0.392 OA
ATOM     22  H14 MZB d   1      32.228  67.862   5.746  0.00  0.00     0.210 HD
ENDBRANCH   5  21
BRANCH   3  23
ATOM     23  O4  MZB d   1      33.490  64.980   9.726  0.00  0.00    -0.391 OA
ATOM     24  H10 MZB d   1      34.406  65.233   9.728  0.00  0.00     0.210 HD
ENDBRANCH   3  23
BRANCH   4  25
ATOM     25  O3  MZB d   1      33.637  65.611   7.177  0.00  0.00    -0.390 OA
ATOM     26  H12 MZB d   1      34.445  65.338   7.595  0.00  0.00     0.210 HD
ENDBRANCH   4  25
TORSDOF 6
