REMARK  5 active torsions:
REMARK  status: ('A' for Active; 'I' for Inactive)
REMARK    1  A    between atoms: O6_1  and  C5_2 
REMARK    2  A    between atoms: C4_3  and  O4_4 
REMARK    3  A    between atoms: C3_5  and  O3_6 
REMARK    4  A    between atoms: C1_7  and  N1_8 
REMARK    5  A    between atoms: C2_9  and  O2_10 
ROOT
ATOM      1  C5  YTB d   1      30.879  66.011   7.361  0.00  0.00     0.092 C 
ATOM      2  C4  YTB d   1      31.616  67.273   6.975  0.00  0.00     0.089 C 
ATOM      3  C3  YTB d   1      32.977  67.072   7.637  0.00  0.00     0.089 C 
ATOM      4  C1  YTB d   1      31.159  65.973   8.856  0.00  0.00     0.153 C 
ATOM      5  C2  YTB d   1      32.594  66.488   9.013  0.00  0.00     0.092 C 
ATOM      6  H2  YTB d   1      31.307  65.127   6.866  0.00  0.00     0.090 H 
ATOM      7  H3  YTB d   1      31.115  68.134   7.441  0.00  0.00     0.091 H 
ATOM      8  H5  YTB d   1      33.539  68.013   7.729  0.00  0.00     0.091 H 
ATOM      9  H7  YTB d   1      30.465  66.650   9.375  0.00  0.00     0.092 H 
ATOM     10  H11 YTB d   1      32.607  67.297   9.758  0.00  0.00     0.090 H 
ENDROOT
BRANCH   4  11
ATOM     11  N1  YTB d   1      31.003  64.633   9.425  0.00  0.00    -0.070 N 
ATOM     12  H8  YTB d   1      31.199  64.663  10.413  0.00  0.00     0.274 HD
ATOM     13  H9  YTB d   1      31.645  64.000   8.974  0.00  0.00     0.274 HD
ATOM     14  H10 YTB d   1      30.058  64.314   9.279  0.00  0.00     0.274 HD
ENDBRANCH   4  11
BRANCH   1  15
ATOM     15  O6  YTB d   1      29.490  66.108   7.004  0.00  0.00    -0.391 OA
ATOM     16  H1  YTB d   1      29.098  66.845   7.458  0.00  0.00     0.210 HD
ENDBRANCH   1  15
BRANCH   5  17
ATOM     17  O2  YTB d   1      33.496  65.458   9.472  0.00  0.00    -0.391 OA
ATOM     18  H12 YTB d   1      34.371  65.819   9.555  0.00  0.00     0.210 HD
ENDBRANCH   5  17
BRANCH   2  19
ATOM     19  O4  YTB d   1      31.671  67.546   5.568  0.00  0.00    -0.390 OA
ATOM     20  H4  YTB d   1      32.150  68.353   5.422  0.00  0.00     0.210 HD
ENDBRANCH   2  19
BRANCH   3  21
ATOM     21  O3  YTB d   1      33.727  66.102   6.888  0.00  0.00    -0.390 OA
ATOM     22  H6  YTB d   1      34.575  65.974   7.297  0.00  0.00     0.210 HD
ENDBRANCH   3  21
TORSDOF 5
