REMARK  6 active torsions:
REMARK  status: ('A' for Active; 'I' for Inactive)
REMARK    1  A    between atoms: C7_1  and  O6_2 
REMARK    2  A    between atoms: O6_2  and  C1_3 
REMARK    3  A    between atoms: C2_4  and  O2_5 
REMARK    4  A    between atoms: C3_6  and  O3_7 
REMARK    5  A    between atoms: C4_8  and  O4_9 
REMARK    6  A    between atoms: C5_10  and  N5_11 
ROOT
ATOM      1  C1  GOO d   1      30.867  65.932   7.653  0.00  0.00     0.094 C 
ATOM      2  C2  GOO d   1      31.614  67.185   7.150  0.00  0.00     0.089 C 
ATOM      3  C3  GOO d   1      33.009  66.945   7.727  0.00  0.00     0.089 C 
ATOM      4  C4  GOO d   1      32.710  66.407   9.149  0.00  0.00     0.092 C 
ATOM      5  C5  GOO d   1      31.229  65.978   9.114  0.00  0.00     0.154 C 
ATOM      6  H4  GOO d   1      31.175  65.012   7.135  0.00  0.00     0.090 H 
ATOM      7  H5  GOO d   1      31.165  68.094   7.576  0.00  0.00     0.091 H 
ATOM      8  H7  GOO d   1      33.591  67.878   7.764  0.00  0.00     0.091 H 
ATOM      9  H9  GOO d   1      32.838  67.219   9.880  0.00  0.00     0.090 H 
ATOM     10  H11 GOO d   1      30.588  66.696   9.646  0.00  0.00     0.092 H 
ENDROOT
BRANCH   1  11
ATOM     11  O6  GOO d   1      29.439  66.115   7.631  0.00  0.00    -0.386 OA
BRANCH  11  12
ATOM     12  C7  GOO d   1      28.889  66.002   6.306  0.00  0.00     0.005 C 
ATOM     13  H1  GOO d   1      27.800  66.150   6.347  0.00  0.00     0.066 H 
ATOM     14  H2  GOO d   1      29.108  65.003   5.902  0.00  0.00     0.066 H 
ATOM     15  H3  GOO d   1      29.338  66.767   5.656  0.00  0.00     0.066 H 
ENDBRANCH  11  12
ENDBRANCH   1  11
BRANCH   2  16
ATOM     16  O2  GOO d   1      31.644  67.324   5.729  0.00  0.00    -0.390 OA
ATOM     17  H6  GOO d   1      32.118  68.114   5.499  0.00  0.00     0.210 HD
ENDBRANCH   2  16
BRANCH   5  18
ATOM     18  N5  GOO d   1      31.147  64.642   9.764  0.00  0.00    -0.070 N 
ATOM     19  H12 GOO d   1      30.190  64.325   9.761  0.00  0.00     0.274 HD
ATOM     20  H13 GOO d   1      31.476  64.710  10.714  0.00  0.00     0.274 HD
ATOM     21  H14 GOO d   1      31.720  63.986   9.257  0.00  0.00     0.274 HD
ENDBRANCH   5  18
BRANCH   3  22
ATOM     22  O3  GOO d   1      33.725  65.950   6.961  0.00  0.00    -0.390 OA
ATOM     23  H8  GOO d   1      34.587  65.820   7.340  0.00  0.00     0.210 HD
ENDBRANCH   3  22
BRANCH   4  24
ATOM     24  O4  GOO d   1      33.582  65.331   9.528  0.00  0.00    -0.391 OA
ATOM     25  H10 GOO d   1      34.482  65.634   9.514  0.00  0.00     0.210 HD
ENDBRANCH   4  24
TORSDOF 6
