REMARK  9 active torsions:
REMARK  status: ('A' for Active; 'I' for Inactive)
REMARK    1  A    between atoms: C1_1  and  S1_12 
REMARK    2  A    between atoms: C2_2  and  O2_3 
REMARK    3  A    between atoms: C3_4  and  O3_5 
REMARK    4  A    between atoms: C4_6  and  O4_7 
REMARK    5  A    between atoms: C5_8  and  C6_10 
REMARK    6  A    between atoms: C6_10  and  O6_11 
REMARK    7  A    between atoms: S1_12  and  C1'_13 
REMARK    8  A    between atoms: C1'_13  and  C2'_14 
REMARK    9  A    between atoms: C1'_13  and  C3'_15 
ROOT
ATOM      1  C1  IPT d   1     -14.821 -27.714 -26.191  0.00  0.00     0.110 C 
ATOM      2  C2  IPT d   1     -13.535 -27.617 -25.347  0.00  0.00     0.096 C 
ATOM      3  C3  IPT d   1     -12.351 -27.301 -26.259  0.00  0.00     0.090 C 
ATOM      4  C4  IPT d   1     -12.240 -28.379 -27.377  0.00  0.00     0.089 C 
ATOM      5  C5  IPT d   1     -13.572 -28.429 -28.120  0.00  0.00     0.087 C 
ATOM      6  O5  IPT d   1     -14.634 -28.685 -27.194  0.00  0.00    -0.363 OA
ATOM      7  H1  IPT d   1     -15.070 -26.728 -26.611  0.00  0.00     0.104 H 
ATOM      8  H2  IPT d   1     -13.361 -28.555 -24.800  0.00  0.00     0.092 H 
ATOM      9  H4  IPT d   1     -12.511 -26.316 -26.722  0.00  0.00     0.091 H 
ATOM     10  H6  IPT d   1     -11.450 -28.075 -28.079  0.00  0.00     0.091 H 
ATOM     11  H8  IPT d   1     -13.720 -27.461 -28.621  0.00  0.00     0.090 H 
ENDROOT
BRANCH   1  12
ATOM     12  S1  IPT d   1     -16.221 -28.406 -25.254  0.00  0.00    -0.131 SA
BRANCH  12  13
ATOM     13  C1' IPT d   1     -17.713 -27.910 -26.243  0.00  0.00    -0.014 C 
ATOM     14  H12 IPT d   1     -17.655 -26.819 -26.368  0.00  0.00     0.055 H 
BRANCH  13  15
ATOM     15  C2' IPT d   1     -18.970 -28.190 -25.470  0.00  0.00    -0.065 C 
ATOM     16  H13 IPT d   1     -19.843 -27.891 -26.069  0.00  0.00     0.028 H 
ATOM     17  H14 IPT d   1     -18.957 -27.619 -24.530  0.00  0.00     0.028 H 
ATOM     18  H15 IPT d   1     -19.030 -29.265 -25.245  0.00  0.00     0.028 H 
ENDBRANCH  13  15
BRANCH  13  19
ATOM     19  C3' IPT d   1     -17.744 -28.497 -27.663  0.00  0.00    -0.065 C 
ATOM     20  H16 IPT d   1     -18.654 -28.158 -28.180  0.00  0.00     0.028 H 
ATOM     21  H17 IPT d   1     -17.743 -29.596 -27.606  0.00  0.00     0.028 H 
ATOM     22  H18 IPT d   1     -16.858 -28.158 -28.220  0.00  0.00     0.028 H 
ENDBRANCH  13  19
ENDBRANCH  12  13
ENDBRANCH   1  12
BRANCH   2  23
ATOM     23  O2  IPT d   1     -13.689 -26.531 -24.451  0.00  0.00    -0.389 OA
ATOM     24  H3  IPT d   1     -12.907 -26.449 -23.917  0.00  0.00     0.210 HD
ENDBRANCH   2  23
BRANCH   3  25
ATOM     25  O3  IPT d   1     -11.117 -27.271 -25.498  0.00  0.00    -0.390 OA
ATOM     26  H5  IPT d   1     -10.392 -27.073 -26.080  0.00  0.00     0.210 HD
ENDBRANCH   3  25
BRANCH   5  27
ATOM     27  C6  IPT d   1     -13.723 -29.556 -29.141  0.00  0.00     0.043 C 
ATOM     28  H9  IPT d   1     -14.697 -29.481 -29.646  0.00  0.00     0.078 H 
ATOM     29  H10 IPT d   1     -13.644 -30.532 -28.641  0.00  0.00     0.078 H 
BRANCH  27  30
ATOM     30  O6  IPT d   1     -12.663 -29.402 -30.091  0.00  0.00    -0.398 OA
ATOM     31  H11 IPT d   1     -12.737 -28.554 -30.512  0.00  0.00     0.209 HD
ENDBRANCH  27  30
ENDBRANCH   5  27
BRANCH   4  32
ATOM     32  O4  IPT d   1     -11.897 -29.695 -26.853  0.00  0.00    -0.390 OA
ATOM     33  H7  IPT d   1     -11.841 -30.316 -27.570  0.00  0.00     0.210 HD
ENDBRANCH   4  32
TORSDOF 9
