REMARK  18 active torsions:
REMARK  status: ('A' for Active; 'I' for Inactive)
REMARK    1  A    between atoms: C1_2  and  C2_4 
REMARK    2  A    between atoms: C2_4  and  C3_5 
REMARK    3  A    between atoms: C3_5  and  C4_6 
REMARK    4  A    between atoms: C4_6  and  C5_7 
REMARK    5  A    between atoms: C5_7  and  O3_8 
REMARK    6  A    between atoms: C5_7  and  C6_9 
REMARK    7  A    between atoms: C6_9  and  C7_10 
REMARK    8  A    between atoms: C7_10  and  C8_11 
REMARK    9  A    between atoms: C8_11  and  C9_12 
REMARK   10  A    between atoms: C9_12  and  C10_13 
REMARK   11  A    between atoms: C10_13  and  C11_14 
REMARK   12  A    between atoms: C12_15  and  C13_16 
REMARK   13  A    between atoms: C13_16  and  C14_17 
REMARK   14  A    between atoms: C15_18  and  C16_19 
REMARK   15  A    between atoms: C16_19  and  C17_20 
REMARK   16  A    between atoms: C17_20  and  C18_21 
REMARK   17  A    between atoms: C18_21  and  C19_22 
REMARK   18  A    between atoms: C19_22  and  C20_23 
ROOT
ATOM      1  C10 EAH d   1     -15.894   2.206   2.251  0.00  0.00    -0.050 C 
ATOM      2  H17 EAH d   1     -15.117   1.586   1.780  0.00  0.00     0.038 H 
ATOM      3  H18 EAH d   1     -15.421   3.031   2.804  0.00  0.00     0.038 H 
ENDROOT
BRANCH   1   4
ATOM      4  C9  EAH d   1     -16.625   1.475   3.065  0.00  0.00    -0.062 C 
ATOM      5  H15 EAH d   1     -17.392   2.123   3.514  0.00  0.00     0.033 H 
ATOM      6  H16 EAH d   1     -17.112   0.685   2.474  0.00  0.00     0.033 H 
BRANCH   4   7
ATOM      7  C8  EAH d   1     -15.888   0.851   4.126  0.00  0.00    -0.065 C 
ATOM      8  H13 EAH d   1     -14.942   0.465   3.718  0.00  0.00     0.033 H 
ATOM      9  H14 EAH d   1     -15.674   1.606   4.897  0.00  0.00     0.033 H 
BRANCH   7  10
ATOM     10  C7  EAH d   1     -16.626  -0.269   4.752  0.00  0.00    -0.063 C 
ATOM     11  H11 EAH d   1     -17.423   0.147   5.386  0.00  0.00     0.033 H 
ATOM     12  H12 EAH d   1     -17.073  -0.882   3.956  0.00  0.00     0.033 H 
BRANCH  10  13
ATOM     13  C6  EAH d   1     -15.748  -1.150   5.601  0.00  0.00    -0.041 C 
ATOM     14  H9  EAH d   1     -14.710  -0.801   5.498  0.00  0.00     0.036 H 
ATOM     15  H10 EAH d   1     -16.068  -1.046   6.648  0.00  0.00     0.036 H 
BRANCH  13  16
ATOM     16  C5  EAH d   1     -15.792  -2.621   5.236  0.00  0.00     0.035 C 
ATOM     17  H7  EAH d   1     -16.758  -2.990   5.611  0.00  0.00     0.082 H 
BRANCH  16  18
ATOM     18  C4  EAH d   1     -14.727  -3.410   5.987  0.00  0.00    -0.041 C 
ATOM     19  H5  EAH d   1     -13.764  -3.312   5.464  0.00  0.00     0.036 H 
ATOM     20  H6  EAH d   1     -14.631  -3.013   7.008  0.00  0.00     0.036 H 
BRANCH  18  21
ATOM     21  C3  EAH d   1     -15.117  -4.873   6.052  0.00  0.00    -0.054 C 
ATOM     22  H3  EAH d   1     -15.732  -5.030   6.950  0.00  0.00     0.033 H 
ATOM     23  H4  EAH d   1     -15.707  -5.116   5.156  0.00  0.00     0.033 H 
BRANCH  21  24
ATOM     24  C2  EAH d   1     -13.944  -5.800   6.113  0.00  0.00     0.016 C 
ATOM     25  H1  EAH d   1     -14.009  -6.556   5.317  0.00  0.00     0.049 H 
ATOM     26  H2  EAH d   1     -13.004  -5.238   6.009  0.00  0.00     0.049 H 
BRANCH  24  27
ATOM     27  C1  EAH d   1     -14.019  -6.450   7.460  0.00  0.00     0.172 C 
ATOM     28  O1  EAH d   1     -13.079  -6.990   7.960  0.00  0.00    -0.648 OA
ATOM     29  O2  EAH d   1     -15.083  -6.460   8.028  0.00  0.00    -0.648 OA
ENDBRANCH  24  27
ENDBRANCH  21  24
ENDBRANCH  18  21
ENDBRANCH  16  18
BRANCH  16  30
ATOM     30  O3  EAH d   1     -15.808  -2.866   3.939  0.00  0.00    -0.396 OA
ATOM     31  H8  EAH d   1     -15.980  -3.789   3.794  0.00  0.00     0.210 HD
ENDBRANCH  16  30
ENDBRANCH  13  16
ENDBRANCH  10  13
ENDBRANCH   7  10
ENDBRANCH   4   7
ENDBRANCH   1   4
BRANCH   1  32
ATOM     32  C11 EAH d   1     -16.783   2.727   1.252  0.00  0.00    -0.106 C 
ATOM     33  C12 EAH d   1     -16.395   3.346   0.175  0.00  0.00    -0.103 C 
ATOM     34  H20 EAH d   1     -17.130   3.642  -0.572  0.00  0.00     0.076 H 
ATOM     35  H19 EAH d   1     -17.853   2.596   1.405  0.00  0.00     0.076 H 
BRANCH  33  36
ATOM     36  C13 EAH d   1     -14.966   3.651  -0.044  0.00  0.00    -0.035 C 
ATOM     37  H21 EAH d   1     -14.632   3.183  -0.982  0.00  0.00     0.044 H 
ATOM     38  H22 EAH d   1     -14.375   3.255   0.795  0.00  0.00     0.044 H 
BRANCH  36  39
ATOM     39  C14 EAH d   1     -14.772   5.130  -0.132  0.00  0.00    -0.103 C 
ATOM     40  C15 EAH d   1     -14.229   5.841  -1.084  0.00  0.00    -0.106 C 
ATOM     41  H24 EAH d   1     -14.193   6.920  -0.941  0.00  0.00     0.076 H 
ATOM     42  H23 EAH d   1     -15.137   5.698   0.722  0.00  0.00     0.076 H 
BRANCH  40  43
ATOM     43  C16 EAH d   1     -13.656   5.303  -2.345  0.00  0.00    -0.050 C 
ATOM     44  H25 EAH d   1     -13.738   6.071  -3.128  0.00  0.00     0.038 H 
ATOM     45  H26 EAH d   1     -14.228   4.412  -2.644  0.00  0.00     0.038 H 
BRANCH  43  46
ATOM     46  C17 EAH d   1     -12.215   4.922  -2.189  0.00  0.00    -0.062 C 
ATOM     47  H27 EAH d   1     -11.765   5.460  -1.341  0.00  0.00     0.033 H 
ATOM     48  H28 EAH d   1     -11.655   5.152  -3.108  0.00  0.00     0.033 H 
BRANCH  46  49
ATOM     49  C18 EAH d   1     -12.213   3.454  -1.933  0.00  0.00    -0.065 C 
ATOM     50  H29 EAH d   1     -13.095   3.032  -2.437  0.00  0.00     0.033 H 
ATOM     51  H30 EAH d   1     -12.308   3.311  -0.847  0.00  0.00     0.033 H 
BRANCH  49  52
ATOM     52  C19 EAH d   1     -11.020   2.665  -2.385  0.00  0.00    -0.069 C 
ATOM     53  H31 EAH d   1     -10.770   2.974  -3.411  0.00  0.00     0.032 H 
ATOM     54  H32 EAH d   1     -11.289   1.599  -2.379  0.00  0.00     0.032 H 
BRANCH  52  55
ATOM     55  C20 EAH d   1      -9.816   2.845  -1.539  0.00  0.00    -0.077 C 
ATOM     56  H33 EAH d   1      -8.993   2.235  -1.938  0.00  0.00     0.027 H 
ATOM     57  H34 EAH d   1     -10.040   2.529  -0.510  0.00  0.00     0.027 H 
ATOM     58  H35 EAH d   1      -9.521   3.905  -1.541  0.00  0.00     0.027 H 
ENDBRANCH  52  55
ENDBRANCH  49  52
ENDBRANCH  46  49
ENDBRANCH  43  46
ENDBRANCH  40  43
ENDBRANCH  36  39
ENDBRANCH  33  36
ENDBRANCH   1  32
TORSDOF 18
