REMARK  13 active torsions:
REMARK  status: ('A' for Active; 'I' for Inactive)
REMARK    1  A    between atoms: P_2  and  O1P_5 
REMARK    2  A    between atoms: O1P_5  and  C8_6 
REMARK    3  A    between atoms: C8_6  and  C7_7 
REMARK    4  A    between atoms: C7_7  and  O7_8 
REMARK    5  A    between atoms: C7_7  and  C6_9 
REMARK    6  A    between atoms: C6_9  and  O6_10 
REMARK    7  A    between atoms: C6_9  and  C5_11 
REMARK    8  A    between atoms: C5_11  and  O5_12 
REMARK    9  A    between atoms: C5_11  and  C4_13 
REMARK   10  A    between atoms: C4_13  and  O4_14 
REMARK   11  A    between atoms: C4_13  and  C3_15 
REMARK   12  A    between atoms: C3_15  and  C1_16 
REMARK   13  A    between atoms: C1_16  and  C2_18 
ROOT
ATOM      1  C6  KD0 d   1      36.247  53.985  18.346  0.00  0.00     0.089 C 
ATOM      2  H5  KD0 d   1      36.508  54.699  19.141  0.00  0.00     0.091 H 
ENDROOT
BRANCH   1   3
ATOM      3  C7  KD0 d   1      37.443  53.806  17.437  0.00  0.00     0.084 C 
ATOM      4  H3  KD0 d   1      37.176  53.160  16.587  0.00  0.00     0.090 H 
BRANCH   3   5
ATOM      5  C8  KD0 d   1      37.865  55.185  16.950  0.00  0.00     0.059 C 
ATOM      6  H1  KD0 d   1      36.981  55.827  16.823  0.00  0.00     0.079 H 
ATOM      7  H2  KD0 d   1      38.552  55.647  17.675  0.00  0.00     0.079 H 
BRANCH   5   8
ATOM      8  O1P KD0 d   1      38.492  55.015  15.758  0.00  0.00    -0.280 OA
BRANCH   8   9
ATOM      9  P   KD0 d   1      39.626  55.976  15.318  0.00  0.00     0.422 P 
ATOM     10  O4P KD0 d   1      39.727  55.743  13.746  0.00  0.00    -0.617 OA
ATOM     11  O2P KD0 d   1      39.185  57.481  15.628  0.00  0.00    -0.617 OA
ATOM     12  O3P KD0 d   1      40.909  55.616  15.983  0.00  0.00    -0.617 OA
ENDBRANCH   8   9
ENDBRANCH   5   8
ENDBRANCH   3   5
BRANCH   3  13
ATOM     13  O7  KD0 d   1      38.546  53.241  18.155  0.00  0.00    -0.391 OA
ATOM     14  H4  KD0 d   1      38.308  52.377  18.471  0.00  0.00     0.210 HD
ENDBRANCH   3  13
ENDBRANCH   1   3
BRANCH   1  15
ATOM     15  O6  KD0 d   1      35.147  54.522  17.560  0.00  0.00    -0.390 OA
ATOM     16  H6  KD0 d   1      35.402  55.359  17.190  0.00  0.00     0.210 HD
ENDBRANCH   1  15
BRANCH   1  17
ATOM     17  C5  KD0 d   1      35.822  52.660  18.997  0.00  0.00     0.087 C 
ATOM     18  H7  KD0 d   1      36.611  52.321  19.685  0.00  0.00     0.091 H 
BRANCH  17  19
ATOM     19  O5  KD0 d   1      35.566  51.645  18.014  0.00  0.00    -0.390 OA
ATOM     20  H8  KD0 d   1      36.354  51.491  17.507  0.00  0.00     0.210 HD
ENDBRANCH  17  19
BRANCH  17  21
ATOM     21  C4  KD0 d   1      34.527  52.882  19.750  0.00  0.00     0.069 C 
ATOM     22  H9  KD0 d   1      33.709  53.070  19.039  0.00  0.00     0.087 H 
BRANCH  21  23
ATOM     23  O4  KD0 d   1      34.688  53.987  20.618  0.00  0.00    -0.392 OA
ATOM     24  H10 KD0 d   1      34.901  54.760  20.109  0.00  0.00     0.210 HD
ENDBRANCH  21  23
BRANCH  21  25
ATOM     25  C3  KD0 d   1      34.204  51.660  20.612  0.00  0.00     0.027 C 
ATOM     26  H11 KD0 d   1      34.859  51.654  21.496  0.00  0.00     0.049 H 
ATOM     27  H12 KD0 d   1      34.372  50.745  20.025  0.00  0.00     0.049 H 
BRANCH  25  28
ATOM     28  C1  KD0 d   1      32.744  51.712  21.063  0.00  0.00     0.227 C 
ATOM     29  O3  KD0 d   1      31.834  51.482  20.261  0.00  0.00    -0.286 OA
BRANCH  28  30
ATOM     30  C2  KD0 d   1      32.404  52.010  22.522  0.00  0.00     0.246 C 
ATOM     31  O1  KD0 d   1      31.174  51.972  22.841  0.00  0.00    -0.642 OA
ATOM     32  O2  KD0 d   1      33.381  52.212  23.311  0.00  0.00    -0.642 OA
ENDBRANCH  28  30
ENDBRANCH  25  28
ENDBRANCH  21  25
ENDBRANCH  17  21
ENDBRANCH   1  17
TORSDOF 13
