REMARK  9 active torsions:
REMARK  status: ('A' for Active; 'I' for Inactive)
REMARK    1  A    between atoms: N1_1  and  C7_7 
REMARK    2  A    between atoms: N4_4  and  C8_8 
REMARK    3  A    between atoms: C10_10  and  N14_14 
REMARK    4  A    between atoms: C12_12  and  S23_21 
REMARK    5  A    between atoms: N14_14  and  C15_15 
REMARK    6  A    between atoms: C18_17  and  C21_20 
REMARK    7  A    between atoms: S23_21  and  C24_22 
REMARK    8  A    between atoms: C27_25  and  N30_28 
REMARK       I    between atoms: N30_28  and  C31_29 
REMARK    9  A    between atoms: C31_29  and  C33_31 
ROOT
ATOM      1  C8  VX6 d   1      23.165  29.172  20.301  0.00  0.00     0.132 A 
ATOM      2  C9  VX6 d   1      23.159  29.209  18.925  0.00  0.00     0.006 A 
ATOM      3  C10 VX6 d   1      24.254  28.658  18.281  0.00  0.00     0.135 A 
ATOM      4  N11 VX6 d   1      25.272  28.106  18.974  0.00  0.00    -0.205 NA
ATOM      5  C12 VX6 d   1      25.198  28.108  20.302  0.00  0.00     0.197 A 
ATOM      6  N13 VX6 d   1      24.192  28.637  20.977  0.00  0.00    -0.205 NA
ATOM      7  H13 VX6 d   1      22.337  29.648  18.372  0.00  0.00     0.095 H 
ENDROOT
BRANCH   5   8
ATOM      8  S23 VX6 d   1      26.528  27.432  21.280  0.00  0.00    -0.050 SA
BRANCH   8   9
ATOM      9  C24 VX6 d   1      27.263  26.342  20.103  0.00  0.00     0.008 A 
ATOM     10  C25 VX6 d   1      28.375  26.752  19.403  0.00  0.00    -0.064 A 
ATOM     11  C26 VX6 d   1      28.935  25.923  18.464  0.00  0.00    -0.056 A 
ATOM     12  H20 VX6 d   1      28.807  27.728  19.593  0.00  0.00     0.085 H 
ATOM     13  C27 VX6 d   1      28.387  24.683  18.243  0.00  0.00     0.034 A 
ATOM     14  H21 VX6 d   1      29.804  26.244  17.901  0.00  0.00     0.087 H 
ATOM     15  C28 VX6 d   1      27.287  24.259  18.959  0.00  0.00    -0.056 A 
ATOM     16  C29 VX6 d   1      26.725  25.094  19.891  0.00  0.00    -0.064 A 
ATOM     17  H22 VX6 d   1      26.870  23.273  18.787  0.00  0.00     0.087 H 
ATOM     18  H23 VX6 d   1      25.860  24.771  20.459  0.00  0.00     0.085 H 
BRANCH  13  19
ATOM     19  N30 VX6 d   1      28.916  23.794  17.297  0.00  0.00    -0.327 N 
ATOM     20  C31 VX6 d   1      30.100  23.953  16.600  0.00  0.00     0.226 C 
ATOM     21  O32 VX6 d   1      30.999  24.802  16.742  0.00  0.00    -0.273 OA
ATOM     22  H24 VX6 d   1      28.387  22.966  17.108  0.00  0.00     0.169 HD
BRANCH  20  23
ATOM     23  C33 VX6 d   1      30.204  22.902  15.568  0.00  0.00     0.024 A 
ATOM     24  C34 VX6 d   1      31.031  23.219  14.361  0.00  0.00    -0.053 A 
ATOM     25  C35 VX6 d   1      31.533  22.231  15.376  0.00  0.00    -0.053 A 
ATOM     26  H26 VX6 d   1      31.512  24.204  14.267  0.00  0.00     0.034 H 
ATOM     27  H27 VX6 d   1      30.710  22.872  13.368  0.00  0.00     0.034 H 
ATOM     28  H28 VX6 d   1      31.578  21.161  15.127  0.00  0.00     0.034 H 
ATOM     29  H29 VX6 d   1      32.381  22.492  16.026  0.00  0.00     0.034 H 
ATOM     30  H25 VX6 d   1      29.265  22.334  15.487  0.00  0.00     0.054 H 
ENDBRANCH  20  23
ENDBRANCH  13  19
ENDBRANCH   8   9
ENDBRANCH   5   8
BRANCH   3  31
ATOM     31  N14 VX6 d   1      24.224  28.718  16.859  0.00  0.00    -0.326 N 
ATOM     32  H14 VX6 d   1      23.334  29.044  16.456  0.00  0.00     0.169 HD
BRANCH  31  33
ATOM     33  C15 VX6 d   1      25.196  28.409  15.944  0.00  0.00     0.125 A 
ATOM     34  C17 VX6 d   1      26.466  27.860  16.261  0.00  0.00    -0.014 A 
ATOM     35  C18 VX6 d   1      27.114  27.686  15.058  0.00  0.00     0.054 A 
ATOM     36  H15 VX6 d   1      26.850  27.625  17.253  0.00  0.00     0.092 H 
ATOM     37  N19 VX6 d   1      26.248  28.131  14.096  0.00  0.00    -0.178 NA
ATOM     38  N20 VX6 d   1      25.083  28.562  14.612  0.00  0.00    -0.262 N 
ATOM     39  H16 VX6 d   1      24.273  28.932  14.095  0.00  0.00     0.191 HD
BRANCH  35  40
ATOM     40  C21 VX6 d   1      28.442  27.146  14.724  0.00  0.00    -0.034 C 
ATOM     41  H17 VX6 d   1      28.587  27.178  13.634  0.00  0.00     0.035 H 
ATOM     42  H18 VX6 d   1      28.513  26.105  15.073  0.00  0.00     0.035 H 
ATOM     43  H19 VX6 d   1      29.218  27.752  15.215  0.00  0.00     0.035 H 
ENDBRANCH  35  40
ENDBRANCH  31  33
ENDBRANCH   3  31
BRANCH   1  44
ATOM     44  N4  VX6 d   1      22.099  29.731  21.000  0.00  0.00    -0.362 N 
ATOM     45  C3  VX6 d   1      20.927  29.979  20.199  0.00  0.00     0.019 C 
ATOM     46  C2  VX6 d   1      19.783  30.582  20.984  0.00  0.00     0.098 C 
ATOM     47  H4  VX6 d   1      21.198  30.672  19.389  0.00  0.00     0.066 H 
ATOM     48  H5  VX6 d   1      20.590  29.025  19.768  0.00  0.00     0.066 H 
ATOM     49  N1  VX6 d   1      19.620  30.120  22.355  0.00  0.00    -0.072 N 
ATOM     50  H2  VX6 d   1      19.936  31.671  21.014  0.00  0.00     0.078 H 
ATOM     51  H3  VX6 d   1      18.852  30.358  20.443  0.00  0.00     0.078 H 
ATOM     52  C6  VX6 d   1      20.647  29.220  22.903  0.00  0.00     0.098 C 
ATOM     53  H1  VX6 d   1      19.566  30.929  22.954  0.00  0.00     0.279 HD
ATOM     54  C5  VX6 d   1      22.071  29.512  22.445  0.00  0.00     0.019 C 
ATOM     55  H8  VX6 d   1      20.396  28.192  22.602  0.00  0.00     0.078 H 
ATOM     56  H9  VX6 d   1      20.619  29.298  24.000  0.00  0.00     0.078 H 
ATOM     57  H6  VX6 d   1      22.440  30.413  22.957  0.00  0.00     0.066 H 
ATOM     58  H7  VX6 d   1      22.716  28.657  22.696  0.00  0.00     0.066 H 
BRANCH  49  59
ATOM     59  C7  VX6 d   1      18.372  29.394  22.379  0.00  0.00     0.066 C 
ATOM     60  H10 VX6 d   1      17.570  30.030  21.976  0.00  0.00     0.068 H 
ATOM     61  H11 VX6 d   1      18.131  29.112  23.415  0.00  0.00     0.068 H 
ATOM     62  H12 VX6 d   1      18.464  28.486  21.764  0.00  0.00     0.068 H 
ENDBRANCH  49  59
ENDBRANCH   1  44
TORSDOF 9
