REMARK  3 active torsions:
REMARK  status: ('A' for Active; 'I' for Inactive)
REMARK    1  A    between atoms: C_2  and  CG_4 
REMARK    2  A    between atoms: CG_4  and  CA_5 
REMARK    3  A    between atoms: CZ_8  and  OH_9 
ROOT
ATOM      1  CA  3C4 d   1      10.304 -22.835  17.755  0.00  0.00    -0.046 A 
ATOM      2  CD2 3C4 d   1       9.490 -21.835  17.337  0.00  0.00    -0.074 A 
ATOM      3  CE2 3C4 d   1       9.021 -21.675  16.137  0.00  0.00    -0.049 A 
ATOM      4  CZ  3C4 d   1       9.482 -22.593  15.076  0.00  0.00     0.087 A 
ATOM      5 CL   3C4 d   1      10.967 -24.850  14.443  0.00  0.00    -0.081 Cl
ATOM      6  CE1 3C4 d   1      10.367 -23.637  15.582  0.00  0.00     0.067 A 
ATOM      7  CD1 3C4 d   1      10.740 -23.718  16.861  0.00  0.00    -0.053 A 
ATOM      8  H3  3C4 d   1       9.203 -21.097  18.077  0.00  0.00     0.084 H 
ATOM      9  H4  3C4 d   1       8.309 -20.887  15.919  0.00  0.00     0.087 H 
ATOM     10  H6  3C4 d   1      11.406 -24.513  17.175  0.00  0.00     0.087 H 
ENDROOT
BRANCH   1  11
ATOM     11  CG  3C4 d   1      10.784 -22.919  19.205  0.00  0.00     0.040 C 
ATOM     12  H1  3C4 d   1      11.684 -23.551  19.239  0.00  0.00     0.056 H 
ATOM     13  H2  3C4 d   1      11.035 -21.905  19.549  0.00  0.00     0.056 H 
BRANCH  11  14
ATOM     14  C   3C4 d   1       9.737 -23.510  20.153  0.00  0.00     0.176 C 
ATOM     15  O2  3C4 d   1      10.158 -23.811  21.325  0.00  0.00    -0.648 OA
ATOM     16  O1  3C4 d   1       8.538 -23.769  19.758  0.00  0.00    -0.648 OA
ENDBRANCH  11  14
ENDBRANCH   1  11
BRANCH   4  17
ATOM     17  OH  3C4 d   1       9.155 -22.563  13.759  0.00  0.00    -0.359 OA
ATOM     18  H5  3C4 d   1       9.425 -21.732  13.386  0.00  0.00     0.217 HD
ENDBRANCH   4  17
TORSDOF 3
