REMARK  21 active torsions:
REMARK  status: ('A' for Active; 'I' for Inactive)
REMARK    1  A    between atoms: CAL_2  and  OAX_3 
REMARK    2  A    between atoms: OAX_3  and  CAN_4 
REMARK    3  A    between atoms: CAN_4  and  CAQ_5 
REMARK    4  A    between atoms: CAQ_5  and  CBR_6 
REMARK    5  A    between atoms: CBR_6  and  CAG_7 
REMARK    6  A    between atoms: CBK_10  and  CAT_12 
REMARK    7  A    between atoms: CAT_12  and  OAV_13 
REMARK    8  A    between atoms: OAV_13  and  CAA_14 
REMARK    9  A    between atoms: CBI_19  and  OAI_20 
REMARK   10  A    between atoms: CBL_21  and  OBA_22 
REMARK   11  A    between atoms: OBA_22  and  CBQ_23 
REMARK   12  A    between atoms: CBD_25  and  CBG_26 
REMARK   13  A    between atoms: CBG_26  and  CAD_27 
REMARK   14  A    between atoms: CBG_26  and  CAC_28 
REMARK   15  A    between atoms: CBO_31  and  CAF_32 
REMARK   16  A    between atoms: CBS_35  and  CAU_36 
REMARK   17  A    between atoms: CBS_35  and  OAK_39 
REMARK   18  A    between atoms: CAU_36  and  OAW_37 
REMARK   19  A    between atoms: OAW_37  and  CAB_38 
REMARK   20  A    between atoms: CBH_43  and  CAE_44 
REMARK   21  A    between atoms: CBJ_45  and  OAJ_46 
ROOT
ATOM      1  CBQ CW1 d   1     -14.185 -14.129 -23.401  0.00  0.00     0.089 C 
ATOM      2  CBF CW1 d   1     -14.094 -14.742 -21.999  0.00  0.00    -0.034 C 
ATOM      3  CBD CW1 d   1     -15.027 -15.504 -21.269  0.00  0.00    -0.070 C 
ATOM      4  CAO CW1 d   1     -14.439 -15.934 -19.947  0.00  0.00    -0.043 C 
ATOM      5  CAP CW1 d   1     -12.931 -15.908 -20.197  0.00  0.00    -0.048 C 
ATOM      6  CBO CW1 d   1     -12.727 -14.765 -21.238  0.00  0.00     0.001 C 
ATOM      7  CAM CW1 d   1     -12.414 -13.601 -20.488  0.00  0.00    -0.085 C 
ATOM      8  CBE CW1 d   1     -12.999 -12.317 -20.436  0.00  0.00    -0.042 C 
ATOM      9  CBS CW1 d   1     -12.655 -11.164 -19.475  0.00  0.00     0.103 C 
ATOM     10  CAS CW1 d   1     -13.863 -10.303 -19.382  0.00  0.00    -0.030 C 
ATOM     11  CAR CW1 d   1     -14.697 -10.528 -20.633  0.00  0.00    -0.055 C 
ATOM     12  CBP CW1 d   1     -14.287 -11.877 -21.196  0.00  0.00    -0.024 C 
ATOM     13  CBH CW1 d   1     -14.180 -11.686 -22.747  0.00  0.00    -0.023 C 
ATOM     14  CBJ CW1 d   1     -14.969 -12.814 -23.390  0.00  0.00     0.068 C 
ATOM     15  H20 CW1 d   1     -13.180 -13.955 -23.813  0.00  0.00     0.094 H 
ATOM     16  H28 CW1 d   1     -14.775 -16.947 -19.679  0.00  0.00     0.039 H 
ATOM     17  H29 CW1 d   1     -14.716 -15.232 -19.147  0.00  0.00     0.039 H 
ATOM     18  H30 CW1 d   1     -12.588 -16.870 -20.604  0.00  0.00     0.035 H 
ATOM     19  H31 CW1 d   1     -12.386 -15.688 -19.267  0.00  0.00     0.035 H 
ATOM     20  H35 CW1 d   1     -11.558 -13.722 -19.825  0.00  0.00     0.079 H 
ATOM     21  H42 CW1 d   1     -13.564  -9.246 -19.317  0.00  0.00     0.038 H 
ATOM     22  H43 CW1 d   1     -14.447 -10.574 -18.490  0.00  0.00     0.038 H 
ATOM     23  H44 CW1 d   1     -14.498  -9.735 -21.368  0.00  0.00     0.034 H 
ATOM     24  H45 CW1 d   1     -15.767 -10.533 -20.379  0.00  0.00     0.034 H 
ATOM     25  H46 CW1 d   1     -15.069 -12.625 -20.997  0.00  0.00     0.047 H 
ATOM     26  H47 CW1 d   1     -14.727 -10.759 -22.974  0.00  0.00     0.044 H 
ATOM     27  H51 CW1 d   1     -15.875 -12.977 -22.788  0.00  0.00     0.088 H 
ENDROOT
BRANCH   1  28
ATOM     28  OBA CW1 d   1     -14.911 -15.129 -24.192  0.00  0.00    -0.346 OA
BRANCH  28  29
ATOM     29  CBL CW1 d   1     -14.165 -15.500 -25.352  0.00  0.00     0.160 C 
ATOM     30  OAY CW1 d   1     -13.265 -16.511 -24.793  0.00  0.00    -0.346 OA
ATOM     31  CBK CW1 d   1     -13.397 -17.749 -25.509  0.00  0.00     0.118 C 
ATOM     32  CBT CW1 d   1     -14.886 -18.285 -25.425  0.00  0.00     0.225 C 
ATOM     33  H9  CW1 d   1     -13.264 -17.458 -26.561  0.00  0.00     0.095 H 
ATOM     34  OBC CW1 d   1     -15.371 -18.950 -24.285  0.00  0.00    -0.335 OA
ATOM     35  OBB CW1 d   1     -15.017 -19.243 -26.496  0.00  0.00    -0.317 OA
ATOM     36  CBN CW1 d   1     -15.922 -17.286 -25.809  0.00  0.00     0.127 C 
ATOM     37  CBR CW1 d   1     -16.294 -20.065 -24.733  0.00  0.00     0.113 C 
ATOM     38  CBM CW1 d   1     -16.314 -19.504 -26.305  0.00  0.00     0.165 C 
ATOM     39  OAZ CW1 d   1     -16.672 -18.148 -26.710  0.00  0.00    -0.344 OA
ATOM     40  H15 CW1 d   1     -16.776 -20.255 -26.962  0.00  0.00     0.134 H 
ATOM     41  CBI CW1 d   1     -15.165 -16.088 -26.393  0.00  0.00     0.113 C 
ATOM     42  H16 CW1 d   1     -16.549 -16.949 -24.970  0.00  0.00     0.096 H 
ATOM     43  H17 CW1 d   1     -14.583 -16.427 -27.263  0.00  0.00     0.095 H 
ATOM     44  H19 CW1 d   1     -13.609 -14.657 -25.789  0.00  0.00     0.133 H 
BRANCH  31  45
ATOM     45  CAT CW1 d   1     -12.349 -18.814 -25.314  0.00  0.00     0.048 C 
ATOM     46  H10 CW1 d   1     -11.738 -18.882 -26.226  0.00  0.00     0.078 H 
ATOM     47  H11 CW1 d   1     -12.850 -19.777 -25.135  0.00  0.00     0.078 H 
BRANCH  45  48
ATOM     48  OAV CW1 d   1     -11.517 -18.533 -24.235  0.00  0.00    -0.393 OA
BRANCH  48  49
ATOM     49  CAA CW1 d   1     -12.327 -18.954 -23.102  0.00  0.00     0.004 C 
ATOM     50  H12 CW1 d   1     -11.771 -18.780 -22.169  0.00  0.00     0.066 H 
ATOM     51  H13 CW1 d   1     -12.560 -20.025 -23.196  0.00  0.00     0.066 H 
ATOM     52  H14 CW1 d   1     -13.262 -18.375 -23.084  0.00  0.00     0.066 H 
ENDBRANCH  48  49
ENDBRANCH  45  48
ENDBRANCH  31  45
BRANCH  37  53
ATOM     53  CAQ CW1 d   1     -17.841 -19.974 -24.927  0.00  0.00    -0.011 C 
ATOM     54  H4  CW1 d   1     -18.092 -19.073 -25.506  0.00  0.00     0.040 H 
ATOM     55  H5  CW1 d   1     -18.203 -20.866 -25.460  0.00  0.00     0.040 H 
BRANCH  53  56
ATOM     56  CAN CW1 d   1     -18.488 -19.898 -23.543  0.00  0.00     0.031 C 
ATOM     57  H2  CW1 d   1     -17.718 -19.841 -22.759  0.00  0.00     0.075 H 
ATOM     58  H3  CW1 d   1     -19.149 -19.021 -23.473  0.00  0.00     0.075 H 
BRANCH  56  59
ATOM     59  OAX CW1 d   1     -19.224 -21.078 -23.423  0.00  0.00    -0.328 OA
BRANCH  59  60
ATOM     60  CAL CW1 d   1     -20.591 -20.820 -23.393  0.00  0.00     0.206 C 
ATOM     61  OAH CW1 d   1     -21.004 -19.656 -23.508  0.00  0.00    -0.276 OA
ATOM     62  H1  CW1 d   1     -21.298 -21.639 -23.269  0.00  0.00     0.192 H 
ENDBRANCH  59  60
ENDBRANCH  56  59
ENDBRANCH  53  56
ENDBRANCH  37  53
BRANCH  37  63
ATOM     63  CAG CW1 d   1     -15.607 -21.380 -25.173  0.00  0.00    -0.043 C 
ATOM     64  H6  CW1 d   1     -14.526 -21.310 -24.982  0.00  0.00     0.031 H 
ATOM     65  H7  CW1 d   1     -15.780 -21.543 -26.247  0.00  0.00     0.031 H 
ATOM     66  H8  CW1 d   1     -16.026 -22.222 -24.602  0.00  0.00     0.031 H 
ENDBRANCH  37  63
BRANCH  41  67
ATOM     67  OAI CW1 d   1     -16.126 -15.140 -26.840  0.00  0.00    -0.388 OA
ATOM     68  H18 CW1 d   1     -16.676 -15.538 -27.504  0.00  0.00     0.210 HD
ENDBRANCH  41  67
ENDBRANCH  28  29
ENDBRANCH   1  28
BRANCH  14  69
ATOM     69  OAJ CW1 d   1     -15.382 -12.426 -24.709  0.00  0.00    -0.392 OA
ATOM     70  H52 CW1 d   1     -15.875 -13.134 -25.107  0.00  0.00     0.210 HD
ENDBRANCH  14  69
BRANCH   3  71
ATOM     71  CBG CW1 d   1     -16.522 -15.544 -21.690  0.00  0.00    -0.039 C 
ATOM     72  H21 CW1 d   1     -16.558 -15.212 -22.738  0.00  0.00     0.045 H 
BRANCH  71  73
ATOM     73  CAD CW1 d   1     -17.218 -16.936 -21.682  0.00  0.00    -0.070 C 
ATOM     74  H22 CW1 d   1     -18.266 -16.824 -21.998  0.00  0.00     0.028 H 
ATOM     75  H23 CW1 d   1     -17.184 -17.357 -20.666  0.00  0.00     0.028 H 
ATOM     76  H24 CW1 d   1     -16.696 -17.611 -22.376  0.00  0.00     0.028 H 
ENDBRANCH  71  73
BRANCH  71  77
ATOM     77  CAC CW1 d   1     -17.263 -14.471 -20.849  0.00  0.00    -0.070 C 
ATOM     78  H25 CW1 d   1     -16.714 -13.519 -20.903  0.00  0.00     0.028 H 
ATOM     79  H26 CW1 d   1     -17.321 -14.802 -19.802  0.00  0.00     0.028 H 
ATOM     80  H27 CW1 d   1     -18.279 -14.331 -21.246  0.00  0.00     0.028 H 
ENDBRANCH  71  77
ENDBRANCH   3  71
BRANCH   6  81
ATOM     81  CAF CW1 d   1     -11.543 -15.069 -22.174  0.00  0.00    -0.062 C 
ATOM     82  H32 CW1 d   1     -11.425 -14.247 -22.895  0.00  0.00     0.029 H 
ATOM     83  H33 CW1 d   1     -11.735 -16.007 -22.716  0.00  0.00     0.029 H 
ATOM     84  H34 CW1 d   1     -10.623 -15.171 -21.580  0.00  0.00     0.029 H 
ENDBRANCH   6  81
BRANCH  13  85
ATOM     85  CAE CW1 d   1     -12.750 -11.447 -23.340  0.00  0.00    -0.070 C 
ATOM     86  H48 CW1 d   1     -12.821 -11.330 -24.431  0.00  0.00     0.028 H 
ATOM     87  H49 CW1 d   1     -12.107 -12.308 -23.104  0.00  0.00     0.028 H 
ATOM     88  H50 CW1 d   1     -12.319 -10.536 -22.901  0.00  0.00     0.028 H 
ENDBRANCH  13  85
BRANCH   9  89
ATOM     89  CAU CW1 d   1     -11.450 -10.324 -19.830  0.00  0.00     0.051 C 
ATOM     90  H36 CW1 d   1     -11.728  -9.264 -19.930  0.00  0.00     0.079 H 
ATOM     91  H37 CW1 d   1     -10.992 -10.673 -20.767  0.00  0.00     0.079 H 
BRANCH  89  92
ATOM     92  OAW CW1 d   1     -10.549 -10.517 -18.715  0.00  0.00    -0.393 OA
BRANCH  92  93
ATOM     93  CAB CW1 d   1      -9.269  -9.923 -19.003  0.00  0.00     0.004 C 
ATOM     94  H38 CW1 d   1      -8.593 -10.076 -18.149  0.00  0.00     0.066 H 
ATOM     95  H39 CW1 d   1      -9.397  -8.845 -19.181  0.00  0.00     0.066 H 
ATOM     96  H40 CW1 d   1      -8.839 -10.394 -19.899  0.00  0.00     0.066 H 
ENDBRANCH  92  93
ENDBRANCH  89  92
ENDBRANCH   9  89
BRANCH   9  97
ATOM     97  OAK CW1 d   1     -12.471 -11.699 -18.141  0.00  0.00    -0.383 OA
ATOM     98  H41 CW1 d   1     -11.686 -12.234 -18.121  0.00  0.00     0.211 HD
ENDBRANCH   9  97
TORSDOF 21
