REMARK  7 active torsions:
REMARK  status: ('A' for Active; 'I' for Inactive)
REMARK    1  A    between atoms: C25_5  and  C26_1 
REMARK    2  A    between atoms: N16_22  and  C19_4 
REMARK    3  A    between atoms: C15_10  and  C18_9 
REMARK    4  A    between atoms: C5_14  and  C11_15 
REMARK    5  A    between atoms: C1_17  and  C2_16 
REMARK    6  A    between atoms: C13_20  and  C7_19 
REMARK       I    between atoms: C13_20  and  N16_22 
REMARK    7  A    between atoms: C4_25  and  C9_26 
ROOT
ATOM      1  C1  G6A d   1      40.750  30.951  32.047  0.00  0.00    -0.018 A 
ATOM      2  C3  G6A d   1      40.645  30.043  33.117  0.00  0.00    -0.056 A 
ATOM      3  C7  G6A d   1      39.521  29.201  33.298  0.00  0.00     0.032 A 
ATOM      4  C14 G6A d   1      38.460  29.323  32.361  0.00  0.00    -0.067 A 
ATOM      5  C8  G6A d   1      38.545  30.229  31.301  0.00  0.00    -0.075 A 
ATOM      6  C4  G6A d   1      39.693  31.046  31.133  0.00  0.00    -0.051 A 
ATOM      7  H15 G6A d   1      41.458  29.986  33.832  0.00  0.00     0.086 H 
ATOM      8  H17 G6A d   1      37.575  28.706  32.470  0.00  0.00     0.085 H 
ATOM      9  H18 G6A d   1      37.724  30.309  30.598  0.00  0.00     0.084 H 
ENDROOT
BRANCH   1  10
ATOM     10  C2  G6A d   1      41.990  31.788  31.947  0.00  0.00    -0.019 A 
ATOM     11  C6  G6A d   1      42.087  32.984  32.639  0.00  0.00    -0.071 A 
ATOM     12  C12 G6A d   1      43.213  33.802  32.620  0.00  0.00    -0.068 A 
ATOM     13  H10 G6A d   1      41.236  33.302  33.230  0.00  0.00     0.084 H 
ATOM     14  C15 G6A d   1      44.301  33.407  31.836  0.00  0.00     0.019 A 
ATOM     15  H9  G6A d   1      43.245  34.719  33.197  0.00  0.00     0.085 H 
ATOM     16  C10 G6A d   1      44.210  32.203  31.116  0.00  0.00    -0.062 A 
ATOM     17  C5  G6A d   1      43.076  31.371  31.184  0.00  0.00    -0.050 A 
ATOM     18  H11 G6A d   1      45.041  31.905  30.487  0.00  0.00     0.085 H 
BRANCH  14  19
ATOM     19  C18 G6A d   1      45.547  34.189  31.729  0.00  0.00     0.202 A 
ATOM     20  O21 G6A d   1      46.635  33.893  30.975  0.00  0.00    -0.273 OA
ATOM     21  C25 G6A d   1      47.528  34.847  31.169  0.00  0.00     0.165 A 
ATOM     22  N24 G6A d   1      46.990  35.743  32.032  0.00  0.00    -0.127 NA
ATOM     23  N20 G6A d   1      45.827  35.362  32.369  0.00  0.00    -0.121 NA
BRANCH  21  24
ATOM     24  C26 G6A d   1      48.901  34.813  30.481  0.00  0.00    -0.013 C 
ATOM     25  H1  G6A d   1      49.483  35.697  30.780  0.00  0.00     0.038 H 
ATOM     26  H2  G6A d   1      48.764  34.816  29.390  0.00  0.00     0.038 H 
ATOM     27  H3  G6A d   1      49.439  33.902  30.781  0.00  0.00     0.038 H 
ENDBRANCH  21  24
ENDBRANCH  14  19
BRANCH  17  28
ATOM     28  C11 G6A d   1      43.036  30.067  30.425  0.00  0.00    -0.050 C 
ATOM     29  H12 G6A d   1      43.987  29.925  29.890  0.00  0.00     0.033 H 
ATOM     30  H13 G6A d   1      42.208  30.089  29.701  0.00  0.00     0.033 H 
ATOM     31  H14 G6A d   1      42.885  29.237  31.130  0.00  0.00     0.033 H 
ENDBRANCH  17  28
ENDBRANCH   1  10
BRANCH   6  32
ATOM     32  C9  G6A d   1      39.783  32.054  29.989  0.00  0.00    -0.050 C 
ATOM     33  H19 G6A d   1      40.748  32.581  30.039  0.00  0.00     0.033 H 
ATOM     34  H20 G6A d   1      38.963  32.782  30.076  0.00  0.00     0.033 H 
ATOM     35  H21 G6A d   1      39.703  31.526  29.027  0.00  0.00     0.033 H 
ENDBRANCH   6  32
BRANCH   3  36
ATOM     36  C13 G6A d   1      39.549  28.286  34.481  0.00  0.00     0.252 C 
ATOM     37  O17 G6A d   1      40.402  28.483  35.364  0.00  0.00    -0.268 OA
ATOM     38  N16 G6A d   1      38.585  27.297  34.601  0.00  0.00    -0.352 N 
ATOM     39  H16 G6A d   1      37.892  27.228  33.883  0.00  0.00     0.163 HD
BRANCH  38  40
ATOM     40  C19 G6A d   1      38.519  26.357  35.702  0.00  0.00     0.012 A 
ATOM     41  C23 G6A d   1      37.132  26.514  36.233  0.00  0.00    -0.044 A 
ATOM     42  C22 G6A d   1      38.264  27.171  36.954  0.00  0.00    -0.044 A 
ATOM     43  H4  G6A d   1      36.402  27.128  35.685  0.00  0.00     0.036 H 
ATOM     44  H5  G6A d   1      36.619  25.654  36.688  0.00  0.00     0.036 H 
ATOM     45  H6  G6A d   1      38.588  26.791  37.934  0.00  0.00     0.036 H 
ATOM     46  H7  G6A d   1      38.371  28.265  36.931  0.00  0.00     0.036 H 
ATOM     47  H8  G6A d   1      39.108  25.430  35.630  0.00  0.00     0.072 H 
ENDBRANCH  38  40
ENDBRANCH   3  36
TORSDOF 7
