REMARK  14 active torsions:
REMARK  status: ('A' for Active; 'I' for Inactive)
REMARK    1  A    between atoms: C7_7  and  C5_5 
REMARK    2  A    between atoms: O1_24  and  C7_7 
REMARK    3  A    between atoms: C8_8  and  O1_24 
REMARK    4  A    between atoms: C14_14  and  C12_12 
REMARK    5  A    between atoms: C15_15  and  C14_14 
REMARK    6  A    between atoms: C16_16  and  C15_15 
REMARK    7  A    between atoms: C17_17  and  C16_16 
REMARK       I    between atoms: N1_22  and  C17_17 
REMARK       I    between atoms: C22_28  and  N2_23 
REMARK    8  A    between atoms: C23_29  and  C22_28 
REMARK    9  A    between atoms: C24_30  and  C23_29 
REMARK   10  A    between atoms: C25_31  and  C24_30 
REMARK   11  A    between atoms: C27_33  and  C25_31 
REMARK   12  A    between atoms: O8_48  and  C31_37 
REMARK   13  A    between atoms: C32_38  and  C34_40 
REMARK   14  A    between atoms: C32_38  and  O8_48 
ROOT
ATOM      1  C17 LZP d   1      44.149  11.384  71.914  0.00  0.00     0.290 C 
ATOM      2  C18 LZP d   1      45.098  13.014  73.752  0.00  0.00     0.013 C 
ATOM      3  C19 LZP d   1      44.643  14.504  74.123  0.00  0.00     0.013 C 
ATOM      4  C20 LZP d   1      43.899  15.042  71.723  0.00  0.00     0.013 C 
ATOM      5  C21 LZP d   1      44.868  13.848  71.322  0.00  0.00     0.013 C 
ATOM      6  N1  LZP d   1      44.674  12.673  72.302  0.00  0.00    -0.343 N 
ATOM      7  N2  LZP d   1      43.483  14.904  73.175  0.00  0.00    -0.343 N 
ATOM      8  O4  LZP d   1      44.009  10.456  72.738  0.00  0.00    -0.264 OA
ATOM      9  C22 LZP d   1      42.198  15.126  73.716  0.00  0.00     0.290 C 
ATOM     10  O5  LZP d   1      41.955  15.022  74.946  0.00  0.00    -0.264 OA
ATOM     11  H16 LZP d   1      44.623  12.305  74.446  0.00  0.00     0.066 H 
ATOM     12  H17 LZP d   1      46.192  12.935  73.839  0.00  0.00     0.066 H 
ATOM     13  H18 LZP d   1      45.488  15.196  73.991  0.00  0.00     0.066 H 
ATOM     14  H19 LZP d   1      44.300  14.540  75.168  0.00  0.00     0.066 H 
ATOM     15  H20 LZP d   1      43.005  15.016  71.083  0.00  0.00     0.066 H 
ATOM     16  H21 LZP d   1      44.422  15.999  71.583  0.00  0.00     0.066 H 
ATOM     17  H22 LZP d   1      45.912  14.193  71.366  0.00  0.00     0.066 H 
ATOM     18  H23 LZP d   1      44.635  13.515  70.300  0.00  0.00     0.066 H 
ENDROOT
BRANCH   1  19
ATOM     19  C16 LZP d   1      43.737  11.078  70.445  0.00  0.00     0.223 C 
ATOM     20  O3  LZP d   1      44.394  10.275  69.764  0.00  0.00    -0.287 OA
BRANCH  19  21
ATOM     21  C15 LZP d   1      42.471  11.787  69.856  0.00  0.00     0.059 C 
ATOM     22  H14 LZP d   1      41.593  11.296  70.301  0.00  0.00     0.057 H 
ATOM     23  H15 LZP d   1      42.510  12.836  70.184  0.00  0.00     0.057 H 
BRANCH  21  24
ATOM     24  C14 LZP d   1      42.248  11.801  68.299  0.00  0.00     0.167 C 
ATOM     25  O2  LZP d   1      42.007  10.738  67.715  0.00  0.00    -0.292 OA
BRANCH  24  26
ATOM     26  C12 LZP d   1      42.331  13.127  67.540  0.00  0.00     0.013 A 
ATOM     27  C11 LZP d   1      43.538  13.993  67.678  0.00  0.00    -0.069 A 
ATOM     28  C10 LZP d   1      43.631  15.259  66.961  0.00  0.00    -0.079 A 
ATOM     29  H12 LZP d   1      44.354  13.678  68.318  0.00  0.00     0.085 H 
ATOM     30  C9  LZP d   1      42.529  15.695  66.093  0.00  0.00    -0.051 A 
ATOM     31  H11 LZP d   1      44.514  15.879  67.069  0.00  0.00     0.083 H 
ATOM     32  C8  LZP d   1      41.277  14.876  65.901  0.00  0.00     0.069 A 
ATOM     33  H10 LZP d   1      42.619  16.641  65.571  0.00  0.00     0.087 H 
ATOM     34  C13 LZP d   1      41.236  13.590  66.657  0.00  0.00    -0.037 A 
ATOM     35  H13 LZP d   1      40.359  12.962  66.554  0.00  0.00     0.089 H 
BRANCH  32  36
ATOM     36  O1  LZP d   1      40.196  15.309  65.047  0.00  0.00    -0.350 OA
BRANCH  36  37
ATOM     37  C7  LZP d   1      40.022  16.686  64.538  0.00  0.00     0.033 C 
ATOM     38  H8  LZP d   1      41.015  17.075  64.270  0.00  0.00     0.076 H 
ATOM     39  H9  LZP d   1      39.393  16.636  63.637  0.00  0.00     0.076 H 
BRANCH  37  40
ATOM     40  C5  LZP d   1      39.354  17.709  65.541  0.00  0.00    -0.014 A 
ATOM     41  C4  LZP d   1      38.364  17.255  66.561  0.00  0.00    -0.097 A 
ATOM     42  C3  LZP d   1      37.725  18.187  67.511  0.00  0.00    -0.086 A 
ATOM     43  H4  LZP d   1      38.104  16.199  66.606  0.00  0.00     0.077 H 
ATOM     44  C2  LZP d   1      38.096  19.716  67.454  0.00  0.00    -0.087 A 
ATOM     45  H3  LZP d   1      37.006  17.821  68.242  0.00  0.00     0.083 H 
ATOM     46  C1  LZP d   1      39.061  20.184  66.465  0.00  0.00    -0.102 A 
ATOM     47  H2  LZP d   1      37.636  20.419  68.147  0.00  0.00     0.083 H 
ATOM     48  C6  LZP d   1      39.688  19.253  65.527  0.00  0.00    -0.042 A 
ATOM     49  H1  LZP d   1      39.318  21.241  66.424  0.00  0.00     0.076 H 
ATOM     50  H6  LZP d   1      40.773  19.336  65.688  0.00  0.00     0.040 H 
ATOM     51  H7  LZP d   1      39.438  19.614  64.519  0.00  0.00     0.040 H 
ATOM     52  H5  LZP d   1      38.545  17.872  64.814  0.00  0.00     0.049 H 
ENDBRANCH  37  40
ENDBRANCH  36  37
ENDBRANCH  32  36
ENDBRANCH  24  26
ENDBRANCH  21  24
ENDBRANCH  19  21
ENDBRANCH   1  19
BRANCH   9  53
ATOM     53  C23 LZP d   1      41.007  15.492  72.796  0.00  0.00     0.223 C 
ATOM     54  O6  LZP d   1      41.134  16.249  71.824  0.00  0.00    -0.287 OA
BRANCH  53  55
ATOM     55  C24 LZP d   1      39.628  14.853  73.147  0.00  0.00     0.059 C 
ATOM     56  H24 LZP d   1      38.868  15.410  72.580  0.00  0.00     0.057 H 
ATOM     57  H25 LZP d   1      39.471  15.012  74.224  0.00  0.00     0.057 H 
BRANCH  55  58
ATOM     58  C25 LZP d   1      39.366  13.329  72.874  0.00  0.00     0.167 C 
ATOM     59  O7  LZP d   1      38.699  12.998  71.883  0.00  0.00    -0.292 OA
BRANCH  58  60
ATOM     60  C27 LZP d   1      39.944  12.289  73.845  0.00  0.00     0.013 A 
ATOM     61  C26 LZP d   1      40.013  12.525  75.303  0.00  0.00    -0.037 A 
ATOM     62  C31 LZP d   1      40.569  11.540  76.273  0.00  0.00     0.070 A 
ATOM     63  H26 LZP d   1      39.638  13.467  75.688  0.00  0.00     0.089 H 
ATOM     64  C30 LZP d   1      41.070  10.257  75.672  0.00  0.00    -0.051 A 
ATOM     65  C29 LZP d   1      41.016   9.989  74.231  0.00  0.00    -0.079 A 
ATOM     66  H29 LZP d   1      41.487   9.501  76.328  0.00  0.00     0.087 H 
ATOM     67  C28 LZP d   1      40.460  10.993  73.322  0.00  0.00    -0.069 A 
ATOM     68  H28 LZP d   1      41.387   9.049  73.840  0.00  0.00     0.083 H 
ATOM     69  H27 LZP d   1      40.423  10.791  72.258  0.00  0.00     0.085 H 
BRANCH  62  70
ATOM     70  O8  LZP d   1      40.643  11.770  77.688  0.00  0.00    -0.347 OA
BRANCH  70  71
ATOM     71  C32 LZP d   1      39.476  12.058  78.529  0.00  0.00     0.049 C 
ATOM     72  H30 LZP d   1      38.600  11.566  78.081  0.00  0.00     0.082 H 
ATOM     73  H31 LZP d   1      39.661  11.638  79.529  0.00  0.00     0.082 H 
BRANCH  71  74
ATOM     74  C34 LZP d   1      39.149  13.586  78.692  0.00  0.00    -0.038 A 
ATOM     75  C33 LZP d   1      37.717  14.186  78.404  0.00  0.00    -0.079 A 
ATOM     76  C38 LZP d   1      37.439  15.614  78.560  0.00  0.00    -0.102 A 
ATOM     77  H32 LZP d   1      36.917  13.521  78.082  0.00  0.00     0.083 H 
ATOM     78  C37 LZP d   1      38.484  16.536  78.990  0.00  0.00    -0.047 A 
ATOM     79  H38 LZP d   1      36.439  15.993  78.353  0.00  0.00     0.076 H 
ATOM     80  C36 LZP d   1      39.927  15.984  79.290  0.00  0.00    -0.046 A 
ATOM     81  H36 LZP d   1      38.589  17.293  78.199  0.00  0.00     0.039 H 
ATOM     82  H37 LZP d   1      38.127  17.017  79.912  0.00  0.00     0.039 H 
ATOM     83  C35 LZP d   1      40.198  14.546  79.130  0.00  0.00    -0.095 A 
ATOM     84  H34 LZP d   1      40.619  16.517  78.622  0.00  0.00     0.039 H 
ATOM     85  H35 LZP d   1      40.157  16.239  80.335  0.00  0.00     0.039 H 
ATOM     86  H33 LZP d   1      41.199  14.172  79.339  0.00  0.00     0.077 H 
ENDBRANCH  71  74
ENDBRANCH  70  71
ENDBRANCH  62  70
ENDBRANCH  58  60
ENDBRANCH  55  58
ENDBRANCH  53  55
ENDBRANCH   9  53
TORSDOF 14
