REMARK  10 active torsions:
REMARK  status: ('A' for Active; 'I' for Inactive)
REMARK    1  A    between atoms: C07_2  and  O02_12 
REMARK    2  A    between atoms: C06_24  and  C07_2 
REMARK    3  A    between atoms: C07_2  and  C08_27 
REMARK    4  A    between atoms: C09_3  and  C10_4 
REMARK    5  A    between atoms: C08_27  and  C09_3 
REMARK    6  A    between atoms: C11_28  and  C13_5 
REMARK    7  A    between atoms: C12_29  and  C19_6 
REMARK    8  A    between atoms: C04_18  and  N01_7 
REMARK    9  A    between atoms: N01_7  and  C11_28 
REMARK   10  A    between atoms: N01_7  and  C12_29 
ROOT
ATOM      1  N01 LZQ d   1      47.060  11.868  -1.740  0.00  0.00    -0.372 N 
ENDROOT
BRANCH   1   2
ATOM      2  C04 LZQ d   1      46.627  11.970  -0.276  0.00  0.00     0.031 A 
ATOM      3  C03 LZQ d   1      46.325  10.771   0.506  0.00  0.00    -0.057 A 
ATOM      4  C02 LZQ d   1      45.915  10.888   1.900  0.00  0.00    -0.080 A 
ATOM      5  H7  LZQ d   1      46.406   9.792   0.047  0.00  0.00     0.086 H 
ATOM      6  C01 LZQ d   1      45.795  12.182   2.537  0.00  0.00    -0.074 A 
ATOM      7  H3  LZQ d   1      45.697   9.991   2.469  0.00  0.00     0.083 H 
ATOM      8  C06 LZQ d   1      46.078  13.411   1.811  0.00  0.00    -0.027 A 
ATOM      9  H1  LZQ d   1      45.488  12.237   3.575  0.00  0.00     0.084 H 
ATOM     10  C05 LZQ d   1      46.501  13.299   0.383  0.00  0.00    -0.049 A 
ATOM     11  H12 LZQ d   1      46.719  14.198  -0.182  0.00  0.00     0.087 H 
BRANCH   8  12
ATOM     12  C07 LZQ d   1      45.948  14.677   2.447  0.00  0.00     0.068 C 
ATOM     13  H2  LZQ d   1      46.217  14.187   3.395  0.00  0.00     0.091 H 
BRANCH  12  14
ATOM     14  O02 LZQ d   1      44.716  14.985   2.853  0.00  0.00    -0.390 OA
ATOM     15  H6  LZQ d   1      44.131  14.996   2.105  0.00  0.00     0.210 HD
ENDBRANCH  12  14
BRANCH  12  16
ATOM     16  C08 LZQ d   1      46.866  15.814   2.795  0.00  0.00     0.029 C 
ATOM     17  H17 LZQ d   1      46.290  16.751   2.803  0.00  0.00     0.049 H 
ATOM     18  H18 LZQ d   1      47.661  15.879   2.037  0.00  0.00     0.049 H 
BRANCH  16  19
ATOM     19  C09 LZQ d   1      47.519  15.602   4.205  0.00  0.00     0.227 C 
ATOM     20  O10 LZQ d   1      47.281  14.612   4.897  0.00  0.00    -0.286 OA
BRANCH  19  21
ATOM     21  C10 LZQ d   1      48.358  16.546   4.646  0.00  0.00     0.246 C 
ATOM     22  O01 LZQ d   1      47.919  17.947   4.618  0.00  0.00    -0.642 OA
ATOM     23  O11 LZQ d   1      49.475  16.224   5.068  0.00  0.00    -0.642 OA
ENDBRANCH  19  21
ENDBRANCH  16  19
ENDBRANCH  12  16
ENDBRANCH   8  12
ENDBRANCH   1   2
BRANCH   1  24
ATOM     24  C11 LZQ d   1      48.558  11.851  -2.139  0.00  0.00     0.019 C 
ATOM     25  H19 LZQ d   1      48.624  11.991  -3.228  0.00  0.00     0.071 H 
ATOM     26  H20 LZQ d   1      49.058  12.689  -1.631  0.00  0.00     0.071 H 
BRANCH  24  27
ATOM     27  C13 LZQ d   1      49.332  10.508  -1.762  0.00  0.00    -0.040 A 
ATOM     28  C14 LZQ d   1      50.030  10.385  -0.463  0.00  0.00    -0.075 A 
ATOM     29  C15 LZQ d   1      50.747   9.141  -0.113  0.00  0.00    -0.082 A 
ATOM     30  H4  LZQ d   1      50.015  11.213   0.237  0.00  0.00     0.084 H 
ATOM     31  C16 LZQ d   1      50.781   8.008  -1.046  0.00  0.00    -0.083 A 
ATOM     32  H8  LZQ d   1      51.253   9.064   0.843  0.00  0.00     0.083 H 
ATOM     33  C17 LZQ d   1      50.099   8.110  -2.337  0.00  0.00    -0.082 A 
ATOM     34  H10 LZQ d   1      51.309   7.099  -0.780  0.00  0.00     0.083 H 
ATOM     35  C18 LZQ d   1      49.375   9.355  -2.699  0.00  0.00    -0.075 A 
ATOM     36  H13 LZQ d   1      50.122   7.276  -3.029  0.00  0.00     0.083 H 
ATOM     37  H15 LZQ d   1      48.872   9.424  -3.657  0.00  0.00     0.084 H 
ENDBRANCH  24  27
ENDBRANCH   1  24
BRANCH   1  38
ATOM     38  C12 LZQ d   1      45.987  11.840  -2.821  0.00  0.00     0.019 C 
ATOM     39  H21 LZQ d   1      45.052  12.186  -2.357  0.00  0.00     0.071 H 
ATOM     40  H22 LZQ d   1      46.295  12.553  -3.600  0.00  0.00     0.071 H 
BRANCH  38  41
ATOM     41  C19 LZQ d   1      45.665  10.456  -3.551  0.00  0.00    -0.040 A 
ATOM     42  C20 LZQ d   1      45.373  10.452  -5.008  0.00  0.00    -0.075 A 
ATOM     43  C21 LZQ d   1      45.067   9.189  -5.711  0.00  0.00    -0.082 A 
ATOM     44  H5  LZQ d   1      45.385  11.385  -5.560  0.00  0.00     0.084 H 
ATOM     45  C22 LZQ d   1      45.048   7.924  -4.973  0.00  0.00    -0.083 A 
ATOM     46  H9  LZQ d   1      44.856   9.199  -6.774  0.00  0.00     0.083 H 
ATOM     47  C23 LZQ d   1      45.335   7.921  -3.535  0.00  0.00    -0.082 A 
ATOM     48  H11 LZQ d   1      44.823   6.996  -5.486  0.00  0.00     0.083 H 
ATOM     49  C24 LZQ d   1      45.642   9.177  -2.820  0.00  0.00    -0.075 A 
ATOM     50  H14 LZQ d   1      45.322   6.985  -2.989  0.00  0.00     0.083 H 
ATOM     51  H16 LZQ d   1      45.850   9.158  -1.756  0.00  0.00     0.084 H 
ENDBRANCH  38  41
ENDBRANCH   1  38
TORSDOF 10
