REMARK  12 active torsions:
REMARK  status: ('A' for Active; 'I' for Inactive)
REMARK    1  A    between atoms: N2_1  and  C1_2 
REMARK    2  A    between atoms: C1_2  and  C6_3 
REMARK    3  A    between atoms: C1_2  and  C2_10 
REMARK    4  A    between atoms: C6_3  and  C7_4 
REMARK    5  A    between atoms: C2_10  and  O2_11 
REMARK    6  A    between atoms: C2_10  and  C3_12 
REMARK       I    between atoms: C3_12  and  N1_14 
REMARK    7  A    between atoms: N1_14  and  C4_15 
REMARK    8  A    between atoms: C4_15  and  C13_16 
REMARK    9  A    between atoms: C4_15  and  C5_20 
REMARK   10  A    between atoms: C13_16  and  C14_17 
REMARK   11  A    between atoms: C14_17  and  C15_18 
REMARK   12  A    between atoms: C14_17  and  C16_19 
ROOT
ATOM      1  C2  BES d   1      13.513  12.194  11.133  0.00  0.00     0.139 C 
ATOM      2  H12 BES d   1      14.257  12.976  11.344  0.00  0.00     0.101 H 
ENDROOT
BRANCH   1   3
ATOM      3  C1  BES d   1      12.596  12.044  12.350  0.00  0.00     0.136 C 
ATOM      4  H4  BES d   1      12.424  10.973  12.530  0.00  0.00     0.089 H 
BRANCH   3   5
ATOM      5  N2  BES d   1      11.306  12.689  12.139  0.00  0.00    -0.072 N 
ATOM      6  H1  BES d   1      10.732  12.569  12.959  0.00  0.00     0.274 HD
ATOM      7  H2  BES d   1      10.848  12.271  11.344  0.00  0.00     0.274 HD
ATOM      8  H3  BES d   1      11.446  13.672  11.968  0.00  0.00     0.274 HD
ENDBRANCH   3   5
BRANCH   3   9
ATOM      9  C6  BES d   1      13.284  12.649  13.571  0.00  0.00    -0.012 C 
ATOM     10  H5  BES d   1      12.957  13.695  13.666  0.00  0.00     0.043 H 
ATOM     11  H6  BES d   1      14.371  12.619  13.402  0.00  0.00     0.043 H 
BRANCH   9  12
ATOM     12  C7  BES d   1      12.989  11.941  14.879  0.00  0.00    -0.056 A 
ATOM     13  C8  BES d   1      12.234  12.602  15.850  0.00  0.00    -0.077 A 
ATOM     14  C9  BES d   1      11.964  11.977  17.070  0.00  0.00    -0.082 A 
ATOM     15  H7  BES d   1      11.857  13.600  15.657  0.00  0.00     0.084 H 
ATOM     16  C10 BES d   1      12.451  10.695  17.325  0.00  0.00    -0.083 A 
ATOM     17  H9  BES d   1      11.374  12.490  17.821  0.00  0.00     0.083 H 
ATOM     18  C11 BES d   1      13.219  10.033  16.365  0.00  0.00    -0.082 A 
ATOM     19  H11 BES d   1      12.233  10.212  18.270  0.00  0.00     0.083 H 
ATOM     20  C12 BES d   1      13.489  10.660  15.141  0.00  0.00    -0.077 A 
ATOM     21  H10 BES d   1      13.604   9.040  16.565  0.00  0.00     0.083 H 
ATOM     22  H8  BES d   1      14.087  10.151  14.394  0.00  0.00     0.084 H 
ENDBRANCH   9  12
ENDBRANCH   3   9
ENDBRANCH   1   3
BRANCH   1  23
ATOM     23  O2  BES d   1      12.805  12.527   9.936  0.00  0.00    -0.384 OA
ATOM     24  H13 BES d   1      12.350  13.352  10.058  0.00  0.00     0.210 HD
ENDBRANCH   1  23
BRANCH   1  25
ATOM     25  C3  BES d   1      14.197  10.889  10.879  0.00  0.00     0.249 C 
ATOM     26  O3  BES d   1      13.553   9.926  10.499  0.00  0.00    -0.271 OA
ATOM     27  N1  BES d   1      15.504  10.890  11.081  0.00  0.00    -0.344 N 
ATOM     28  H14 BES d   1      15.933  11.748  11.363  0.00  0.00     0.163 HD
BRANCH  27  29
ATOM     29  C4  BES d   1      16.358   9.722  10.919  0.00  0.00     0.096 C 
ATOM     30  H15 BES d   1      15.771   8.792  10.882  0.00  0.00     0.089 H 
BRANCH  29  31
ATOM     31  C13 BES d   1      17.128   9.922   9.613  0.00  0.00    -0.034 C 
ATOM     32  H16 BES d   1      18.158  10.217   9.863  0.00  0.00     0.037 H 
ATOM     33  H17 BES d   1      16.641  10.731   9.048  0.00  0.00     0.037 H 
BRANCH  31  34
ATOM     34  C14 BES d   1      17.191   8.681   8.715  0.00  0.00    -0.059 C 
ATOM     35  H18 BES d   1      18.013   8.056   9.095  0.00  0.00     0.038 H 
BRANCH  34  36
ATOM     36  C15 BES d   1      15.930   7.819   8.724  0.00  0.00    -0.073 C 
ATOM     37  H19 BES d   1      16.070   6.958   8.054  0.00  0.00     0.028 H 
ATOM     38  H20 BES d   1      15.074   8.417   8.378  0.00  0.00     0.028 H 
ATOM     39  H21 BES d   1      15.738   7.461   9.746  0.00  0.00     0.028 H 
ENDBRANCH  34  36
BRANCH  34  40
ATOM     40  C16 BES d   1      17.519   9.063   7.279  0.00  0.00    -0.073 C 
ATOM     41  H22 BES d   1      18.427   9.684   7.263  0.00  0.00     0.028 H 
ATOM     42  H23 BES d   1      16.680   9.629   6.849  0.00  0.00     0.028 H 
ATOM     43  H24 BES d   1      17.688   8.152   6.687  0.00  0.00     0.028 H 
ENDBRANCH  34  40
ENDBRANCH  31  34
ENDBRANCH  29  31
BRANCH  29  44
ATOM     44  C5  BES d   1      17.276   9.720  12.100  0.00  0.00     0.196 C 
ATOM     45  O1  BES d   1      17.843   8.668  12.474  0.00  0.00    -0.646 OA
ATOM     46  O4  BES d   1      17.409  10.810  12.684  0.00  0.00    -0.646 OA
ENDBRANCH  29  44
ENDBRANCH  27  29
ENDBRANCH   1  25
TORSDOF 12
