REMARK  10 active torsions:
REMARK  status: ('A' for Active; 'I' for Inactive)
REMARK    1  A    between atoms: P_2  and  C19_4 
REMARK    2  A    between atoms: P_2  and  C17_14 
REMARK    3  A    between atoms: C19_4  and  C18_5 
REMARK    4  A    between atoms: C19_4  and  N_13 
REMARK    5  A    between atoms: C18_5  and  C15_6 
REMARK    6  A    between atoms: C15_6  and  C16_7 
REMARK    7  A    between atoms: C17_14  and  C8_15 
REMARK    8  A    between atoms: C8_15  and  C9_16 
REMARK    9  A    between atoms: C8_15  and  C7_19 
REMARK   10  A    between atoms: C7_19  and  C1_20 
ROOT
ATOM      1  O3  BEY d   1      12.926  10.571  10.566  0.00  0.00    -0.666 OA
ATOM      2  P   BEY d   1      13.617  11.692  11.297  0.00  0.00     0.138 P 
ATOM      3  O4  BEY d   1      13.875  12.862  10.384  0.00  0.00    -0.666 OA
ENDROOT
BRANCH   2   4
ATOM      4  C19 BEY d   1      12.331  11.972  12.589  0.00  0.00     0.173 C 
ATOM      5  H1  BEY d   1      11.582  11.190  12.394  0.00  0.00     0.100 H 
BRANCH   4   6
ATOM      6  C18 BEY d   1      12.802  11.665  14.046  0.00  0.00    -0.026 C 
ATOM      7  H2  BEY d   1      13.812  11.233  13.990  0.00  0.00     0.037 H 
ATOM      8  H3  BEY d   1      12.111  10.925  14.475  0.00  0.00     0.037 H 
BRANCH   6   9
ATOM      9  C15 BEY d   1      12.856  12.863  14.998  0.00  0.00    -0.039 C 
ATOM     10  H4  BEY d   1      11.983  13.503  14.801  0.00  0.00     0.040 H 
ATOM     11  H5  BEY d   1      13.778  13.428  14.795  0.00  0.00     0.040 H 
BRANCH   9  12
ATOM     12  C16 BEY d   1      12.845  12.472  16.473  0.00  0.00    -0.058 A 
ATOM     13  C10 BEY d   1      13.902  12.863  17.300  0.00  0.00    -0.077 A 
ATOM     14  C11 BEY d   1      13.910  12.518  18.657  0.00  0.00    -0.082 A 
ATOM     15  H6  BEY d   1      14.723  13.438  16.887  0.00  0.00     0.084 H 
ATOM     16  C12 BEY d   1      12.849  11.786  19.196  0.00  0.00    -0.083 A 
ATOM     17  H7  BEY d   1      14.738  12.818  19.288  0.00  0.00     0.083 H 
ATOM     18  C14 BEY d   1      11.788  11.393  18.384  0.00  0.00    -0.082 A 
ATOM     19  H8  BEY d   1      12.852  11.524  20.248  0.00  0.00     0.083 H 
ATOM     20  C13 BEY d   1      11.788  11.746  17.028  0.00  0.00    -0.077 A 
ATOM     21  H9  BEY d   1      10.968  10.818  18.798  0.00  0.00     0.083 H 
ATOM     22  H10 BEY d   1      10.955  11.451  16.400  0.00  0.00     0.084 H 
ENDBRANCH   9  12
ENDBRANCH   6   9
ENDBRANCH   4   6
BRANCH   4  23
ATOM     23  N   BEY d   1      11.597  13.203  12.394  0.00  0.00    -0.066 N 
ATOM     24  H11 BEY d   1      10.911  13.304  13.125  0.00  0.00     0.275 HD
ATOM     25  H12 BEY d   1      11.133  13.180  11.499  0.00  0.00     0.275 HD
ATOM     26  H13 BEY d   1      12.235  13.983  12.422  0.00  0.00     0.275 HD
ENDBRANCH   4  23
ENDBRANCH   2   4
BRANCH   2  27
ATOM     27  C17 BEY d   1      15.169  11.132  12.059  0.00  0.00     0.022 C 
ATOM     28  H14 BEY d   1      14.933  10.698  13.042  0.00  0.00     0.050 H 
ATOM     29  H15 BEY d   1      15.823  12.007  12.191  0.00  0.00     0.050 H 
BRANCH  27  30
ATOM     30  C8  BEY d   1      15.931  10.083  11.243  0.00  0.00     0.043 C 
ATOM     31  H16 BEY d   1      15.246   9.606  10.527  0.00  0.00     0.058 H 
BRANCH  30  32
ATOM     32  C9  BEY d   1      16.480   9.058  12.194  0.00  0.00     0.177 C 
ATOM     33  O2  BEY d   1      15.823   8.017  12.401  0.00  0.00    -0.648 OA
ATOM     34  O1  BEY d   1      17.579   9.275  12.746  0.00  0.00    -0.648 OA
ENDBRANCH  30  32
BRANCH  30  35
ATOM     35  C7  BEY d   1      17.104  10.714  10.485  0.00  0.00    -0.028 C 
ATOM     36  H17 BEY d   1      17.911  10.942  11.197  0.00  0.00     0.041 H 
ATOM     37  H18 BEY d   1      16.764  11.644  10.006  0.00  0.00     0.041 H 
BRANCH  35  38
ATOM     38  C1  BEY d   1      17.634   9.771   9.419  0.00  0.00    -0.057 A 
ATOM     39  C2  BEY d   1      17.048   9.749   8.156  0.00  0.00    -0.077 A 
ATOM     40  C3  BEY d   1      17.526   8.885   7.167  0.00  0.00    -0.082 A 
ATOM     41  H19 BEY d   1      16.215  10.407   7.938  0.00  0.00     0.084 H 
ATOM     42  C4  BEY d   1      18.594   8.032   7.436  0.00  0.00    -0.083 A 
ATOM     43  H20 BEY d   1      17.064   8.879   6.186  0.00  0.00     0.083 H 
ATOM     44  C6  BEY d   1      19.180   8.055   8.699  0.00  0.00    -0.082 A 
ATOM     45  H21 BEY d   1      18.964   7.359   6.671  0.00  0.00     0.083 H 
ATOM     46  C5  BEY d   1      18.711   8.924   9.686  0.00  0.00    -0.077 A 
ATOM     47  H22 BEY d   1      20.009   7.391   8.918  0.00  0.00     0.083 H 
ATOM     48  H23 BEY d   1      19.184   8.941  10.661  0.00  0.00     0.084 H 
ENDBRANCH  35  38
ENDBRANCH  30  35
ENDBRANCH  27  30
ENDBRANCH   2  27
TORSDOF 10
