REMARK  3 active torsions:
REMARK  status: ('A' for Active; 'I' for Inactive)
REMARK    1  A    between atoms: C3_3  and  O31_4 
REMARK    2  A    between atoms: C4_5  and  C18_21 
REMARK    3  A    between atoms: C6_7  and  C7_8 
ROOT
ATOM      1  C1  GA4 d   1      30.520  46.474  14.266  0.00  0.00    -0.032 C 
ATOM      2  C2  GA4 d   1      29.436  46.226  13.220  0.00  0.00    -0.037 C 
ATOM      3  C3  GA4 d   1      29.562  44.806  12.596  0.00  0.00     0.052 C 
ATOM      4  C4  GA4 d   1      31.009  44.427  12.201  0.00  0.00     0.077 C 
ATOM      5  C5  GA4 d   1      31.840  44.480  13.473  0.00  0.00     0.009 C 
ATOM      6  C6  GA4 d   1      33.339  44.110  13.481  0.00  0.00     0.046 C 
ATOM      7  C8  GA4 d   1      34.037  45.069  14.466  0.00  0.00    -0.016 C 
ATOM      8  C9  GA4 d   1      33.068  46.283  14.608  0.00  0.00    -0.015 C 
ATOM      9  C10 GA4 d   1      31.890  45.997  13.705  0.00  0.00     0.081 C 
ATOM     10  C11 GA4 d   1      33.781  47.630  14.322  0.00  0.00    -0.058 C 
ATOM     11  C12 GA4 d   1      35.113  47.771  15.106  0.00  0.00    -0.058 C 
ATOM     12  C13 GA4 d   1      35.865  46.411  15.225  0.00  0.00    -0.032 C 
ATOM     13  C14 GA4 d   1      35.417  45.581  14.036  0.00  0.00    -0.050 C 
ATOM     14  C15 GA4 d   1      34.355  44.509  15.853  0.00  0.00    -0.036 C 
ATOM     15  C16 GA4 d   1      35.323  45.553  16.329  0.00  0.00    -0.084 C 
ATOM     16  C17 GA4 d   1      35.676  45.631  17.605  0.00  0.00    -0.119 C 
ATOM     17  C19 GA4 d   1      31.560  45.579  11.422  0.00  0.00     0.271 C 
ATOM     18  O91 GA4 d   1      31.589  45.740  10.199  0.00  0.00    -0.264 OA
ATOM     19  O92 GA4 d   1      32.094  46.494  12.358  0.00  0.00    -0.308 OA
ATOM     20  H1  GA4 d   1      30.282  45.914  15.182  0.00  0.00     0.037 H 
ATOM     21  H2  GA4 d   1      30.571  47.548  14.496  0.00  0.00     0.037 H 
ATOM     22  H3  GA4 d   1      29.530  46.977  12.422  0.00  0.00     0.036 H 
ATOM     23  H4  GA4 d   1      28.450  46.321  13.698  0.00  0.00     0.036 H 
ATOM     24  H5  GA4 d   1      28.952  44.785  11.681  0.00  0.00     0.084 H 
ATOM     25  H7  GA4 d   1      31.325  43.925  14.271  0.00  0.00     0.048 H 
ATOM     26  H8  GA4 d   1      33.746  44.317  12.480  0.00  0.00     0.058 H 
ATOM     27  H9  GA4 d   1      32.704  46.324  15.645  0.00  0.00     0.045 H 
ATOM     28  H10 GA4 d   1      33.111  48.453  14.612  0.00  0.00     0.033 H 
ATOM     29  H11 GA4 d   1      33.996  47.694  13.245  0.00  0.00     0.033 H 
ATOM     30  H12 GA4 d   1      34.893  48.145  16.117  0.00  0.00     0.034 H 
ATOM     31  H13 GA4 d   1      35.760  48.490  14.582  0.00  0.00     0.034 H 
ATOM     32  H14 GA4 d   1      36.953  46.556  15.291  0.00  0.00     0.046 H 
ATOM     33  H15 GA4 d   1      35.343  46.199  13.129  0.00  0.00     0.035 H 
ATOM     34  H16 GA4 d   1      36.109  44.745  13.855  0.00  0.00     0.035 H 
ATOM     35  H17 GA4 d   1      34.821  43.514  15.796  0.00  0.00     0.040 H 
ATOM     36  H18 GA4 d   1      33.460  44.459  16.490  0.00  0.00     0.040 H 
ATOM     37  H19 GA4 d   1      36.380  46.396  17.930  0.00  0.00     0.067 H 
ATOM     38  H20 GA4 d   1      35.262  44.930  18.328  0.00  0.00     0.067 H 
ENDROOT
BRANCH   4  39
ATOM     39  C18 GA4 d   1      31.099  43.084  11.469  0.00  0.00    -0.057 C 
ATOM     40  H21 GA4 d   1      30.476  43.118  10.563  0.00  0.00     0.029 H 
ATOM     41  H22 GA4 d   1      30.741  42.281  12.130  0.00  0.00     0.029 H 
ATOM     42  H23 GA4 d   1      32.145  42.889  11.188  0.00  0.00     0.029 H 
ENDBRANCH   4  39
BRANCH   3  43
ATOM     43  O31 GA4 d   1      29.031  43.848  13.519  0.00  0.00    -0.394 OA
ATOM     44  H6  GA4 d   1      29.104  42.977  13.146  0.00  0.00     0.210 HD
ENDBRANCH   3  43
BRANCH   6  45
ATOM     45  C7  GA4 d   1      33.556  42.640  13.731  0.00  0.00     0.178 C 
ATOM     46  O71 GA4 d   1      32.936  41.978  14.606  0.00  0.00    -0.648 OA
ATOM     47  O72 GA4 d   1      34.398  42.130  12.997  0.00  0.00    -0.648 OA
ENDBRANCH   6  45
TORSDOF 3
