REMARK  3 active torsions:
REMARK  status: ('A' for Active; 'I' for Inactive)
REMARK    1  A    between atoms: C1'_19  and  C2_1 
REMARK    2  A    between atoms: C6_5  and  O5_12 
REMARK    3  A    between atoms: C8_7  and  O7_13 
ROOT
ATOM      1  C2  57D d   1      38.008  34.818  29.228  0.00  0.00     0.090 A 
ATOM      2  C3  57D d   1      37.126  34.262  30.162  0.00  0.00    -0.000 A 
ATOM      3  C4  57D d   1      36.925  34.899  31.389  0.00  0.00     0.190 A 
ATOM      4  C5  57D d   1      37.628  36.080  31.663  0.00  0.00     0.081 A 
ATOM      5  C6  57D d   1      37.532  36.736  32.895  0.00  0.00     0.085 A 
ATOM      6  C7  57D d   1      38.263  37.900  33.125  0.00  0.00    -0.018 A 
ATOM      7  C8  57D d   1      39.107  38.405  32.141  0.00  0.00     0.071 A 
ATOM      8  C9  57D d   1      39.226  37.752  30.925  0.00  0.00    -0.017 A 
ATOM      9  C10 57D d   1      38.493  36.589  30.690  0.00  0.00     0.095 A 
ATOM     10  O1  57D d   1      38.666  35.986  29.487  0.00  0.00    -0.309 OA
ATOM     11  O4  57D d   1      36.145  34.418  32.216  0.00  0.00    -0.287 OA
ATOM     12  H1  57D d   1      36.599  33.337  29.933  0.00  0.00     0.094 H 
ATOM     13  H2  57D d   1      38.174  38.414  34.075  0.00  0.00     0.092 H 
ATOM     14  H3  57D d   1      39.886  38.143  30.159  0.00  0.00     0.092 H 
ENDROOT
BRANCH   1  15
ATOM     15  C1' 57D d   1      38.277  34.231  27.991  0.00  0.00    -0.002 A 
ATOM     16  C2' 57D d   1      38.683  35.041  26.923  0.00  0.00    -0.070 A 
ATOM     17  C3' 57D d   1      38.982  34.475  25.686  0.00  0.00    -0.082 A 
ATOM     18  H6  57D d   1      38.765  36.113  27.060  0.00  0.00     0.084 H 
ATOM     19  C4' 57D d   1      38.889  33.096  25.512  0.00  0.00    -0.083 A 
ATOM     20  H7  57D d   1      39.287  35.107  24.860  0.00  0.00     0.083 H 
ATOM     21  C5' 57D d   1      38.496  32.282  26.576  0.00  0.00    -0.082 A 
ATOM     22  H8  57D d   1      39.122  32.655  24.550  0.00  0.00     0.083 H 
ATOM     23  C6' 57D d   1      38.201  32.846  27.816  0.00  0.00    -0.070 A 
ATOM     24  H9  57D d   1      38.420  31.210  26.438  0.00  0.00     0.083 H 
ATOM     25  H10 57D d   1      37.912  32.210  28.645  0.00  0.00     0.084 H 
ENDBRANCH   1  15
BRANCH   5  26
ATOM     26  O5  57D d   1      36.719  36.281  33.890  0.00  0.00    -0.360 OA
ATOM     27  H4  57D d   1      36.283  35.487  33.603  0.00  0.00     0.217 HD
ENDBRANCH   5  26
BRANCH   7  28
ATOM     28  O7  57D d   1      39.820  39.538  32.369  0.00  0.00    -0.361 OA
ATOM     29  H5  57D d   1      39.581  40.196  31.727  0.00  0.00     0.217 HD
ENDBRANCH   7  28
TORSDOF 3
