REMARK  4 active torsions:
REMARK  status: ('A' for Active; 'I' for Inactive)
REMARK    1  A    between atoms: C1_1  and  O1_2 
REMARK    2  A    between atoms: C3_4  and  O3_5 
REMARK    3  A    between atoms: C9_12  and  C10_13 
REMARK    4  A    between atoms: C17_15  and  O17_16 
ROOT
ATOM      1  C1  EMO d   1     -51.574 -14.915 -11.127  0.00  0.00     0.083 A 
ATOM      2  C2  EMO d   1     -50.530 -15.812 -11.279  0.00  0.00    -0.018 A 
ATOM      3  C3  EMO d   1     -50.768 -17.063 -11.814  0.00  0.00     0.069 A 
ATOM      4  C4  EMO d   1     -52.055 -17.418 -12.193  0.00  0.00    -0.036 A 
ATOM      5  C5  EMO d   1     -53.109 -16.522 -12.044  0.00  0.00     0.035 A 
ATOM      6  C6  EMO d   1     -54.403 -16.868 -12.412  0.00  0.00     0.194 A 
ATOM      7  O6  EMO d   1     -54.628 -17.980 -12.885  0.00  0.00    -0.287 OA
ATOM      8  C7  EMO d   1     -55.445 -15.962 -12.249  0.00  0.00     0.032 A 
ATOM      9  C8  EMO d   1     -56.736 -16.308 -12.613  0.00  0.00    -0.062 A 
ATOM     10  C9  EMO d   1     -57.781 -15.410 -12.463  0.00  0.00    -0.058 A 
ATOM     11  C16 EMO d   1     -57.550 -14.151 -11.946  0.00  0.00    -0.044 A 
ATOM     12  C17 EMO d   1     -56.259 -13.808 -11.573  0.00  0.00     0.081 A 
ATOM     13  C18 EMO d   1     -55.203 -14.709 -11.724  0.00  0.00     0.062 A 
ATOM     14  C19 EMO d   1     -53.908 -14.375 -11.362  0.00  0.00     0.199 A 
ATOM     15  O19 EMO d   1     -53.655 -13.277 -10.887  0.00  0.00    -0.286 OA
ATOM     16  C20 EMO d   1     -52.867 -15.271 -11.514  0.00  0.00     0.062 A 
ATOM     17  H2  EMO d   1     -49.527 -15.533 -10.978  0.00  0.00     0.092 H 
ATOM     18  H4  EMO d   1     -52.241 -18.402 -12.609  0.00  0.00     0.089 H 
ATOM     19  H5  EMO d   1     -56.931 -17.293 -13.020  0.00  0.00     0.085 H 
ATOM     20  H9  EMO d   1     -58.363 -13.443 -11.834  0.00  0.00     0.088 H 
ENDROOT
BRANCH  10  21
ATOM     21  C10 EMO d   1     -59.186 -15.824 -12.879  0.00  0.00    -0.051 C 
ATOM     22  H6  EMO d   1     -59.883 -14.994 -12.691  0.00  0.00     0.033 H 
ATOM     23  H7  EMO d   1     -59.497 -16.703 -12.296  0.00  0.00     0.033 H 
ATOM     24  H8  EMO d   1     -59.193 -16.073 -13.950  0.00  0.00     0.033 H 
ENDBRANCH  10  21
BRANCH  12  25
ATOM     25  O17 EMO d   1     -56.033 -12.576 -11.054  0.00  0.00    -0.360 OA
ATOM     26  H10 EMO d   1     -55.110 -12.485 -10.847  0.00  0.00     0.217 HD
ENDBRANCH  12  25
BRANCH   3  27
ATOM     27  O3  EMO d   1     -49.746 -17.939 -11.968  0.00  0.00    -0.361 OA
ATOM     28  H3  EMO d   1     -49.092 -17.562 -12.545  0.00  0.00     0.217 HD
ENDBRANCH   3  27
BRANCH   1  29
ATOM     29  O1  EMO d   1     -51.336 -13.682 -10.610  0.00  0.00    -0.360 OA
ATOM     30  H1  EMO d   1     -52.150 -13.193 -10.572  0.00  0.00     0.217 HD
ENDBRANCH   1  29
TORSDOF 4
