REMARK  12 active torsions:
REMARK  status: ('A' for Active; 'I' for Inactive)
REMARK    1  A    between atoms: C1_1  and  O11_7 
REMARK    2  A    between atoms: C2_2  and  O12_12 
REMARK    3  A    between atoms: C3_3  and  O13_17 
REMARK    4  A    between atoms: C4_4  and  O14_22 
REMARK    5  A    between atoms: C5_5  and  O15_27 
REMARK    6  A    between atoms: C6_6  and  O16_32 
REMARK    7  A    between atoms: O11_7  and  P1_8 
REMARK    8  A    between atoms: O12_12  and  P2_13 
REMARK    9  A    between atoms: O13_17  and  P3_18 
REMARK   10  A    between atoms: O14_22  and  P4_23 
REMARK   11  A    between atoms: O15_27  and  P5_28 
REMARK   12  A    between atoms: O16_32  and  P6_33 
ROOT
ATOM      1  C1  IHP d   1     -49.031  -2.385   4.038  0.00  0.00     0.107 C 
ATOM      2  C2  IHP d   1     -47.750  -2.420   4.856  0.00  0.00     0.107 C 
ATOM      3  C3  IHP d   1     -46.910  -3.617   4.439  0.00  0.00     0.107 C 
ATOM      4  C4  IHP d   1     -46.593  -3.590   2.933  0.00  0.00     0.107 C 
ATOM      5  C5  IHP d   1     -47.915  -3.564   2.159  0.00  0.00     0.107 C 
ATOM      6  C6  IHP d   1     -48.709  -2.320   2.550  0.00  0.00     0.107 C 
ATOM      7  H1  IHP d   1     -49.621  -3.290   4.245  0.00  0.00     0.092 H 
ATOM      8  H2  IHP d   1     -47.999  -2.494   5.925  0.00  0.00     0.092 H 
ATOM      9  H3  IHP d   1     -47.486  -4.532   4.643  0.00  0.00     0.092 H 
ATOM     10  H4  IHP d   1     -46.017  -2.685   2.690  0.00  0.00     0.092 H 
ATOM     11  H5  IHP d   1     -48.492  -4.460   2.430  0.00  0.00     0.092 H 
ATOM     12  H6  IHP d   1     -48.090  -1.432   2.355  0.00  0.00     0.092 H 
ENDROOT
BRANCH   1  13
ATOM     13  O11 IHP d   1     -49.778  -1.237   4.395  0.00  0.00    -0.272 OA
BRANCH  13  14
ATOM     14  P1  IHP d   1     -51.069  -1.307   5.370  0.00  0.00     0.422 P 
ATOM     15  O21 IHP d   1     -51.649   0.070   5.162  0.00  0.00    -0.617 OA
ATOM     16  O31 IHP d   1     -50.494  -1.566   6.727  0.00  0.00    -0.617 OA
ATOM     17  O41 IHP d   1     -51.924  -2.433   4.863  0.00  0.00    -0.617 OA
ENDBRANCH  13  14
ENDBRANCH   1  13
BRANCH   2  18
ATOM     18  O12 IHP d   1     -46.997  -1.240   4.620  0.00  0.00    -0.272 OA
BRANCH  18  19
ATOM     19  P2  IHP d   1     -46.762  -0.124   5.761  0.00  0.00     0.422 P 
ATOM     20  O22 IHP d   1     -46.565   1.114   4.941  0.00  0.00    -0.617 OA
ATOM     21  O32 IHP d   1     -48.049  -0.150   6.544  0.00  0.00    -0.617 OA
ATOM     22  O42 IHP d   1     -45.584  -0.579   6.581  0.00  0.00    -0.617 OA
ENDBRANCH  18  19
ENDBRANCH   2  18
BRANCH   6  23
ATOM     23  O16 IHP d   1     -49.920  -2.203   1.798  0.00  0.00    -0.272 OA
BRANCH  23  24
ATOM     24  P6  IHP d   1     -50.214  -0.949   0.819  0.00  0.00     0.422 P 
ATOM     25  O26 IHP d   1     -49.723  -1.330  -0.552  0.00  0.00    -0.617 OA
ATOM     26  O36 IHP d   1     -51.722  -0.814   0.879  0.00  0.00    -0.617 OA
ATOM     27  O46 IHP d   1     -49.443   0.212   1.392  0.00  0.00    -0.617 OA
ENDBRANCH  23  24
ENDBRANCH   6  23
BRANCH   3  28
ATOM     28  O13 IHP d   1     -45.734  -3.646   5.234  0.00  0.00    -0.272 OA
BRANCH  28  29
ATOM     29  P3  IHP d   1     -45.310  -4.980   6.021  0.00  0.00     0.422 P 
ATOM     30  O23 IHP d   1     -43.901  -5.254   5.540  0.00  0.00    -0.617 OA
ATOM     31  O33 IHP d   1     -46.353  -5.989   5.582  0.00  0.00    -0.617 OA
ATOM     32  O43 IHP d   1     -45.330  -4.588   7.476  0.00  0.00    -0.617 OA
ENDBRANCH  28  29
ENDBRANCH   3  28
BRANCH   5  33
ATOM     33  O15 IHP d   1     -47.730  -3.557   0.745  0.00  0.00    -0.272 OA
BRANCH  33  34
ATOM     34  P5  IHP d   1     -48.470  -4.597  -0.231  0.00  0.00     0.422 P 
ATOM     35  O25 IHP d   1     -48.933  -5.698   0.685  0.00  0.00    -0.617 OA
ATOM     36  O35 IHP d   1     -49.601  -3.883  -0.917  0.00  0.00    -0.617 OA
ATOM     37  O45 IHP d   1     -47.337  -5.009  -1.148  0.00  0.00    -0.617 OA
ENDBRANCH  33  34
ENDBRANCH   5  33
BRANCH   4  38
ATOM     38  O14 IHP d   1     -45.811  -4.740   2.615  0.00  0.00    -0.272 OA
BRANCH  38  39
ATOM     39  P4  IHP d   1     -44.281  -4.657   2.106  0.00  0.00     0.422 P 
ATOM     40  O24 IHP d   1     -43.493  -4.203   3.306  0.00  0.00    -0.617 OA
ATOM     41  O34 IHP d   1     -43.955  -6.063   1.645  0.00  0.00    -0.617 OA
ATOM     42  O44 IHP d   1     -44.327  -3.696   0.925  0.00  0.00    -0.617 OA
ENDBRANCH  38  39
ENDBRANCH   4  38
TORSDOF 12
