REMARK  10 active torsions:
REMARK  status: ('A' for Active; 'I' for Inactive)
REMARK    1  A    between atoms: CAR_2  and  CAS_3 
REMARK    2  A    between atoms: CAR_2  and  CAH_4 
REMARK    3  A    between atoms: NAX_5  and  OAY_6 
REMARK    4  A    between atoms: CAW_7  and  CAV_8 
REMARK    5  A    between atoms: CAW_7  and  CAZ_9 
REMARK    6  A    between atoms: CAP_11  and  NAO_12 
REMARK    7  A    between atoms: NAO_12  and  CAN_13 
REMARK    8  A    between atoms: NAM_15  and  CAL_16 
REMARK    9  A    between atoms: CAD_22  and  SAC_23 
REMARK   10  A    between atoms: SAC_23  and  NAB_26 
ROOT
ATOM      1  CAQ 3BS d   1      -2.449   9.492  12.111  0.00  0.00    -0.009 C 
ATOM      2  CAR 3BS d   1      -1.685  10.744  12.547  0.00  0.00     0.163 C 
ATOM      3  NAX 3BS d   1      -0.271  10.593  12.173  0.00  0.00    -0.046 N 
ATOM      4  CAW 3BS d   1       0.331   9.471  12.909  0.00  0.00     0.163 C 
ATOM      5  CAU 3BS d   1      -0.362   8.174  12.487  0.00  0.00    -0.009 C 
ATOM      6  CAP 3BS d   1      -1.855   8.265  12.806  0.00  0.00     0.017 C 
ATOM      7  H1  3BS d   1      -2.365   9.372  11.021  0.00  0.00     0.040 H 
ATOM      8  H2  3BS d   1      -3.509   9.594  12.389  0.00  0.00     0.040 H 
ATOM      9  H9  3BS d   1       0.224  11.441  12.400  0.00  0.00     0.346 HD
ATOM     10  H17 3BS d   1       0.079   7.328  13.035  0.00  0.00     0.040 H 
ATOM     11  H18 3BS d   1      -0.227   8.021  11.406  0.00  0.00     0.040 H 
ATOM     12  H19 3BS d   1      -1.993   8.357  13.893  0.00  0.00     0.072 H 
ENDROOT
BRANCH   6  13
ATOM     13  NAO 3BS d   1      -2.535   7.053  12.327  0.00  0.00    -0.362 N 
ATOM     14  H20 3BS d   1      -2.635   6.890  11.345  0.00  0.00     0.162 HD
BRANCH  13  15
ATOM     15  CAN 3BS d   1      -3.017   6.173  13.200  0.00  0.00     0.172 C 
ATOM     16  SAT 3BS d   1      -2.845   6.454  14.888  0.00  0.00    -0.041 SA
ATOM     17  NAM 3BS d   1      -3.632   5.076  12.768  0.00  0.00    -0.332 N 
ATOM     18  H21 3BS d   1      -3.733   4.913  11.787  0.00  0.00     0.168 HD
BRANCH  17  19
ATOM     19  CAL 3BS d   1      -4.113   4.196  13.642  0.00  0.00     0.056 A 
ATOM     20  CAF 3BS d   1      -5.407   4.338  14.130  0.00  0.00     0.062 A 
ATOM     21  CAE 3BS d   1      -5.911   3.420  15.043  0.00  0.00    -0.037 A 
ATOM     22 CLAG 3BS d   1      -6.391   5.659  13.600  0.00  0.00    -0.082 Cl
ATOM     23  CAD 3BS d   1      -5.120   2.359  15.469  0.00  0.00     0.081 A 
ATOM     24  H22 3BS d   1      -6.920   3.531  15.423  0.00  0.00     0.088 H 
ATOM     25  CAJ 3BS d   1      -3.826   2.217  14.982  0.00  0.00    -0.058 A 
ATOM     26  CAK 3BS d   1      -3.323   3.136  14.068  0.00  0.00    -0.054 A 
ATOM     27  H24 3BS d   1      -3.209   1.390  15.315  0.00  0.00     0.086 H 
ATOM     28  H23 3BS d   1      -2.314   3.025  13.688  0.00  0.00     0.087 H 
BRANCH  23  29
ATOM     29  SAC 3BS d   1      -5.753   1.202  16.619  0.00  0.00     0.256 S 
ATOM     30  OAI 3BS d   1      -7.252   1.257  16.610  0.00  0.00    -0.201 OA
ATOM     31  OAA 3BS d   1      -5.249   1.534  17.992  0.00  0.00    -0.201 OA
BRANCH  29  32
ATOM     32  NAB 3BS d   1      -5.262  -0.297  16.209  0.00  0.00    -0.324 N 
ATOM     33  H25 3BS d   1      -5.536  -1.082  16.764  0.00  0.00     0.169 HD
ATOM     34  H26 3BS d   1      -4.687  -0.431  15.402  0.00  0.00     0.169 HD
ENDBRANCH  29  32
ENDBRANCH  23  29
ENDBRANCH  17  19
ENDBRANCH  13  15
ENDBRANCH   6  13
BRANCH   2  35
ATOM     35  CAS 3BS d   1      -1.780  10.920  14.064  0.00  0.00    -0.039 C 
ATOM     36  H3  3BS d   1      -1.227  11.823  14.364  0.00  0.00     0.031 H 
ATOM     37  H4  3BS d   1      -1.345  10.041  14.563  0.00  0.00     0.031 H 
ATOM     38  H5  3BS d   1      -2.836  11.023  14.356  0.00  0.00     0.031 H 
ENDBRANCH   2  35
BRANCH   2  39
ATOM     39  CAH 3BS d   1      -2.249  11.977  11.838  0.00  0.00    -0.039 C 
ATOM     40  H6  3BS d   1      -2.176  11.839  10.749  0.00  0.00     0.031 H 
ATOM     41  H7  3BS d   1      -1.673  12.866  12.135  0.00  0.00     0.031 H 
ATOM     42  H8  3BS d   1      -3.304  12.112  12.120  0.00  0.00     0.031 H 
ENDBRANCH   2  39
BRANCH   4  43
ATOM     43  CAV 3BS d   1       0.143   9.706  14.410  0.00  0.00    -0.039 C 
ATOM     44  H11 3BS d   1       0.590   8.872  14.970  0.00  0.00     0.031 H 
ATOM     45  H12 3BS d   1      -0.931   9.768  14.640  0.00  0.00     0.031 H 
ATOM     46  H13 3BS d   1       0.635  10.647  14.698  0.00  0.00     0.031 H 
ENDBRANCH   4  43
BRANCH   4  47
ATOM     47  CAZ 3BS d   1       1.821   9.406  12.570  0.00  0.00    -0.039 C 
ATOM     48  H14 3BS d   1       2.285   8.570  13.114  0.00  0.00     0.031 H 
ATOM     49  H15 3BS d   1       2.305  10.349  12.864  0.00  0.00     0.031 H 
ATOM     50  H16 3BS d   1       1.944   9.252  11.488  0.00  0.00     0.031 H 
ENDBRANCH   4  47
BRANCH   3  51
ATOM     51  OAY 3BS d   1      -0.170  10.344  10.738  0.00  0.00    -0.196 OA
ATOM     52  H10 3BS d   1       0.744  10.247  10.498  0.00  0.00     0.257 HD
ENDBRANCH   3  51
TORSDOF 10
