REMARK  12 active torsions:
REMARK  status: ('A' for Active; 'I' for Inactive)
REMARK    1  A    between atoms: P1_2  and  C1_5 
REMARK    2  A    between atoms: C1_5  and  P2_6 
REMARK    3  A    between atoms: C1_5  and  C2_10 
REMARK    4  A    between atoms: C2_10  and  N1_11 
REMARK    5  A    between atoms: C6_13  and  O7_17 
REMARK    6  A    between atoms: O7_17  and  C8_18 
REMARK    7  A    between atoms: C8_18  and  C9_19 
REMARK    8  A    between atoms: C9_19  and  C10_20 
REMARK    9  A    between atoms: C10_20  and  C11_21 
REMARK   10  A    between atoms: C11_21  and  C12_22 
REMARK   11  A    between atoms: C12_22  and  C13_23 
REMARK   12  A    between atoms: C13_23  and  C14_24 
ROOT
ATOM      1  N1  722 d   1      28.327 -15.648  11.223  0.00  0.00    -0.362 N 
ATOM      2  C7  722 d   1      28.279 -16.910  11.654  0.00  0.00     0.011 A 
ATOM      3  C6  722 d   1      28.830 -17.283  12.867  0.00  0.00     0.084 A 
ATOM      4  C5  722 d   1      29.476 -16.319  13.651  0.00  0.00    -0.048 A 
ATOM      5  C4  722 d   1      29.533 -15.009  13.185  0.00  0.00    -0.065 A 
ATOM      6  C3  722 d   1      28.954 -14.703  11.944  0.00  0.00    -0.021 A 
ATOM      7  H4  722 d   1      27.797 -17.661  11.039  0.00  0.00     0.115 H 
ATOM      8  H5  722 d   1      29.922 -16.588  14.601  0.00  0.00     0.087 H 
ATOM      9  H6  722 d   1      30.017 -14.237  13.772  0.00  0.00     0.085 H 
ATOM     10  H7  722 d   1      29.013 -13.690  11.562  0.00  0.00     0.111 H 
ENDROOT
BRANCH   3  11
ATOM     11  O7  722 d   1      28.726 -18.597  13.227  0.00  0.00    -0.350 OA
BRANCH  11  12
ATOM     12  C8  722 d   1      29.309 -19.057  14.448  0.00  0.00     0.026 C 
ATOM     13  H8  722 d   1      28.913 -18.459  15.282  0.00  0.00     0.075 H 
ATOM     14  H9  722 d   1      30.401 -18.933  14.393  0.00  0.00     0.075 H 
BRANCH  12  15
ATOM     15  C9  722 d   1      28.990 -20.518  14.693  0.00  0.00    -0.045 C 
ATOM     16  H10 722 d   1      29.280 -21.123  13.821  0.00  0.00     0.036 H 
ATOM     17  H11 722 d   1      27.915 -20.646  14.887  0.00  0.00     0.036 H 
BRANCH  15  18
ATOM     18  C10 722 d   1      29.809 -20.936  15.930  0.00  0.00    -0.063 C 
ATOM     19  H12 722 d   1      29.711 -20.158  16.701  0.00  0.00     0.033 H 
ATOM     20  H13 722 d   1      30.866 -21.034  15.640  0.00  0.00     0.033 H 
BRANCH  18  21
ATOM     21  C11 722 d   1      29.334 -22.257  16.504  0.00  0.00    -0.065 C 
ATOM     22  H14 722 d   1      28.369 -22.096  17.006  0.00  0.00     0.033 H 
ATOM     23  H15 722 d   1      30.075 -22.609  17.238  0.00  0.00     0.033 H 
BRANCH  21  24
ATOM     24  C12 722 d   1      29.157 -23.324  15.445  0.00  0.00    -0.065 C 
ATOM     25  H16 722 d   1      29.947 -24.081  15.552  0.00  0.00     0.033 H 
ATOM     26  H17 722 d   1      29.222 -22.865  14.448  0.00  0.00     0.033 H 
BRANCH  24  27
ATOM     27  C13 722 d   1      27.801 -23.982  15.610  0.00  0.00    -0.069 C 
ATOM     28  H18 722 d   1      27.144 -23.642  14.796  0.00  0.00     0.032 H 
ATOM     29  H19 722 d   1      27.376 -23.674  16.577  0.00  0.00     0.032 H 
BRANCH  27  30
ATOM     30  C14 722 d   1      27.876 -25.491  15.573  0.00  0.00    -0.077 C 
ATOM     31  H20 722 d   1      26.867 -25.911  15.697  0.00  0.00     0.027 H 
ATOM     32  H21 722 d   1      28.524 -25.846  16.388  0.00  0.00     0.027 H 
ATOM     33  H22 722 d   1      28.291 -25.814  14.607  0.00  0.00     0.027 H 
ENDBRANCH  27  30
ENDBRANCH  24  27
ENDBRANCH  21  24
ENDBRANCH  18  21
ENDBRANCH  15  18
ENDBRANCH  12  15
ENDBRANCH  11  12
ENDBRANCH   3  11
BRANCH   1  34
ATOM     34  C2  722 d   1      27.706 -15.415   9.914  0.00  0.00     0.026 C 
ATOM     35  H2  722 d   1      28.496 -15.466   9.150  0.00  0.00     0.067 H 
ATOM     36  H3  722 d   1      26.974 -16.217   9.738  0.00  0.00     0.067 H 
BRANCH  34  37
ATOM     37  C1  722 d   1      26.990 -14.085   9.760  0.00  0.00     0.177 C 
ATOM     38  H1  722 d   1      27.698 -13.252   9.883  0.00  0.00     0.086 H 
BRANCH  37  39
ATOM     39  P1  722 d   1      26.316 -14.117   8.063  0.00  0.00     0.279 P 
ATOM     40  O1  722 d   1      25.467 -12.596   7.898  0.00  0.00    -0.639 OA
ATOM     41  O3  722 d   1      25.169 -15.453   8.076  0.00  0.00    -0.639 OA
ATOM     42  O2  722 d   1      27.755 -14.261   7.048  0.00  0.00    -0.639 OA
ENDBRANCH  37  39
BRANCH  37  43
ATOM     43  P2  722 d   1      25.635 -13.907  10.957  0.00  0.00     0.279 P 
ATOM     44  O4  722 d   1      24.594 -12.547  10.445  0.00  0.00    -0.639 OA
ATOM     45  O5  722 d   1      26.178 -13.701  12.622  0.00  0.00    -0.639 OA
ATOM     46  O6  722 d   1      24.633 -15.348  11.035  0.00  0.00    -0.639 OA
ENDBRANCH  37  43
ENDBRANCH  34  37
ENDBRANCH   1  34
TORSDOF 12
