REMARK  9 active torsions:
REMARK  status: ('A' for Active; 'I' for Inactive)
REMARK    1  A    between atoms: C15_2  and  C17_4 
REMARK    2  A    between atoms: C17_4  and  C16_5 
REMARK    3  A    between atoms: C17_4  and  N1_9 
REMARK    4  A    between atoms: C16_5  and  C14_6 
REMARK    5  A    between atoms: C14_6  and  C18_7 
REMARK    6  A    between atoms: C14_6  and  C13_8 
REMARK    7  A    between atoms: N1_9  and  S1_10 
REMARK    8  A    between atoms: S1_10  and  C7_13 
REMARK    9  A    between atoms: C1_18  and  C2_19 
ROOT
ATOM      1  S1  BDL d   1      -0.634  -5.094  -4.883  0.00  0.00     0.259 S 
ATOM      2  O1  BDL d   1       0.483  -5.378  -5.760  0.00  0.00    -0.201 OA
ATOM      3  O2  BDL d   1      -0.714  -5.923  -3.708  0.00  0.00    -0.201 OA
ENDROOT
BRANCH   1   4
ATOM      4  N1  BDL d   1      -0.304  -3.724  -4.058  0.00  0.00    -0.300 N 
ATOM      5  H11 BDL d   1       0.141  -3.919  -3.184  0.00  0.00     0.173 HD
BRANCH   4   6
ATOM      6  C17 BDL d   1      -0.483  -2.322  -4.256  0.00  0.00     0.104 C 
ATOM      7  H1  BDL d   1       0.190  -2.006  -5.067  0.00  0.00     0.090 H 
BRANCH   6   8
ATOM      8  C15 BDL d   1      -1.868  -1.968  -4.653  0.00  0.00     0.197 C 
ATOM      9  O4  BDL d   1      -2.047  -1.551  -5.762  0.00  0.00    -0.646 OA
ATOM     10  O3  BDL d   1      -2.871  -2.068  -3.817  0.00  0.00    -0.646 OA
ENDBRANCH   6   8
BRANCH   6  11
ATOM     11  C16 BDL d   1      -0.092  -1.577  -2.989  0.00  0.00    -0.034 C 
ATOM     12  H2  BDL d   1      -0.816  -1.796  -2.191  0.00  0.00     0.037 H 
ATOM     13  H3  BDL d   1      -0.077  -0.494  -3.184  0.00  0.00     0.037 H 
BRANCH  11  14
ATOM     14  C14 BDL d   1       1.303  -2.045  -2.565  0.00  0.00    -0.059 C 
ATOM     15  H4  BDL d   1       1.598  -2.848  -3.256  0.00  0.00     0.039 H 
BRANCH  14  16
ATOM     16  C18 BDL d   1       2.379  -0.959  -2.638  0.00  0.00    -0.073 C 
ATOM     17  H5  BDL d   1       3.345  -1.378  -2.318  0.00  0.00     0.028 H 
ATOM     18  H6  BDL d   1       2.104  -0.125  -1.976  0.00  0.00     0.028 H 
ATOM     19  H7  BDL d   1       2.462  -0.594  -3.672  0.00  0.00     0.028 H 
ENDBRANCH  14  16
BRANCH  14  20
ATOM     20  C13 BDL d   1       1.274  -2.623  -1.147  0.00  0.00    -0.073 C 
ATOM     21  H8  BDL d   1       0.503  -3.405  -1.085  0.00  0.00     0.028 H 
ATOM     22  H9  BDL d   1       1.042  -1.822  -0.429  0.00  0.00     0.028 H 
ATOM     23  H10 BDL d   1       2.256  -3.057  -0.908  0.00  0.00     0.028 H 
ENDBRANCH  14  20
ENDBRANCH  11  14
ENDBRANCH   6  11
ENDBRANCH   4   6
ENDBRANCH   1   4
BRANCH   1  24
ATOM     24  C7  BDL d   1      -2.019  -5.346  -5.664  0.00  0.00     0.079 A 
ATOM     25  C5  BDL d   1      -2.079  -5.395  -7.052  0.00  0.00    -0.059 A 
ATOM     26  C3  BDL d   1      -3.265  -5.705  -7.702  0.00  0.00    -0.071 A 
ATOM     27  H12 BDL d   1      -1.188  -5.188  -7.634  0.00  0.00     0.085 H 
ATOM     28  C1  BDL d   1      -4.427  -5.937  -6.969  0.00  0.00    -0.026 A 
ATOM     29  H13 BDL d   1      -3.288  -5.767  -8.784  0.00  0.00     0.084 H 
ATOM     30  C4  BDL d   1      -4.356  -5.896  -5.574  0.00  0.00    -0.071 A 
ATOM     31  C6  BDL d   1      -3.159  -5.618  -4.919  0.00  0.00    -0.059 A 
ATOM     32  H15 BDL d   1      -5.250  -6.084  -4.990  0.00  0.00     0.084 H 
ATOM     33  H14 BDL d   1      -3.117  -5.614  -3.836  0.00  0.00     0.085 H 
BRANCH  28  34
ATOM     34  C2  BDL d   1      -5.691  -6.316  -7.647  0.00  0.00    -0.026 A 
ATOM     35  C9  BDL d   1      -6.814  -6.645  -6.880  0.00  0.00    -0.072 A 
ATOM     36  C12 BDL d   1      -7.983  -7.045  -7.494  0.00  0.00    -0.082 A 
ATOM     37  H16 BDL d   1      -6.765  -6.585  -5.799  0.00  0.00     0.084 H 
ATOM     38  C11 BDL d   1      -8.028  -7.181  -8.882  0.00  0.00    -0.083 A 
ATOM     39  H17 BDL d   1      -8.865  -7.253  -6.899  0.00  0.00     0.083 H 
ATOM     40  C10 BDL d   1      -6.910  -6.904  -9.656  0.00  0.00    -0.082 A 
ATOM     41  H18 BDL d   1      -8.945  -7.506  -9.360  0.00  0.00     0.083 H 
ATOM     42  C8  BDL d   1      -5.746  -6.495  -9.029  0.00  0.00    -0.072 A 
ATOM     43  H19 BDL d   1      -6.948  -7.006 -10.735  0.00  0.00     0.083 H 
ATOM     44  H20 BDL d   1      -4.859  -6.310  -9.624  0.00  0.00     0.084 H 
ENDBRANCH  28  34
ENDBRANCH   1  24
TORSDOF 9
