REMARK  6 active torsions:
REMARK  status: ('A' for Active; 'I' for Inactive)
REMARK    1  A    between atoms: C10_2  and  C11_3 
REMARK    2  A    between atoms: C10_2  and  C9_9 
REMARK    3  A    between atoms: C9_9  and  C5_10 
REMARK    4  A    between atoms: C8_13  and  O8_14 
REMARK    5  A    between atoms: C1_16  and  O1_17 
REMARK    6  A    between atoms: C2_20  and  O2_21 
ROOT
ATOM      1  C5  HN2 d   1      29.437  65.360   8.119  0.00  0.00     0.111 C 
ATOM      2  C6  HN2 d   1      29.254  65.226   6.598  0.00  0.00    -0.035 C 
ATOM      3  C7  HN2 d   1      29.761  66.463   5.842  0.00  0.00    -0.037 C 
ATOM      4  C8  HN2 d   1      31.237  66.728   6.122  0.00  0.00     0.066 C 
ATOM      5  C8A HN2 d   1      31.443  66.822   7.629  0.00  0.00     0.155 C 
ATOM      6  C1  HN2 d   1      32.891  66.878   8.116  0.00  0.00     0.092 C 
ATOM      7  N4  HN2 d   1      30.895  65.635   8.319  0.00  0.00    -0.055 N 
ATOM      8  C3  HN2 d   1      31.351  65.812   9.725  0.00  0.00     0.110 C 
ATOM      9  C2  HN2 d   1      32.791  66.334   9.553  0.00  0.00     0.085 C 
ATOM     10  H8  HN2 d   1      29.195  64.396   8.590  0.00  0.00     0.085 H 
ATOM     11  H9  HN2 d   1      28.184  65.091   6.380  0.00  0.00     0.036 H 
ATOM     12  H10 HN2 d   1      29.813  64.345   6.250  0.00  0.00     0.036 H 
ATOM     13  H11 HN2 d   1      29.175  67.339   6.158  0.00  0.00     0.036 H 
ATOM     14  H12 HN2 d   1      29.626  66.301   4.762  0.00  0.00     0.036 H 
ATOM     15  H13 HN2 d   1      31.846  65.911   5.709  0.00  0.00     0.086 H 
ATOM     16  H15 HN2 d   1      30.920  67.727   7.973  0.00  0.00     0.093 H 
ATOM     17  H16 HN2 d   1      33.250  67.918   8.117  0.00  0.00     0.090 H 
ATOM     18  H18 HN2 d   1      31.366  64.825   7.948  0.00  0.00     0.281 HD
ATOM     19  H19 HN2 d   1      31.338  64.856  10.269  0.00  0.00     0.080 H 
ATOM     20  H20 HN2 d   1      30.725  66.544  10.256  0.00  0.00     0.080 H 
ATOM     21  H21 HN2 d   1      32.982  67.141  10.276  0.00  0.00     0.089 H 
ENDROOT
BRANCH   1  22
ATOM     22  C9  HN2 d   1      28.508  66.414   8.747  0.00  0.00     0.022 C 
ATOM     23  H6  HN2 d   1      28.867  66.635   9.763  0.00  0.00     0.048 H 
ATOM     24  H7  HN2 d   1      28.552  67.327   8.136  0.00  0.00     0.048 H 
BRANCH  22  25
ATOM     25  C10 HN2 d   1      27.059  65.960   8.834  0.00  0.00     0.161 C 
ATOM     26  O10 HN2 d   1      26.665  64.974   8.237  0.00  0.00    -0.292 OA
BRANCH  25  27
ATOM     27  C11 HN2 d   1      26.072  66.792   9.597  0.00  0.00     0.010 A 
ATOM     28  C16 HN2 d   1      24.731  66.386   9.610  0.00  0.00    -0.070 A 
ATOM     29  C15 HN2 d   1      23.782  67.152  10.296  0.00  0.00    -0.082 A 
ATOM     30  H1  HN2 d   1      24.430  65.483   9.091  0.00  0.00     0.085 H 
ATOM     31  C14 HN2 d   1      24.180  68.312  10.956  0.00  0.00    -0.083 A 
ATOM     32  H2  HN2 d   1      22.743  66.844  10.314  0.00  0.00     0.083 H 
ATOM     33  C13 HN2 d   1      25.515  68.739  10.930  0.00  0.00    -0.082 A 
ATOM     34  H3  HN2 d   1      23.445  68.895  11.499  0.00  0.00     0.083 H 
ATOM     35  C12 HN2 d   1      26.477  67.961  10.251  0.00  0.00    -0.070 A 
ATOM     36  H4  HN2 d   1      25.805  69.658  11.427  0.00  0.00     0.083 H 
ATOM     37  H5  HN2 d   1      27.517  68.265  10.236  0.00  0.00     0.085 H 
ENDBRANCH  25  27
ENDBRANCH  22  25
ENDBRANCH   1  22
BRANCH   4  38
ATOM     38  O8  HN2 d   1      31.627  67.965   5.535  0.00  0.00    -0.393 OA
ATOM     39  H14 HN2 d   1      32.547  68.123   5.713  0.00  0.00     0.210 HD
ENDBRANCH   4  38
BRANCH   6  40
ATOM     40  O1  HN2 d   1      33.810  66.068   7.321  0.00  0.00    -0.391 OA
ATOM     41  H17 HN2 d   1      33.536  65.159   7.351  0.00  0.00     0.210 HD
ENDBRANCH   6  40
BRANCH   9  42
ATOM     42  O2  HN2 d   1      33.765  65.282   9.752  0.00  0.00    -0.391 OA
ATOM     43  H22 HN2 d   1      34.639  65.636   9.639  0.00  0.00     0.210 HD
ENDBRANCH   9  42
TORSDOF 6
