REMARK  7 active torsions:
REMARK  status: ('A' for Active; 'I' for Inactive)
REMARK    1  A    between atoms: C10_2  and  C11_3 
REMARK    2  A    between atoms: C10_2  and  C9_10 
REMARK    3  A    between atoms: C14_6  and  C17_7 
REMARK    4  A    between atoms: C9_10  and  C5_11 
REMARK    5  A    between atoms: C8_14  and  O8_15 
REMARK    6  A    between atoms: C1_17  and  O1_18 
REMARK    7  A    between atoms: C2_21  and  O2_22 
ROOT
ATOM      1  C5  HN3 d   1      29.407  65.171   8.264  0.00  0.00     0.111 C 
ATOM      2  C6  HN3 d   1      29.192  65.048   6.748  0.00  0.00    -0.035 C 
ATOM      3  C7  HN3 d   1      29.685  66.306   6.017  0.00  0.00    -0.037 C 
ATOM      4  C8  HN3 d   1      31.166  66.564   6.325  0.00  0.00     0.066 C 
ATOM      5  C8A HN3 d   1      31.395  66.640   7.831  0.00  0.00     0.155 C 
ATOM      6  C1  HN3 d   1      32.847  66.687   8.316  0.00  0.00     0.092 C 
ATOM      7  N4  HN3 d   1      30.860  65.426   8.482  0.00  0.00    -0.055 N 
ATOM      8  C3  HN3 d   1      31.307  65.585   9.894  0.00  0.00     0.110 C 
ATOM      9  C2  HN3 d   1      32.744  66.119   9.733  0.00  0.00     0.085 C 
ATOM     10  H10 HN3 d   1      29.170  64.200   8.724  0.00  0.00     0.085 H 
ATOM     11  H11 HN3 d   1      28.119  64.913   6.547  0.00  0.00     0.036 H 
ATOM     12  H12 HN3 d   1      29.748  64.175   6.376  0.00  0.00     0.036 H 
ATOM     13  H13 HN3 d   1      29.091  67.171   6.346  0.00  0.00     0.036 H 
ATOM     14  H14 HN3 d   1      29.560  66.167   4.933  0.00  0.00     0.036 H 
ATOM     15  H15 HN3 d   1      31.771  65.747   5.905  0.00  0.00     0.086 H 
ATOM     16  H17 HN3 d   1      30.870  67.533   8.200  0.00  0.00     0.093 H 
ATOM     17  H18 HN3 d   1      33.212  67.725   8.328  0.00  0.00     0.090 H 
ATOM     18  H20 HN3 d   1      31.335  64.626   8.095  0.00  0.00     0.281 HD
ATOM     19  H21 HN3 d   1      31.299  64.621  10.424  0.00  0.00     0.080 H 
ATOM     20  H22 HN3 d   1      30.674  66.305  10.432  0.00  0.00     0.080 H 
ATOM     21  H23 HN3 d   1      32.948  66.905  10.475  0.00  0.00     0.089 H 
ENDROOT
BRANCH   1  22
ATOM     22  C9  HN3 d   1      28.451  66.202   8.899  0.00  0.00     0.022 C 
ATOM     23  H8  HN3 d   1      28.778  66.384   9.934  0.00  0.00     0.048 H 
ATOM     24  H9  HN3 d   1      28.520  67.137   8.323  0.00  0.00     0.048 H 
BRANCH  22  25
ATOM     25  C10 HN3 d   1      26.993  65.767   8.929  0.00  0.00     0.161 C 
ATOM     26  O10 HN3 d   1      26.620  64.743   8.360  0.00  0.00    -0.292 OA
BRANCH  25  27
ATOM     27  C11 HN3 d   1      25.987  66.623   9.677  0.00  0.00     0.010 A 
ATOM     28  C16 HN3 d   1      24.630  66.266   9.676  0.00  0.00    -0.069 A 
ATOM     29  C15 HN3 d   1      23.684  67.041  10.369  0.00  0.00    -0.076 A 
ATOM     30  H1  HN3 d   1      24.308  65.383   9.135  0.00  0.00     0.085 H 
ATOM     31  C14 HN3 d   1      24.085  68.192  11.051  0.00  0.00    -0.062 A 
ATOM     32  H2  HN3 d   1      22.641  66.745  10.374  0.00  0.00     0.084 H 
ATOM     33  C13 HN3 d   1      25.432  68.547  11.065  0.00  0.00    -0.076 A 
ATOM     34  C12 HN3 d   1      26.382  67.762  10.384  0.00  0.00    -0.069 A 
ATOM     35  H6  HN3 d   1      25.750  69.433  11.603  0.00  0.00     0.084 H 
ATOM     36  H7  HN3 d   1      27.428  68.043  10.408  0.00  0.00     0.085 H 
BRANCH  31  37
ATOM     37  C17 HN3 d   1      23.087  69.048  11.807  0.00  0.00    -0.051 C 
ATOM     38  H3  HN3 d   1      23.609  69.899  12.268  0.00  0.00     0.033 H 
ATOM     39  H4  HN3 d   1      22.606  68.445  12.591  0.00  0.00     0.033 H 
ATOM     40  H5  HN3 d   1      22.322  69.421  11.110  0.00  0.00     0.033 H 
ENDBRANCH  31  37
ENDBRANCH  25  27
ENDBRANCH  22  25
ENDBRANCH   1  22
BRANCH   4  41
ATOM     41  O8  HN3 d   1      31.561  67.800   5.742  0.00  0.00    -0.393 OA
ATOM     42  H16 HN3 d   1      32.478  67.960   5.933  0.00  0.00     0.210 HD
ENDBRANCH   4  41
BRANCH   6  43
ATOM     43  O1  HN3 d   1      33.755  65.878   7.532  0.00  0.00    -0.391 OA
ATOM     44  H19 HN3 d   1      33.477  64.970   7.564  0.00  0.00     0.210 HD
ENDBRANCH   6  43
BRANCH   9  45
ATOM     45  O2  HN3 d   1      33.673  65.042   9.900  0.00  0.00    -0.391 OA
ATOM     46  H24 HN3 d   1      34.559  65.371   9.801  0.00  0.00     0.210 HD
ENDBRANCH   9  45
TORSDOF 7
