REMARK  4 active torsions:
REMARK  status: ('A' for Active; 'I' for Inactive)
REMARK       I    between atoms: C2_12  and  N1_1 
REMARK    1  A    between atoms: C4_2  and  O3_16 
REMARK    2  A    between atoms: C1_9  and  C2_12 
REMARK    3  A    between atoms: C9_10  and  O4_14 
REMARK    4  A    between atoms: C3_11  and  O2_15 
ROOT
ATOM      1  C4  PYU d   1      15.075  -1.489  50.669  0.00  0.00     0.086 A 
ATOM      2  C5  PYU d   1      16.586   0.605  49.479  0.00  0.00    -0.018 A 
ATOM      3  C6  PYU d   1      14.547  -0.170  50.647  0.00  0.00    -0.018 A 
ATOM      4  C1  PYU d   1      16.358  -1.764  50.099  0.00  0.00     0.099 A 
ATOM      5  C9  PYU d   1      15.309   0.869  50.051  0.00  0.00     0.071 A 
ATOM      6  C3  PYU d   1      17.103  -0.716  49.508  0.00  0.00     0.086 A 
ATOM      7  H1  PYU d   1      17.158   1.406  49.025  0.00  0.00     0.092 H 
ATOM      8  H2  PYU d   1      13.575   0.040  51.080  0.00  0.00     0.092 H 
ENDROOT
BRANCH   4   9
ATOM      9  C2  PYU d   1      16.918  -3.133  50.125  0.00  0.00     0.267 C 
ATOM     10  N1  PYU d   1      17.330  -3.792  51.311  0.00  0.00    -0.299 N 
ATOM     11  C7  PYU d   1      17.858  -5.067  51.387  0.00  0.00    -0.012 A 
ATOM     12  C8  PYU d   1      17.288  -3.289  52.611  0.00  0.00    -0.012 A 
ATOM     13  C10 PYU d   1      18.138  -5.355  52.703  0.00  0.00    -0.066 A 
ATOM     14  H3  PYU d   1      18.025  -5.735  50.543  0.00  0.00     0.112 H 
ATOM     15  C11 PYU d   1      17.779  -4.234  53.471  0.00  0.00    -0.066 A 
ATOM     16  H5  PYU d   1      18.561  -6.284  53.081  0.00  0.00     0.085 H 
ATOM     17  H6  PYU d   1      17.874  -4.135  54.551  0.00  0.00     0.085 H 
ATOM     18  H4  PYU d   1      16.923  -2.303  52.896  0.00  0.00     0.112 H 
ATOM     19  O1  PYU d   1      17.040  -3.731  49.050  0.00  0.00    -0.267 OA
ENDBRANCH   4   9
BRANCH   1  20
ATOM     20  O3  PYU d   1      14.352  -2.501  51.245  0.00  0.00    -0.359 OA
ATOM     21  H9  PYU d   1      13.530  -2.155  51.573  0.00  0.00     0.217 HD
ENDBRANCH   1  20
BRANCH   6  22
ATOM     22  O2  PYU d   1      18.332  -0.927  48.950  0.00  0.00    -0.359 OA
ATOM     23  H8  PYU d   1      18.669  -0.107  48.608  0.00  0.00     0.217 HD
ENDBRANCH   6  22
BRANCH   5  24
ATOM     24  O4  PYU d   1      14.786   2.129  50.047  0.00  0.00    -0.361 OA
ATOM     25  H7  PYU d   1      15.394   2.722  49.621  0.00  0.00     0.217 HD
ENDBRANCH   5  24
TORSDOF 4
