REMARK  16 active torsions:
REMARK  status: ('A' for Active; 'I' for Inactive)
REMARK       I    between atoms: N1_26  and  C3_3 
REMARK    1  A    between atoms: C3_3  and  O1_29 
REMARK    2  A    between atoms: O1_29  and  C4_4 
REMARK    3  A    between atoms: C6_6  and  C5_5 
REMARK    4  A    between atoms: C5_5  and  C7_7 
REMARK    5  A    between atoms: C5_5  and  N1_26 
REMARK    6  A    between atoms: C14_14  and  C6_6 
REMARK    7  A    between atoms: C6_6  and  O3_31 
REMARK    8  A    between atoms: C7_7  and  C8_8 
REMARK    9  A    between atoms: N2_27  and  C14_14 
REMARK   10  A    between atoms: C15_15  and  C16_16 
REMARK   11  A    between atoms: N2_27  and  C15_15 
REMARK   12  A    between atoms: C16_16  and  C23_23 
REMARK   13  A    between atoms: C16_16  and  C24_24 
REMARK   14  A    between atoms: S1_35  and  C17_17 
REMARK   15  A    between atoms: C20_20  and  N3_28 
REMARK   16  A    between atoms: N2_27  and  S1_35 
ROOT
ATOM      1  C6  478 d   1      13.005 -22.480  35.311  0.00  0.00     0.067 C 
ATOM      2  H7  478 d   1      13.453 -21.933  34.468  0.00  0.00     0.088 H 
ENDROOT
BRANCH   1   3
ATOM      3  C5  478 d   1      11.493 -22.266  35.275  0.00  0.00     0.044 C 
ATOM      4  H6  478 d   1      11.298 -21.205  35.492  0.00  0.00     0.077 H 
BRANCH   3   5
ATOM      5  C7  478 d   1      10.746 -23.127  36.300  0.00  0.00    -0.020 C 
ATOM      6  H8  478 d   1      11.082 -22.850  37.310  0.00  0.00     0.043 H 
ATOM      7  H9  478 d   1      10.980 -24.186  36.113  0.00  0.00     0.043 H 
BRANCH   5   8
ATOM      8  C8  478 d   1       9.247 -22.934  36.213  0.00  0.00    -0.056 A 
ATOM      9  C9  478 d   1       8.425 -24.046  36.035  0.00  0.00    -0.077 A 
ATOM     10  C11 478 d   1       7.041 -23.889  35.989  0.00  0.00    -0.082 A 
ATOM     11  H10 478 d   1       8.862 -25.032  35.932  0.00  0.00     0.084 H 
ATOM     12  C13 478 d   1       6.461 -22.620  36.116  0.00  0.00    -0.083 A 
ATOM     13  H12 478 d   1       6.407 -24.758  35.854  0.00  0.00     0.083 H 
ATOM     14  C12 478 d   1       7.292 -21.509  36.319  0.00  0.00    -0.082 A 
ATOM     15  H14 478 d   1       5.385 -22.499  36.058  0.00  0.00     0.083 H 
ATOM     16  C10 478 d   1       8.684 -21.670  36.387  0.00  0.00    -0.077 A 
ATOM     17  H13 478 d   1       6.857 -20.522  36.424  0.00  0.00     0.083 H 
ATOM     18  H11 478 d   1       9.321 -20.813  36.575  0.00  0.00     0.084 H 
ENDBRANCH   5   8
ENDBRANCH   3   5
BRANCH   3  19
ATOM     19  N1  478 d   1      10.940 -22.590  33.995  0.00  0.00    -0.329 N 
ATOM     20  C3  478 d   1      10.550 -21.706  33.094  0.00  0.00     0.361 C 
ATOM     21  O2  478 d   1      10.790 -20.531  33.122  0.00  0.00    -0.238 OA
ATOM     22  H32 478 d   1      10.841 -23.558  33.766  0.00  0.00     0.165 HD
BRANCH  20  23
ATOM     23  O1  478 d   1       9.740 -22.263  32.018  0.00  0.00    -0.296 OA
BRANCH  23  24
ATOM     24  C4  478 d   1       9.807 -21.561  30.800  0.00  0.00     0.072 C 
ATOM     25  C1  478 d   1       8.939 -22.275  29.778  0.00  0.00     0.044 C 
ATOM     26  O6  478 d   1       9.814 -22.897  28.821  0.00  0.00    -0.389 OA
ATOM     27  H1  478 d   1       8.284 -21.551  29.272  0.00  0.00     0.078 H 
ATOM     28  H2  478 d   1       8.325 -23.039  30.276  0.00  0.00     0.078 H 
ATOM     29  C25 478 d   1      11.061 -22.222  28.852  0.00  0.00     0.022 C 
ATOM     30  C2  478 d   1      11.218 -21.659  30.255  0.00  0.00    -0.018 C 
ATOM     31  H30 478 d   1      11.878 -22.925  28.632  0.00  0.00     0.074 H 
ATOM     32  H31 478 d   1      11.069 -21.407  28.113  0.00  0.00     0.074 H 
ATOM     33  H3  478 d   1      11.826 -22.333  30.876  0.00  0.00     0.040 H 
ATOM     34  H4  478 d   1      11.689 -20.666  30.222  0.00  0.00     0.040 H 
ATOM     35  H5  478 d   1       9.497 -20.514  30.934  0.00  0.00     0.087 H 
ENDBRANCH  23  24
ENDBRANCH  20  23
ENDBRANCH   3  19
ENDBRANCH   1   3
BRANCH   1  36
ATOM     36  C14 478 d   1      13.566 -21.970  36.620  0.00  0.00     0.019 C 
ATOM     37  H15 478 d   1      14.604 -22.312  36.745  0.00  0.00     0.061 H 
ATOM     38  H16 478 d   1      12.956 -22.335  37.460  0.00  0.00     0.061 H 
BRANCH  36  39
ATOM     39  N2  478 d   1      13.523 -20.518  36.567  0.00  0.00    -0.204 NA
BRANCH  39  40
ATOM     40  C15 478 d   1      14.879 -19.983  36.436  0.00  0.00    -0.004 C 
ATOM     41  H17 478 d   1      14.952 -19.029  36.979  0.00  0.00     0.058 H 
ATOM     42  H18 478 d   1      15.600 -20.700  36.856  0.00  0.00     0.058 H 
BRANCH  40  43
ATOM     43  C16 478 d   1      15.189 -19.754  34.957  0.00  0.00    -0.049 C 
ATOM     44  H19 478 d   1      15.051 -20.699  34.411  0.00  0.00     0.040 H 
BRANCH  43  45
ATOM     45  C23 478 d   1      14.238 -18.711  34.388  0.00  0.00    -0.072 C 
ATOM     46  H24 478 d   1      14.465 -18.550  33.324  0.00  0.00     0.028 H 
ATOM     47  H25 478 d   1      14.360 -17.765  34.936  0.00  0.00     0.028 H 
ATOM     48  H26 478 d   1      13.201 -19.064  34.492  0.00  0.00     0.028 H 
ENDBRANCH  43  45
BRANCH  43  49
ATOM     49  C24 478 d   1      16.632 -19.298  34.796  0.00  0.00    -0.072 C 
ATOM     50  H27 478 d   1      17.306 -20.061  35.211  0.00  0.00     0.028 H 
ATOM     51  H28 478 d   1      16.779 -18.349  35.332  0.00  0.00     0.028 H 
ATOM     52  H29 478 d   1      16.854 -19.154  33.728  0.00  0.00     0.028 H 
ENDBRANCH  43  49
ENDBRANCH  40  43
ENDBRANCH  39  40
BRANCH  39  53
ATOM     53  S1  478 d   1      12.672 -19.861  37.786  0.00  0.00     0.243 S 
ATOM     54  O4  478 d   1      11.389 -20.500  37.922  0.00  0.00    -0.206 OA
ATOM     55  O5  478 d   1      12.417 -18.516  37.403  0.00  0.00    -0.206 OA
BRANCH  53  56
ATOM     56  C17 478 d   1      13.394 -19.912  39.224  0.00  0.00     0.074 A 
ATOM     57  C18 478 d   1      12.944 -20.771  40.230  0.00  0.00    -0.059 A 
ATOM     58  C19 478 d   1      13.519 -20.759  41.501  0.00  0.00    -0.056 A 
ATOM     59  H20 478 d   1      12.133 -21.459  40.019  0.00  0.00     0.086 H 
ATOM     60  C20 478 d   1      14.557 -19.882  41.754  0.00  0.00     0.025 A 
ATOM     61  H21 478 d   1      13.158 -21.425  42.276  0.00  0.00     0.086 H 
ATOM     62  C21 478 d   1      14.964 -18.977  40.793  0.00  0.00    -0.056 A 
ATOM     63  C22 478 d   1      14.385 -19.003  39.531  0.00  0.00    -0.059 A 
ATOM     64  H22 478 d   1      15.733 -18.249  41.023  0.00  0.00     0.086 H 
ATOM     65  H23 478 d   1      14.717 -18.299  38.776  0.00  0.00     0.086 H 
BRANCH  60  66
ATOM     66  N3  478 d   1      15.150 -19.864  42.955  0.00  0.00    -0.399 N 
ATOM     67  H33 478 d   1      14.859 -20.532  43.683  0.00  0.00     0.156 HD
ATOM     68  H34 478 d   1      15.897 -19.182  43.150  0.00  0.00     0.156 HD
ENDBRANCH  60  66
ENDBRANCH  53  56
ENDBRANCH  39  53
ENDBRANCH  36  39
ENDBRANCH   1  36
BRANCH   1  69
ATOM     69  O3  478 d   1      13.396 -23.841  35.246  0.00  0.00    -0.392 OA
ATOM     70  H35 478 d   1      13.033 -24.309  35.989  0.00  0.00     0.210 HD
ENDBRANCH   1  69
TORSDOF 16
