REMARK  5 active torsions:
REMARK  status: ('A' for Active; 'I' for Inactive)
REMARK       I    between atoms: N1_1  and  C7_5 
REMARK    1  A    between atoms: C4_2  and  O2_21 
REMARK    2  A    between atoms: C6_4  and  O1_22 
REMARK    3  A    between atoms: C7_5  and  C1_15 
REMARK    4  A    between atoms: C12_16  and  C8_6 
REMARK    5  A    between atoms: C17_10  and  C18_19 
ROOT
ATOM      1  N1  PY9 d   1      17.114  -3.712  51.065  0.00  0.00    -0.339 N 
ATOM      2  C7  PY9 d   1      16.829  -3.119  49.805  0.00  0.00     0.257 C 
ATOM      3  C8  PY9 d   1      16.938  -3.163  52.449  0.00  0.00     0.041 C 
ATOM      4  C10 PY9 d   1      17.868  -5.404  52.588  0.00  0.00    -0.048 C 
ATOM      5  C9  PY9 d   1      17.884  -4.044  53.282  0.00  0.00    -0.041 C 
ATOM      6  C11 PY9 d   1      17.681  -5.066  51.114  0.00  0.00    -0.001 C 
ATOM      7  O3  PY9 d   1      17.028  -3.666  48.717  0.00  0.00    -0.267 OA
ATOM      8  H2  PY9 d   1      17.302  -2.125  52.462  0.00  0.00     0.080 H 
ATOM      9  H3  PY9 d   1      17.035  -6.021  52.956  0.00  0.00     0.035 H 
ATOM     10  H4  PY9 d   1      18.817  -5.936  52.749  0.00  0.00     0.035 H 
ATOM     11  H11 PY9 d   1      17.520  -4.133  54.316  0.00  0.00     0.036 H 
ATOM     12  H12 PY9 d   1      18.901  -3.624  53.286  0.00  0.00     0.036 H 
ATOM     13  H13 PY9 d   1      18.649  -5.092  50.593  0.00  0.00     0.064 H 
ATOM     14  H14 PY9 d   1      16.992  -5.784  50.644  0.00  0.00     0.064 H 
ENDROOT
BRANCH   2  15
ATOM     15  C1  PY9 d   1      16.267  -1.739  49.758  0.00  0.00     0.065 A 
ATOM     16  C6  PY9 d   1      17.103  -0.646  49.404  0.00  0.00     0.084 A 
ATOM     17  C5  PY9 d   1      16.582   0.677  49.370  0.00  0.00    -0.018 A 
ATOM     18  C4  PY9 d   1      15.217   0.897  49.693  0.00  0.00     0.068 A 
ATOM     19  H1  PY9 d   1      17.221   1.510  49.100  0.00  0.00     0.092 H 
ATOM     20  C3  PY9 d   1      14.369  -0.182  50.043  0.00  0.00    -0.050 A 
ATOM     21  C2  PY9 d   1      14.893  -1.500  50.074  0.00  0.00    -0.062 A 
ATOM     22  H10 PY9 d   1      13.328  -0.002  50.285  0.00  0.00     0.087 H 
ATOM     23  H8  PY9 d   1      14.248  -2.330  50.339  0.00  0.00     0.085 H 
BRANCH  16  24
ATOM     24  O1  PY9 d   1      18.418  -0.803  49.088  0.00  0.00    -0.360 OA
ATOM     25  H19 PY9 d   1      18.797   0.044  48.883  0.00  0.00     0.217 HD
ENDBRANCH  16  24
BRANCH  18  26
ATOM     26  O2  PY9 d   1      14.689   2.150  49.681  0.00  0.00    -0.361 OA
ATOM     27  H18 PY9 d   1      15.361   2.773  49.431  0.00  0.00     0.217 HD
ENDBRANCH  18  26
ENDBRANCH   2  15
BRANCH   3  28
ATOM     28  C12 PY9 d   1      15.487  -3.132  53.013  0.00  0.00    -0.029 A 
ATOM     29  C13 PY9 d   1      14.490  -4.078  52.568  0.00  0.00    -0.074 A 
ATOM     30  C14 PY9 d   1      13.162  -4.053  53.073  0.00  0.00    -0.082 A 
ATOM     31  H5  PY9 d   1      14.761  -4.825  51.831  0.00  0.00     0.084 H 
ATOM     32  C15 PY9 d   1      12.788  -3.089  54.034  0.00  0.00    -0.082 A 
ATOM     33  H7  PY9 d   1      12.435  -4.775  52.720  0.00  0.00     0.083 H 
ATOM     34  C16 PY9 d   1      13.735  -2.143  54.496  0.00  0.00    -0.077 A 
ATOM     35  H6  PY9 d   1      11.775  -3.073  54.419  0.00  0.00     0.083 H 
ATOM     36  C17 PY9 d   1      15.082  -2.140  54.006  0.00  0.00    -0.054 A 
ATOM     37  H9  PY9 d   1      13.436  -1.407  55.234  0.00  0.00     0.084 H 
BRANCH  36  38
ATOM     38  C18 PY9 d   1      16.025  -1.088  54.557  0.00  0.00    -0.051 C 
ATOM     39  H15 PY9 d   1      15.490  -0.462  55.286  0.00  0.00     0.033 H 
ATOM     40  H16 PY9 d   1      16.394  -0.459  53.734  0.00  0.00     0.033 H 
ATOM     41  H17 PY9 d   1      16.875  -1.581  55.051  0.00  0.00     0.033 H 
ENDBRANCH  36  38
ENDBRANCH   3  28
TORSDOF 5
