REMARK  16 active torsions:
REMARK  status: ('A' for Active; 'I' for Inactive)
REMARK    1  A    between atoms: C2_2  and  N1_1 
REMARK    2  A    between atoms: S8_8  and  C5_5 
REMARK    3  A    between atoms: N11_11  and  S8_8 
REMARK    4  A    between atoms: N11_11  and  C12_12 
REMARK    5  A    between atoms: C16_16  and  N11_11 
REMARK    6  A    between atoms: C12_12  and  C13_13 
REMARK    7  A    between atoms: C13_13  and  C14_14 
REMARK    8  A    between atoms: C13_13  and  C15_15 
REMARK    9  A    between atoms: C17_17  and  C16_16 
REMARK   10  A    between atoms: C17_17  and  O18_18 
REMARK   11  A    between atoms: C19_19  and  C17_17 
REMARK   12  A    between atoms: C19_19  and  N20_20 
REMARK   13  A    between atoms: C32_32  and  C19_19 
REMARK       I    between atoms: N20_20  and  C21_21 
REMARK   14  A    between atoms: C21_21  and  O23_23 
REMARK   15  A    between atoms: O23_23  and  C24_24 
REMARK   16  A    between atoms: C38_38  and  C32_32 
ROOT
ATOM      1  C19 017 d   1      18.217  41.513  -9.636  0.00  0.00     0.044 C 
ATOM      2  H20 017 d   1      19.291  41.315  -9.506  0.00  0.00     0.077 H 
ENDROOT
BRANCH   1   3
ATOM      3  C17 017 d   1      17.827  42.742  -8.795  0.00  0.00     0.067 C 
ATOM      4  H18 017 d   1      17.865  42.452  -7.735  0.00  0.00     0.088 H 
BRANCH   3   5
ATOM      5  C16 017 d   1      18.798  43.889  -9.034  0.00  0.00     0.019 C 
ATOM      6  H16 017 d   1      18.968  44.014 -10.114  0.00  0.00     0.061 H 
ATOM      7  H17 017 d   1      18.384  44.820  -8.618  0.00  0.00     0.061 H 
BRANCH   5   8
ATOM      8  N11 017 d   1      20.057  43.568  -8.369  0.00  0.00    -0.204 NA
BRANCH   8   9
ATOM      9  S8  017 d   1      21.292  43.583  -9.429  0.00  0.00     0.243 S 
ATOM     10  O9  017 d   1      22.360  42.808  -8.861  0.00  0.00    -0.206 OA
ATOM     11  O10 017 d   1      20.837  42.889 -10.609  0.00  0.00    -0.206 OA
BRANCH   9  12
ATOM     12  C5  017 d   1      21.714  45.090  -9.832  0.00  0.00     0.074 A 
ATOM     13  C4  017 d   1      22.621  45.827  -9.089  0.00  0.00    -0.059 A 
ATOM     14  C3  017 d   1      22.933  47.104  -9.499  0.00  0.00    -0.056 A 
ATOM     15  H4  017 d   1      23.077  45.406  -8.200  0.00  0.00     0.086 H 
ATOM     16  C2  017 d   1      22.351  47.588 -10.659  0.00  0.00     0.025 A 
ATOM     17  H3  017 d   1      23.619  47.717  -8.926  0.00  0.00     0.086 H 
ATOM     18  C7  017 d   1      21.518  46.879 -11.336  0.00  0.00    -0.056 A 
ATOM     19  C6  017 d   1      21.199  45.677 -10.979  0.00  0.00    -0.059 A 
ATOM     20  H6  017 d   1      21.071  47.300 -12.229  0.00  0.00     0.086 H 
ATOM     21  H5  017 d   1      20.509  45.111 -11.594  0.00  0.00     0.086 H 
BRANCH  16  22
ATOM     22  N1  017 d   1      22.654  48.833 -11.066  0.00  0.00    -0.399 N 
ATOM     23  H1  017 d   1      23.321  49.403 -10.526  0.00  0.00     0.156 HD
ATOM     24  H2  017 d   1      22.220  49.217 -11.918  0.00  0.00     0.156 HD
ENDBRANCH  16  22
ENDBRANCH   9  12
ENDBRANCH   8   9
BRANCH   8  25
ATOM     25  C12 017 d   1      20.298  44.514  -7.280  0.00  0.00    -0.004 C 
ATOM     26  H7  017 d   1      19.788  45.461  -7.510  0.00  0.00     0.058 H 
ATOM     27  H8  017 d   1      21.380  44.692  -7.194  0.00  0.00     0.058 H 
BRANCH  25  28
ATOM     28  C13 017 d   1      19.779  43.983  -5.954  0.00  0.00    -0.049 C 
ATOM     29  H9  017 d   1      18.679  43.976  -5.982  0.00  0.00     0.040 H 
BRANCH  28  30
ATOM     30  C14 017 d   1      20.257  42.566  -5.693  0.00  0.00    -0.072 C 
ATOM     31  H10 017 d   1      19.862  42.218  -4.727  0.00  0.00     0.028 H 
ATOM     32  H11 017 d   1      21.357  42.549  -5.667  0.00  0.00     0.028 H 
ATOM     33  H12 017 d   1      19.899  41.904  -6.496  0.00  0.00     0.028 H 
ENDBRANCH  28  30
BRANCH  28  34
ATOM     34  C15 017 d   1      20.237  44.921  -4.848  0.00  0.00    -0.072 C 
ATOM     35  H13 017 d   1      19.879  45.939  -5.059  0.00  0.00     0.028 H 
ATOM     36  H14 017 d   1      21.336  44.921  -4.799  0.00  0.00     0.028 H 
ATOM     37  H15 017 d   1      19.827  44.581  -3.885  0.00  0.00     0.028 H 
ENDBRANCH  28  34
ENDBRANCH  25  28
ENDBRANCH   8  25
ENDBRANCH   5   8
ENDBRANCH   3   5
BRANCH   3  38
ATOM     38  O18 017 d   1      16.522  43.236  -9.085  0.00  0.00    -0.392 OA
ATOM     39  H19 017 d   1      16.487  43.524  -9.990  0.00  0.00     0.210 HD
ENDBRANCH   3  38
ENDBRANCH   1   3
BRANCH   1  40
ATOM     40  N20 017 d   1      17.427  40.396  -9.166  0.00  0.00    -0.329 N 
ATOM     41  C21 017 d   1      17.965  39.367  -8.487  0.00  0.00     0.361 C 
ATOM     42  O22 017 d   1      19.139  39.294  -8.171  0.00  0.00    -0.238 OA
ATOM     43  H21 017 d   1      16.445  40.389  -9.353  0.00  0.00     0.165 HD
BRANCH  41  44
ATOM     44  O23 017 d   1      16.984  38.373  -8.060  0.00  0.00    -0.296 OA
BRANCH  44  45
ATOM     45  C24 017 d   1      17.297  37.018  -7.781  0.00  0.00     0.078 C 
ATOM     46  C25 017 d   1      16.344  36.629  -6.659  0.00  0.00     0.048 C 
ATOM     47  O26 017 d   1      15.160  36.119  -7.291  0.00  0.00    -0.358 OA
ATOM     48  H23 017 d   1      16.099  37.509  -6.046  0.00  0.00     0.078 H 
ATOM     49  H24 017 d   1      16.800  35.855  -6.024  0.00  0.00     0.078 H 
ATOM     50  C27 017 d   1      15.465  35.709  -8.643  0.00  0.00     0.137 C 
ATOM     51  O28 017 d   1      14.633  36.359  -9.629  0.00  0.00    -0.361 OA
ATOM     52  C31 017 d   1      16.903  36.106  -8.925  0.00  0.00     0.023 C 
ATOM     53  H25 017 d   1      15.345  34.619  -8.728  0.00  0.00     0.129 H 
ATOM     54  C29 017 d   1      15.423  37.061 -10.596  0.00  0.00     0.023 C 
ATOM     55  C30 017 d   1      16.889  36.735 -10.312  0.00  0.00    -0.035 C 
ATOM     56  H26 017 d   1      15.254  38.144 -10.505  0.00  0.00     0.074 H 
ATOM     57  H27 017 d   1      15.155  36.732 -11.611  0.00  0.00     0.074 H 
ATOM     58  H28 017 d   1      17.497  37.652 -10.325  0.00  0.00     0.037 H 
ATOM     59  H29 017 d   1      17.277  36.027 -11.059  0.00  0.00     0.037 H 
ATOM     60  H30 017 d   1      17.567  35.229  -8.934  0.00  0.00     0.051 H 
ATOM     61  H22 017 d   1      18.356  36.896  -7.511  0.00  0.00     0.088 H 
ENDBRANCH  44  45
ENDBRANCH  41  44
ENDBRANCH   1  40
BRANCH   1  62
ATOM     62  C32 017 d   1      17.902  41.642 -11.123  0.00  0.00    -0.020 C 
ATOM     63  H31 017 d   1      18.469  42.484 -11.546  0.00  0.00     0.043 H 
ATOM     64  H32 017 d   1      16.825  41.821 -11.255  0.00  0.00     0.043 H 
BRANCH  62  65
ATOM     65  C38 017 d   1      18.290  40.370 -11.831  0.00  0.00    -0.056 A 
ATOM     66  C33 017 d   1      17.324  39.643 -12.513  0.00  0.00    -0.077 A 
ATOM     67  C34 017 d   1      17.674  38.459 -13.158  0.00  0.00    -0.082 A 
ATOM     68  H33 017 d   1      16.299  39.996 -12.544  0.00  0.00     0.084 H 
ATOM     69  C35 017 d   1      18.994  38.014 -13.159  0.00  0.00    -0.083 A 
ATOM     70  H34 017 d   1      16.912  37.878 -13.664  0.00  0.00     0.083 H 
ATOM     71  C36 017 d   1      19.962  38.743 -12.473  0.00  0.00    -0.082 A 
ATOM     72  H35 017 d   1      19.265  37.108 -13.689  0.00  0.00     0.083 H 
ATOM     73  C37 017 d   1      19.609  39.924 -11.816  0.00  0.00    -0.077 A 
ATOM     74  H36 017 d   1      20.988  38.394 -12.449  0.00  0.00     0.083 H 
ATOM     75  H37 017 d   1      20.366  40.496 -11.292  0.00  0.00     0.084 H 
ENDBRANCH  62  65
ENDBRANCH   1  62
TORSDOF 16
