REMARK  16 active torsions:
REMARK  status: ('A' for Active; 'I' for Inactive)
REMARK       I    between atoms: N1_26  and  C3_3 
REMARK    1  A    between atoms: C3_3  and  O1_29 
REMARK    2  A    between atoms: O1_29  and  C4_4 
REMARK    3  A    between atoms: C6_6  and  C5_5 
REMARK    4  A    between atoms: C5_5  and  C7_7 
REMARK    5  A    between atoms: C5_5  and  N1_26 
REMARK    6  A    between atoms: C14_14  and  C6_6 
REMARK    7  A    between atoms: C6_6  and  O3_31 
REMARK    8  A    between atoms: C7_7  and  C8_8 
REMARK    9  A    between atoms: N2_27  and  C14_14 
REMARK   10  A    between atoms: C15_15  and  C16_16 
REMARK   11  A    between atoms: N2_27  and  C15_15 
REMARK   12  A    between atoms: C16_16  and  C23_23 
REMARK   13  A    between atoms: C16_16  and  C24_24 
REMARK   14  A    between atoms: S1_35  and  C17_17 
REMARK   15  A    between atoms: C20_20  and  N3_28 
REMARK   16  A    between atoms: N2_27  and  S1_35 
ROOT
ATOM      1  C6  478 d   1      19.969  29.194  15.681  0.00  0.00     0.067 C 
ATOM      2  H7  478 d   1      20.989  29.605  15.662  0.00  0.00     0.088 H 
ENDROOT
BRANCH   1   3
ATOM      3  C5  478 d   1      19.587  28.807  14.258  0.00  0.00     0.044 C 
ATOM      4  H6  478 d   1      19.519  29.724  13.655  0.00  0.00     0.077 H 
BRANCH   3   5
ATOM      5  C7  478 d   1      18.276  28.036  14.106  0.00  0.00    -0.020 C 
ATOM      6  H8  478 d   1      17.444  28.668  14.449  0.00  0.00     0.043 H 
ATOM      7  H9  478 d   1      18.320  27.124  14.719  0.00  0.00     0.043 H 
BRANCH   5   8
ATOM      8  C8  478 d   1      18.045  27.652  12.660  0.00  0.00    -0.056 A 
ATOM      9  C9  478 d   1      18.424  26.395  12.182  0.00  0.00    -0.077 A 
ATOM     10  C11 478 d   1      18.232  26.065  10.841  0.00  0.00    -0.082 A 
ATOM     11  H10 478 d   1      18.869  25.673  12.857  0.00  0.00     0.084 H 
ATOM     12  C13 478 d   1      17.640  26.973   9.976  0.00  0.00    -0.083 A 
ATOM     13  H12 478 d   1      18.547  25.095  10.473  0.00  0.00     0.083 H 
ATOM     14  C12 478 d   1      17.264  28.228  10.452  0.00  0.00    -0.082 A 
ATOM     15  H14 478 d   1      17.471  26.709   8.938  0.00  0.00     0.083 H 
ATOM     16  C10 478 d   1      17.457  28.558  11.789  0.00  0.00    -0.077 A 
ATOM     17  H13 478 d   1      16.819  28.950   9.777  0.00  0.00     0.083 H 
ATOM     18  H11 478 d   1      17.146  29.530  12.153  0.00  0.00     0.084 H 
ENDBRANCH   5   8
ENDBRANCH   3   5
BRANCH   3  19
ATOM     19  N1  478 d   1      20.652  27.961  13.760  0.00  0.00    -0.329 N 
ATOM     20  C3  478 d   1      21.440  28.274  12.734  0.00  0.00     0.361 C 
ATOM     21  O2  478 d   1      21.499  29.346  12.136  0.00  0.00    -0.238 OA
ATOM     22  H32 478 d   1      20.805  27.085  14.217  0.00  0.00     0.165 HD
BRANCH  20  23
ATOM     23  O1  478 d   1      22.246  27.140  12.373  0.00  0.00    -0.296 OA
BRANCH  23  24
ATOM     24  C4  478 d   1      23.120  27.282  11.262  0.00  0.00     0.072 C 
ATOM     25  C1  478 d   1      23.400  25.870  10.783  0.00  0.00     0.044 C 
ATOM     26  O6  478 d   1      24.448  25.418  11.638  0.00  0.00    -0.389 OA
ATOM     27  H1  478 d   1      23.725  25.871   9.732  0.00  0.00     0.078 H 
ATOM     28  H2  478 d   1      22.507  25.236  10.890  0.00  0.00     0.078 H 
ATOM     29  C25 478 d   1      25.287  26.525  11.982  0.00  0.00     0.022 C 
ATOM     30  C2  478 d   1      24.452  27.783  11.781  0.00  0.00    -0.018 C 
ATOM     31  H30 478 d   1      25.608  26.446  13.031  0.00  0.00     0.074 H 
ATOM     32  H31 478 d   1      26.172  26.548  11.329  0.00  0.00     0.074 H 
ATOM     33  H3  478 d   1      24.321  28.318  12.733  0.00  0.00     0.040 H 
ATOM     34  H4  478 d   1      24.927  28.451  11.048  0.00  0.00     0.040 H 
ATOM     35  H5  478 d   1      22.701  27.929  10.477  0.00  0.00     0.087 H 
ENDBRANCH  23  24
ENDBRANCH  20  23
ENDBRANCH   3  19
ENDBRANCH   1   3
BRANCH   1  36
ATOM     36  C14 478 d   1      19.038  30.254  16.252  0.00  0.00     0.019 C 
ATOM     37  H15 478 d   1      19.192  30.347  17.337  0.00  0.00     0.061 H 
ATOM     38  H16 478 d   1      17.991  29.984  16.052  0.00  0.00     0.061 H 
BRANCH  36  39
ATOM     39  N2  478 d   1      19.369  31.527  15.582  0.00  0.00    -0.204 NA
BRANCH  39  40
ATOM     40  C15 478 d   1      20.102  32.452  16.468  0.00  0.00    -0.004 C 
ATOM     41  H17 478 d   1      19.904  33.485  16.146  0.00  0.00     0.058 H 
ATOM     42  H18 478 d   1      19.745  32.315  17.500  0.00  0.00     0.058 H 
BRANCH  40  43
ATOM     43  C16 478 d   1      21.613  32.201  16.428  0.00  0.00    -0.049 C 
ATOM     44  H19 478 d   1      21.796  31.205  16.858  0.00  0.00     0.040 H 
BRANCH  43  45
ATOM     45  C23 478 d   1      22.252  32.243  15.042  0.00  0.00    -0.072 C 
ATOM     46  H24 478 d   1      23.331  32.051  15.130  0.00  0.00     0.028 H 
ATOM     47  H25 478 d   1      22.091  33.235  14.594  0.00  0.00     0.028 H 
ATOM     48  H26 478 d   1      21.794  31.474  14.403  0.00  0.00     0.028 H 
ENDBRANCH  43  45
BRANCH  43  49
ATOM     49  C24 478 d   1      22.324  33.254  17.274  0.00  0.00    -0.072 C 
ATOM     50  H27 478 d   1      21.895  33.261  18.287  0.00  0.00     0.028 H 
ATOM     51  H28 478 d   1      22.193  34.244  16.814  0.00  0.00     0.028 H 
ATOM     52  H29 478 d   1      23.396  33.016  17.331  0.00  0.00     0.028 H 
ENDBRANCH  43  49
ENDBRANCH  40  43
ENDBRANCH  39  40
BRANCH  39  53
ATOM     53  S1  478 d   1      18.135  32.196  14.772  0.00  0.00     0.243 S 
ATOM     54  O4  478 d   1      17.421  31.175  14.066  0.00  0.00    -0.206 OA
ATOM     55  O5  478 d   1      18.715  33.092  13.792  0.00  0.00    -0.206 OA
BRANCH  53  56
ATOM     56  C17 478 d   1      17.106  33.012  15.711  0.00  0.00     0.074 A 
ATOM     57  C18 478 d   1      16.072  32.335  16.365  0.00  0.00    -0.059 A 
ATOM     58  C19 478 d   1      15.176  32.977  17.210  0.00  0.00    -0.056 A 
ATOM     59  H20 478 d   1      15.966  31.268  16.206  0.00  0.00     0.086 H 
ATOM     60  C20 478 d   1      15.281  34.352  17.399  0.00  0.00     0.025 A 
ATOM     61  H21 478 d   1      14.402  32.413  17.718  0.00  0.00     0.086 H 
ATOM     62  C21 478 d   1      16.284  35.051  16.740  0.00  0.00    -0.056 A 
ATOM     63  C22 478 d   1      17.186  34.381  15.907  0.00  0.00    -0.059 A 
ATOM     64  H22 478 d   1      16.368  36.124  16.872  0.00  0.00     0.086 H 
ATOM     65  H23 478 d   1      17.964  34.945  15.404  0.00  0.00     0.086 H 
BRANCH  60  66
ATOM     66  N3  478 d   1      14.400  34.981  18.211  0.00  0.00    -0.399 N 
ATOM     67  H33 478 d   1      13.665  34.441  18.689  0.00  0.00     0.156 HD
ATOM     68  H34 478 d   1      14.465  35.999  18.351  0.00  0.00     0.156 HD
ENDBRANCH  60  66
ENDBRANCH  53  56
ENDBRANCH  39  53
ENDBRANCH  36  39
ENDBRANCH   1  36
BRANCH   1  69
ATOM     69  O3  478 d   1      19.958  28.036  16.528  0.00  0.00    -0.392 OA
ATOM     70  H35 478 d   1      19.075  27.689  16.576  0.00  0.00     0.210 HD
ENDBRANCH   1  69
TORSDOF 16
