REMARK  27 active torsions:
REMARK  status: ('A' for Active; 'I' for Inactive)
REMARK    1  A    between atoms: CAA_1  and  OBI_2 
REMARK    2  A    between atoms: OBI_2  and  CBK_3 
REMARK       I    between atoms: CBK_3  and  N_5 
REMARK    3  A    between atoms: N_5  and  CA_6 
REMARK    4  A    between atoms: CA_6  and  CB_7 
REMARK    5  A    between atoms: CA_6  and  C_11 
REMARK    6  A    between atoms: CB_7  and  CAE_8 
REMARK    7  A    between atoms: CB_7  and  CG2_9 
REMARK    8  A    between atoms: CB_7  and  CG1_10 
REMARK       I    between atoms: C_11  and  NBG_13 
REMARK    9  A    between atoms: NBG_13  and  CBT_14 
REMARK   10  A    between atoms: CBT_14  and  CBA_15 
REMARK   11  A    between atoms: CBT_14  and  CBS_22 
REMARK   12  A    between atoms: CBA_15  and  CBO_16 
REMARK   13  A    between atoms: CBS_22  and  OAM_23 
REMARK   14  A    between atoms: CBS_22  and  CBC_24 
REMARK   15  A    between atoms: CBC_24  and  NBW_25 
REMARK   16  A    between atoms: NBW_25  and  NBH_26 
REMARK   17  A    between atoms: NBW_25  and  CBB_39 
REMARK       I    between atoms: NBH_26  and  CBN_27 
REMARK   18  A    between atoms: CBN_27  and  CBV_29 
REMARK   19  A    between atoms: CBV_29  and  CBY_30 
REMARK   20  A    between atoms: CBV_29  and  NBF_34 
REMARK   21  A    between atoms: CBY_30  and  CAH_31 
REMARK   22  A    between atoms: CBY_30  and  CAF_32 
REMARK   23  A    between atoms: CBY_30  and  CAG_33 
REMARK       I    between atoms: NBF_34  and  CBL_35 
REMARK   24  A    between atoms: CBL_35  and  OBJ_37 
REMARK   25  A    between atoms: OBJ_37  and  CAB_38 
REMARK   26  A    between atoms: CBB_39  and  CBP_40 
REMARK   27  A    between atoms: CBQ_45  and  CBR_46 
ROOT
ATOM      1  NBW DR7 d   1      19.686   0.580  18.065  0.00  0.00     0.017 N 
ATOM      2  H28 DR7 d   1      20.054  -0.344  18.230  0.00  0.00     0.309 HD
ENDROOT
BRANCH   1   3
ATOM      3  CBC DR7 d   1      19.326   0.601  16.656  0.00  0.00     0.130 C 
ATOM      4  H26 DR7 d   1      18.419   0.001  16.496  0.00  0.00     0.083 H 
ATOM      5  H27 DR7 d   1      19.142   1.637  16.335  0.00  0.00     0.083 H 
BRANCH   3   6
ATOM      6  CBS DR7 d   1      20.487   0.009  15.851  0.00  0.00     0.080 C 
ATOM      7  H24 DR7 d   1      21.411   0.515  16.167  0.00  0.00     0.088 H 
BRANCH   6   8
ATOM      8  CBT DR7 d   1      20.682  -1.496  16.101  0.00  0.00     0.042 C 
ATOM      9  H16 DR7 d   1      20.675  -1.677  17.186  0.00  0.00     0.077 H 
BRANCH   8  10
ATOM     10  NBG DR7 d   1      19.630  -2.290  15.463  0.00  0.00    -0.352 N 
ATOM     11  C   DR7 d   1      18.790  -3.073  16.149  0.00  0.00     0.241 C 
ATOM     12  O   DR7 d   1      18.793  -3.215  17.356  0.00  0.00    -0.271 OA
ATOM     13  H15 DR7 d   1      19.535  -2.245  14.469  0.00  0.00     0.163 HD
BRANCH  11  14
ATOM     14  CA  DR7 d   1      17.812  -3.843  15.315  0.00  0.00     0.097 C 
ATOM     15  H5  DR7 d   1      17.761  -3.348  14.334  0.00  0.00     0.088 H 
BRANCH  14  16
ATOM     16  N   DR7 d   1      18.300  -5.193  15.126  0.00  0.00    -0.323 N 
ATOM     17  CBK DR7 d   1      18.475  -5.764  13.937  0.00  0.00     0.360 C 
ATOM     18  OAI DR7 d   1      18.264  -5.258  12.850  0.00  0.00    -0.239 OA
ATOM     19  H4  DR7 d   1      18.519  -5.730  15.941  0.00  0.00     0.165 HD
BRANCH  17  20
ATOM     20  OBI DR7 d   1      18.993  -7.112  14.020  0.00  0.00    -0.309 OA
BRANCH  20  21
ATOM     21  CAA DR7 d   1      19.319  -7.833  12.836  0.00  0.00     0.015 C 
ATOM     22  H1  DR7 d   1      19.694  -8.831  13.106  0.00  0.00     0.067 H 
ATOM     23  H2  DR7 d   1      20.094  -7.289  12.277  0.00  0.00     0.067 H 
ATOM     24  H3  DR7 d   1      18.420  -7.936  12.210  0.00  0.00     0.067 H 
ENDBRANCH  20  21
ENDBRANCH  17  20
ENDBRANCH  14  16
BRANCH  14  25
ATOM     25  CB  DR7 d   1      16.385  -3.915  15.865  0.00  0.00    -0.022 C 
BRANCH  25  26
ATOM     26  CAE DR7 d   1      15.893  -2.491  16.147  0.00  0.00    -0.067 C 
ATOM     27  H6  DR7 d   1      14.867  -2.529  16.543  0.00  0.00     0.028 H 
ATOM     28  H7  DR7 d   1      15.904  -1.908  15.214  0.00  0.00     0.028 H 
ATOM     29  H8  DR7 d   1      16.554  -2.014  16.886  0.00  0.00     0.028 H 
ENDBRANCH  25  26
BRANCH  25  30
ATOM     30  CG2 DR7 d   1      16.224  -4.770  17.110  0.00  0.00    -0.067 C 
ATOM     31  H9  DR7 d   1      16.578  -5.790  16.902  0.00  0.00     0.028 H 
ATOM     32  H10 DR7 d   1      15.163  -4.802  17.398  0.00  0.00     0.028 H 
ATOM     33  H11 DR7 d   1      16.814  -4.337  17.931  0.00  0.00     0.028 H 
ENDBRANCH  25  30
BRANCH  25  34
ATOM     34  CG1 DR7 d   1      15.518  -4.544  14.774  0.00  0.00    -0.067 C 
ATOM     35  H12 DR7 d   1      15.605  -3.953  13.850  0.00  0.00     0.028 H 
ATOM     36  H13 DR7 d   1      14.468  -4.558  15.102  0.00  0.00     0.028 H 
ATOM     37  H14 DR7 d   1      15.857  -5.573  14.585  0.00  0.00     0.028 H 
ENDBRANCH  25  34
ENDBRANCH  14  25
ENDBRANCH  11  14
ENDBRANCH   8  10
BRANCH   8  38
ATOM     38  CBA DR7 d   1      22.003  -1.982  15.505  0.00  0.00    -0.020 C 
ATOM     39  H17 DR7 d   1      22.835  -1.490  16.030  0.00  0.00     0.043 H 
ATOM     40  H18 DR7 d   1      22.034  -1.716  14.438  0.00  0.00     0.043 H 
BRANCH  38  41
ATOM     41  CBO DR7 d   1      22.150  -3.481  15.644  0.00  0.00    -0.056 A 
ATOM     42  CAT DR7 d   1      22.036  -4.308  14.532  0.00  0.00    -0.077 A 
ATOM     43  CAP DR7 d   1      22.167  -5.692  14.689  0.00  0.00    -0.082 A 
ATOM     44  H19 DR7 d   1      21.847  -3.884  13.552  0.00  0.00     0.084 H 
ATOM     45  CAN DR7 d   1      22.400  -6.229  15.954  0.00  0.00    -0.083 A 
ATOM     46  H20 DR7 d   1      22.087  -6.346  13.828  0.00  0.00     0.083 H 
ATOM     47  CAQ DR7 d   1      22.530  -5.393  17.051  0.00  0.00    -0.082 A 
ATOM     48  H21 DR7 d   1      22.480  -7.303  16.080  0.00  0.00     0.083 H 
ATOM     49  CAU DR7 d   1      22.400  -4.017  16.893  0.00  0.00    -0.077 A 
ATOM     50  H22 DR7 d   1      22.733  -5.810  18.031  0.00  0.00     0.083 H 
ATOM     51  H23 DR7 d   1      22.495  -3.363  17.752  0.00  0.00     0.084 H 
ENDBRANCH  38  41
ENDBRANCH   8  38
ENDBRANCH   6   8
BRANCH   6  52
ATOM     52  OAM DR7 d   1      20.275   0.293  14.480  0.00  0.00    -0.392 OA
ATOM     53  H25 DR7 d   1      20.159   1.229  14.366  0.00  0.00     0.210 HD
ENDBRANCH   6  52
ENDBRANCH   3   6
ENDBRANCH   1   3
BRANCH   1  54
ATOM     54  NBH DR7 d   1      20.686   1.400  18.375  0.00  0.00    -0.184 N 
ATOM     55  CBN DR7 d   1      21.510   1.117  19.370  0.00  0.00     0.265 C 
ATOM     56  OAL DR7 d   1      21.414   0.124  20.076  0.00  0.00    -0.269 OA
ATOM     57  H29 DR7 d   1      20.817   2.241  17.849  0.00  0.00     0.197 HD
BRANCH  55  58
ATOM     58  CBV DR7 d   1      22.572   2.152  19.615  0.00  0.00     0.099 C 
ATOM     59  H30 DR7 d   1      22.602   2.820  18.742  0.00  0.00     0.088 H 
BRANCH  58  60
ATOM     60  CBY DR7 d   1      23.990   1.596  19.800  0.00  0.00    -0.022 C 
BRANCH  60  61
ATOM     61  CAH DR7 d   1      24.935   2.798  19.804  0.00  0.00    -0.067 C 
ATOM     62  H31 DR7 d   1      25.970   2.450  19.935  0.00  0.00     0.028 H 
ATOM     63  H32 DR7 d   1      24.668   3.472  20.631  0.00  0.00     0.028 H 
ATOM     64  H33 DR7 d   1      24.847   3.337  18.849  0.00  0.00     0.028 H 
ENDBRANCH  60  61
BRANCH  60  65
ATOM     65  CAF DR7 d   1      24.291   0.710  18.599  0.00  0.00    -0.067 C 
ATOM     66  H34 DR7 d   1      23.609  -0.153  18.600  0.00  0.00     0.028 H 
ATOM     67  H35 DR7 d   1      25.331   0.356  18.656  0.00  0.00     0.028 H 
ATOM     68  H36 DR7 d   1      24.150   1.287  17.673  0.00  0.00     0.028 H 
ENDBRANCH  60  65
BRANCH  60  69
ATOM     69  CAG DR7 d   1      24.193   0.852  21.116  0.00  0.00    -0.067 C 
ATOM     70  H37 DR7 d   1      23.966   1.525  21.956  0.00  0.00     0.028 H 
ATOM     71  H38 DR7 d   1      25.237   0.514  21.189  0.00  0.00     0.028 H 
ATOM     72  H39 DR7 d   1      23.522  -0.019  21.152  0.00  0.00     0.028 H 
ENDBRANCH  60  69
ENDBRANCH  58  60
BRANCH  58  73
ATOM     73  NBF DR7 d   1      22.142   2.910  20.758  0.00  0.00    -0.323 N 
ATOM     74  CBL DR7 d   1      22.002   4.230  20.781  0.00  0.00     0.360 C 
ATOM     75  OAJ DR7 d   1      22.216   5.000  19.853  0.00  0.00    -0.239 OA
ATOM     76  H40 DR7 d   1      21.933   2.407  21.596  0.00  0.00     0.165 HD
BRANCH  74  77
ATOM     77  OBJ DR7 d   1      21.554   4.706  22.067  0.00  0.00    -0.309 OA
BRANCH  77  78
ATOM     78  CAB DR7 d   1      21.236   6.096  22.159  0.00  0.00     0.015 C 
ATOM     79  H41 DR7 d   1      20.910   6.330  23.183  0.00  0.00     0.067 H 
ATOM     80  H42 DR7 d   1      20.427   6.335  21.453  0.00  0.00     0.067 H 
ATOM     81  H43 DR7 d   1      22.126   6.693  21.912  0.00  0.00     0.067 H 
ENDBRANCH  77  78
ENDBRANCH  74  77
ENDBRANCH  58  73
ENDBRANCH  55  58
ENDBRANCH   1  54
BRANCH   1  82
ATOM     82  CBB DR7 d   1      18.518   0.679  18.927  0.00  0.00     0.128 C 
ATOM     83  H44 DR7 d   1      18.633  -0.065  19.729  0.00  0.00     0.086 H 
ATOM     84  H45 DR7 d   1      17.635   0.430  18.320  0.00  0.00     0.086 H 
BRANCH  82  85
ATOM     85  CBP DR7 d   1      18.260   2.019  19.580  0.00  0.00    -0.030 A 
ATOM     86  CAW DR7 d   1      18.273   1.991  20.909  0.00  0.00    -0.074 A 
ATOM     87  CAY DR7 d   1      18.048   3.112  21.559  0.00  0.00    -0.070 A 
ATOM     88  H46 DR7 d   1      18.464   1.067  21.444  0.00  0.00     0.084 H 
ATOM     89  CBQ DR7 d   1      17.820   4.225  20.854  0.00  0.00    -0.007 A 
ATOM     90  H47 DR7 d   1      18.047   3.133  22.643  0.00  0.00     0.084 H 
ATOM     91  CAZ DR7 d   1      17.806   4.138  19.590  0.00  0.00    -0.070 A 
ATOM     92  CAX DR7 d   1      18.021   3.116  18.997  0.00  0.00    -0.074 A 
ATOM     93  H49 DR7 d   1      17.589   5.031  19.015  0.00  0.00     0.084 H 
ATOM     94  H48 DR7 d   1      18.010   3.134  17.913  0.00  0.00     0.084 H 
BRANCH  89  95
ATOM     95  CBR DR7 d   1      17.521   5.471  21.648  0.00  0.00     0.066 A 
ATOM     96  CAV DR7 d   1      18.006   5.640  22.947  0.00  0.00    -0.054 A 
ATOM     97  CAR DR7 d   1      17.685   6.781  23.665  0.00  0.00    -0.079 A 
ATOM     98  H50 DR7 d   1      18.634   4.878  23.394  0.00  0.00     0.087 H 
ATOM     99  CAO DR7 d   1      16.857   7.730  23.084  0.00  0.00    -0.066 A 
ATOM    100  H51 DR7 d   1      18.075   6.930  24.665  0.00  0.00     0.083 H 
ATOM    101  CAS DR7 d   1      16.373   7.519  21.800  0.00  0.00     0.003 A 
ATOM    102  H52 DR7 d   1      16.590   8.629  23.628  0.00  0.00     0.085 H 
ATOM    103  NBD DR7 d   1      16.699   6.409  21.118  0.00  0.00    -0.260 NA
ATOM    104  H53 DR7 d   1      15.725   8.258  21.343  0.00  0.00     0.114 H 
ENDBRANCH  89  95
ENDBRANCH  82  85
ENDBRANCH   1  82
TORSDOF 27
