REMARK  15 active torsions:
REMARK  status: ('A' for Active; 'I' for Inactive)
REMARK    1  A    between atoms: N7_7  and  C18_18 
REMARK    2  A    between atoms: C8_8  and  C11_11 
REMARK       I    between atoms: C11_11  and  N12_12 
REMARK    3  A    between atoms: N12_12  and  C13_13 
REMARK    4  A    between atoms: C13_13  and  C14_14 
REMARK    5  A    between atoms: C13_13  and  C15_15 
REMARK    6  A    between atoms: C13_13  and  C16_16 
REMARK    7  A    between atoms: C18_18  and  C19_19 
REMARK    8  A    between atoms: C19_19  and  C20_20 
REMARK    9  A    between atoms: C19_19  and  O21_21 
REMARK   10  A    between atoms: C20_20  and  N22_22 
REMARK   11  A    between atoms: C20_20  and  C23_23 
REMARK       I    between atoms: N22_22  and  C24_24 
REMARK   12  A    between atoms: C23_23  and  S74_34 
REMARK   13  A    between atoms: C24_24  and  C29_26 
REMARK   14  A    between atoms: C34_31  and  C39_33 
REMARK   15  A    between atoms: S74_34  and  C77_35 
ROOT
ATOM      1  C1  1UN d   1      17.652  27.449  12.799  0.00  0.00    -0.027 C 
ATOM      2  C2  1UN d   1      18.374  26.811  11.621  0.00  0.00    -0.047 C 
ATOM      3  C3  1UN d   1      17.542  26.750  10.345  0.00  0.00    -0.061 C 
ATOM      4  C4  1UN d   1      16.888  28.099  10.083  0.00  0.00    -0.065 C 
ATOM      5  C5  1UN d   1      16.166  28.586  11.331  0.00  0.00    -0.065 C 
ATOM      6  C6  1UN d   1      17.124  28.836  12.494  0.00  0.00    -0.060 C 
ATOM      7  N7  1UN d   1      19.700  28.322  13.727  0.00  0.00    -0.055 N 
ATOM      8  C8  1UN d   1      20.465  27.644  12.689  0.00  0.00     0.180 C 
ATOM      9  C9  1UN d   1      19.663  27.580  11.387  0.00  0.00    -0.026 C 
ATOM     10  C10 1UN d   1      18.519  27.519  14.044  0.00  0.00     0.088 C 
ATOM     11  H1  1UN d   1      16.788  26.808  13.029  0.00  0.00     0.043 H 
ATOM     12  H2  1UN d   1      18.628  25.777  11.898  0.00  0.00     0.040 H 
ATOM     13  H3  1UN d   1      16.762  25.983  10.456  0.00  0.00     0.033 H 
ATOM     14  H4  1UN d   1      18.194  26.491   9.498  0.00  0.00     0.033 H 
ATOM     15  H5  1UN d   1      16.164  27.998   9.261  0.00  0.00     0.033 H 
ATOM     16  H6  1UN d   1      17.662  28.829   9.803  0.00  0.00     0.033 H 
ATOM     17  H7  1UN d   1      15.432  27.825  11.635  0.00  0.00     0.033 H 
ATOM     18  H8  1UN d   1      15.644  29.525  11.094  0.00  0.00     0.033 H 
ATOM     19  H9  1UN d   1      17.938  29.514  12.198  0.00  0.00     0.033 H 
ATOM     20  H10 1UN d   1      16.593  29.257  13.361  0.00  0.00     0.033 H 
ATOM     21  H11 1UN d   1      19.452  29.252  13.426  0.00  0.00     0.281 HD
ATOM     22  H12 1UN d   1      20.714  26.631  13.037  0.00  0.00     0.100 H 
ATOM     23  H13 1UN d   1      19.425  28.601  11.053  0.00  0.00     0.037 H 
ATOM     24  H14 1UN d   1      20.258  27.071  10.615  0.00  0.00     0.037 H 
ATOM     25  H15 1UN d   1      18.826  26.506  14.343  0.00  0.00     0.076 H 
ATOM     26  H16 1UN d   1      17.957  27.989  14.864  0.00  0.00     0.076 H 
ENDROOT
BRANCH   7  27
ATOM     27  C18 1UN d   1      20.427  28.349  14.983  0.00  0.00     0.110 C 
ATOM     28  H27 1UN d   1      21.504  28.453  14.787  0.00  0.00     0.080 H 
ATOM     29  H28 1UN d   1      20.244  27.418  15.539  0.00  0.00     0.080 H 
BRANCH  27  30
ATOM     30  C19 1UN d   1      19.936  29.535  15.793  0.00  0.00     0.079 C 
ATOM     31  H29 1UN d   1      18.850  29.647  15.659  0.00  0.00     0.088 H 
BRANCH  30  32
ATOM     32  C20 1UN d   1      20.599  30.846  15.391  0.00  0.00     0.047 C 
ATOM     33  H30 1UN d   1      20.503  30.950  14.300  0.00  0.00     0.077 H 
BRANCH  32  34
ATOM     34  N22 1UN d   1      19.883  31.916  16.047  0.00  0.00    -0.349 N 
ATOM     35  C24 1UN d   1      18.896  32.595  15.470  0.00  0.00     0.248 C 
ATOM     36  O25 1UN d   1      18.562  32.485  14.305  0.00  0.00    -0.268 OA
ATOM     37  H32 1UN d   1      20.143  32.158  16.982  0.00  0.00     0.163 HD
BRANCH  35  38
ATOM     38  C29 1UN d   1      18.170  33.550  16.360  0.00  0.00     0.020 A 
ATOM     39  C30 1UN d   1      18.900  34.427  17.164  0.00  0.00    -0.071 A 
ATOM     40  C31 1UN d   1      18.281  35.330  18.026  0.00  0.00    -0.080 A 
ATOM     41  H35 1UN d   1      19.988  34.405  17.116  0.00  0.00     0.084 H 
ATOM     42  C32 1UN d   1      16.896  35.393  18.100  0.00  0.00    -0.051 A 
ATOM     43  H36 1UN d   1      18.887  35.990  18.645  0.00  0.00     0.083 H 
ATOM     44  C33 1UN d   1      16.101  34.547  17.331  0.00  0.00     0.093 A 
ATOM     45  H37 1UN d   1      16.425  36.113  18.768  0.00  0.00     0.087 H 
ATOM     46  C34 1UN d   1      16.696  33.560  16.406  0.00  0.00     0.023 A 
ATOM     47  O38 1UN d   1      14.786  34.583  17.403  0.00  0.00    -0.196 OA
ATOM     48  H38 1UN d   1      16.714  32.795  17.196  0.00  0.00     0.057 H 
BRANCH  46  49
ATOM     49  C39 1UN d   1      15.793  32.667  15.591  0.00  0.00    -0.063 C 
ATOM     50  H39 1UN d   1      16.404  32.001  14.964  0.00  0.00     0.028 H 
ATOM     51  H40 1UN d   1      15.148  33.285  14.949  0.00  0.00     0.028 H 
ATOM     52  H41 1UN d   1      15.168  32.063  16.266  0.00  0.00     0.028 H 
ENDBRANCH  46  49
ENDBRANCH  35  38
ENDBRANCH  32  34
BRANCH  32  53
ATOM     53  C23 1UN d   1      22.074  31.006  15.749  0.00  0.00     0.003 C 
ATOM     54  H33 1UN d   1      22.610  30.072  15.524  0.00  0.00     0.052 H 
ATOM     55  H34 1UN d   1      22.169  31.234  16.821  0.00  0.00     0.052 H 
BRANCH  53  56
ATOM     56  S74 1UN d   1      22.767  32.328  14.801  0.00  0.00    -0.128 SA
BRANCH  56  57
ATOM     57  C77 1UN d   1      22.652  33.787  15.649  0.00  0.00     0.000 A 
ATOM     58  C78 1UN d   1      22.472  34.943  14.901  0.00  0.00    -0.067 A 
ATOM     59  C79 1UN d   1      22.360  36.167  15.541  0.00  0.00    -0.082 A 
ATOM     60  H42 1UN d   1      22.419  34.888  13.820  0.00  0.00     0.085 H 
ATOM     61  C80 1UN d   1      22.449  36.238  16.925  0.00  0.00    -0.083 A 
ATOM     62  H43 1UN d   1      22.203  37.069  14.961  0.00  0.00     0.083 H 
ATOM     63  C81 1UN d   1      22.634  35.080  17.670  0.00  0.00    -0.082 A 
ATOM     64  H44 1UN d   1      22.374  37.197  17.424  0.00  0.00     0.083 H 
ATOM     65  C82 1UN d   1      22.735  33.847  17.037  0.00  0.00    -0.067 A 
ATOM     66  H45 1UN d   1      22.700  35.139  18.750  0.00  0.00     0.083 H 
ATOM     67  H46 1UN d   1      22.877  32.943  17.617  0.00  0.00     0.085 H 
ENDBRANCH  56  57
ENDBRANCH  53  56
ENDBRANCH  32  53
ENDBRANCH  30  32
BRANCH  30  68
ATOM     68  O21 1UN d   1      20.218  29.192  17.133  0.00  0.00    -0.392 OA
ATOM     69  H31 1UN d   1      19.789  28.372  17.346  0.00  0.00     0.210 HD
ENDBRANCH  30  68
ENDBRANCH  27  30
ENDBRANCH   7  27
BRANCH   8  70
ATOM     70  C11 1UN d   1      21.710  28.377  12.321  0.00  0.00     0.249 C 
ATOM     71  N12 1UN d   1      22.742  27.555  12.137  0.00  0.00    -0.351 N 
ATOM     72  H17 1UN d   1      22.587  26.588  12.339  0.00  0.00     0.163 HD
ATOM     73  O17 1UN d   1      21.681  29.593  12.185  0.00  0.00    -0.271 OA
BRANCH  71  74
ATOM     74  C13 1UN d   1      24.063  27.918  11.675  0.00  0.00     0.022 C 
BRANCH  74  75
ATOM     75  C14 1UN d   1      24.692  28.754  12.789  0.00  0.00    -0.054 C 
ATOM     76  H18 1UN d   1      25.705  29.060  12.490  0.00  0.00     0.030 H 
ATOM     77  H19 1UN d   1      24.747  28.156  13.710  0.00  0.00     0.030 H 
ATOM     78  H20 1UN d   1      24.077  29.648  12.968  0.00  0.00     0.030 H 
ENDBRANCH  74  75
BRANCH  74  79
ATOM     79  C15 1UN d   1      23.961  28.678  10.350  0.00  0.00    -0.054 C 
ATOM     80  H21 1UN d   1      24.969  28.951  10.005  0.00  0.00     0.030 H 
ATOM     81  H22 1UN d   1      23.364  29.590  10.496  0.00  0.00     0.030 H 
ATOM     82  H23 1UN d   1      23.476  28.039   9.597  0.00  0.00     0.030 H 
ENDBRANCH  74  79
BRANCH  74  83
ATOM     83  C16 1UN d   1      24.863  26.630  11.448  0.00  0.00    -0.054 C 
ATOM     84  H24 1UN d   1      25.874  26.884  11.095  0.00  0.00     0.030 H 
ATOM     85  H25 1UN d   1      24.356  26.012  10.693  0.00  0.00     0.030 H 
ATOM     86  H26 1UN d   1      24.934  26.071  12.393  0.00  0.00     0.030 H 
ENDBRANCH  74  83
ENDBRANCH  71  74
ENDBRANCH   8  70
TORSDOF 15
