REMARK  27 active torsions:
REMARK  status: ('A' for Active; 'I' for Inactive)
REMARK    1  A    between atoms: CAA_1  and  OBI_2 
REMARK    2  A    between atoms: OBI_2  and  CBK_3 
REMARK       I    between atoms: CBK_3  and  N_5 
REMARK    3  A    between atoms: N_5  and  CA_6 
REMARK    4  A    between atoms: CA_6  and  CB_7 
REMARK    5  A    between atoms: CA_6  and  C_11 
REMARK    6  A    between atoms: CB_7  and  CAE_8 
REMARK    7  A    between atoms: CB_7  and  CG2_9 
REMARK    8  A    between atoms: CB_7  and  CG1_10 
REMARK       I    between atoms: C_11  and  NBG_13 
REMARK    9  A    between atoms: NBG_13  and  CBT_14 
REMARK   10  A    between atoms: CBT_14  and  CBA_15 
REMARK   11  A    between atoms: CBT_14  and  CBS_22 
REMARK   12  A    between atoms: CBA_15  and  CBO_16 
REMARK   13  A    between atoms: CBS_22  and  OAM_23 
REMARK   14  A    between atoms: CBS_22  and  CBC_24 
REMARK   15  A    between atoms: CBC_24  and  NBW_25 
REMARK   16  A    between atoms: NBW_25  and  NBH_26 
REMARK   17  A    between atoms: NBW_25  and  CBB_39 
REMARK       I    between atoms: NBH_26  and  CBN_27 
REMARK   18  A    between atoms: CBN_27  and  CBV_29 
REMARK   19  A    between atoms: CBV_29  and  CBY_30 
REMARK   20  A    between atoms: CBV_29  and  NBF_34 
REMARK   21  A    between atoms: CBY_30  and  CAH_31 
REMARK   22  A    between atoms: CBY_30  and  CAF_32 
REMARK   23  A    between atoms: CBY_30  and  CAG_33 
REMARK       I    between atoms: NBF_34  and  CBL_35 
REMARK   24  A    between atoms: CBL_35  and  OBJ_37 
REMARK   25  A    between atoms: OBJ_37  and  CAB_38 
REMARK   26  A    between atoms: CBB_39  and  CBP_40 
REMARK   27  A    between atoms: CBQ_45  and  CBR_46 
ROOT
ATOM      1  NBW DR7 d   1      20.971  31.984  15.187  0.00  0.00     0.017 N 
ATOM      2  H28 DR7 d   1      20.706  31.998  14.215  0.00  0.00     0.309 HD
ENDROOT
BRANCH   1   3
ATOM      3  CBC DR7 d   1      21.158  30.596  15.635  0.00  0.00     0.130 C 
ATOM      4  H26 DR7 d   1      22.015  30.173  15.091  0.00  0.00     0.083 H 
ATOM      5  H27 DR7 d   1      21.379  30.611  16.712  0.00  0.00     0.083 H 
BRANCH   3   6
ATOM      6  CBS DR7 d   1      19.961  29.687  15.411  0.00  0.00     0.080 C 
ATOM      7  H24 DR7 d   1      19.065  30.186  15.809  0.00  0.00     0.088 H 
BRANCH   6   8
ATOM      8  CBT DR7 d   1      19.697  29.348  13.941  0.00  0.00     0.042 C 
ATOM      9  H16 DR7 d   1      19.532  30.291  13.399  0.00  0.00     0.077 H 
BRANCH   8  10
ATOM     10  NBG DR7 d   1      20.820  28.654  13.325  0.00  0.00    -0.352 N 
ATOM     11  C   DR7 d   1      21.495  29.109  12.254  0.00  0.00     0.241 C 
ATOM     12  O   DR7 d   1      21.345  30.210  11.762  0.00  0.00    -0.271 OA
ATOM     13  H15 DR7 d   1      21.108  27.783  13.724  0.00  0.00     0.163 HD
BRANCH  11  14
ATOM     14  CA  DR7 d   1      22.432  28.138  11.554  0.00  0.00     0.097 C 
ATOM     15  H5  DR7 d   1      22.345  27.400  12.365  0.00  0.00     0.088 H 
BRANCH  14  16
ATOM     16  N   DR7 d   1      21.879  27.211  10.590  0.00  0.00    -0.323 N 
ATOM     17  CBK DR7 d   1      21.654  25.904  10.661  0.00  0.00     0.360 C 
ATOM     18  OAI DR7 d   1      21.866  25.162  11.612  0.00  0.00    -0.239 OA
ATOM     19  H4  DR7 d   1      21.621  27.627   9.718  0.00  0.00     0.165 HD
BRANCH  17  20
ATOM     20  OBI DR7 d   1      21.102  25.362   9.434  0.00  0.00    -0.309 OA
BRANCH  20  21
ATOM     21  CAA DR7 d   1      21.475  24.053   8.988  0.00  0.00     0.015 C 
ATOM     22  H1  DR7 d   1      20.955  23.824   8.046  0.00  0.00     0.067 H 
ATOM     23  H2  DR7 d   1      21.195  23.312   9.751  0.00  0.00     0.067 H 
ATOM     24  H3  DR7 d   1      22.562  24.017   8.824  0.00  0.00     0.067 H 
ENDBRANCH  20  21
ENDBRANCH  17  20
ENDBRANCH  14  16
BRANCH  14  25
ATOM     25  CB  DR7 d   1      23.930  28.266  11.770  0.00  0.00    -0.022 C 
BRANCH  25  26
ATOM     26  CAE DR7 d   1      24.431  29.203  10.669  0.00  0.00    -0.067 C 
ATOM     27  H6  DR7 d   1      25.518  29.339  10.770  0.00  0.00     0.028 H 
ATOM     28  H7  DR7 d   1      23.930  30.178  10.761  0.00  0.00     0.028 H 
ATOM     29  H8  DR7 d   1      24.206  28.766   9.685  0.00  0.00     0.028 H 
ENDBRANCH  25  26
BRANCH  25  30
ATOM     30  CG2 DR7 d   1      24.655  26.929  11.670  0.00  0.00    -0.067 C 
ATOM     31  H9  DR7 d   1      24.294  26.256  12.462  0.00  0.00     0.028 H 
ATOM     32  H10 DR7 d   1      25.737  27.089  11.789  0.00  0.00     0.028 H 
ATOM     33  H11 DR7 d   1      24.457  26.477  10.687  0.00  0.00     0.028 H 
ENDBRANCH  25  30
BRANCH  25  34
ATOM     34  CG1 DR7 d   1      24.250  28.912  13.116  0.00  0.00    -0.067 C 
ATOM     35  H12 DR7 d   1      23.729  29.878  13.193  0.00  0.00     0.028 H 
ATOM     36  H13 DR7 d   1      25.335  29.074  13.196  0.00  0.00     0.028 H 
ATOM     37  H14 DR7 d   1      23.917  28.250  13.929  0.00  0.00     0.028 H 
ENDBRANCH  25  34
ENDBRANCH  14  25
ENDBRANCH  11  14
ENDBRANCH   8  10
BRANCH   8  38
ATOM     38  CBA DR7 d   1      18.447  28.475  13.800  0.00  0.00    -0.020 C 
ATOM     39  H17 DR7 d   1      17.584  29.006  14.228  0.00  0.00     0.043 H 
ATOM     40  H18 DR7 d   1      18.602  27.531  14.342  0.00  0.00     0.043 H 
BRANCH  38  41
ATOM     41  CBO DR7 d   1      18.173  28.173  12.341  0.00  0.00    -0.056 A 
ATOM     42  CAT DR7 d   1      18.563  26.953  11.794  0.00  0.00    -0.077 A 
ATOM     43  CAP DR7 d   1      18.315  26.670  10.452  0.00  0.00    -0.082 A 
ATOM     44  H19 DR7 d   1      19.062  26.219  12.416  0.00  0.00     0.084 H 
ATOM     45  CAN DR7 d   1      17.665  27.604   9.653  0.00  0.00    -0.083 A 
ATOM     46  H20 DR7 d   1      18.629  25.722  10.031  0.00  0.00     0.083 H 
ATOM     47  CAQ DR7 d   1      17.272  28.823  10.195  0.00  0.00    -0.082 A 
ATOM     48  H21 DR7 d   1      17.465  27.383   8.611  0.00  0.00     0.083 H 
ATOM     49  CAU DR7 d   1      17.519  29.106  11.538  0.00  0.00    -0.077 A 
ATOM     50  H22 DR7 d   1      16.772  29.555   9.572  0.00  0.00     0.083 H 
ATOM     51  H23 DR7 d   1      17.202  30.053  11.958  0.00  0.00     0.084 H 
ENDBRANCH  38  41
ENDBRANCH   8  38
ENDBRANCH   6   8
BRANCH   6  52
ATOM     52  OAM DR7 d   1      20.207  28.487  16.156  0.00  0.00    -0.392 OA
ATOM     53  H25 DR7 d   1      20.369  28.708  17.066  0.00  0.00     0.210 HD
ENDBRANCH   6  52
ENDBRANCH   3   6
ENDBRANCH   1   3
BRANCH   1  54
ATOM     54  NBH DR7 d   1      19.949  32.610  15.946  0.00  0.00    -0.184 N 
ATOM     55  CBN DR7 d   1      18.919  33.246  15.372  0.00  0.00     0.265 C 
ATOM     56  OAL DR7 d   1      18.772  33.341  14.166  0.00  0.00    -0.269 OA
ATOM     57  H29 DR7 d   1      19.999  32.575  16.944  0.00  0.00     0.197 HD
BRANCH  55  58
ATOM     58  CBV DR7 d   1      17.958  33.914  16.320  0.00  0.00     0.099 C 
ATOM     59  H30 DR7 d   1      17.950  33.352  17.265  0.00  0.00     0.088 H 
BRANCH  58  60
ATOM     60  CBY DR7 d   1      16.516  33.985  15.809  0.00  0.00    -0.022 C 
BRANCH  60  61
ATOM     61  CAH DR7 d   1      16.387  34.883  14.586  0.00  0.00    -0.067 C 
ATOM     62  H31 DR7 d   1      15.338  34.904  14.255  0.00  0.00     0.028 H 
ATOM     63  H32 DR7 d   1      17.019  34.492  13.775  0.00  0.00     0.028 H 
ATOM     64  H33 DR7 d   1      16.710  35.902  14.844  0.00  0.00     0.028 H 
ENDBRANCH  60  61
BRANCH  60  65
ATOM     65  CAF DR7 d   1      16.020  32.585  15.452  0.00  0.00    -0.067 C 
ATOM     66  H34 DR7 d   1      16.110  31.929  16.331  0.00  0.00     0.028 H 
ATOM     67  H35 DR7 d   1      16.627  32.180  14.629  0.00  0.00     0.028 H 
ATOM     68  H36 DR7 d   1      14.966  32.638  15.140  0.00  0.00     0.028 H 
ENDBRANCH  60  65
BRANCH  60  69
ATOM     69  CAG DR7 d   1      15.631  34.571  16.914  0.00  0.00    -0.067 C 
ATOM     70  H37 DR7 d   1      15.987  35.579  17.172  0.00  0.00     0.028 H 
ATOM     71  H38 DR7 d   1      15.680  33.926  17.804  0.00  0.00     0.028 H 
ATOM     72  H39 DR7 d   1      14.591  34.629  16.559  0.00  0.00     0.028 H 
ENDBRANCH  60  69
ENDBRANCH  58  60
BRANCH  58  73
ATOM     73  NBF DR7 d   1      18.486  35.238  16.556  0.00  0.00    -0.323 N 
ATOM     74  CBL DR7 d   1      18.569  35.817  17.748  0.00  0.00     0.360 C 
ATOM     75  OAJ DR7 d   1      18.183  35.314  18.802  0.00  0.00    -0.239 OA
ATOM     76  H40 DR7 d   1      18.812  35.755  15.765  0.00  0.00     0.165 HD
BRANCH  74  77
ATOM     77  OBJ DR7 d   1      19.172  37.137  17.739  0.00  0.00    -0.309 OA
BRANCH  77  78
ATOM     78  CAB DR7 d   1      19.609  37.743  18.959  0.00  0.00     0.015 C 
ATOM     79  H41 DR7 d   1      20.035  38.734  18.744  0.00  0.00     0.067 H 
ATOM     80  H42 DR7 d   1      20.375  37.109  19.429  0.00  0.00     0.067 H 
ATOM     81  H43 DR7 d   1      18.753  37.852  19.642  0.00  0.00     0.067 H 
ENDBRANCH  77  78
ENDBRANCH  74  77
ENDBRANCH  58  73
ENDBRANCH  55  58
ENDBRANCH   1  54
BRANCH   1  82
ATOM     82  CBB DR7 d   1      22.288  32.652  15.351  0.00  0.00     0.128 C 
ATOM     83  H44 DR7 d   1      22.816  32.604  14.387  0.00  0.00     0.086 H 
ATOM     84  H45 DR7 d   1      22.858  32.096  16.110  0.00  0.00     0.086 H 
BRANCH  82  85
ATOM     85  CBP DR7 d   1      22.231  34.103  15.780  0.00  0.00    -0.030 A 
ATOM     86  CAW DR7 d   1      22.184  35.110  14.821  0.00  0.00    -0.074 A 
ATOM     87  CAY DR7 d   1      22.148  36.447  15.207  0.00  0.00    -0.070 A 
ATOM     88  H46 DR7 d   1      22.175  34.852  13.768  0.00  0.00     0.084 H 
ATOM     89  CBQ DR7 d   1      22.161  36.787  16.557  0.00  0.00    -0.007 A 
ATOM     90  H47 DR7 d   1      22.110  37.226  14.454  0.00  0.00     0.084 H 
ATOM     91  CAZ DR7 d   1      22.221  35.777  17.517  0.00  0.00    -0.070 A 
ATOM     92  CAX DR7 d   1      22.260  34.441  17.129  0.00  0.00    -0.074 A 
ATOM     93  H49 DR7 d   1      22.237  36.034  18.570  0.00  0.00     0.084 H 
ATOM     94  H48 DR7 d   1      22.313  33.661  17.880  0.00  0.00     0.084 H 
BRANCH  89  95
ATOM     95  CBR DR7 d   1      22.134  38.214  16.991  0.00  0.00     0.066 A 
ATOM     96  CAV DR7 d   1      21.356  39.158  16.327  0.00  0.00    -0.054 A 
ATOM     97  CAR DR7 d   1      21.368  40.478  16.766  0.00  0.00    -0.079 A 
ATOM     98  H50 DR7 d   1      20.748  38.868  15.478  0.00  0.00     0.087 H 
ATOM     99  CAO DR7 d   1      22.151  40.826  17.861  0.00  0.00    -0.066 A 
ATOM    100  H51 DR7 d   1      20.772  41.228  16.259  0.00  0.00     0.083 H 
ATOM    101  CAS DR7 d   1      22.913  39.850  18.498  0.00  0.00     0.003 A 
ATOM    102  H52 DR7 d   1      22.168  41.850  18.216  0.00  0.00     0.085 H 
ATOM    103  NBD DR7 d   1      22.890  38.586  18.054  0.00  0.00    -0.260 NA
ATOM    104  H53 DR7 d   1      23.525  40.113  19.353  0.00  0.00     0.114 H 
ENDBRANCH  89  95
ENDBRANCH  82  85
ENDBRANCH   1  82
TORSDOF 27
