REMARK  17 active torsions:
REMARK  status: ('A' for Active; 'I' for Inactive)
REMARK    1  A    between atoms: C_1  and  C2_4 
REMARK       I    between atoms: N_13  and  C_1 
REMARK    2  A    between atoms: CA_14  and  N_13 
REMARK    3  A    between atoms: C1_15  and  CA_14 
REMARK    4  A    between atoms: CA_14  and  CB_17 
REMARK       I    between atoms: N2_24  and  C1_15 
REMARK    5  A    between atoms: CB_17  and  CG_18 
REMARK       I    between atoms: CG_18  and  ND2_20 
REMARK    6  A    between atoms: C9_21  and  O2_22 
REMARK    7  A    between atoms: CA1_23  and  C9_21 
REMARK    8  A    between atoms: C9_21  and  CM_33 
REMARK    9  A    between atoms: CA1_23  and  N2_24 
REMARK   10  A    between atoms: CA1_23  and  CB1_25 
REMARK   11  A    between atoms: CB1_25  and  CG1_26 
REMARK   12  A    between atoms: CM_33  and  N11_32 
REMARK   13  A    between atoms: C21_34  and  CC_35 
REMARK       I    between atoms: CC_35  and  N3_45 
REMARK   14  A    between atoms: N3_45  and  CD_46 
REMARK   15  A    between atoms: CD_46  and  C11_47 
REMARK   16  A    between atoms: CD_46  and  C22_48 
REMARK   17  A    between atoms: CD_46  and  C32_49 
ROOT
ATOM      1  C9  ROC d   1       5.528  -0.356  16.089  0.00  0.00     0.078 C 
ATOM      2  H13 ROC d   1       6.619  -0.450  15.985  0.00  0.00     0.088 H 
ENDROOT
BRANCH   1   3
ATOM      3  O2  ROC d   1       5.251  -0.022  17.448  0.00  0.00    -0.392 OA
ATOM      4  H14 ROC d   1       5.605   0.839  17.640  0.00  0.00     0.210 HD
ENDBRANCH   1   3
BRANCH   1   5
ATOM      5  CA1 ROC d   1       4.942  -1.769  15.790  0.00  0.00     0.042 C 
ATOM      6  H15 ROC d   1       4.994  -1.961  14.708  0.00  0.00     0.077 H 
BRANCH   5   7
ATOM      7  N2  ROC d   1       5.757  -2.729  16.518  0.00  0.00    -0.352 N 
ATOM      8  C1  ROC d   1       6.551  -3.602  15.884  0.00  0.00     0.241 C 
ATOM      9  O1  ROC d   1       6.644  -3.647  14.657  0.00  0.00    -0.271 OA
ATOM     10  H16 ROC d   1       5.724  -2.737  17.517  0.00  0.00     0.163 HD
BRANCH   8  11
ATOM     11  CA  ROC d   1       7.317  -4.554  16.788  0.00  0.00     0.097 C 
ATOM     12  H8  ROC d   1       7.389  -4.111  17.792  0.00  0.00     0.088 H 
BRANCH  11  13
ATOM     13  N   ROC d   1       6.587  -5.814  16.873  0.00  0.00    -0.342 N 
ATOM     14  C   ROC d   1       6.226  -6.345  18.059  0.00  0.00     0.271 C 
ATOM     15  O   ROC d   1       6.521  -5.737  19.098  0.00  0.00    -0.266 OA
ATOM     16  H7  ROC d   1       6.348  -6.296  16.030  0.00  0.00     0.163 HD
BRANCH  14  17
ATOM     17  C2  ROC d   1       5.494  -7.554  18.031  0.00  0.00     0.125 A 
ATOM     18  N1  ROC d   1       5.249  -8.134  16.794  0.00  0.00    -0.243 NA
ATOM     19  C8A ROC d   1       4.554  -9.290  16.618  0.00  0.00     0.068 A 
ATOM     20  C8  ROC d   1       4.355  -9.810  15.314  0.00  0.00    -0.054 A 
ATOM     21  C4A ROC d   1       4.028  -9.961  17.785  0.00  0.00    -0.007 A 
ATOM     22  C7  ROC d   1       3.624 -11.018  15.161  0.00  0.00    -0.081 A 
ATOM     23  H6  ROC d   1       4.754  -9.294  14.448  0.00  0.00     0.087 H 
ATOM     24  C6  ROC d   1       3.099 -11.692  16.308  0.00  0.00    -0.082 A 
ATOM     25  H5  ROC d   1       3.463 -11.431  14.171  0.00  0.00     0.083 H 
ATOM     26  C5  ROC d   1       3.297 -11.171  17.625  0.00  0.00    -0.071 A 
ATOM     27  H4  ROC d   1       2.542 -12.613  16.177  0.00  0.00     0.083 H 
ATOM     28  H3  ROC d   1       2.896 -11.690  18.488  0.00  0.00     0.084 H 
ATOM     29  C4  ROC d   1       4.253  -9.401  19.071  0.00  0.00    -0.068 A 
ATOM     30  C3  ROC d   1       4.989  -8.190  19.203  0.00  0.00    -0.049 A 
ATOM     31  H2  ROC d   1       3.864  -9.897  19.953  0.00  0.00     0.085 H 
ATOM     32  H1  ROC d   1       5.163  -7.757  20.181  0.00  0.00     0.087 H 
ENDBRANCH  14  17
ENDBRANCH  11  13
BRANCH  11  33
ATOM     33  CB  ROC d   1       8.729  -4.798  16.259  0.00  0.00     0.036 C 
ATOM     34  H9  ROC d   1       9.194  -3.829  16.025  0.00  0.00     0.051 H 
ATOM     35  H10 ROC d   1       8.666  -5.404  15.344  0.00  0.00     0.051 H 
BRANCH  33  36
ATOM     36  CG  ROC d   1       9.593  -5.524  17.268  0.00  0.00     0.217 C 
ATOM     37  OD1 ROC d   1       9.936  -4.970  18.311  0.00  0.00    -0.274 OA
ATOM     38  ND2 ROC d   1       9.927  -6.775  16.979  0.00  0.00    -0.370 N 
ATOM     39  H11 ROC d   1      10.496  -7.299  17.612  0.00  0.00     0.159 HD
ATOM     40  H12 ROC d   1       9.609  -7.194  16.128  0.00  0.00     0.159 HD
ENDBRANCH  33  36
ENDBRANCH  11  33
ENDBRANCH   8  11
ENDBRANCH   5   7
BRANCH   5  41
ATOM     41  CB1 ROC d   1       3.474  -1.950  16.270  0.00  0.00    -0.020 C 
ATOM     42  H17 ROC d   1       2.825  -1.304  15.660  0.00  0.00     0.043 H 
ATOM     43  H18 ROC d   1       3.411  -1.642  17.324  0.00  0.00     0.043 H 
BRANCH  41  44
ATOM     44  CG1 ROC d   1       2.975  -3.377  16.156  0.00  0.00    -0.056 A 
ATOM     45  CD1 ROC d   1       2.602  -3.889  14.915  0.00  0.00    -0.077 A 
ATOM     46  CE1 ROC d   1       2.191  -5.214  14.825  0.00  0.00    -0.082 A 
ATOM     47  H19 ROC d   1       2.632  -3.262  14.031  0.00  0.00     0.084 H 
ATOM     48  CZ  ROC d   1       2.154  -6.008  15.957  0.00  0.00    -0.083 A 
ATOM     49  H21 ROC d   1       1.899  -5.626  13.866  0.00  0.00     0.083 H 
ATOM     50  CE2 ROC d   1       2.524  -5.488  17.192  0.00  0.00    -0.082 A 
ATOM     51  H23 ROC d   1       1.835  -7.041  15.881  0.00  0.00     0.083 H 
ATOM     52  CD2 ROC d   1       2.936  -4.172  17.301  0.00  0.00    -0.077 A 
ATOM     53  H22 ROC d   1       2.490  -6.117  18.074  0.00  0.00     0.083 H 
ATOM     54  H20 ROC d   1       3.224  -3.764  18.263  0.00  0.00     0.084 H 
ENDBRANCH  41  44
ENDBRANCH   5  41
ENDBRANCH   1   5
BRANCH   1  55
ATOM     55  CM  ROC d   1       5.115   0.801  15.162  0.00  0.00     0.110 C 
ATOM     56  H25 ROC d   1       5.306   1.753  15.679  0.00  0.00     0.080 H 
ATOM     57  H26 ROC d   1       4.041   0.712  14.944  0.00  0.00     0.080 H 
BRANCH  55  58
ATOM     58  N11 ROC d   1       5.858   0.796  13.890  0.00  0.00    -0.055 N 
ATOM     59  C21 ROC d   1       5.065   1.360  12.743  0.00  0.00     0.180 C 
ATOM     60  C31 ROC d   1       5.901   1.368  11.448  0.00  0.00    -0.026 C 
ATOM     61  H27 ROC d   1       4.798   2.394  13.005  0.00  0.00     0.100 H 
ATOM     62  C3A ROC d   1       7.206   2.146  11.676  0.00  0.00    -0.047 C 
ATOM     63  H28 ROC d   1       5.325   1.849  10.644  0.00  0.00     0.037 H 
ATOM     64  H29 ROC d   1       6.138   0.333  11.160  0.00  0.00     0.037 H 
ATOM     65  C41 ROC d   1       8.085   2.160  10.428  0.00  0.00    -0.061 C 
ATOM     66  C7A ROC d   1       8.036   1.577  12.909  0.00  0.00    -0.027 C 
ATOM     67  H30 ROC d   1       6.932   3.186  11.907  0.00  0.00     0.040 H 
ATOM     68  C51 ROC d   1       8.771   0.796  10.173  0.00  0.00    -0.065 C 
ATOM     69  H31 ROC d   1       8.862   2.928  10.552  0.00  0.00     0.033 H 
ATOM     70  H32 ROC d   1       7.459   2.409   9.558  0.00  0.00     0.033 H 
ATOM     71  C61 ROC d   1       9.599   0.301  11.377  0.00  0.00    -0.065 C 
ATOM     72  H33 ROC d   1       9.440   0.897   9.306  0.00  0.00     0.033 H 
ATOM     73  H34 ROC d   1       7.994   0.049   9.952  0.00  0.00     0.033 H 
ATOM     74  C71 ROC d   1       8.676   0.207  12.604  0.00  0.00    -0.060 C 
ATOM     75  H35 ROC d   1      10.415   1.009  11.581  0.00  0.00     0.033 H 
ATOM     76  H36 ROC d   1      10.021  -0.690  11.154  0.00  0.00     0.033 H 
ATOM     77  H37 ROC d   1       9.264  -0.119  13.475  0.00  0.00     0.033 H 
ATOM     78  H38 ROC d   1       7.881  -0.526  12.403  0.00  0.00     0.033 H 
ATOM     79  C81 ROC d   1       7.110   1.534  14.137  0.00  0.00     0.088 C 
ATOM     80  H39 ROC d   1       8.855   2.280  13.123  0.00  0.00     0.043 H 
ATOM     81  H40 ROC d   1       7.647   1.046  14.964  0.00  0.00     0.076 H 
ATOM     82  H41 ROC d   1       6.858   2.566  14.422  0.00  0.00     0.076 H 
ATOM     83  H24 ROC d   1       6.087  -0.157  13.656  0.00  0.00     0.281 HD
BRANCH  59  84
ATOM     84  CC  ROC d   1       3.783   0.603  12.420  0.00  0.00     0.249 C 
ATOM     85  O3  ROC d   1       3.810  -0.635  12.410  0.00  0.00    -0.271 OA
ATOM     86  N3  ROC d   1       2.718   1.408  12.220  0.00  0.00    -0.351 N 
ATOM     87  H42 ROC d   1       2.874   2.389  12.332  0.00  0.00     0.163 HD
BRANCH  86  88
ATOM     88  CD  ROC d   1       1.363   1.001  11.858  0.00  0.00     0.022 C 
BRANCH  88  89
ATOM     89  C11 ROC d   1       0.576   2.286  11.765  0.00  0.00    -0.054 C 
ATOM     90  H43 ROC d   1      -0.466   2.059  11.493  0.00  0.00     0.030 H 
ATOM     91  H44 ROC d   1       1.022   2.935  10.997  0.00  0.00     0.030 H 
ATOM     92  H45 ROC d   1       0.598   2.800  12.737  0.00  0.00     0.030 H 
ENDBRANCH  88  89
BRANCH  88  93
ATOM     93  C22 ROC d   1       1.303   0.351  10.496  0.00  0.00    -0.054 C 
ATOM     94  H46 ROC d   1       0.265   0.064  10.272  0.00  0.00     0.030 H 
ATOM     95  H47 ROC d   1       1.941  -0.545  10.489  0.00  0.00     0.030 H 
ATOM     96  H48 ROC d   1       1.660   1.061   9.735  0.00  0.00     0.030 H 
ENDBRANCH  88  93
BRANCH  88  97
ATOM     97  C32 ROC d   1       0.713   0.109  12.932  0.00  0.00    -0.054 C 
ATOM     98  H49 ROC d   1      -0.302  -0.169  12.613  0.00  0.00     0.030 H 
ATOM     99  H50 ROC d   1       0.660   0.659  13.883  0.00  0.00     0.030 H 
ATOM    100  H51 ROC d   1       1.317  -0.800  13.068  0.00  0.00     0.030 H 
ENDBRANCH  88  97
ENDBRANCH  86  88
ENDBRANCH  59  84
ENDBRANCH  55  58
ENDBRANCH   1  55
TORSDOF 17
