REMARK  16 active torsions:
REMARK  status: ('A' for Active; 'I' for Inactive)
REMARK    1  A    between atoms: N7_7  and  C18_18 
REMARK    2  A    between atoms: C8_8  and  C11_11 
REMARK       I    between atoms: C11_11  and  N12_12 
REMARK    3  A    between atoms: N12_12  and  C13_13 
REMARK    4  A    between atoms: C13_13  and  C14_14 
REMARK    5  A    between atoms: C13_13  and  C15_15 
REMARK    6  A    between atoms: C13_13  and  C16_16 
REMARK    7  A    between atoms: C18_18  and  C19_19 
REMARK    8  A    between atoms: C19_19  and  C20_20 
REMARK    9  A    between atoms: C19_19  and  O21_21 
REMARK   10  A    between atoms: C20_20  and  N22_22 
REMARK   11  A    between atoms: C20_20  and  C23_23 
REMARK       I    between atoms: N22_22  and  C24_24 
REMARK   12  A    between atoms: C23_23  and  S74_34 
REMARK   13  A    between atoms: C24_24  and  C29_26 
REMARK   14  A    between atoms: C33_30  and  O38_32 
REMARK   15  A    between atoms: C34_31  and  C39_33 
REMARK   16  A    between atoms: S74_34  and  C77_35 
ROOT
ATOM      1  C1  1UN d   1       8.068   1.642  13.099  0.00  0.00    -0.027 C 
ATOM      2  C2  1UN d   1       7.392   2.516  11.944  0.00  0.00    -0.047 C 
ATOM      3  C3  1UN d   1       8.300   2.752  10.649  0.00  0.00    -0.061 C 
ATOM      4  C4  1UN d   1       8.858   1.345  10.251  0.00  0.00    -0.065 C 
ATOM      5  C5  1UN d   1       9.500   0.520  11.449  0.00  0.00    -0.065 C 
ATOM      6  C6  1UN d   1       8.445   0.175  12.627  0.00  0.00    -0.060 C 
ATOM      7  N7  1UN d   1       5.788   0.804  13.929  0.00  0.00    -0.055 N 
ATOM      8  C8  1UN d   1       5.111   1.605  12.813  0.00  0.00     0.180 C 
ATOM      9  C9  1UN d   1       6.020   1.787  11.509  0.00  0.00    -0.026 C 
ATOM     10  C10 1UN d   1       7.090   1.459  14.385  0.00  0.00     0.088 C 
ATOM     11  H1  1UN d   1       8.985   2.160  13.416  0.00  0.00     0.043 H 
ATOM     12  H2  1UN d   1       7.154   3.504  12.366  0.00  0.00     0.040 H 
ATOM     13  H3  1UN d   1       9.127   3.439  10.882  0.00  0.00     0.033 H 
ATOM     14  H4  1UN d   1       7.696   3.169   9.830  0.00  0.00     0.033 H 
ATOM     15  H5  1UN d   1       9.631   1.488   9.481  0.00  0.00     0.033 H 
ATOM     16  H6  1UN d   1       8.030   0.754   9.833  0.00  0.00     0.033 H 
ATOM     17  H7  1UN d   1      10.322   1.111  11.879  0.00  0.00     0.033 H 
ATOM     18  H8  1UN d   1       9.898  -0.424  11.049  0.00  0.00     0.033 H 
ATOM     19  H9  1UN d   1       7.569  -0.368  12.244  0.00  0.00     0.033 H 
ATOM     20  H10 1UN d   1       8.912  -0.406  13.436  0.00  0.00     0.033 H 
ATOM     21  H11 1UN d   1       5.978  -0.119  13.572  0.00  0.00     0.281 HD
ATOM     22  H12 1UN d   1       4.832   2.593  13.208  0.00  0.00     0.100 H 
ATOM     23  H13 1UN d   1       6.244   0.803  11.072  0.00  0.00     0.037 H 
ATOM     24  H14 1UN d   1       5.489   2.404  10.769  0.00  0.00     0.037 H 
ATOM     25  H15 1UN d   1       6.873   2.443  14.827  0.00  0.00     0.076 H 
ATOM     26  H16 1UN d   1       7.581   0.821  15.134  0.00  0.00     0.076 H 
ENDROOT
BRANCH   7  27
ATOM     27  C18 1UN d   1       4.985   0.691  15.175  0.00  0.00     0.110 C 
ATOM     28  H27 1UN d   1       3.919   0.571  14.932  0.00  0.00     0.080 H 
ATOM     29  H28 1UN d   1       5.120   1.587  15.798  0.00  0.00     0.080 H 
BRANCH  27  30
ATOM     30  C19 1UN d   1       5.505  -0.548  15.908  0.00  0.00     0.079 C 
ATOM     31  H29 1UN d   1       6.577  -0.663  15.691  0.00  0.00     0.088 H 
BRANCH  30  32
ATOM     32  C20 1UN d   1       4.808  -1.897  15.550  0.00  0.00     0.047 C 
ATOM     33  H30 1UN d   1       4.892  -2.064  14.466  0.00  0.00     0.077 H 
BRANCH  32  34
ATOM     34  N22 1UN d   1       5.548  -2.920  16.307  0.00  0.00    -0.349 N 
ATOM     35  C24 1UN d   1       6.570  -3.620  15.602  0.00  0.00     0.252 C 
ATOM     36  O25 1UN d   1       6.866  -3.417  14.402  0.00  0.00    -0.268 OA
ATOM     37  H32 1UN d   1       5.344  -3.114  17.267  0.00  0.00     0.163 HD
BRANCH  35  38
ATOM     38  C29 1UN d   1       7.282  -4.558  16.395  0.00  0.00     0.040 A 
ATOM     39  C30 1UN d   1       6.513  -5.489  17.253  0.00  0.00    -0.067 A 
ATOM     40  C31 1UN d   1       7.158  -6.434  18.100  0.00  0.00    -0.079 A 
ATOM     41  H35 1UN d   1       5.430  -5.450  17.235  0.00  0.00     0.085 H 
ATOM     42  C32 1UN d   1       8.578  -6.476  18.105  0.00  0.00    -0.050 A 
ATOM     43  H36 1UN d   1       6.580  -7.105  18.726  0.00  0.00     0.083 H 
ATOM     44  C33 1UN d   1       9.352  -5.566  17.265  0.00  0.00     0.072 A 
ATOM     45  H37 1UN d   1       9.092  -7.190  18.738  0.00  0.00     0.087 H 
ATOM     46  C34 1UN d   1       8.740  -4.591  16.395  0.00  0.00    -0.013 A 
BRANCH  44  47
ATOM     47  O38 1UN d   1      10.720  -5.619  17.294  0.00  0.00    -0.360 OA
ATOM     48  H38 1UN d   1      10.997  -6.296  17.900  0.00  0.00     0.217 HD
ENDBRANCH  44  47
BRANCH  46  49
ATOM     49  C39 1UN d   1       9.663  -3.686  15.570  0.00  0.00    -0.048 C 
ATOM     50  H39 1UN d   1       9.056  -3.001  14.961  0.00  0.00     0.033 H 
ATOM     51  H40 1UN d   1      10.290  -4.305  14.911  0.00  0.00     0.033 H 
ATOM     52  H41 1UN d   1      10.306  -3.103  16.247  0.00  0.00     0.033 H 
ENDBRANCH  46  49
ENDBRANCH  35  38
ENDBRANCH  32  34
BRANCH  32  53
ATOM     53  C23 1UN d   1       3.340  -2.061  15.962  0.00  0.00     0.003 C 
ATOM     54  H33 1UN d   1       2.822  -1.094  15.878  0.00  0.00     0.052 H 
ATOM     55  H34 1UN d   1       3.285  -2.417  17.001  0.00  0.00     0.052 H 
BRANCH  53  56
ATOM     56  S74 1UN d   1       2.534  -3.302  14.832  0.00  0.00    -0.128 SA
BRANCH  56  57
ATOM     57  C77 1UN d   1       2.671  -4.769  15.781  0.00  0.00     0.000 A 
ATOM     58  C78 1UN d   1       2.923  -5.945  15.043  0.00  0.00    -0.067 A 
ATOM     59  C79 1UN d   1       3.047  -7.176  15.775  0.00  0.00    -0.082 A 
ATOM     60  H42 1UN d   1       3.020  -5.921  13.964  0.00  0.00     0.085 H 
ATOM     61  C80 1UN d   1       2.924  -7.232  17.214  0.00  0.00    -0.083 A 
ATOM     62  H43 1UN d   1       3.239  -8.093  15.229  0.00  0.00     0.083 H 
ATOM     63  C81 1UN d   1       2.663  -6.034  17.968  0.00  0.00    -0.082 A 
ATOM     64  H44 1UN d   1       3.029  -8.181  17.728  0.00  0.00     0.083 H 
ATOM     65  C82 1UN d   1       2.538  -4.788  17.225  0.00  0.00    -0.067 A 
ATOM     66  H45 1UN d   1       2.563  -6.058  19.047  0.00  0.00     0.083 H 
ATOM     67  H46 1UN d   1       2.343  -3.864  17.757  0.00  0.00     0.085 H 
ENDBRANCH  56  57
ENDBRANCH  53  56
ENDBRANCH  32  53
ENDBRANCH  30  32
BRANCH  30  68
ATOM     68  O21 1UN d   1       5.324  -0.236  17.275  0.00  0.00    -0.392 OA
ATOM     69  H31 1UN d   1       5.755   0.587  17.471  0.00  0.00     0.210 HD
ENDBRANCH  30  68
ENDBRANCH  27  30
ENDBRANCH   7  27
BRANCH   8  70
ATOM     70  C11 1UN d   1       3.919   0.884  12.348  0.00  0.00     0.249 C 
ATOM     71  N12 1UN d   1       2.863   1.771  12.075  0.00  0.00    -0.351 N 
ATOM     72  H17 1UN d   1       3.032   2.746  12.221  0.00  0.00     0.163 HD
ATOM     73  O17 1UN d   1       4.006  -0.400  12.233  0.00  0.00    -0.271 OA
BRANCH  71  74
ATOM     74  C13 1UN d   1       1.488   1.370  11.577  0.00  0.00     0.022 C 
BRANCH  74  75
ATOM     75  C14 1UN d   1       0.844   0.477  12.619  0.00  0.00    -0.054 C 
ATOM     76  H18 1UN d   1      -0.156   0.175  12.275  0.00  0.00     0.030 H 
ATOM     77  H19 1UN d   1       0.755   1.026  13.568  0.00  0.00     0.030 H 
ATOM     78  H20 1UN d   1       1.466  -0.418  12.770  0.00  0.00     0.030 H 
ENDBRANCH  74  75
BRANCH  74  79
ATOM     79  C15 1UN d   1       1.561   0.543  10.211  0.00  0.00    -0.054 C 
ATOM     80  H21 1UN d   1       0.544   0.275   9.890  0.00  0.00     0.030 H 
ATOM     81  H22 1UN d   1       2.149  -0.373  10.368  0.00  0.00     0.030 H 
ATOM     82  H23 1UN d   1       2.040   1.158   9.435  0.00  0.00     0.030 H 
ENDBRANCH  74  79
BRANCH  74  83
ATOM     83  C16 1UN d   1       0.658   2.716  11.401  0.00  0.00    -0.054 C 
ATOM     84  H24 1UN d   1      -0.353   2.478  11.039  0.00  0.00     0.030 H 
ATOM     85  H25 1UN d   1       1.165   3.367  10.673  0.00  0.00     0.030 H 
ATOM     86  H26 1UN d   1       0.589   3.233  12.369  0.00  0.00     0.030 H 
ENDBRANCH  74  83
ENDBRANCH  71  74
ENDBRANCH   8  70
TORSDOF 16
