REMARK  5 active torsions:
REMARK  status: ('A' for Active; 'I' for Inactive)
REMARK    1  A    between atoms: N3_9  and  C1_10 
REMARK    2  A    between atoms: C4_12  and  C5_13 
REMARK    3  A    between atoms: C5_13  and  O5_14 
REMARK    4  A    between atoms: C3_15  and  O3_16 
REMARK    5  A    between atoms: C2_17  and  O2_18 
ROOT
ATOM      1  C1  F01 d   1      32.625   3.251  42.057  0.00  0.00     0.141 C 
ATOM      2  O4  F01 d   1      33.206   2.004  42.509  0.00  0.00    -0.353 OA
ATOM      3  C4  F01 d   1      32.203   0.978  42.381  0.00  0.00     0.088 C 
ATOM      4  C3  F01 d   1      31.389   1.399  41.166  0.00  0.00     0.091 C 
ATOM      5  C2  F01 d   1      31.325   2.907  41.322  0.00  0.00     0.105 C 
ATOM      6  H4  F01 d   1      32.392   3.921  42.898  0.00  0.00     0.123 H 
ATOM      7  H5  F01 d   1      31.580   0.900  43.284  0.00  0.00     0.090 H 
ATOM      8  H9  F01 d   1      31.883   1.112  40.226  0.00  0.00     0.091 H 
ATOM      9  H11 F01 d   1      31.255   3.417  40.350  0.00  0.00     0.093 H 
ENDROOT
BRANCH   1  10
ATOM     10  N3  F01 d   1      33.719   3.833  41.236  0.00  0.00    -0.277 N 
ATOM     11  C6  F01 d   1      34.077   5.188  41.384  0.00  0.00     0.330 A 
ATOM     12  O1  F01 d   1      33.489   5.929  42.169  0.00  0.00    -0.246 OA
ATOM     13  N1  F01 d   1      35.116   5.719  40.631  0.00  0.00    -0.291 N 
ATOM     14  C7  F01 d   1      35.799   4.941  39.736  0.00  0.00     0.164 A 
ATOM     15  H1  F01 d   1      35.368   6.680  40.744  0.00  0.00     0.172 HD
ATOM     16  N2  F01 d   1      36.778   5.486  39.041  0.00  0.00    -0.281 NA
ATOM     17  C8  F01 d   1      35.466   3.614  39.575  0.00  0.00     0.177 A 
ATOM     18  H2  F01 d   1      37.294   4.931  38.376  0.00  0.00     0.188 HD
ATOM     19  F1  F01 d   1      36.147   2.877  38.683  0.00  0.00    -0.201 F 
ATOM     20  C9  F01 d   1      34.439   3.044  40.314  0.00  0.00     0.028 A 
ATOM     21  H3  F01 d   1      34.190   1.992  40.183  0.00  0.00     0.117 H 
ENDBRANCH   1  10
BRANCH   5  22
ATOM     22  O2  F01 d   1      30.222   3.250  42.154  0.00  0.00    -0.388 OA
ATOM     23  H12 F01 d   1      29.418   2.937  41.757  0.00  0.00     0.210 HD
ENDBRANCH   5  22
BRANCH   3  24
ATOM     24  C5  F01 d   1      32.899  -0.364  42.075  0.00  0.00     0.043 C 
ATOM     25  H6  F01 d   1      32.143  -1.163  42.046  0.00  0.00     0.078 H 
ATOM     26  H7  F01 d   1      33.630  -0.579  42.869  0.00  0.00     0.078 H 
BRANCH  24  27
ATOM     27  O5  F01 d   1      33.586  -0.316  40.799  0.00  0.00    -0.398 OA
ATOM     28  H8  F01 d   1      34.243   0.370  40.820  0.00  0.00     0.209 HD
ENDBRANCH  24  27
ENDBRANCH   3  24
BRANCH   4  29
ATOM     29  O3  F01 d   1      30.105   0.831  41.227  0.00  0.00    -0.390 OA
ATOM     30  H10 F01 d   1      29.605   1.099  40.465  0.00  0.00     0.210 HD
ENDBRANCH   4  29
TORSDOF 5
