REMARK WARNING: 32 MAX_TORS EXCEEDED!!!
REMARK  34 active torsions:
REMARK  status: ('A' for Active; 'I' for Inactive)
REMARK    1  A    between atoms: N_1  and  CA_2 
REMARK    2  A    between atoms: CA_2  and  C_3 
REMARK    3  A    between atoms: CA_2  and  CB_5 
REMARK       I    between atoms: C_3  and  N_10 
REMARK    4  A    between atoms: CB_5  and  CG_6 
REMARK    5  A    between atoms: CG_6  and  CD_7 
REMARK       I    between atoms: CD_7  and  NE2_9 
REMARK    6  A    between atoms: N_10  and  CA_11 
REMARK    7  A    between atoms: CA_11  and  C_12 
REMARK    8  A    between atoms: CA_11  and  CB_14 
REMARK       I    between atoms: C_12  and  N_18 
REMARK    9  A    between atoms: CB_14  and  CG_15 
REMARK   10  A    between atoms: CG_15  and  CD1_16 
REMARK   11  A    between atoms: CG_15  and  CD2_17 
REMARK   12  A    between atoms: N_18  and  CA_19 
REMARK   13  A    between atoms: CA_19  and  C_20 
REMARK   14  A    between atoms: CA_19  and  CB_22 
REMARK       I    between atoms: C_20  and  N_24 
REMARK   15  A    between atoms: CB_22  and  OG_23 
REMARK   16  A    between atoms: CA_25  and  C_26 
REMARK       I    between atoms: C_26  and  N_31 
REMARK   17  A    between atoms: N_31  and  CA_32 
REMARK   18  A    between atoms: CA_32  and  C_33 
REMARK   19  A    between atoms: CA_32  and  CB_35 
REMARK       I    between atoms: C_33  and  N_36 
REMARK   20  A    between atoms: CA_37  and  C_38 
REMARK       I    between atoms: C_38  and  N_43 
REMARK   21  A    between atoms: N_43  and  CA_44 
REMARK   22  A    between atoms: CA_44  and  C_45 
REMARK   23  A    between atoms: CA_44  and  CB_47 
REMARK       I    between atoms: C_45  and  N_54 
REMARK   24  A    between atoms: CB_47  and  CG_48 
REMARK   25  A    between atoms: N_54  and  CA_55 
REMARK   26  A    between atoms: CA_55  and  C_56 
REMARK   27  A    between atoms: CA_55  and  CB_58 
REMARK       I    between atoms: C_56  and  N_62 
REMARK   28  A    between atoms: CB_58  and  CG_59 
REMARK   29  A    between atoms: N_62  and  CA_63 
REMARK   30  A    between atoms: CA_63  and  C_64 
REMARK   31  A    between atoms: CA_63  and  CB_66 
REMARK   32  A    between atoms: CB_66  and  CG_67 
REMARK   33  A    between atoms: CG_67  and  CD1_68 
REMARK   34  A    between atoms: CG_67  and  CD2_69 
ROOT
ATOM      1  CA  PHE d   1       8.984 -16.488  -4.369  0.00  0.00     0.086 C 
ATOM      2  H35 PHE d   1       7.885 -16.524  -4.406  0.00  0.00     0.086 H 
ENDROOT
BRANCH   1   3
ATOM      3  N   PHE d   1       9.490 -16.281  -5.712  0.00  0.00    -0.346 N 
ATOM      4  C   PRO d   1       9.139 -15.208  -6.408  0.00  0.00     0.241 C 
ATOM      5  O   PRO d   1       8.366 -14.350  -5.965  0.00  0.00    -0.271 OA
ATOM      6  H34 PHE d   1      10.109 -16.953  -6.117  0.00  0.00     0.163 HD
BRANCH   4   7
ATOM      7  CA  PRO d   1       9.731 -15.085  -7.812  0.00  0.00     0.091 C 
ATOM      8  N   PRO d   1       8.998 -14.080  -8.580  0.00  0.00    -0.337 N 
ATOM      9  C   SER d   1       7.727 -14.306  -8.931  0.00  0.00     0.245 C 
ATOM     10  CD  PRO d   1       9.838 -12.899  -8.851  0.00  0.00    -0.001 C 
ATOM     11  O   SER d   1       7.143 -15.350  -8.635  0.00  0.00    -0.271 OA
ATOM     12  CG  PRO d   1      10.937 -13.051  -7.830  0.00  0.00    -0.048 C 
ATOM     13  H32 PRO d   1       9.276 -11.966  -8.697  0.00  0.00     0.064 H 
ATOM     14  H33 PRO d   1      10.239 -12.921  -9.875  0.00  0.00     0.064 H 
ATOM     15  CB  PRO d   1      11.155 -14.541  -7.806  0.00  0.00    -0.036 C 
ATOM     16  H30 PRO d   1      11.848 -12.521  -8.145  0.00  0.00     0.035 H 
ATOM     17  H31 PRO d   1      10.618 -12.680  -6.845  0.00  0.00     0.035 H 
ATOM     18  H28 PRO d   1      11.712 -14.875  -8.694  0.00  0.00     0.036 H 
ATOM     19  H29 PRO d   1      11.694 -14.849  -6.898  0.00  0.00     0.036 H 
ATOM     20  H27 PRO d   1       9.694 -16.067  -8.307  0.00  0.00     0.087 H 
BRANCH   9  21
ATOM     21  CA  SER d   1       7.024 -13.217  -9.725  0.00  0.00     0.109 C 
ATOM     22  H23 SER d   1       7.715 -12.784 -10.464  0.00  0.00     0.090 H 
BRANCH  21  23
ATOM     23  N   SER d   1       5.890 -13.812 -10.411  0.00  0.00    -0.344 N 
ATOM     24  C   LEU d   1       6.070 -14.633 -11.437  0.00  0.00     0.241 C 
ATOM     25  O   LEU d   1       7.188 -14.930 -11.870  0.00  0.00    -0.271 OA
ATOM     26  H22 SER d   1       4.962 -13.600 -10.106  0.00  0.00     0.163 HD
BRANCH  24  27
ATOM     27  CA  LEU d   1       4.807 -15.198 -12.073  0.00  0.00     0.089 C 
ATOM     28  H12 LEU d   1       4.042 -14.407 -12.090  0.00  0.00     0.087 H 
BRANCH  27  29
ATOM     29  N   LEU d   1       5.050 -15.635 -13.439  0.00  0.00    -0.346 N 
ATOM     30  C   GLN d   1       5.077 -14.782 -14.454  0.00  0.00     0.249 C 
ATOM     31  O   GLN d   1       4.924 -13.568 -14.319  0.00  0.00    -0.271 OA
ATOM     32  H11 LEU d   1       5.201 -16.607 -13.618  0.00  0.00     0.163 HD
BRANCH  30  33
ATOM     33  CA  GLN d   1       5.330 -15.391 -15.823  0.00  0.00     0.176 C 
ATOM     34  H4  GLN d   1       4.832 -16.370 -15.882  0.00  0.00     0.099 H 
BRANCH  33  35
ATOM     35  N   GLN d   1       4.779 -14.501 -16.880  0.00  0.00    -0.066 N 
ATOM     36  H1  GLN d   1       4.949 -14.909 -17.786  0.00  0.00     0.275 HD
ATOM     37  H2  GLN d   1       5.228 -13.600 -16.828  0.00  0.00     0.275 HD
ATOM     38  H3  GLN d   1       3.787 -14.391 -16.743  0.00  0.00     0.275 HD
ENDBRANCH  33  35
BRANCH  33  39
ATOM     39  CB  GLN d   1       6.831 -15.581 -16.021  0.00  0.00    -0.022 C 
ATOM     40  H5  GLN d   1       7.359 -14.802 -15.451  0.00  0.00     0.037 H 
ATOM     41  H6  GLN d   1       7.058 -15.469 -17.091  0.00  0.00     0.037 H 
BRANCH  39  42
ATOM     42  CG  GLN d   1       7.334 -16.933 -15.564  0.00  0.00     0.011 C 
ATOM     43  H7  GLN d   1       7.008 -17.100 -14.527  0.00  0.00     0.047 H 
ATOM     44  H8  GLN d   1       8.433 -16.935 -15.607  0.00  0.00     0.047 H 
BRANCH  42  45
ATOM     45  CD  GLN d   1       6.812 -18.059 -16.425  0.00  0.00     0.215 C 
ATOM     46  OE1 GLN d   1       7.043 -19.229 -16.142  0.00  0.00    -0.274 OA
ATOM     47  NE2 GLN d   1       6.102 -17.709 -17.487  0.00  0.00    -0.370 N 
ATOM     48  H9  GLN d   1       5.731 -18.412 -18.094  0.00  0.00     0.159 HD
ATOM     49  H10 GLN d   1       5.937 -16.742 -17.682  0.00  0.00     0.159 HD
ENDBRANCH  42  45
ENDBRANCH  39  42
ENDBRANCH  33  39
ENDBRANCH  30  33
ENDBRANCH  27  29
BRANCH  27  50
ATOM     50  CB  LEU d   1       4.283 -16.373 -11.243  0.00  0.00    -0.035 C 
ATOM     51  H13 LEU d   1       4.069 -15.998 -10.231  0.00  0.00     0.037 H 
ATOM     52  H14 LEU d   1       5.081 -17.128 -11.193  0.00  0.00     0.037 H 
BRANCH  50  53
ATOM     53  CG  LEU d   1       3.015 -17.070 -11.758  0.00  0.00    -0.059 C 
ATOM     54  H15 LEU d   1       3.230 -17.537 -12.730  0.00  0.00     0.038 H 
BRANCH  53  55
ATOM     55  CD1 LEU d   1       2.612 -18.144 -10.766  0.00  0.00    -0.073 C 
ATOM     56  H16 LEU d   1       1.704 -18.651 -11.124  0.00  0.00     0.028 H 
ATOM     57  H17 LEU d   1       2.413 -17.683  -9.787  0.00  0.00     0.028 H 
ATOM     58  H18 LEU d   1       3.427 -18.877 -10.668  0.00  0.00     0.028 H 
ENDBRANCH  53  55
BRANCH  53  59
ATOM     59  CD2 LEU d   1       1.886 -16.068 -11.934  0.00  0.00    -0.073 C 
ATOM     60  H19 LEU d   1       2.191 -15.295 -12.655  0.00  0.00     0.028 H 
ATOM     61  H20 LEU d   1       1.659 -15.597 -10.966  0.00  0.00     0.028 H 
ATOM     62  H21 LEU d   1       0.991 -16.586 -12.308  0.00  0.00     0.028 H 
ENDBRANCH  53  59
ENDBRANCH  50  53
ENDBRANCH  27  50
ENDBRANCH  24  27
ENDBRANCH  21  23
BRANCH  21  63
ATOM     63  CB  SER d   1       6.568 -12.129  -8.757  0.00  0.00     0.044 C 
ATOM     64  H24 SER d   1       5.757 -11.546  -9.219  0.00  0.00     0.077 H 
ATOM     65  H25 SER d   1       7.415 -11.464  -8.531  0.00  0.00     0.077 H 
BRANCH  63  66
ATOM     66  OG  SER d   1       6.099 -12.715  -7.557  0.00  0.00    -0.398 OA
ATOM     67  H26 SER d   1       6.799 -13.217  -7.157  0.00  0.00     0.209 HD
ENDBRANCH  63  66
ENDBRANCH  21  63
ENDBRANCH   9  21
ENDBRANCH   4   7
ENDBRANCH   1   3
BRANCH   1  68
ATOM     68  C   PHE d   1       9.408 -15.326  -3.470  0.00  0.00     0.243 C 
ATOM     69  O   PHE d   1      10.585 -14.970  -3.400  0.00  0.00    -0.271 OA
ATOM     70  N   PRO d   1       8.440 -14.714  -2.773  0.00  0.00    -0.337 N 
ATOM     71  CA  PRO d   1       8.710 -13.592  -1.874  0.00  0.00     0.091 C 
ATOM     72  CD  PRO d   1       7.010 -15.075  -2.749  0.00  0.00    -0.001 C 
ATOM     73  CB  PRO d   1       7.311 -13.078  -1.550  0.00  0.00    -0.036 C 
ATOM     74  H39 PRO d   1       9.299 -12.815  -2.384  0.00  0.00     0.087 H 
ATOM     75  CG  PRO d   1       6.507 -14.339  -1.529  0.00  0.00    -0.048 C 
ATOM     76  H40 PRO d   1       6.950 -12.388  -2.327  0.00  0.00     0.036 H 
ATOM     77  H41 PRO d   1       7.288 -12.574  -0.573  0.00  0.00     0.036 H 
ATOM     78  H42 PRO d   1       5.431 -14.125  -1.611  0.00  0.00     0.035 H 
ATOM     79  H43 PRO d   1       6.697 -14.915  -0.612  0.00  0.00     0.035 H 
ATOM     80  H44 PRO d   1       6.876 -16.161  -2.641  0.00  0.00     0.064 H 
ATOM     81  H45 PRO d   1       6.498 -14.731  -3.660  0.00  0.00     0.064 H 
BRANCH  71  82
ATOM     82  C   PRO d   1       9.467 -14.049  -0.632  0.00  0.00     0.241 C 
ATOM     83  O   PRO d   1       9.397 -15.217  -0.250  0.00  0.00    -0.271 OA
ATOM     84  N   PHE d   1      10.203 -13.128  -0.019  0.00  0.00    -0.346 N 
ATOM     85  H46 PHE d   1      10.238 -12.204  -0.399  0.00  0.00     0.163 HD
BRANCH  84  86
ATOM     86  CA  PHE d   1      10.963 -13.423   1.193  0.00  0.00     0.093 C 
ATOM     87  H47 PHE d   1      11.625 -14.286   1.025  0.00  0.00     0.088 H 
BRANCH  86  88
ATOM     88  C   PHE d   1       9.953 -13.746   2.287  0.00  0.00     0.241 C 
ATOM     89  O   PHE d   1       8.776 -13.425   2.142  0.00  0.00    -0.271 OA
ATOM     90  N   ASP d   1      10.396 -14.375   3.374  0.00  0.00    -0.345 N 
ATOM     91  H55 ASP d   1      11.364 -14.614   3.451  0.00  0.00     0.163 HD
BRANCH  90  92
ATOM     92  CA  ASP d   1       9.473 -14.718   4.455  0.00  0.00     0.098 C 
ATOM     93  H56 ASP d   1       8.543 -15.070   3.986  0.00  0.00     0.088 H 
BRANCH  92  94
ATOM     94  C   ASP d   1       9.122 -13.537   5.346  0.00  0.00     0.241 C 
ATOM     95  O   ASP d   1       9.947 -12.663   5.589  0.00  0.00    -0.271 OA
ATOM     96  N   LEU d   1       7.882 -13.520   5.827  0.00  0.00    -0.345 N 
ATOM     97  H59 LEU d   1       7.255 -14.257   5.576  0.00  0.00     0.163 HD
BRANCH  96  98
ATOM     98  CA  LEU d   1       7.410 -12.462   6.707  0.00  0.00     0.096 C 
ATOM     99  H60 LEU d   1       7.594 -11.488   6.231  0.00  0.00     0.089 H 
BRANCH  98 100
ATOM    100  C   LEU d   1       8.164 -12.518   8.044  0.00  0.00     0.196 C 
ATOM    101  O   LEU d   1       8.837 -13.539   8.299  0.00  0.00    -0.646 OA
ATOM    102  OXT LEU d   1       8.073 -11.546   8.818  0.00  0.00    -0.646 OA
ENDBRANCH  98 100
BRANCH  98 103
ATOM    103  CB  LEU d   1       5.902 -12.629   6.949  0.00  0.00    -0.034 C 
ATOM    104  H61 LEU d   1       5.696 -12.237   7.956  0.00  0.00     0.037 H 
ATOM    105  H62 LEU d   1       5.694 -13.709   6.926  0.00  0.00     0.037 H 
BRANCH 103 106
ATOM    106  CG  LEU d   1       4.896 -11.961   5.997  0.00  0.00    -0.059 C 
ATOM    107  H63 LEU d   1       4.716 -10.933   6.345  0.00  0.00     0.038 H 
BRANCH 106 108
ATOM    108  CD1 LEU d   1       5.424 -11.888   4.572  0.00  0.00    -0.073 C 
ATOM    109  H64 LEU d   1       4.675 -11.405   3.928  0.00  0.00     0.028 H 
ATOM    110  H65 LEU d   1       5.624 -12.905   4.203  0.00  0.00     0.028 H 
ATOM    111  H66 LEU d   1       6.355 -11.302   4.555  0.00  0.00     0.028 H 
ENDBRANCH 106 108
BRANCH 106 112
ATOM    112  CD2 LEU d   1       3.590 -12.728   6.058  0.00  0.00    -0.073 C 
ATOM    113  H67 LEU d   1       3.234 -12.764   7.098  0.00  0.00     0.028 H 
ATOM    114  H68 LEU d   1       3.749 -13.752   5.689  0.00  0.00     0.028 H 
ATOM    115  H69 LEU d   1       2.840 -12.225   5.431  0.00  0.00     0.028 H 
ENDBRANCH 106 112
ENDBRANCH 103 106
ENDBRANCH  98 103
ENDBRANCH  96  98
ENDBRANCH  92  94
BRANCH  92 116
ATOM    116  CB  ASP d   1      10.022 -15.853   5.332  0.00  0.00     0.043 C 
ATOM    117  H57 ASP d   1       9.523 -15.815   6.311  0.00  0.00     0.052 H 
ATOM    118  H58 ASP d   1      11.104 -15.703   5.466  0.00  0.00     0.052 H 
BRANCH 116 119
ATOM    119  CG  ASP d   1       9.791 -17.233   4.719  0.00  0.00     0.175 C 
ATOM    120  OD1 ASP d   1       8.734 -17.446   4.076  0.00  0.00    -0.648 OA
ATOM    121  OD2 ASP d   1      10.658 -18.110   4.893  0.00  0.00    -0.648 OA
ENDBRANCH 116 119
ENDBRANCH  92 116
ENDBRANCH  90  92
ENDBRANCH  86  88
BRANCH  86 122
ATOM    122  CB  PHE d   1      11.803 -12.202   1.584  0.00  0.00    -0.014 C 
ATOM    123  H48 PHE d   1      12.150 -12.338   2.619  0.00  0.00     0.043 H 
ATOM    124  H49 PHE d   1      11.163 -11.309   1.526  0.00  0.00     0.043 H 
BRANCH 122 125
ATOM    125  CG  PHE d   1      13.010 -11.979   0.703  0.00  0.00    -0.056 A 
ATOM    126  CD1 PHE d   1      13.729 -10.792   0.774  0.00  0.00    -0.077 A 
ATOM    127  CE1 PHE d   1      14.876 -10.603   0.005  0.00  0.00    -0.082 A 
ATOM    128  H50 PHE d   1      13.393 -10.002   1.436  0.00  0.00     0.084 H 
ATOM    129  CZ  PHE d   1      15.312 -11.611  -0.848  0.00  0.00    -0.083 A 
ATOM    130  H52 PHE d   1      15.427  -9.672   0.072  0.00  0.00     0.083 H 
ATOM    131  CE2 PHE d   1      14.601 -12.798  -0.931  0.00  0.00    -0.082 A 
ATOM    132  H54 PHE d   1      16.205 -11.469  -1.446  0.00  0.00     0.083 H 
ATOM    133  CD2 PHE d   1      13.456 -12.976  -0.159  0.00  0.00    -0.077 A 
ATOM    134  H53 PHE d   1      14.936 -13.586  -1.596  0.00  0.00     0.083 H 
ATOM    135  H51 PHE d   1      12.903 -13.906  -0.231  0.00  0.00     0.084 H 
ENDBRANCH 122 125
ENDBRANCH  86 122
ENDBRANCH  84  86
ENDBRANCH  71  82
ENDBRANCH   1  68
BRANCH   1 136
ATOM    136  CB  PHE d   1       9.501 -17.817  -3.805  0.00  0.00    -0.049 C 
ATOM    137  H36 PHE d   1       9.110 -17.960  -2.787  0.00  0.00     0.030 H 
ATOM    138  H37 PHE d   1      10.601 -17.800  -3.776  0.00  0.00     0.030 H 
ATOM    139  H38 PHE d   1       9.164 -18.644  -4.447  0.00  0.00     0.030 H 
ENDBRANCH   1 136
TORSDOF 34
