REMARK  11 active torsions:
REMARK  status: ('A' for Active; 'I' for Inactive)
REMARK    1  A    between atoms: PG_1  and  O3B_5 
REMARK    2  A    between atoms: O3B_5  and  PB_6 
REMARK    3  A    between atoms: PB_6  and  O3A_9 
REMARK    4  A    between atoms: O3A_9  and  PA_10 
REMARK    5  A    between atoms: PA_10  and  O5'_13 
REMARK    6  A    between atoms: O5'_13  and  C5'_14 
REMARK    7  A    between atoms: C5'_14  and  C4'_15 
REMARK    8  A    between atoms: C3'_17  and  O3'_18 
REMARK    9  A    between atoms: C2'_19  and  O2'_20 
REMARK   10  A    between atoms: C1'_21  and  N9_22 
REMARK   11  A    between atoms: C2_29  and  N2_30 
ROOT
ATOM      1  C4' GTP d   1      27.897  24.789 -44.440  0.00  0.00     0.089 C 
ATOM      2  O4' GTP d   1      27.752  25.400 -45.746  0.00  0.00    -0.353 OA
ATOM      3  C3' GTP d   1      29.331  24.290 -44.415  0.00  0.00     0.091 C 
ATOM      4  C2' GTP d   1      29.566  23.844 -45.860  0.00  0.00     0.105 C 
ATOM      5  C1' GTP d   1      28.686  24.821 -46.647  0.00  0.00     0.139 C 
ATOM      6  H3  GTP d   1      27.234  23.914 -44.374  0.00  0.00     0.090 H 
ATOM      7  H4  GTP d   1      30.024  25.097 -44.135  0.00  0.00     0.091 H 
ATOM      8  H6  GTP d   1      30.626  23.958 -46.131  0.00  0.00     0.093 H 
ATOM      9  H8  GTP d   1      28.142  24.244 -47.409  0.00  0.00     0.122 H 
ENDROOT
BRANCH   1  10
ATOM     10  C5' GTP d   1      27.464  25.748 -43.333  0.00  0.00     0.058 C 
ATOM     11  H1  GTP d   1      26.742  26.468 -43.745  0.00  0.00     0.079 H 
ATOM     12  H2  GTP d   1      26.987  25.172 -42.526  0.00  0.00     0.079 H 
BRANCH  10  13
ATOM     13  O5' GTP d   1      28.591  26.469 -42.792  0.00  0.00    -0.287 OA
BRANCH  13  14
ATOM     14  PA  GTP d   1      28.487  28.048 -42.473  0.00  0.00     0.417 P 
ATOM     15  O1A GTP d   1      29.383  28.767 -43.604  0.00  0.00    -0.624 OA
ATOM     16  O2A GTP d   1      27.098  28.563 -42.456  0.00  0.00    -0.624 OA
BRANCH  14  17
ATOM     17  O3A GTP d   1      29.246  28.341 -41.079  0.00  0.00    -0.180 OA
BRANCH  17  18
ATOM     18  PB  GTP d   1      28.558  27.993 -39.662  0.00  0.00     0.428 P 
ATOM     19  O1B GTP d   1      29.746  28.024 -38.575  0.00  0.00    -0.624 OA
ATOM     20  O2B GTP d   1      27.846  26.695 -39.691  0.00  0.00    -0.624 OA
BRANCH  18  21
ATOM     21  O3B GTP d   1      27.581  29.211 -39.265  0.00  0.00    -0.173 OA
BRANCH  21  22
ATOM     22  PG  GTP d   1      27.971  30.738 -39.588  0.00  0.00     0.431 P 
ATOM     23  O1G GTP d   1      26.624  31.597 -39.393  0.00  0.00    -0.616 OA
ATOM     24  O2G GTP d   1      28.972  31.232 -38.429  0.00  0.00    -0.616 OA
ATOM     25  O3G GTP d   1      28.545  30.906 -40.941  0.00  0.00    -0.616 OA
ENDBRANCH  21  22
ENDBRANCH  18  21
ENDBRANCH  17  18
ENDBRANCH  14  17
ENDBRANCH  13  14
ENDBRANCH  10  13
ENDBRANCH   1  10
BRANCH   3  26
ATOM     26  O3' GTP d   1      29.480  23.207 -43.509  0.00  0.00    -0.390 OA
ATOM     27  H5  GTP d   1      28.914  22.492 -43.776  0.00  0.00     0.210 HD
ENDBRANCH   3  26
BRANCH   5  28
ATOM     28  N9  GTP d   1      29.403  25.896 -47.331  0.00  0.00    -0.295 N 
ATOM     29  C8  GTP d   1      30.059  26.959 -46.753  0.00  0.00     0.071 A 
ATOM     30  N7  GTP d   1      30.566  27.783 -47.629  0.00  0.00    -0.234 NA
ATOM     31  H9  GTP d   1      30.146  27.098 -45.676  0.00  0.00     0.144 H 
ATOM     32  C5  GTP d   1      30.237  27.232 -48.858  0.00  0.00     0.171 A 
ATOM     33  C6  GTP d   1      30.507  27.691 -50.174  0.00  0.00     0.292 A 
ATOM     34  C4  GTP d   1      29.534  26.057 -48.694  0.00  0.00     0.161 A 
ATOM     35  O6  GTP d   1      31.104  28.715 -50.524  0.00  0.00    -0.265 OA
ATOM     36  N1  GTP d   1      29.997  26.823 -51.133  0.00  0.00    -0.154 N 
ATOM     37  C2  GTP d   1      29.312  25.664 -50.864  0.00  0.00     0.680 A 
ATOM     38  H10 GTP d   1      30.140  27.061 -52.093  0.00  0.00     0.187 HD
ATOM     39  N3  GTP d   1      29.047  25.226 -49.642  0.00  0.00    -0.174 N 
ATOM     40  H13 GTP d   1      28.532  24.357 -49.439  0.00  0.00     0.186 HD
BRANCH  37  41
ATOM     41  N2  GTP d   1      28.906  24.957 -51.926  0.00  0.00    -0.234 N 
ATOM     42  H11 GTP d   1      28.387  24.078 -51.791  0.00  0.00     0.174 HD
ATOM     43  H12 GTP d   1      29.113  25.293 -52.878  0.00  0.00     0.174 HD
ENDBRANCH  37  41
ENDBRANCH   5  28
BRANCH   4  44
ATOM     44  O2' GTP d   1      29.170  22.511 -46.111  0.00  0.00    -0.388 OA
ATOM     45  H7  GTP d   1      29.341  22.297 -47.020  0.00  0.00     0.210 HD
ENDBRANCH   4  44
TORSDOF 11
