REMARK  7 active torsions:
REMARK  status: ('A' for Active; 'I' for Inactive)
REMARK    1  A    between atoms: O8_1  and  C8_2 
REMARK    2  A    between atoms: N3_11  and  C1S_12 
REMARK    3  A    between atoms: C2S_13  and  O2S_14 
REMARK    4  A    between atoms: C4S_16  and  C5S_19 
REMARK    5  A    between atoms: C3S_17  and  O3S_18 
REMARK    6  A    between atoms: C5S_19  and  S5S_20 
REMARK    7  A    between atoms: S5S_20  and  C6S_21 
ROOT
ATOM      1  C1S MCF d   1      -3.949  23.620  -8.819  0.00  0.00     0.139 C 
ATOM      2  C2S MCF d   1      -4.426  22.245  -8.402  0.00  0.00     0.105 C 
ATOM      3  O4S MCF d   1      -2.576  23.509  -9.224  0.00  0.00    -0.355 OA
ATOM      4  C4S MCF d   1      -2.130  22.190  -8.942  0.00  0.00     0.076 C 
ATOM      5  C3S MCF d   1      -3.132  21.582  -7.970  0.00  0.00     0.090 C 
ATOM      6  H8  MCF d   1      -3.978  24.252  -7.919  0.00  0.00     0.122 H 
ATOM      7  H9  MCF d   1      -4.929  21.699  -9.214  0.00  0.00     0.093 H 
ATOM      8  H11 MCF d   1      -1.192  22.297  -8.378  0.00  0.00     0.088 H 
ATOM      9  H12 MCF d   1      -3.161  20.485  -8.048  0.00  0.00     0.091 H 
ENDROOT
BRANCH   1  10
ATOM     10  N3  MCF d   1      -4.780  24.316  -9.832  0.00  0.00    -0.294 N 
ATOM     11  C10 MCF d   1      -5.716  23.921 -10.705  0.00  0.00     0.161 A 
ATOM     12  N4  MCF d   1      -6.195  22.639 -10.831  0.00  0.00    -0.224 NA
ATOM     13  C9  MCF d   1      -6.237  25.097 -11.445  0.00  0.00     0.112 A 
ATOM     14  C5  MCF d   1      -7.002  22.163 -11.712  0.00  0.00     0.062 C 
ATOM     15  N6  MCF d   1      -7.560  22.784 -12.782  0.00  0.00    -0.382 N 
ATOM     16  H6  MCF d   1      -7.275  21.117 -11.581  0.00  0.00     0.143 H 
ATOM     17  C7  MCF d   1      -7.026  23.989 -13.416  0.00  0.00     0.022 C 
ATOM     18  H5  MCF d   1      -8.421  22.378 -13.176  0.00  0.00     0.160 HD
ATOM     19  C8  MCF d   1      -7.238  25.203 -12.504  0.00  0.00     0.096 C 
ATOM     20  H3  MCF d   1      -5.950  23.856 -13.601  0.00  0.00     0.068 H 
ATOM     21  H4  MCF d   1      -7.544  24.157 -14.372  0.00  0.00     0.068 H 
ATOM     22  H2  MCF d   1      -7.032  26.109 -13.093  0.00  0.00     0.095 H 
ATOM     23  N1  MCF d   1      -5.513  26.105 -10.969  0.00  0.00    -0.241 NA
ATOM     24  C2  MCF d   1      -4.664  25.636 -10.014  0.00  0.00     0.070 A 
ATOM     25  H7  MCF d   1      -3.968  26.265  -9.460  0.00  0.00     0.144 H 
BRANCH  19  26
ATOM     26  O8  MCF d   1      -8.572  25.347 -11.968  0.00  0.00    -0.388 OA
ATOM     27  H1  MCF d   1      -8.609  26.121 -11.418  0.00  0.00     0.210 HD
ENDBRANCH  19  26
ENDBRANCH   1  10
BRANCH   2  28
ATOM     28  O2S MCF d   1      -5.288  22.413  -7.272  0.00  0.00    -0.388 OA
ATOM     29  H10 MCF d   1      -4.805  22.826  -6.566  0.00  0.00     0.210 HD
ENDBRANCH   2  28
BRANCH   5  30
ATOM     30  O3S MCF d   1      -2.908  21.995  -6.606  0.00  0.00    -0.390 OA
ATOM     31  H13 MCF d   1      -2.982  22.940  -6.546  0.00  0.00     0.210 HD
ENDBRANCH   5  30
BRANCH   4  32
ATOM     32  C5S MCF d   1      -1.743  21.356 -10.155  0.00  0.00     0.003 C 
ATOM     33  H14 MCF d   1      -1.394  22.007 -10.970  0.00  0.00     0.052 H 
ATOM     34  H15 MCF d   1      -2.603  20.764 -10.501  0.00  0.00     0.052 H 
BRANCH  32  35
ATOM     35  S5S MCF d   1      -0.436  20.286  -9.622  0.00  0.00    -0.171 SA
BRANCH  35  36
ATOM     36  C6S MCF d   1      -1.044  18.665  -9.352  0.00  0.00    -0.035 C 
ATOM     37  H16 MCF d   1      -0.220  18.015  -9.022  0.00  0.00     0.041 H 
ATOM     38  H17 MCF d   1      -1.469  18.272 -10.287  0.00  0.00     0.041 H 
ATOM     39  H18 MCF d   1      -1.824  18.690  -8.577  0.00  0.00     0.041 H 
ENDBRANCH  35  36
ENDBRANCH  32  35
ENDBRANCH   4  32
TORSDOF 7
