REMARK  6 active torsions:
REMARK  status: ('A' for Active; 'I' for Inactive)
REMARK    1  A    between atoms: C1_1  and  C4_4 
REMARK    2  A    between atoms: C8_12  and  C6_10 
REMARK    3  A    between atoms: O4_18  and  C11_15 
REMARK    4  A    between atoms: C14_19  and  O4_18 
REMARK    5  A    between atoms: C15_20  and  C14_19 
REMARK    6  A    between atoms: C16_22  and  C24_30 
ROOT
ATOM      1  O4  MOL d   1      49.297  31.852  46.436  0.00  0.00    -0.347 OA
ENDROOT
BRANCH   1   2
ATOM      2  C11 MOL d   1      49.257  31.574  45.081  0.00  0.00     0.069 A 
ATOM      3  C10 MOL d   1      50.239  30.742  44.453  0.00  0.00    -0.050 A 
ATOM      4  C9  MOL d   1      50.163  30.455  43.089  0.00  0.00    -0.072 A 
ATOM      5  H9  MOL d   1      51.050  30.331  45.043  0.00  0.00     0.087 H 
ATOM      6  C8  MOL d   1      49.112  30.979  42.322  0.00  0.00    -0.035 A 
ATOM      7  H8  MOL d   1      50.915  29.828  42.623  0.00  0.00     0.084 H 
ATOM      8  C13 MOL d   1      48.149  31.826  42.937  0.00  0.00    -0.072 A 
ATOM      9  C12 MOL d   1      48.228  32.127  44.300  0.00  0.00    -0.050 A 
ATOM     10  H11 MOL d   1      47.344  32.243  42.342  0.00  0.00     0.084 H 
ATOM     11  H10 MOL d   1      47.497  32.786  44.754  0.00  0.00     0.087 H 
BRANCH   6  12
ATOM     12  C6  MOL d   1      48.961  30.653  40.838  0.00  0.00     0.039 C 
ATOM     13  N1  MOL d   1      47.515  30.699  40.554  0.00  0.00    -0.352 N 
ATOM     14  C5  MOL d   1      47.183  31.804  39.872  0.00  0.00     0.228 C 
ATOM     15  H4  MOL d   1      46.864  29.994  40.835  0.00  0.00     0.163 HD
ATOM     16  C2  MOL d   1      48.398  32.631  39.567  0.00  0.00     0.057 A 
ATOM     17  O3  MOL d   1      46.063  32.110  39.524  0.00  0.00    -0.273 OA
ATOM     18  C1  MOL d   1      48.322  34.151  39.579  0.00  0.00     0.047 A 
ATOM     19  C3  MOL d   1      48.398  33.407  38.262  0.00  0.00    -0.035 A 
ATOM     20  C7  MOL d   1      49.596  31.749  39.943  0.00  0.00    -0.026 C 
ATOM     21  H1  MOL d   1      47.384  34.659  39.845  0.00  0.00     0.058 H 
ATOM     22  H2  MOL d   1      49.313  33.459  37.654  0.00  0.00     0.036 H 
ATOM     23  H3  MOL d   1      47.520  33.370  37.601  0.00  0.00     0.036 H 
ATOM     24  H6  MOL d   1      50.350  32.325  40.499  0.00  0.00     0.038 H 
ATOM     25  H7  MOL d   1      50.058  31.308  39.047  0.00  0.00     0.038 H 
ATOM     26  H5  MOL d   1      49.392  29.667  40.612  0.00  0.00     0.080 H 
BRANCH  18  27
ATOM     27  C4  MOL d   1      49.475  34.915  40.170  0.00  0.00     0.178 C 
ATOM     28  O1  MOL d   1      50.670  34.304  39.948  0.00  0.00    -0.648 OA
ATOM     29  O2  MOL d   1      49.435  35.967  40.856  0.00  0.00    -0.648 OA
ENDBRANCH  18  27
ENDBRANCH   6  12
ENDBRANCH   1   2
BRANCH   1  30
ATOM     30  C14 MOL d   1      50.261  31.167  47.250  0.00  0.00     0.051 C 
ATOM     31  H12 MOL d   1      50.325  31.672  48.225  0.00  0.00     0.082 H 
ATOM     32  H13 MOL d   1      51.240  31.208  46.751  0.00  0.00     0.082 H 
BRANCH  30  33
ATOM     33  C15 MOL d   1      49.878  29.682  47.479  0.00  0.00    -0.019 A 
ATOM     34  C17 MOL d   1      48.538  29.301  47.314  0.00  0.00    -0.045 A 
ATOM     35  C16 MOL d   1      48.196  27.923  47.562  0.00  0.00     0.068 A 
ATOM     36  H14 MOL d   1      47.785  30.019  47.010  0.00  0.00     0.088 H 
ATOM     37  N2  MOL d   1      49.109  26.969  47.905  0.00  0.00    -0.248 NA
ATOM     38  C18 MOL d   1      50.385  27.325  48.015  0.00  0.00     0.068 A 
ATOM     39  C19 MOL d   1      50.813  28.662  47.833  0.00  0.00     0.001 A 
ATOM     40  C23 MOL d   1      51.340  26.356  48.360  0.00  0.00    -0.054 A 
ATOM     41  C20 MOL d   1      52.200  28.931  48.007  0.00  0.00    -0.070 A 
ATOM     42  C21 MOL d   1      53.115  27.938  48.340  0.00  0.00    -0.082 A 
ATOM     43  H15 MOL d   1      52.556  29.946  47.875  0.00  0.00     0.084 H 
ATOM     44  C22 MOL d   1      52.711  26.638  48.499  0.00  0.00    -0.081 A 
ATOM     45  H16 MOL d   1      54.159  28.195  48.475  0.00  0.00     0.083 H 
ATOM     46  H17 MOL d   1      53.424  25.853  48.724  0.00  0.00     0.083 H 
ATOM     47  H18 MOL d   1      51.004  25.339  48.528  0.00  0.00     0.087 H 
BRANCH  35  48
ATOM     48  C24 MOL d   1      46.799  27.513  47.346  0.00  0.00    -0.007 A 
ATOM     49  C25 MOL d   1      46.400  26.167  47.322  0.00  0.00    -0.071 A 
ATOM     50  C26 MOL d   1      45.038  25.852  47.090  0.00  0.00    -0.082 A 
ATOM     51  H19 MOL d   1      47.126  25.377  47.479  0.00  0.00     0.084 H 
ATOM     52  C27 MOL d   1      44.098  26.857  46.840  0.00  0.00    -0.083 A 
ATOM     53  H20 MOL d   1      44.720  24.816  47.107  0.00  0.00     0.083 H 
ATOM     54  C28 MOL d   1      44.495  28.181  46.837  0.00  0.00    -0.082 A 
ATOM     55  H21 MOL d   1      43.063  26.599  46.649  0.00  0.00     0.083 H 
ATOM     56  C29 MOL d   1      45.826  28.517  47.093  0.00  0.00    -0.071 A 
ATOM     57  H22 MOL d   1      43.770  28.962  46.635  0.00  0.00     0.083 H 
ATOM     58  H23 MOL d   1      46.121  29.560  47.099  0.00  0.00     0.084 H 
ENDBRANCH  35  48
ENDBRANCH  30  33
ENDBRANCH   1  30
TORSDOF 6
