REMARK  10 active torsions:
REMARK  status: ('A' for Active; 'I' for Inactive)
REMARK    1  A    between atoms: C2'_2  and  CM2_3 
REMARK    2  A    between atoms: C5'_7  and  C7'_9 
REMARK    3  A    between atoms: C7'_9  and  N3_10 
REMARK    4  A    between atoms: C5_13  and  C6_16 
REMARK    5  A    between atoms: C4_14  and  CM4_15 
REMARK    6  A    between atoms: C6_16  and  C7_17 
REMARK    7  A    between atoms: C7_17  and  O7_18 
REMARK    8  A    between atoms: O7_18  and  PA_19 
REMARK    9  A    between atoms: PA_19  and  O3A_22 
REMARK   10  A    between atoms: O3A_22  and  PB_23 
ROOT
ATOM      1  N3  NON d   1       8.942  -7.548  54.051  0.00  0.00    -0.370 N 
ATOM      2  C2  NON d   1       8.754  -8.020  52.739  0.00  0.00     0.041 A 
ATOM      3  S1  NON d   1       7.337  -7.442  52.127  0.00  0.00    -0.112 SA
ATOM      4  C5  NON d   1       6.904  -6.671  53.516  0.00  0.00     0.004 A 
ATOM      5  C4  NON d   1       7.905  -6.785  54.494  0.00  0.00     0.017 A 
ATOM      6  H9  NON d   1       8.725  -9.120  52.749  0.00  0.00     0.081 H 
ATOM      7  H10 NON d   1       9.588  -7.681  52.107  0.00  0.00     0.081 H 
ENDROOT
BRANCH   1   8
ATOM      8  C7' NON d   1      10.149  -7.831  54.844  0.00  0.00     0.024 C 
ATOM      9  H7  NON d   1       9.897  -7.931  55.910  0.00  0.00     0.071 H 
ATOM     10  H8  NON d   1      10.634  -8.754  54.494  0.00  0.00     0.071 H 
BRANCH   8  11
ATOM     11  C5' NON d   1      11.060  -6.625  54.617  0.00  0.00     0.023 A 
ATOM     12  C4' NON d   1      11.728  -6.405  53.415  0.00  0.00     0.132 A 
ATOM     13  N3' NON d   1      12.538  -5.300  53.210  0.00  0.00    -0.216 NA
ATOM     14  N4' NON d   1      11.653  -7.244  52.371  0.00  0.00    -0.383 N 
ATOM     15  C2' NON d   1      12.719  -4.427  54.235  0.00  0.00     0.124 A 
ATOM     16  N1' NON d   1      12.103  -4.661  55.454  0.00  0.00    -0.245 NA
ATOM     17  C6' NON d   1      11.256  -5.745  55.653  0.00  0.00     0.015 A 
ATOM     18  H6  NON d   1      10.761  -5.893  56.606  0.00  0.00     0.116 H 
ATOM     19  H4  NON d   1      11.073  -8.093  52.433  0.00  0.00     0.157 HD
ATOM     20  H5  NON d   1      12.175  -7.039  51.507  0.00  0.00     0.157 HD
BRANCH  15  21
ATOM     21  CM2 NON d   1      13.612  -3.243  54.061  0.00  0.00    -0.019 C 
ATOM     22  H1  NON d   1      13.632  -2.659  54.993  0.00  0.00     0.037 H 
ATOM     23  H2  NON d   1      13.232  -2.615  53.242  0.00  0.00     0.037 H 
ATOM     24  H3  NON d   1      14.630  -3.584  53.820  0.00  0.00     0.037 H 
ENDBRANCH  15  21
ENDBRANCH   8  11
ENDBRANCH   1   8
BRANCH   5  25
ATOM     25  CM4 NON d   1       7.794  -6.180  55.863  0.00  0.00    -0.037 C 
ATOM     26  H11 NON d   1       6.853  -5.616  55.940  0.00  0.00     0.035 H 
ATOM     27  H12 NON d   1       8.643  -5.501  56.034  0.00  0.00     0.035 H 
ATOM     28  H13 NON d   1       7.805  -6.979  56.619  0.00  0.00     0.035 H 
ENDBRANCH   5  25
BRANCH   4  29
ATOM     29  C6  NON d   1       5.571  -5.904  53.624  0.00  0.00    -0.013 C 
ATOM     30  H14 NON d   1       5.496  -5.456  54.626  0.00  0.00     0.044 H 
ATOM     31  H15 NON d   1       4.740  -6.609  53.474  0.00  0.00     0.044 H 
BRANCH  29  32
ATOM     32  C7  NON d   1       5.477  -4.780  52.561  0.00  0.00     0.036 C 
ATOM     33  H16 NON d   1       5.869  -5.152  51.603  0.00  0.00     0.075 H 
ATOM     34  H17 NON d   1       6.073  -3.916  52.891  0.00  0.00     0.075 H 
BRANCH  32  35
ATOM     35  O7  NON d   1       4.137  -4.384  52.394  0.00  0.00    -0.289 OA
BRANCH  35  36
ATOM     36  PA  NON d   1       3.538  -3.415  51.250  0.00  0.00     0.418 P 
ATOM     37  O1A NON d   1       4.592  -2.372  50.947  0.00  0.00    -0.624 OA
ATOM     38  O2A NON d   1       2.283  -2.773  51.723  0.00  0.00    -0.624 OA
BRANCH  36  39
ATOM     39  O3A NON d   1       3.487  -4.297  49.943  0.00  0.00    -0.173 OA
BRANCH  39  40
ATOM     40  PB  NON d   1       2.458  -5.432  49.421  0.00  0.00     0.431 P 
ATOM     41  O1B NON d   1       1.177  -5.327  50.273  0.00  0.00    -0.616 OA
ATOM     42  O2B NON d   1       2.195  -5.057  47.974  0.00  0.00    -0.616 OA
ATOM     43  O3B NON d   1       3.086  -6.802  49.518  0.00  0.00    -0.616 OA
ENDBRANCH  39  40
ENDBRANCH  36  39
ENDBRANCH  35  36
ENDBRANCH  32  35
ENDBRANCH  29  32
ENDBRANCH   4  29
TORSDOF 10
