REMARK  12 active torsions:
REMARK  status: ('A' for Active; 'I' for Inactive)
REMARK    1  A    between atoms: N1_1  and  C11_14 
REMARK    2  A    between atoms: N1_1  and  C8_15 
REMARK    3  A    between atoms: S1_18  and  N1_1 
REMARK       I    between atoms: C9_12  and  N2_3 
REMARK    4  A    between atoms: N2_3  and  O5_13 
REMARK    5  A    between atoms: C4_4  and  O3_9 
REMARK    6  A    between atoms: C8_15  and  C6_6 
REMARK    7  A    between atoms: C6_6  and  O6_16 
REMARK    8  A    between atoms: C6_6  and  C12_17 
REMARK    9  A    between atoms: O3_9  and  C10_21 
REMARK   10  A    between atoms: C12_17  and  O4_10 
REMARK   11  A    between atoms: C11_14  and  C9_12 
REMARK   12  A    between atoms: S1_18  and  C3_19 
ROOT
ATOM      1  N1  HS1 d   1      -1.955  -5.085  -3.795  0.00  0.00    -0.295 N 
ENDROOT
BRANCH   1   2
ATOM      2  C11 HS1 d   1      -1.110  -3.882  -3.708  0.00  0.00     0.081 C 
ATOM      3  H7  HS1 d   1      -0.178  -3.986  -4.283  0.00  0.00     0.080 H 
ATOM      4  H8  HS1 d   1      -0.871  -3.616  -2.668  0.00  0.00     0.080 H 
BRANCH   2   5
ATOM      5  C9  HS1 d   1      -2.075  -2.894  -4.348  0.00  0.00     0.259 C 
ATOM      6  N2  HS1 d   1      -1.614  -2.103  -5.311  0.00  0.00    -0.236 N 
ATOM      7  H2  HS1 d   1      -0.661  -2.157  -5.609  0.00  0.00     0.197 HD
ATOM      8  O7  HS1 d   1      -3.259  -2.854  -4.004  0.00  0.00    -0.270 OA
BRANCH   6   9
ATOM      9  O5  HS1 d   1      -2.499  -1.193  -5.896  0.00  0.00    -0.287 OA
ATOM     10  H6  HS1 d   1      -2.043  -0.695  -6.564  0.00  0.00     0.244 HD
ENDBRANCH   6   9
ENDBRANCH   2   5
ENDBRANCH   1   2
BRANCH   1  11
ATOM     11  C8  HS1 d   1      -2.498  -5.687  -2.545  0.00  0.00     0.032 C 
ATOM     12  H9  HS1 d   1      -2.953  -6.645  -2.837  0.00  0.00     0.069 H 
ATOM     13  H10 HS1 d   1      -3.282  -5.002  -2.188  0.00  0.00     0.069 H 
BRANCH  11  14
ATOM     14  C6  HS1 d   1      -1.609  -5.985  -1.339  0.00  0.00     0.072 C 
ATOM     15  H4  HS1 d   1      -2.255  -6.266  -0.494  0.00  0.00     0.088 H 
BRANCH  14  16
ATOM     16  O6  HS1 d   1      -0.850  -4.841  -0.958  0.00  0.00    -0.392 OA
ATOM     17  H11 HS1 d   1      -1.440  -4.132  -0.731  0.00  0.00     0.210 HD
ENDBRANCH  14  16
BRANCH  14  18
ATOM     18  C12 HS1 d   1      -0.687  -7.154  -1.650  0.00  0.00     0.042 C 
ATOM     19  H12 HS1 d   1      -0.021  -7.343  -0.795  0.00  0.00     0.077 H 
ATOM     20  H13 HS1 d   1      -0.084  -6.928  -2.542  0.00  0.00     0.077 H 
BRANCH  18  21
ATOM     21  O4  HS1 d   1      -1.503  -8.304  -1.894  0.00  0.00    -0.398 OA
ATOM     22  H5  HS1 d   1      -2.023  -8.491  -1.122  0.00  0.00     0.209 HD
ENDBRANCH  18  21
ENDBRANCH  14  18
ENDBRANCH  11  14
ENDBRANCH   1  11
BRANCH   1  23
ATOM     23  S1  HS1 d   1      -1.591  -6.130  -4.996  0.00  0.00     0.261 S 
ATOM     24  O1  HS1 d   1      -1.605  -7.509  -4.570  0.00  0.00    -0.200 OA
ATOM     25  O2  HS1 d   1      -0.323  -5.806  -5.592  0.00  0.00    -0.200 OA
BRANCH  23  26
ATOM     26  C3  HS1 d   1      -2.744  -5.998  -6.111  0.00  0.00     0.079 A 
ATOM     27  C5  HS1 d   1      -2.559  -5.175  -7.227  0.00  0.00    -0.058 A 
ATOM     28  C7  HS1 d   1      -3.552  -5.097  -8.213  0.00  0.00    -0.049 A 
ATOM     29  H3  HS1 d   1      -1.647  -4.597  -7.329  0.00  0.00     0.086 H 
ATOM     30  C4  HS1 d   1      -4.740  -5.843  -8.105  0.00  0.00     0.068 A 
ATOM     31  H14 HS1 d   1      -3.402  -4.452  -9.072  0.00  0.00     0.087 H 
ATOM     32  C2  HS1 d   1      -4.929  -6.675  -6.997  0.00  0.00    -0.049 A 
ATOM     33  C1  HS1 d   1      -3.932  -6.750  -6.010  0.00  0.00    -0.058 A 
ATOM     34  H1  HS1 d   1      -5.838  -7.258  -6.900  0.00  0.00     0.087 H 
ATOM     35  H18 HS1 d   1      -4.079  -7.399  -5.154  0.00  0.00     0.086 H 
BRANCH  30  36
ATOM     36  O3  HS1 d   1      -5.678  -5.740  -9.114  0.00  0.00    -0.356 OA
BRANCH  36  37
ATOM     37  C10 HS1 d   1      -6.659  -6.757  -9.357  0.00  0.00     0.010 C 
ATOM     38  H15 HS1 d   1      -7.294  -6.459 -10.205  0.00  0.00     0.066 H 
ATOM     39  H16 HS1 d   1      -7.282  -6.887  -8.460  0.00  0.00     0.066 H 
ATOM     40  H17 HS1 d   1      -6.154  -7.705  -9.593  0.00  0.00     0.066 H 
ENDBRANCH  36  37
ENDBRANCH  30  36
ENDBRANCH  23  26
ENDBRANCH   1  23
TORSDOF 12
