REMARK  5 active torsions:
REMARK  status: ('A' for Active; 'I' for Inactive)
REMARK       I    between atoms: C7_2  and  N2_3 
REMARK    1  A    between atoms: C7_2  and  C8_5 
REMARK    2  A    between atoms: N2_3  and  O4_4 
REMARK    3  A    between atoms: C8_5  and  N1_6 
REMARK    4  A    between atoms: N1_6  and  S1_7 
REMARK    5  A    between atoms: S1_7  and  C3_10 
ROOT
ATOM      1  S1  HS7 d   1      -1.369  -6.188  -5.064  0.00  0.00     0.259 S 
ATOM      2  O1  HS7 d   1      -0.167  -5.805  -5.760  0.00  0.00    -0.201 OA
ATOM      3  O2  HS7 d   1      -1.321  -7.546  -4.601  0.00  0.00    -0.201 OA
ENDROOT
BRANCH   1   4
ATOM      4  N1  HS7 d   1      -1.560  -5.249  -3.780  0.00  0.00    -0.307 N 
ATOM      5  H5  HS7 d   1      -2.022  -5.613  -2.971  0.00  0.00     0.172 HD
BRANCH   4   6
ATOM      6  C8  HS7 d   1      -1.077  -3.884  -3.768  0.00  0.00     0.078 C 
ATOM      7  H3  HS7 d   1      -0.933  -3.559  -2.727  0.00  0.00     0.079 H 
ATOM      8  H4  HS7 d   1      -0.118  -3.834  -4.304  0.00  0.00     0.079 H 
BRANCH   6   9
ATOM      9  C7  HS7 d   1      -2.072  -2.971  -4.441  0.00  0.00     0.259 C 
ATOM     10  O3  HS7 d   1      -3.228  -2.873  -4.042  0.00  0.00    -0.270 OA
ATOM     11  N2  HS7 d   1      -1.625  -2.274  -5.477  0.00  0.00    -0.236 N 
ATOM     12  H1  HS7 d   1      -0.677  -2.357  -5.784  0.00  0.00     0.197 HD
BRANCH  11  13
ATOM     13  O4  HS7 d   1      -2.516  -1.425  -6.122  0.00  0.00    -0.287 OA
ATOM     14  H2  HS7 d   1      -2.073  -0.989  -6.840  0.00  0.00     0.244 HD
ENDBRANCH  11  13
ENDBRANCH   6   9
ENDBRANCH   4   6
ENDBRANCH   1   4
BRANCH   1  15
ATOM     15  C3  HS7 d   1      -2.615  -6.023  -6.066  0.00  0.00     0.079 A 
ATOM     16  C1  HS7 d   1      -2.458  -5.410  -7.315  0.00  0.00    -0.060 A 
ATOM     17  C2  HS7 d   1      -3.537  -5.287  -8.189  0.00  0.00    -0.082 A 
ATOM     18  H6  HS7 d   1      -1.486  -5.027  -7.606  0.00  0.00     0.085 H 
ATOM     19  C4  HS7 d   1      -4.791  -5.773  -7.821  0.00  0.00    -0.083 A 
ATOM     20  H10 HS7 d   1      -3.401  -4.814  -9.155  0.00  0.00     0.083 H 
ATOM     21  C5  HS7 d   1      -4.965  -6.379  -6.577  0.00  0.00    -0.082 A 
ATOM     22  H9  HS7 d   1      -5.630  -5.680  -8.501  0.00  0.00     0.083 H 
ATOM     23  C6  HS7 d   1      -3.877  -6.505  -5.708  0.00  0.00    -0.060 A 
ATOM     24  H8  HS7 d   1      -5.940  -6.751  -6.285  0.00  0.00     0.083 H 
ATOM     25  H7  HS7 d   1      -4.014  -6.982  -4.745  0.00  0.00     0.085 H 
ENDBRANCH   1  15
TORSDOF 5
