REMARK  7 active torsions:
REMARK  status: ('A' for Active; 'I' for Inactive)
REMARK    1  A    between atoms: O1_1  and  C1_2 
REMARK    2  A    between atoms: C2_3  and  C7_6 
REMARK    3  A    between atoms: C6_4  and  C10_9 
REMARK    4  A    between atoms: C7_6  and  C8_10 
REMARK    5  A    between atoms: C7_6  and  C9_11 
REMARK    6  A    between atoms: C10_9  and  C11_12 
REMARK    7  A    between atoms: C10_9  and  C12_13 
ROOT
ATOM      1  C1  PFL d   1      33.865   0.043  35.075  0.00  0.00     0.079 A 
ATOM      2  C2  PFL d   1      32.892  -0.084  36.067  0.00  0.00    -0.021 A 
ATOM      3  C6  PFL d   1      35.221   0.004  35.372  0.00  0.00    -0.021 A 
ATOM      4  C3  PFL d   1      33.313  -0.258  37.376  0.00  0.00    -0.074 A 
ATOM      5  C4  PFL d   1      34.668  -0.309  37.683  0.00  0.00    -0.082 A 
ATOM      6  C5  PFL d   1      35.625  -0.181  36.681  0.00  0.00    -0.074 A 
ATOM      7  H2  PFL d   1      32.579  -0.355  38.168  0.00  0.00     0.084 H 
ATOM      8  H4  PFL d   1      34.981  -0.450  38.711  0.00  0.00     0.083 H 
ATOM      9  H5  PFL d   1      36.680  -0.226  36.925  0.00  0.00     0.084 H 
ENDROOT
BRANCH   2  10
ATOM     10  C7  PFL d   1      31.369  -0.041  35.807  0.00  0.00    -0.033 C 
ATOM     11  H3  PFL d   1      30.890   0.422  36.683  0.00  0.00     0.046 H 
BRANCH  10  12
ATOM     12  C8  PFL d   1      30.818  -1.459  35.657  0.00  0.00    -0.069 C 
ATOM     13  H7  PFL d   1      29.735  -1.414  35.473  0.00  0.00     0.028 H 
ATOM     14  H8  PFL d   1      31.009  -2.026  36.580  0.00  0.00     0.028 H 
ATOM     15  H9  PFL d   1      31.313  -1.957  34.811  0.00  0.00     0.028 H 
ENDBRANCH  10  12
BRANCH  10  16
ATOM     16  C9  PFL d   1      31.019   0.801  34.587  0.00  0.00    -0.069 C 
ATOM     17  H10 PFL d   1      31.424   1.816  34.714  0.00  0.00     0.028 H 
ATOM     18  H11 PFL d   1      29.926   0.853  34.479  0.00  0.00     0.028 H 
ATOM     19  H12 PFL d   1      31.455   0.342  33.687  0.00  0.00     0.028 H 
ENDBRANCH  10  16
ENDBRANCH   2  10
BRANCH   1  20
ATOM     20  O1  PFL d   1      33.545   0.212  33.803  0.00  0.00    -0.360 OA
ATOM     21  H1  PFL d   1      34.338   0.277  33.284  0.00  0.00     0.217 HD
ENDBRANCH   1  20
BRANCH   3  22
ATOM     22  C10 PFL d   1      36.268   0.127  34.253  0.00  0.00    -0.033 C 
ATOM     23  H6  PFL d   1      35.765   0.397  33.313  0.00  0.00     0.046 H 
BRANCH  22  24
ATOM     24  C11 PFL d   1      36.966  -1.224  34.084  0.00  0.00    -0.069 C 
ATOM     25  H13 PFL d   1      37.719  -1.150  33.285  0.00  0.00     0.028 H 
ATOM     26  H14 PFL d   1      36.223  -1.990  33.818  0.00  0.00     0.028 H 
ATOM     27  H15 PFL d   1      37.458  -1.503  35.027  0.00  0.00     0.028 H 
ENDBRANCH  22  24
BRANCH  22  28
ATOM     28  C12 PFL d   1      37.292   1.212  34.600  0.00  0.00    -0.069 C 
ATOM     29  H16 PFL d   1      36.778   2.177  34.719  0.00  0.00     0.028 H 
ATOM     30  H17 PFL d   1      38.033   1.289  33.791  0.00  0.00     0.028 H 
ATOM     31  H18 PFL d   1      37.800   0.950  35.539  0.00  0.00     0.028 H 
ENDBRANCH  22  28
ENDBRANCH   3  22
TORSDOF 7
