REMARK  5 active torsions:
REMARK  status: ('A' for Active; 'I' for Inactive)
REMARK    1  A    between atoms: C10_1  and  C9_2 
REMARK    2  A    between atoms: C9_2  and  C6_3 
REMARK    3  A    between atoms: C2_7  and  C7_8 
REMARK    4  A    between atoms: C7_8  and  C8_9 
REMARK    5  A    between atoms: C1_10  and  O1_11 
ROOT
ATOM      1  C6  DIE d   1      32.865  -0.171  35.639  0.00  0.00    -0.025 A 
ATOM      2  C5  DIE d   1      33.049   0.293  36.931  0.00  0.00    -0.074 A 
ATOM      3  C4  DIE d   1      34.273   0.796  37.349  0.00  0.00    -0.082 A 
ATOM      4  C3  DIE d   1      35.351   0.832  36.480  0.00  0.00    -0.074 A 
ATOM      5  C2  DIE d   1      35.205   0.362  35.180  0.00  0.00    -0.025 A 
ATOM      6  C1  DIE d   1      33.965  -0.134  34.775  0.00  0.00     0.078 A 
ATOM      7  H6  DIE d   1      32.221   0.263  37.630  0.00  0.00     0.084 H 
ATOM      8  H7  DIE d   1      34.386   1.163  38.363  0.00  0.00     0.083 H 
ATOM      9  H8  DIE d   1      36.305   1.225  36.812  0.00  0.00     0.084 H 
ENDROOT
BRANCH   1  10
ATOM     10  C9  DIE d   1      31.460  -0.717  35.299  0.00  0.00    -0.042 C 
ATOM     11  H4  DIE d   1      31.586  -1.633  34.703  0.00  0.00     0.039 H 
ATOM     12  H5  DIE d   1      30.952  -0.961  36.243  0.00  0.00     0.039 H 
BRANCH  10  13
ATOM     13  C10 DIE d   1      30.559   0.246  34.509  0.00  0.00    -0.073 C 
ATOM     14  H1  DIE d   1      29.588  -0.234  34.319  0.00  0.00     0.028 H 
ATOM     15  H2  DIE d   1      31.039   0.495  33.551  0.00  0.00     0.028 H 
ATOM     16  H3  DIE d   1      30.405   1.166  35.092  0.00  0.00     0.028 H 
ENDBRANCH  10  13
ENDBRANCH   1  10
BRANCH   6  17
ATOM     17  O1  DIE d   1      33.833  -0.589  33.498  0.00  0.00    -0.360 OA
ATOM     18  H14 DIE d   1      32.944  -0.894  33.362  0.00  0.00     0.217 HD
ENDBRANCH   6  17
BRANCH   5  19
ATOM     19  C7  DIE d   1      36.431   0.426  34.254  0.00  0.00    -0.042 C 
ATOM     20  H9  DIE d   1      37.027  -0.489  34.387  0.00  0.00     0.039 H 
ATOM     21  H10 DIE d   1      37.038   1.302  34.526  0.00  0.00     0.039 H 
BRANCH  19  22
ATOM     22  C8  DIE d   1      36.020   0.543  32.782  0.00  0.00    -0.073 C 
ATOM     23  H11 DIE d   1      36.921   0.586  32.152  0.00  0.00     0.028 H 
ATOM     24  H12 DIE d   1      35.428   1.459  32.638  0.00  0.00     0.028 H 
ATOM     25  H13 DIE d   1      35.416  -0.332  32.499  0.00  0.00     0.028 H 
ENDBRANCH  19  22
ENDBRANCH   5  19
TORSDOF 5
