REMARK  3 active torsions:
REMARK  status: ('A' for Active; 'I' for Inactive)
REMARK    1  A    between atoms: C8_1  and  C6_2 
REMARK    2  A    between atoms: C2_6  and  C7_7 
REMARK    3  A    between atoms: C1_8  and  O1_9 
ROOT
ATOM      1  C6  2MY d   1      32.667   0.281  35.291  0.00  0.00    -0.028 A 
ATOM      2  C5  2MY d   1      32.545   0.143  36.664  0.00  0.00    -0.074 A 
ATOM      3  C4  2MY d   1      33.687   0.131  37.452  0.00  0.00    -0.082 A 
ATOM      4  C3  2MY d   1      34.954   0.219  36.897  0.00  0.00    -0.074 A 
ATOM      5  C2  2MY d   1      35.079   0.323  35.524  0.00  0.00    -0.028 A 
ATOM      6  C1  2MY d   1      33.944   0.341  34.731  0.00  0.00     0.077 A 
ATOM      7  H4  2MY d   1      31.566   0.045  37.119  0.00  0.00     0.084 H 
ATOM      8  H5  2MY d   1      33.586   0.051  38.528  0.00  0.00     0.083 H 
ATOM      9  H6  2MY d   1      35.834   0.206  37.530  0.00  0.00     0.084 H 
ENDROOT
BRANCH   1  10
ATOM     10  C8  2MY d   1      31.445   0.268  34.370  0.00  0.00    -0.049 C 
ATOM     11  H1  2MY d   1      30.529   0.219  34.977  0.00  0.00     0.033 H 
ATOM     12  H2  2MY d   1      31.494  -0.609  33.708  0.00  0.00     0.033 H 
ATOM     13  H3  2MY d   1      31.434   1.185  33.763  0.00  0.00     0.033 H 
ENDBRANCH   1  10
BRANCH   6  14
ATOM     14  O1  2MY d   1      34.120   0.439  33.393  0.00  0.00    -0.360 OA
ATOM     15  H10 2MY d   1      33.273   0.441  32.963  0.00  0.00     0.217 HD
ENDBRANCH   6  14
BRANCH   5  16
ATOM     16  C7  2MY d   1      36.456   0.419  34.868  0.00  0.00    -0.049 C 
ATOM     17  H7  2MY d   1      37.235   0.390  35.644  0.00  0.00     0.033 H 
ATOM     18  H8  2MY d   1      36.531   1.363  34.309  0.00  0.00     0.033 H 
ATOM     19  H9  2MY d   1      36.594  -0.427  34.179  0.00  0.00     0.033 H 
ENDBRANCH   5  16
TORSDOF 3
