REMARK  3 active torsions:
REMARK  status: ('A' for Active; 'I' for Inactive)
REMARK    1  A    between atoms: N_1  and  CA_2 
REMARK    2  A    between atoms: CA_2  and  C_3 
REMARK    3  A    between atoms: CA_2  and  CB_5 
ROOT
ATOM      1  CA  ALA d   1      26.508  31.740  18.857  0.00  0.00     0.179 C 
ATOM      2  H4  ALA d   1      27.175  32.360  18.240  0.00  0.00     0.100 H 
ENDROOT
BRANCH   1   3
ATOM      3  N   ALA d   1      25.177  32.406  18.943  0.00  0.00    -0.066 N 
ATOM      4  H1  ALA d   1      25.281  33.310  19.376  0.00  0.00     0.275 HD
ATOM      5  H2  ALA d   1      24.553  31.839  19.495  0.00  0.00     0.275 HD
ATOM      6  H3  ALA d   1      24.797  32.519  18.016  0.00  0.00     0.275 HD
ENDBRANCH   1   3
BRANCH   1   7
ATOM      7  C   ALA d   1      26.376  30.363  18.202  0.00  0.00     0.204 C 
ATOM      8  O   ALA d   1      27.387  29.624  18.134  0.00  0.00    -0.646 OA
ATOM      9  OXT ALA d   1      25.254  30.033  17.753  0.00  0.00    -0.646 OA
ENDBRANCH   1   7
BRANCH   1  10
ATOM     10  CB  ALA d   1      27.109  31.612  20.256  0.00  0.00    -0.040 C 
ATOM     11  H5  ALA d   1      28.091  31.120  20.190  0.00  0.00     0.030 H 
ATOM     12  H6  ALA d   1      26.440  31.011  20.889  0.00  0.00     0.030 H 
ATOM     13  H7  ALA d   1      27.229  32.613  20.697  0.00  0.00     0.030 H 
ENDBRANCH   1  10
TORSDOF 3
