REMARK  24 active torsions:
REMARK  status: ('A' for Active; 'I' for Inactive)
REMARK    1  A    between atoms: O1B_1  and  C1B_2 
REMARK    2  A    between atoms: C2B_3  and  O2B_4 
REMARK    3  A    between atoms: C3B_5  and  O3B_6 
REMARK    4  A    between atoms: C5B_8  and  C6B_9 
REMARK    5  A    between atoms: C6B_9  and  O6B_10 
REMARK    6  A    between atoms: C4B_11  and  O4B_12 
REMARK    7  A    between atoms: O4B_12  and  C1C_13 
REMARK    8  A    between atoms: C2C_14  and  O2C_15 
REMARK    9  A    between atoms: C3C_16  and  O3C_17 
REMARK   10  A    between atoms: C5C_19  and  C6C_20 
REMARK   11  A    between atoms: C6C_20  and  O6C_21 
REMARK   12  A    between atoms: C4C_22  and  O4C_23 
REMARK   13  A    between atoms: O4C_23  and  C1D_24 
REMARK   14  A    between atoms: C2D_25  and  O2D_26 
REMARK   15  A    between atoms: C3D_27  and  O3D_28 
REMARK   16  A    between atoms: C5D_30  and  C6D_31 
REMARK   17  A    between atoms: C6D_31  and  O6D_32 
REMARK   18  A    between atoms: C4D_33  and  O4D_34 
REMARK   19  A    between atoms: O4D_34  and  C1E_35 
REMARK   20  A    between atoms: C2E_36  and  O2E_37 
REMARK   21  A    between atoms: C3E_38  and  O3E_39 
REMARK   22  A    between atoms: C4E_40  and  O4E_41 
REMARK   23  A    between atoms: C5E_43  and  C6E_44 
REMARK   24  A    between atoms: C6E_44  and  O6E_45 
ROOT
ATOM      1  O4C CTT d   1       1.510   0.742  42.561  0.00  0.00    -0.348 OA
ENDROOT
BRANCH   1   2
ATOM      2  C4C CTT d   1       1.947   0.387  43.877  0.00  0.00     0.096 C 
ATOM      3  C3C CTT d   1       2.361   1.668  44.617  0.00  0.00     0.092 C 
ATOM      4  C2C CTT d   1       2.460   1.427  46.125  0.00  0.00     0.110 C 
ATOM      5  H15 CTT d   1       1.580   2.423  44.446  0.00  0.00     0.091 H 
ATOM      6  C1C CTT d   1       1.207   0.723  46.671  0.00  0.00     0.159 C 
ATOM      7  H13 CTT d   1       3.341   0.799  46.324  0.00  0.00     0.094 H 
ATOM      8  O5C CTT d   1       0.995  -0.529  45.996  0.00  0.00    -0.348 OA
ATOM      9  H12 CTT d   1       0.340   1.368  46.465  0.00  0.00     0.133 H 
ATOM     10  C5C CTT d   1       0.768  -0.292  44.592  0.00  0.00     0.089 C 
ATOM     11  H17 CTT d   1      -0.085   0.398  44.509  0.00  0.00     0.090 H 
ATOM     12  H21 CTT d   1       2.801  -0.304  43.823  0.00  0.00     0.091 H 
BRANCH   3  13
ATOM     13  O3C CTT d   1       3.605   2.191  44.100  0.00  0.00    -0.390 OA
ATOM     14  H16 CTT d   1       4.303   1.568  44.267  0.00  0.00     0.210 HD
ENDBRANCH   3  13
BRANCH   4  15
ATOM     15  O2C CTT d   1       2.597   2.672  46.815  0.00  0.00    -0.388 OA
ATOM     16  H14 CTT d   1       2.690   2.508  47.746  0.00  0.00     0.210 HD
ENDBRANCH   4  15
BRANCH   6  17
ATOM     17  O4B CTT d   1       1.293   0.539  48.128  0.00  0.00    -0.348 OA
BRANCH  17  18
ATOM     18  C4B CTT d   1       0.071   0.071  48.710  0.00  0.00     0.096 C 
ATOM     19  C3B CTT d   1       0.382  -1.191  49.527  0.00  0.00     0.092 C 
ATOM     20  C2B CTT d   1      -0.835  -1.610  50.330  0.00  0.00     0.110 C 
ATOM     21  H5  CTT d   1       1.213  -0.972  50.213  0.00  0.00     0.091 H 
ATOM     22  C1B CTT d   1      -1.314  -0.465  51.213  0.00  0.00     0.156 C 
ATOM     23  H3  CTT d   1      -1.644  -1.880  49.635  0.00  0.00     0.094 H 
ATOM     24  O5B CTT d   1      -1.593   0.725  50.453  0.00  0.00    -0.349 OA
ATOM     25  H2  CTT d   1      -0.547  -0.240  51.968  0.00  0.00     0.133 H 
ATOM     26  C5B CTT d   1      -0.635   1.202  49.491  0.00  0.00     0.089 C 
ATOM     27  H7  CTT d   1       0.127   1.805  50.007  0.00  0.00     0.090 H 
ATOM     28  H11 CTT d   1      -0.607  -0.225  47.895  0.00  0.00     0.091 H 
BRANCH  19  29
ATOM     29  O3B CTT d   1       0.753  -2.284  48.669  0.00  0.00    -0.390 OA
ATOM     30  H6  CTT d   1       0.031  -2.487  48.086  0.00  0.00     0.210 HD
ENDBRANCH  19  29
BRANCH  20  31
ATOM     31  O2B CTT d   1      -0.505  -2.755  51.123  0.00  0.00    -0.388 OA
ATOM     32  H4  CTT d   1      -0.209  -3.457  50.556  0.00  0.00     0.210 HD
ENDBRANCH  20  31
BRANCH  22  33
ATOM     33  O1B CTT d   1      -2.532  -0.894  51.855  0.00  0.00    -0.369 OA
ATOM     34  H1  CTT d   1      -2.362  -1.680  52.361  0.00  0.00     0.212 HD
ENDBRANCH  22  33
BRANCH  26  35
ATOM     35  C6B CTT d   1      -1.416   2.072  48.497  0.00  0.00     0.043 C 
ATOM     36  H8  CTT d   1      -2.454   1.710  48.453  0.00  0.00     0.078 H 
ATOM     37  H9  CTT d   1      -0.952   1.975  47.505  0.00  0.00     0.078 H 
BRANCH  35  38
ATOM     38  O6B CTT d   1      -1.429   3.454  48.862  0.00  0.00    -0.398 OA
ATOM     39  H10 CTT d   1      -0.537   3.780  48.896  0.00  0.00     0.209 HD
ENDBRANCH  35  38
ENDBRANCH  26  35
ENDBRANCH  17  18
ENDBRANCH   6  17
BRANCH  10  40
ATOM     40  C6C CTT d   1       0.359  -1.602  43.954  0.00  0.00     0.043 C 
ATOM     41  H18 CTT d   1       1.029  -2.421  44.255  0.00  0.00     0.078 H 
ATOM     42  H19 CTT d   1       0.343  -1.526  42.857  0.00  0.00     0.078 H 
BRANCH  40  43
ATOM     43  O6C CTT d   1      -0.953  -1.784  44.482  0.00  0.00    -0.398 OA
ATOM     44  H20 CTT d   1      -0.908  -1.827  45.430  0.00  0.00     0.209 HD
ENDBRANCH  40  43
ENDBRANCH  10  40
ENDBRANCH   1   2
BRANCH   1  45
ATOM     45  C1D CTT d   1       2.428   0.454  41.479  0.00  0.00     0.159 C 
ATOM     46  C2D CTT d   1       1.693   0.452  40.143  0.00  0.00     0.110 C 
ATOM     47  C3D CTT d   1       2.679   0.150  39.022  0.00  0.00     0.092 C 
ATOM     48  H23 CTT d   1       1.234   1.436  39.968  0.00  0.00     0.094 H 
ATOM     49  C4D CTT d   1       3.878   1.084  39.013  0.00  0.00     0.096 C 
ATOM     50  H25 CTT d   1       3.053  -0.869  39.198  0.00  0.00     0.091 H 
ATOM     51  C5D CTT d   1       4.485   1.116  40.415  0.00  0.00     0.089 C 
ATOM     52  H31 CTT d   1       3.612   2.103  38.694  0.00  0.00     0.091 H 
ATOM     53  O5D CTT d   1       3.439   1.457  41.352  0.00  0.00    -0.348 OA
ATOM     54  H27 CTT d   1       4.861   0.109  40.648  0.00  0.00     0.090 H 
ATOM     55  H22 CTT d   1       2.894  -0.526  41.658  0.00  0.00     0.133 H 
BRANCH  46  56
ATOM     56  O2D CTT d   1       0.676  -0.547  40.198  0.00  0.00    -0.388 OA
ATOM     57  H24 CTT d   1       0.073  -0.345  40.904  0.00  0.00     0.210 HD
ENDBRANCH  46  56
BRANCH  47  58
ATOM     58  O3D CTT d   1       2.072   0.172  37.707  0.00  0.00    -0.390 OA
ATOM     59  H26 CTT d   1       2.732  -0.022  37.052  0.00  0.00     0.210 HD
ENDBRANCH  47  58
BRANCH  49  60
ATOM     60  O4D CTT d   1       4.723   0.446  38.065  0.00  0.00    -0.348 OA
BRANCH  60  61
ATOM     61  C1E CTT d   1       5.523   1.232  37.122  0.00  0.00     0.159 C 
ATOM     62  C2E CTT d   1       5.855   0.382  35.844  0.00  0.00     0.110 C 
ATOM     63  C3E CTT d   1       5.183   0.904  34.590  0.00  0.00     0.092 C 
ATOM     64  H33 CTT d   1       5.440  -0.617  36.042  0.00  0.00     0.094 H 
ATOM     65  C4E CTT d   1       3.824   1.433  35.047  0.00  0.00     0.090 C 
ATOM     66  H35 CTT d   1       5.768   1.740  34.179  0.00  0.00     0.091 H 
ATOM     67  C5E CTT d   1       4.146   2.772  35.717  0.00  0.00     0.089 C 
ATOM     68  H37 CTT d   1       3.312   0.741  35.732  0.00  0.00     0.091 H 
ATOM     69  O5E CTT d   1       4.949   2.565  36.906  0.00  0.00    -0.348 OA
ATOM     70  H39 CTT d   1       4.770   3.320  34.995  0.00  0.00     0.090 H 
ATOM     71  H32 CTT d   1       6.492   1.413  37.611  0.00  0.00     0.133 H 
BRANCH  62  72
ATOM     72  O2E CTT d   1       7.264   0.191  35.542  0.00  0.00    -0.388 OA
ATOM     73  H34 CTT d   1       7.675   1.037  35.407  0.00  0.00     0.210 HD
ENDBRANCH  62  72
BRANCH  63  74
ATOM     74  O3E CTT d   1       5.118  -0.121  33.585  0.00  0.00    -0.390 OA
ATOM     75  H36 CTT d   1       4.694   0.225  32.808  0.00  0.00     0.210 HD
ENDBRANCH  63  74
BRANCH  65  76
ATOM     76  O4E CTT d   1       3.059   1.669  33.882  0.00  0.00    -0.390 OA
ATOM     77  H38 CTT d   1       2.203   2.000  34.128  0.00  0.00     0.210 HD
ENDBRANCH  65  76
BRANCH  67  78
ATOM     78  C6E CTT d   1       2.967   3.713  36.048  0.00  0.00     0.043 C 
ATOM     79  H40 CTT d   1       2.577   4.130  35.108  0.00  0.00     0.078 H 
ATOM     80  H41 CTT d   1       3.339   4.529  36.685  0.00  0.00     0.078 H 
BRANCH  78  81
ATOM     81  O6E CTT d   1       1.876   3.040  36.745  0.00  0.00    -0.398 OA
ATOM     82  H42 CTT d   1       1.540   2.337  36.201  0.00  0.00     0.209 HD
ENDBRANCH  78  81
ENDBRANCH  67  78
ENDBRANCH  60  61
ENDBRANCH  49  60
BRANCH  51  83
ATOM     83  C6D CTT d   1       5.644   2.094  40.565  0.00  0.00     0.043 C 
ATOM     84  H28 CTT d   1       5.342   3.084  40.193  0.00  0.00     0.078 H 
ATOM     85  H29 CTT d   1       6.508   1.733  39.987  0.00  0.00     0.078 H 
BRANCH  83  86
ATOM     86  O6D CTT d   1       6.002   2.190  41.965  0.00  0.00    -0.398 OA
ATOM     87  H30 CTT d   1       6.724   2.799  42.065  0.00  0.00     0.209 HD
ENDBRANCH  83  86
ENDBRANCH  51  83
ENDBRANCH   1  45
TORSDOF 24
