REMARK  30 active torsions:
REMARK  status: ('A' for Active; 'I' for Inactive)
REMARK    1  A    between atoms: O2E_1  and  C2E_2 
REMARK    2  A    between atoms: C3E_3  and  O3E_4 
REMARK    3  A    between atoms: C4E_5  and  O4E_6 
REMARK    4  A    between atoms: C5E_7  and  C6E_8 
REMARK    5  A    between atoms: C6E_8  and  O6E_9 
REMARK    6  A    between atoms: C1E_11  and  O4D_12 
REMARK    7  A    between atoms: O4D_12  and  C4D_13 
REMARK    8  A    between atoms: C5D_14  and  C6D_16 
REMARK    9  A    between atoms: C6D_16  and  O6D_17 
REMARK   10  A    between atoms: C3D_18  and  O3D_19 
REMARK   11  A    between atoms: C2D_20  and  O2D_21 
REMARK   12  A    between atoms: C1D_22  and  O4C_23 
REMARK   13  A    between atoms: O4C_23  and  C4C_24 
REMARK   14  A    between atoms: C5C_25  and  C6C_27 
REMARK   15  A    between atoms: C6C_27  and  O6C_28 
REMARK   16  A    between atoms: C3C_29  and  O3C_30 
REMARK   17  A    between atoms: C2C_31  and  O2C_32 
REMARK   18  A    between atoms: C1C_33  and  O4B_34 
REMARK   19  A    between atoms: O4B_34  and  C4B_35 
REMARK   20  A    between atoms: C5B_36  and  C6B_38 
REMARK   21  A    between atoms: C6B_38  and  O6B_39 
REMARK   22  A    between atoms: C3B_40  and  O3B_41 
REMARK   23  A    between atoms: C2B_42  and  O2B_43 
REMARK   24  A    between atoms: C1B_44  and  O4A_45 
REMARK   25  A    between atoms: O4A_45  and  C4A_46 
REMARK   26  A    between atoms: C3A_47  and  O3A_48 
REMARK   27  A    between atoms: C2A_49  and  O2A_50 
REMARK   28  A    between atoms: C1A_51  and  O1A_52 
REMARK   29  A    between atoms: C5A_54  and  C6A_55 
REMARK   30  A    between atoms: C6A_55  and  O6A_56 
ROOT
ATOM      1  C4C CE5 d   1       2.005   0.333  43.891  0.00  0.00     0.096 C 
ATOM      2  C5C CE5 d   1       0.793  -0.306  44.553  0.00  0.00     0.089 C 
ATOM      3  O5C CE5 d   1       1.010  -0.515  45.943  0.00  0.00    -0.348 OA
ATOM      4  C3C CE5 d   1       2.341   1.635  44.626  0.00  0.00     0.092 C 
ATOM      5  C2C CE5 d   1       2.487   1.392  46.123  0.00  0.00     0.110 C 
ATOM      6  C1C CE5 d   1       1.242   0.693  46.661  0.00  0.00     0.159 C 
ATOM      7  H22 CE5 d   1       2.865  -0.353  43.879  0.00  0.00     0.091 H 
ATOM      8  H23 CE5 d   1      -0.057   0.380  44.424  0.00  0.00     0.090 H 
ATOM      9  H27 CE5 d   1       1.509   2.338  44.470  0.00  0.00     0.091 H 
ATOM     10  H29 CE5 d   1       3.368   0.757  46.295  0.00  0.00     0.094 H 
ATOM     11  H31 CE5 d   1       0.377   1.356  46.510  0.00  0.00     0.133 H 
ENDROOT
BRANCH   1  12
ATOM     12  O4C CE5 d   1       1.601   0.696  42.581  0.00  0.00    -0.348 OA
BRANCH  12  13
ATOM     13  C1D CE5 d   1       2.490   0.341  41.522  0.00  0.00     0.159 C 
ATOM     14  O5D CE5 d   1       3.441   1.376  41.340  0.00  0.00    -0.348 OA
ATOM     15  C5D CE5 d   1       4.475   0.982  40.432  0.00  0.00     0.089 C 
ATOM     16  C4D CE5 d   1       3.875   0.957  39.029  0.00  0.00     0.096 C 
ATOM     17  H13 CE5 d   1       4.802  -0.040  40.674  0.00  0.00     0.090 H 
ATOM     18  C3D CE5 d   1       2.659   0.024  39.041  0.00  0.00     0.092 C 
ATOM     19  H12 CE5 d   1       3.590   1.975  38.726  0.00  0.00     0.091 H 
ATOM     20  C2D CE5 d   1       1.703   0.243  40.217  0.00  0.00     0.110 C 
ATOM     21  H17 CE5 d   1       3.036  -1.006  39.129  0.00  0.00     0.091 H 
ATOM     22  H19 CE5 d   1       1.148   1.178  40.050  0.00  0.00     0.094 H 
ATOM     23  H21 CE5 d   1       2.990  -0.612  41.749  0.00  0.00     0.133 H 
BRANCH  15  24
ATOM     24  C6D CE5 d   1       5.661   1.904  40.638  0.00  0.00     0.043 C 
ATOM     25  H14 CE5 d   1       5.424   2.911  40.264  0.00  0.00     0.078 H 
ATOM     26  H15 CE5 d   1       6.540   1.512  40.105  0.00  0.00     0.078 H 
BRANCH  24  27
ATOM     27  O6D CE5 d   1       5.926   1.954  42.059  0.00  0.00    -0.398 OA
ATOM     28  H16 CE5 d   1       6.667   2.526  42.222  0.00  0.00     0.209 HD
ENDBRANCH  24  27
ENDBRANCH  15  24
BRANCH  16  29
ATOM     29  O4D CE5 d   1       4.780   0.391  38.085  0.00  0.00    -0.348 OA
BRANCH  29  30
ATOM     30  C1E CE5 d   1       5.478   1.214  37.091  0.00  0.00     0.159 C 
ATOM     31  C2E CE5 d   1       5.837   0.366  35.819  0.00  0.00     0.110 C 
ATOM     32  C3E CE5 d   1       5.138   0.838  34.549  0.00  0.00     0.092 C 
ATOM     33  H2  CE5 d   1       5.486  -0.655  36.028  0.00  0.00     0.094 H 
ATOM     34  C4E CE5 d   1       3.765   1.408  34.951  0.00  0.00     0.090 C 
ATOM     35  H3  CE5 d   1       5.727   1.641  34.082  0.00  0.00     0.091 H 
ATOM     36  C5E CE5 d   1       4.064   2.731  35.661  0.00  0.00     0.089 C 
ATOM     37  H5  CE5 d   1       3.220   0.712  35.605  0.00  0.00     0.091 H 
ATOM     38  O5E CE5 d   1       4.817   2.499  36.872  0.00  0.00    -0.348 OA
ATOM     39  H7  CE5 d   1       4.685   3.322  34.972  0.00  0.00     0.090 H 
ATOM     40  H11 CE5 d   1       6.447   1.473  37.542  0.00  0.00     0.133 H 
BRANCH  31  41
ATOM     41  O2E CE5 d   1       7.256   0.280  35.523  0.00  0.00    -0.388 OA
ATOM     42  H1  CE5 d   1       7.577   1.136  35.263  0.00  0.00     0.210 HD
ENDBRANCH  31  41
BRANCH  32  43
ATOM     43  O3E CE5 d   1       5.062  -0.261  33.628  0.00  0.00    -0.390 OA
ATOM     44  H4  CE5 d   1       4.628   0.023  32.833  0.00  0.00     0.210 HD
ENDBRANCH  32  43
BRANCH  34  45
ATOM     45  O4E CE5 d   1       3.009   1.699  33.784  0.00  0.00    -0.390 OA
ATOM     46  H6  CE5 d   1       2.163   2.050  34.035  0.00  0.00     0.210 HD
ENDBRANCH  34  45
BRANCH  36  47
ATOM     47  C6E CE5 d   1       2.860   3.602  36.046  0.00  0.00     0.043 C 
ATOM     48  H8  CE5 d   1       2.333   3.916  35.133  0.00  0.00     0.078 H 
ATOM     49  H9  CE5 d   1       3.214   4.490  36.589  0.00  0.00     0.078 H 
BRANCH  47  50
ATOM     50  O6E CE5 d   1       1.943   2.855  36.895  0.00  0.00    -0.398 OA
ATOM     51  H10 CE5 d   1       1.633   2.088  36.427  0.00  0.00     0.209 HD
ENDBRANCH  47  50
ENDBRANCH  36  47
ENDBRANCH  29  30
ENDBRANCH  16  29
BRANCH  18  52
ATOM     52  O3D CE5 d   1       1.988   0.142  37.777  0.00  0.00    -0.390 OA
ATOM     53  H18 CE5 d   1       2.583  -0.106  37.079  0.00  0.00     0.210 HD
ENDBRANCH  18  52
BRANCH  20  54
ATOM     54  O2D CE5 d   1       0.772  -0.838  40.361  0.00  0.00    -0.388 OA
ATOM     55  H20 CE5 d   1       0.199  -0.665  41.099  0.00  0.00     0.210 HD
ENDBRANCH  20  54
ENDBRANCH  12  13
ENDBRANCH   1  12
BRANCH   2  56
ATOM     56  C6C CE5 d   1       0.420  -1.651  43.958  0.00  0.00     0.043 C 
ATOM     57  H24 CE5 d   1       1.094  -2.443  44.316  0.00  0.00     0.078 H 
ATOM     58  H25 CE5 d   1       0.444  -1.618  42.859  0.00  0.00     0.078 H 
BRANCH  56  59
ATOM     59  O6C CE5 d   1      -0.908  -1.851  44.437  0.00  0.00    -0.398 OA
ATOM     60  H26 CE5 d   1      -0.903  -1.859  45.387  0.00  0.00     0.209 HD
ENDBRANCH  56  59
ENDBRANCH   2  56
BRANCH   4  61
ATOM     61  O3C CE5 d   1       3.546   2.240  44.106  0.00  0.00    -0.390 OA
ATOM     62  H28 CE5 d   1       3.428   2.436  43.184  0.00  0.00     0.210 HD
ENDBRANCH   4  61
BRANCH   5  63
ATOM     63  O2C CE5 d   1       2.644   2.615  46.837  0.00  0.00    -0.388 OA
ATOM     64  H30 CE5 d   1       2.732   2.430  47.765  0.00  0.00     0.210 HD
ENDBRANCH   5  63
BRANCH   6  65
ATOM     65  O4B CE5 d   1       1.377   0.443  48.069  0.00  0.00    -0.348 OA
BRANCH  65  66
ATOM     66  C4B CE5 d   1       0.167  -0.044  48.645  0.00  0.00     0.096 C 
ATOM     67  C5B CE5 d   1      -0.548   1.087  49.417  0.00  0.00     0.089 C 
ATOM     68  O5B CE5 d   1      -1.523   0.585  50.344  0.00  0.00    -0.348 OA
ATOM     69  H33 CE5 d   1       0.200   1.686  49.958  0.00  0.00     0.090 H 
ATOM     70  C1B CE5 d   1      -1.241  -0.598  51.100  0.00  0.00     0.159 C 
ATOM     71  C2B CE5 d   1      -0.724  -1.738  50.234  0.00  0.00     0.110 C 
ATOM     72  H41 CE5 d   1      -0.523  -0.370  51.902  0.00  0.00     0.133 H 
ATOM     73  C3B CE5 d   1       0.499  -1.298  49.457  0.00  0.00     0.092 C 
ATOM     74  H39 CE5 d   1      -1.512  -2.036  49.527  0.00  0.00     0.094 H 
ATOM     75  H37 CE5 d   1       1.329  -1.082  50.145  0.00  0.00     0.091 H 
ATOM     76  H32 CE5 d   1      -0.507  -0.351  47.831  0.00  0.00     0.091 H 
BRANCH  67  77
ATOM     77  C6B CE5 d   1      -1.300   1.959  48.408  0.00  0.00     0.043 C 
ATOM     78  H34 CE5 d   1      -2.292   1.517  48.230  0.00  0.00     0.078 H 
ATOM     79  H35 CE5 d   1      -0.732   1.978  47.466  0.00  0.00     0.078 H 
BRANCH  77  80
ATOM     80  O6B CE5 d   1      -1.472   3.301  48.866  0.00  0.00    -0.398 OA
ATOM     81  H36 CE5 d   1      -0.621   3.695  49.016  0.00  0.00     0.209 HD
ENDBRANCH  77  80
ENDBRANCH  67  77
BRANCH  70  82
ATOM     82  O4A CE5 d   1      -2.483  -1.068  51.626  0.00  0.00    -0.348 OA
BRANCH  82  83
ATOM     83  C4A CE5 d   1      -2.800  -0.597  52.923  0.00  0.00     0.096 C 
ATOM     84  C3A CE5 d   1      -3.969   0.382  52.813  0.00  0.00     0.092 C 
ATOM     85  C2A CE5 d   1      -4.501   0.711  54.202  0.00  0.00     0.110 C 
ATOM     86  H43 CE5 d   1      -4.772  -0.090  52.228  0.00  0.00     0.091 H 
ATOM     87  C1A CE5 d   1      -4.855  -0.590  54.918  0.00  0.00     0.156 C 
ATOM     88  H45 CE5 d   1      -3.718   1.232  54.772  0.00  0.00     0.094 H 
ATOM     89  O5A CE5 d   1      -3.683  -1.408  55.036  0.00  0.00    -0.349 OA
ATOM     90  H47 CE5 d   1      -5.611  -1.132  54.330  0.00  0.00     0.133 H 
ATOM     91  C5A CE5 d   1      -3.142  -1.820  53.774  0.00  0.00     0.089 C 
ATOM     92  H49 CE5 d   1      -3.913  -2.407  53.254  0.00  0.00     0.090 H 
ATOM     93  H42 CE5 d   1      -1.935  -0.077  53.361  0.00  0.00     0.091 H 
BRANCH  84  94
ATOM     94  O3A CE5 d   1      -3.557   1.583  52.143  0.00  0.00    -0.390 OA
ATOM     95  H44 CE5 d   1      -3.250   1.368  51.270  0.00  0.00     0.210 HD
ENDBRANCH  84  94
BRANCH  85  96
ATOM     96  O2A CE5 d   1      -5.648   1.564  54.110  0.00  0.00    -0.388 OA
ATOM     97  H46 CE5 d   1      -5.967   1.759  54.983  0.00  0.00     0.210 HD
ENDBRANCH  85  96
BRANCH  87  98
ATOM     98  O1A CE5 d   1      -5.397  -0.292  56.214  0.00  0.00    -0.369 OA
ATOM     99  H48 CE5 d   1      -6.171   0.250  56.115  0.00  0.00     0.212 HD
ENDBRANCH  87  98
BRANCH  91 100
ATOM    100  C6A CE5 d   1      -1.883  -2.698  53.908  0.00  0.00     0.043 C 
ATOM    101  H50 CE5 d   1      -1.085  -2.277  53.278  0.00  0.00     0.078 H 
ATOM    102  H51 CE5 d   1      -2.120  -3.717  53.567  0.00  0.00     0.078 H 
BRANCH 100 103
ATOM    103  O6A CE5 d   1      -1.406  -2.759  55.313  0.00  0.00    -0.398 OA
ATOM    104  H52 CE5 d   1      -2.088  -3.127  55.862  0.00  0.00     0.209 HD
ENDBRANCH 100 103
ENDBRANCH  91 100
ENDBRANCH  82  83
ENDBRANCH  70  82
BRANCH  71 105
ATOM    105  O2B CE5 d   1      -0.382  -2.855  51.055  0.00  0.00    -0.388 OA
ATOM    106  H40 CE5 d   1      -0.078  -3.569  50.506  0.00  0.00     0.210 HD
ENDBRANCH  71 105
BRANCH  73 107
ATOM    107  O3B CE5 d   1       0.852  -2.378  48.586  0.00  0.00    -0.390 OA
ATOM    108  H38 CE5 d   1       0.123  -2.568  48.007  0.00  0.00     0.210 HD
ENDBRANCH  73 107
ENDBRANCH  65  66
ENDBRANCH   6  65
TORSDOF 30
