REMARK  12 active torsions:
REMARK  status: ('A' for Active; 'I' for Inactive)
REMARK    1  A    between atoms: O1D_1  and  C1D_2 
REMARK    2  A    between atoms: C2D_3  and  O2D_4 
REMARK    3  A    between atoms: C5D_6  and  C6D_7 
REMARK    4  A    between atoms: C6D_7  and  O6D_8 
REMARK    5  A    between atoms: C4D_9  and  O4D_10 
REMARK    6  A    between atoms: C3D_11  and  O3D_12 
REMARK    7  A    between atoms: O3D_12  and  C1E_13 
REMARK    8  A    between atoms: C2E_14  and  O2E_15 
REMARK    9  A    between atoms: C3E_16  and  O3E_17 
REMARK   10  A    between atoms: C4E_18  and  O4E_19 
REMARK   11  A    between atoms: C5E_21  and  C6E_22 
REMARK   12  A    between atoms: C6E_22  and  O6E_23 
ROOT
ATOM      1  O3D LB2 d   1       5.321   0.755  38.171  0.00  0.00    -0.348 OA
ENDROOT
BRANCH   1   2
ATOM      2  C3D LB2 d   1       4.649   1.585  39.125  0.00  0.00     0.098 C 
ATOM      3  C2D LB2 d   1       5.507   1.631  40.380  0.00  0.00     0.110 C 
ATOM      4  C1D LB2 d   1       4.758   2.246  41.557  0.00  0.00     0.156 C 
ATOM      5  H3  LB2 d   1       5.774   0.597  40.645  0.00  0.00     0.094 H 
ATOM      6  O5D LB2 d   1       3.614   1.443  41.826  0.00  0.00    -0.349 OA
ATOM      7  H2  LB2 d   1       4.451   3.274  41.315  0.00  0.00     0.133 H 
ATOM      8  C5D LB2 d   1       2.682   1.486  40.744  0.00  0.00     0.089 C 
ATOM      9  C4D LB2 d   1       3.316   0.927  39.468  0.00  0.00     0.090 C 
ATOM     10  H5  LB2 d   1       2.396   2.532  40.560  0.00  0.00     0.090 H 
ATOM     11  H9  LB2 d   1       3.489  -0.150  39.613  0.00  0.00     0.091 H 
ATOM     12  H11 LB2 d   1       4.491   2.597  38.723  0.00  0.00     0.091 H 
BRANCH   3  13
ATOM     13  O2D LB2 d   1       6.712   2.362  40.151  0.00  0.00    -0.388 OA
ATOM     14  H4  LB2 d   1       7.179   1.979  39.418  0.00  0.00     0.210 HD
ENDBRANCH   3  13
BRANCH   4  15
ATOM     15  O1D LB2 d   1       5.610   2.249  42.705  0.00  0.00    -0.369 OA
ATOM     16  H1  LB2 d   1       6.375   2.784  42.529  0.00  0.00     0.212 HD
ENDBRANCH   4  15
BRANCH   8  17
ATOM     17  C6D LB2 d   1       1.435   0.699  41.142  0.00  0.00     0.043 C 
ATOM     18  H6  LB2 d   1       0.817   0.521  40.250  0.00  0.00     0.078 H 
ATOM     19  H7  LB2 d   1       0.859   1.278  41.878  0.00  0.00     0.078 H 
BRANCH  17  20
ATOM     20  O6D LB2 d   1       1.812  -0.561  41.718  0.00  0.00    -0.398 OA
ATOM     21  H8  LB2 d   1       1.030  -1.043  41.962  0.00  0.00     0.209 HD
ENDBRANCH  17  20
ENDBRANCH   8  17
BRANCH   9  22
ATOM     22  O4D LB2 d   1       2.417   1.113  38.371  0.00  0.00    -0.390 OA
ATOM     23  H10 LB2 d   1       2.243   2.040  38.260  0.00  0.00     0.210 HD
ENDBRANCH   9  22
ENDBRANCH   1   2
BRANCH   1  24
ATOM     24  C1E LB2 d   1       5.542   1.331  36.847  0.00  0.00     0.159 C 
ATOM     25  C2E LB2 d   1       5.990   0.449  35.700  0.00  0.00     0.110 C 
ATOM     26  C3E LB2 d   1       5.362   0.983  34.429  0.00  0.00     0.092 C 
ATOM     27  H13 LB2 d   1       5.551  -0.539  35.902  0.00  0.00     0.094 H 
ATOM     28  C4E LB2 d   1       4.038   1.638  34.826  0.00  0.00     0.090 C 
ATOM     29  H15 LB2 d   1       6.016   1.718  33.937  0.00  0.00     0.091 H 
ATOM     30  C5E LB2 d   1       4.344   2.964  35.523  0.00  0.00     0.089 C 
ATOM     31  H17 LB2 d   1       3.513   0.981  35.535  0.00  0.00     0.091 H 
ATOM     32  O5E LB2 d   1       5.240   2.740  36.623  0.00  0.00    -0.348 OA
ATOM     33  H19 LB2 d   1       4.854   3.608  34.792  0.00  0.00     0.090 H 
ATOM     34  H12 LB2 d   1       6.586   1.570  37.098  0.00  0.00     0.133 H 
BRANCH  25  35
ATOM     35  O2E LB2 d   1       7.401   0.197  35.464  0.00  0.00    -0.388 OA
ATOM     36  H14 LB2 d   1       7.845   1.020  35.300  0.00  0.00     0.210 HD
ENDBRANCH  25  35
BRANCH  26  37
ATOM     37  O3E LB2 d   1       5.166  -0.151  33.585  0.00  0.00    -0.390 OA
ATOM     38  H16 LB2 d   1       4.771   0.129  32.767  0.00  0.00     0.210 HD
ENDBRANCH  26  37
BRANCH  28  39
ATOM     39  O4E LB2 d   1       3.200   1.816  33.671  0.00  0.00    -0.390 OA
ATOM     40  H18 LB2 d   1       2.383   2.223  33.934  0.00  0.00     0.210 HD
ENDBRANCH  28  39
BRANCH  30  41
ATOM     41  C6E LB2 d   1       3.102   3.719  36.005  0.00  0.00     0.043 C 
ATOM     42  H20 LB2 d   1       2.565   4.117  35.131  0.00  0.00     0.078 H 
ATOM     43  H21 LB2 d   1       3.419   4.551  36.651  0.00  0.00     0.078 H 
BRANCH  41  44
ATOM     44  O6E LB2 d   1       2.216   2.864  36.747  0.00  0.00    -0.398 OA
ATOM     45  H22 LB2 d   1       1.934   2.145  36.194  0.00  0.00     0.209 HD
ENDBRANCH  41  44
ENDBRANCH  30  41
ENDBRANCH   1  24
TORSDOF 12
