REMARK  8 active torsions:
REMARK  status: ('A' for Active; 'I' for Inactive)
REMARK    1  A    between atoms: C15_6  and  C31_1 
REMARK    2  A    between atoms: C31_1  and  C1_24 
REMARK       I    between atoms: N_2  and  C47_3 
REMARK    3  A    between atoms: N_2  and  C15_6 
REMARK    4  A    between atoms: C47_3  and  C49_4 
REMARK    5  A    between atoms: C15_6  and  C14_7 
REMARK       I    between atoms: C14_7  and  N1_9 
REMARK    6  A    between atoms: C32_13  and  C7_14 
REMARK       I    between atoms: C7_14  and  N23_15 
REMARK    7  A    between atoms: N23_15  and  C24_16 
REMARK    8  A    between atoms: C24_16  and  C25_17 
ROOT
ATOM      1  C14 91U d   1      17.269 -13.532  22.462  0.00  0.00     0.243 C 
ATOM      2  O32 91U d   1      16.222 -13.073  22.902  0.00  0.00    -0.271 OA
ATOM      3  N1  91U d   1      17.929 -12.993  21.393  0.00  0.00    -0.337 N 
ATOM      4  C33 91U d   1      19.090 -13.678  20.801  0.00  0.00    -0.001 C 
ATOM      5  C34 91U d   1      19.578 -12.604  19.799  0.00  0.00    -0.048 C 
ATOM      6  C35 91U d   1      18.260 -11.909  19.392  0.00  0.00    -0.036 C 
ATOM      7  C32 91U d   1      17.484 -11.776  20.739  0.00  0.00     0.091 C 
ATOM      8  H8  91U d   1      18.795 -14.606  20.289  0.00  0.00     0.064 H 
ATOM      9  H9  91U d   1      19.856 -13.904  21.557  0.00  0.00     0.064 H 
ATOM     10  H10 91U d   1      20.070 -13.065  18.930  0.00  0.00     0.035 H 
ATOM     11  H11 91U d   1      20.270 -11.896  20.279  0.00  0.00     0.035 H 
ATOM     12  H12 91U d   1      17.698 -12.524  18.674  0.00  0.00     0.036 H 
ATOM     13  H13 91U d   1      18.457 -10.920  18.953  0.00  0.00     0.036 H 
ATOM     14  H14 91U d   1      17.777 -10.881  21.308  0.00  0.00     0.087 H 
ENDROOT
BRANCH   1  15
ATOM     15  C15 91U d   1      17.804 -14.742  23.194  0.00  0.00     0.090 C 
ATOM     16  H7  91U d   1      18.756 -15.025  22.721  0.00  0.00     0.087 H 
BRANCH  15  17
ATOM     17  C31 91U d   1      18.066 -14.425  24.704  0.00  0.00    -0.035 C 
ATOM     18  H1  91U d   1      17.604 -15.210  25.321  0.00  0.00     0.037 H 
ATOM     19  H2  91U d   1      17.615 -13.453  24.950  0.00  0.00     0.037 H 
BRANCH  17  20
ATOM     20  C1  91U d   1      19.596 -14.369  25.012  0.00  0.00    -0.052 C 
ATOM     21  C6  91U d   1      20.434 -14.473  23.703  0.00  0.00    -0.062 C 
ATOM     22  C5  91U d   1      21.931 -14.671  24.048  0.00  0.00    -0.065 C 
ATOM     23  H23 91U d   1      20.314 -13.549  23.119  0.00  0.00     0.033 H 
ATOM     24  H24 91U d   1      20.080 -15.330  23.111  0.00  0.00     0.033 H 
ATOM     25  C4  91U d   1      22.432 -13.532  24.955  0.00  0.00    -0.065 C 
ATOM     26  H25 91U d   1      22.519 -14.678  23.118  0.00  0.00     0.033 H 
ATOM     27  H26 91U d   1      22.058 -15.631  24.570  0.00  0.00     0.033 H 
ATOM     28  C3  91U d   1      21.535 -13.261  26.178  0.00  0.00    -0.065 C 
ATOM     29  H27 91U d   1      22.486 -12.611  24.355  0.00  0.00     0.033 H 
ATOM     30  H28 91U d   1      23.438 -13.794  25.316  0.00  0.00     0.033 H 
ATOM     31  C2  91U d   1      20.041 -13.096  25.782  0.00  0.00    -0.062 C 
ATOM     32  H29 91U d   1      21.875 -12.338  26.670  0.00  0.00     0.033 H 
ATOM     33  H30 91U d   1      21.625 -14.105  26.878  0.00  0.00     0.033 H 
ATOM     34  H31 91U d   1      19.428 -12.976  26.687  0.00  0.00     0.033 H 
ATOM     35  H32 91U d   1      19.922 -12.212  25.139  0.00  0.00     0.033 H 
ATOM     36  H22 91U d   1      19.832 -15.239  25.642  0.00  0.00     0.040 H 
ENDBRANCH  17  20
ENDBRANCH  15  17
BRANCH  15  37
ATOM     37  N   91U d   1      16.897 -15.896  23.139  0.00  0.00    -0.348 N 
ATOM     38  C47 91U d   1      17.246 -17.062  23.764  0.00  0.00     0.214 C 
ATOM     39  O48 91U d   1      18.083 -17.793  23.247  0.00  0.00    -0.274 OA
ATOM     40  H3  91U d   1      16.029 -15.830  22.647  0.00  0.00     0.163 HD
BRANCH  38  41
ATOM     41  C49 91U d   1      16.673 -17.510  25.083  0.00  0.00    -0.003 C 
ATOM     42  H4  91U d   1      17.116 -18.476  25.366  0.00  0.00     0.040 H 
ATOM     43  H5  91U d   1      15.582 -17.620  24.991  0.00  0.00     0.040 H 
ATOM     44  H6  91U d   1      16.902 -16.761  25.856  0.00  0.00     0.040 H 
ENDBRANCH  38  41
ENDBRANCH  15  37
ENDBRANCH   1  15
BRANCH   7  45
ATOM     45  C7  91U d   1      15.999 -11.737  20.460  0.00  0.00     0.240 C 
ATOM     46  N23 91U d   1      15.308 -10.583  20.646  0.00  0.00    -0.355 N 
ATOM     47  H15 91U d   1      15.763  -9.754  20.970  0.00  0.00     0.162 HD
ATOM     48  O22 91U d   1      15.420 -12.743  20.072  0.00  0.00    -0.271 OA
BRANCH  46  49
ATOM     49  C24 91U d   1      13.873 -10.596  20.356  0.00  0.00     0.019 C 
ATOM     50  H16 91U d   1      13.627 -11.534  19.838  0.00  0.00     0.071 H 
ATOM     51  H17 91U d   1      13.638  -9.743  19.702  0.00  0.00     0.071 H 
BRANCH  49  52
ATOM     52  C25 91U d   1      13.016 -10.495  21.623  0.00  0.00    -0.039 A 
ATOM     53  C30 91U d   1      13.073  -9.343  22.423  0.00  0.00    -0.054 A 
ATOM     54  C29 91U d   1      12.322  -9.271  23.607  0.00  0.00     0.034 A 
ATOM     55  H18 91U d   1      13.697  -8.508  22.126  0.00  0.00     0.086 H 
ATOM     56  C28 91U d   1      11.428 -10.292  23.942  0.00  0.00    -0.062 A 
ATOM     57 CL21 91U d   1      12.457  -7.854  24.634  0.00  0.00    -0.084 Cl
ATOM     58  C27 91U d   1      11.370 -11.447  23.135  0.00  0.00    -0.081 A 
ATOM     59  H19 91U d   1      10.787 -10.197  24.811  0.00  0.00     0.086 H 
ATOM     60  C26 91U d   1      12.144 -11.525  21.971  0.00  0.00    -0.075 A 
ATOM     61  H20 91U d   1      10.727 -12.273  23.416  0.00  0.00     0.083 H 
ATOM     62  H21 91U d   1      12.064 -12.397  21.332  0.00  0.00     0.084 H 
ENDBRANCH  49  52
ENDBRANCH  46  49
ENDBRANCH   7  45
TORSDOF 8
