REMARK  15 active torsions:
REMARK  status: ('A' for Active; 'I' for Inactive)
REMARK    1  A    between atoms: C1N_6  and  C1F_7 
REMARK    2  A    between atoms: C1E_8  and  C1M_9 
REMARK    3  A    between atoms: C1M_9  and  O1D_10 
REMARK    4  A    between atoms: C1M_9  and  C1Q_11 
REMARK    5  A    between atoms: C5_13  and  C6_14 
REMARK    6  A    between atoms: C6_14  and  C7_15 
REMARK    7  A    between atoms: C7_15  and  O7_16 
REMARK    8  A    between atoms: O7_16  and  P1A_17 
REMARK    9  A    between atoms: P1A_17  and  O3A_20 
REMARK   10  A    between atoms: O3A_20  and  P1B_21 
REMARK   11  A    between atoms: C4_25  and  C4M_26 
REMARK   12  A    between atoms: N3_27  and  C7S_28 
REMARK   13  A    between atoms: C7S_28  and  C5S_29 
REMARK   14  A    between atoms: C2S_32  and  C2M_33 
REMARK   15  A    between atoms: C4S_35  and  N4S_36 
ROOT
ATOM      1  C1Q 8PA d   1      66.482  53.459 160.485  0.00  0.00     0.087 A 
ATOM      2  S1  8PA d   1      65.963  54.298 162.024  0.00  0.00    -0.076 SA
ATOM      3  C5  8PA d   1      66.458  52.890 163.001  0.00  0.00     0.009 A 
ATOM      4  C4  8PA d   1      66.863  51.884 162.160  0.00  0.00     0.022 A 
ATOM      5  N3  8PA d   1      66.890  52.194 160.849  0.00  0.00    -0.341 N 
ENDROOT
BRANCH   1   6
ATOM      6  C1M 8PA d   1      65.762  53.820 159.138  0.00  0.00     0.098 C 
ATOM      7  H7  8PA d   1      66.692  54.194 158.686  0.00  0.00     0.100 H 
BRANCH   6   8
ATOM      8  C1E 8PA d   1      65.103  55.059 158.969  0.00  0.00    -0.069 C 
ATOM      9  C1F 8PA d   1      65.823  56.212 158.789  0.00  0.00    -0.072 C 
ATOM     10  H5  8PA d   1      66.909  56.138 158.773  0.00  0.00     0.084 H 
ATOM     11  H6  8PA d   1      64.015  55.098 158.982  0.00  0.00     0.081 H 
BRANCH   9  12
ATOM     12  C1N 8PA d   1      65.253  57.472 158.626  0.00  0.00    -0.019 A 
ATOM     13  C1I 8PA d   1      64.432  57.756 157.526  0.00  0.00    -0.070 A 
ATOM     14  C1G 8PA d   1      63.926  59.052 157.403  0.00  0.00    -0.065 A 
ATOM     15  H1  8PA d   1      64.197  56.993 156.793  0.00  0.00     0.084 H 
ATOM     16  C1H 8PA d   1      64.237  60.026 158.371  0.00  0.00     0.002 A 
ATOM     17  H2  8PA d   1      63.293  59.308 156.561  0.00  0.00     0.085 H 
ATOM     18  N1K 8PA d   1      65.004  59.711 159.423  0.00  0.00    -0.272 NA
ATOM     19  H3  8PA d   1      63.854  61.035 158.264  0.00  0.00     0.114 H 
ATOM     20  C1J 8PA d   1      65.521  58.476 159.568  0.00  0.00     0.012 A 
ATOM     21  H4  8PA d   1      66.151  58.255 160.422  0.00  0.00     0.116 H 
ENDBRANCH   9  12
ENDBRANCH   6   8
BRANCH   6  22
ATOM     22  O1D 8PA d   1      65.595  52.829 158.154  0.00  0.00    -0.385 OA
ATOM     23  H8  8PA d   1      65.907  53.158 157.319  0.00  0.00     0.210 HD
ENDBRANCH   6  22
ENDBRANCH   1   6
BRANCH   5  24
ATOM     24  C7S 8PA d   1      67.454  51.204 159.852  0.00  0.00     0.029 C 
ATOM     25  H16 8PA d   1      66.979  51.390 158.877  0.00  0.00     0.072 H 
ATOM     26  H17 8PA d   1      67.201  50.190 160.195  0.00  0.00     0.072 H 
BRANCH  24  27
ATOM     27  C5S 8PA d   1      69.008  51.282 159.661  0.00  0.00     0.023 C 
ATOM     28  C6S 8PA d   1      69.702  50.107 159.818  0.00  0.00     0.015 C 
ATOM     29  N1S 8PA d   1      71.047  50.089 159.652  0.00  0.00    -0.245 NA
ATOM     30  H18 8PA d   1      69.175  49.195 160.074  0.00  0.00     0.116 H 
ATOM     31  C2S 8PA d   1      71.580  51.249 159.267  0.00  0.00     0.124 C 
ATOM     32  N3S 8PA d   1      70.952  52.406 159.033  0.00  0.00    -0.216 NA
ATOM     33  C4S 8PA d   1      69.603  52.459 159.182  0.00  0.00     0.132 C 
BRANCH  31  34
ATOM     34  C2M 8PA d   1      73.119  51.191 159.017  0.00  0.00    -0.019 C 
ATOM     35  H19 8PA d   1      73.491  50.183 159.251  0.00  0.00     0.037 H 
ATOM     36  H20 8PA d   1      73.623  51.926 159.661  0.00  0.00     0.037 H 
ATOM     37  H21 8PA d   1      73.328  51.423 157.962  0.00  0.00     0.037 H 
ENDBRANCH  31  34
BRANCH  33  38
ATOM     38  N4S 8PA d   1      69.063  53.593 158.912  0.00  0.00    -0.383 N 
ATOM     39  H22 8PA d   1      69.643  54.370 158.564  0.00  0.00     0.157 HD
ATOM     40  H23 8PA d   1      68.050  53.725 159.044  0.00  0.00     0.157 HD
ENDBRANCH  33  38
ENDBRANCH  24  27
ENDBRANCH   5  24
BRANCH   3  41
ATOM     41  C6  8PA d   1      66.264  52.932 164.450  0.00  0.00    -0.013 C 
ATOM     42  H9  8PA d   1      66.350  51.903 164.829  0.00  0.00     0.044 H 
ATOM     43  H10 8PA d   1      65.249  53.310 164.641  0.00  0.00     0.044 H 
BRANCH  41  44
ATOM     44  C7  8PA d   1      67.258  53.818 165.256  0.00  0.00     0.036 C 
ATOM     45  H11 8PA d   1      67.171  54.874 164.959  0.00  0.00     0.075 H 
ATOM     46  H12 8PA d   1      68.294  53.479 165.107  0.00  0.00     0.075 H 
BRANCH  44  47
ATOM     47  O7  8PA d   1      66.843  53.632 166.648  0.00  0.00    -0.289 OA
BRANCH  47  48
ATOM     48  P1A 8PA d   1      67.414  54.636 167.702  0.00  0.00     0.418 P 
ATOM     49  O2A 8PA d   1      67.247  53.940 168.995  0.00  0.00    -0.624 OA
ATOM     50  O1A 8PA d   1      68.784  55.165 167.413  0.00  0.00    -0.624 OA
BRANCH  48  51
ATOM     51  O3A 8PA d   1      66.580  55.865 167.633  0.00  0.00    -0.173 OA
BRANCH  51  52
ATOM     52  P1B 8PA d   1      64.845  56.059 167.798  0.00  0.00     0.431 P 
ATOM     53  O2B 8PA d   1      64.224  55.710 166.438  0.00  0.00    -0.616 OA
ATOM     54  O1B 8PA d   1      64.458  55.098 168.906  0.00  0.00    -0.616 OA
ATOM     55  O3B 8PA d   1      64.648  57.457 168.155  0.00  0.00    -0.616 OA
ENDBRANCH  51  52
ENDBRANCH  48  51
ENDBRANCH  47  48
ENDBRANCH  44  47
ENDBRANCH  41  44
ENDBRANCH   3  41
BRANCH   4  56
ATOM     56  C4M 8PA d   1      67.370  50.520 162.711  0.00  0.00    -0.036 C 
ATOM     57  H13 8PA d   1      67.248  50.498 163.804  0.00  0.00     0.035 H 
ATOM     58  H14 8PA d   1      68.433  50.395 162.458  0.00  0.00     0.035 H 
ATOM     59  H15 8PA d   1      66.787  49.703 162.261  0.00  0.00     0.035 H 
ENDBRANCH   4  56
TORSDOF 15
