REMARK  6 active torsions:
REMARK  status: ('A' for Active; 'I' for Inactive)
REMARK    1  A    between atoms: N_1  and  CA_2 
REMARK    2  A    between atoms: CA_2  and  C_3 
REMARK    3  A    between atoms: CA_2  and  CB_5 
REMARK    4  A    between atoms: CB_5  and  CG1_6 
REMARK    5  A    between atoms: CB_5  and  CG2_7 
REMARK    6  A    between atoms: CG1_6  and  CD1_8 
ROOT
ATOM      1  CB  ILE d   1      13.478 -37.391  -2.814  0.00  0.00    -0.021 C 
ATOM      2  H5  ILE d   1      14.034 -38.130  -2.218  0.00  0.00     0.043 H 
ENDROOT
BRANCH   1   3
ATOM      3  CA  ILE d   1      14.326 -37.010  -4.031  0.00  0.00     0.185 C 
ATOM      4  H4  ILE d   1      13.775 -36.283  -4.646  0.00  0.00     0.101 H 
BRANCH   3   5
ATOM      5  N   ILE d   1      14.601 -38.212  -4.827  0.00  0.00    -0.065 N 
ATOM      6  H1  ILE d   1      15.159 -37.964  -5.629  0.00  0.00     0.275 HD
ATOM      7  H2  ILE d   1      13.731 -38.617  -5.136  0.00  0.00     0.275 HD
ATOM      8  H3  ILE d   1      15.102 -38.881  -4.263  0.00  0.00     0.275 HD
ENDBRANCH   3   5
BRANCH   3   9
ATOM      9  C   ILE d   1      15.644 -36.386  -3.569  0.00  0.00     0.204 C 
ATOM     10  O   ILE d   1      16.572 -37.170  -3.270  0.00  0.00    -0.646 OA
ATOM     11  OXT ILE d   1      15.698 -35.139  -3.525  0.00  0.00    -0.646 OA
ENDBRANCH   3   9
ENDBRANCH   1   3
BRANCH   1  12
ATOM     12  CG1 ILE d   1      12.162 -38.027  -3.266  0.00  0.00    -0.063 C 
ATOM     13  H6  ILE d   1      12.383 -38.936  -3.844  0.00  0.00     0.033 H 
ATOM     14  H7  ILE d   1      11.617 -37.312  -3.900  0.00  0.00     0.033 H 
BRANCH  12  15
ATOM     15  CD1 ILE d   1      11.288 -38.398  -2.066  0.00  0.00    -0.076 C 
ATOM     16  H11 ILE d   1      10.351 -38.852  -2.421  0.00  0.00     0.027 H 
ATOM     17  H12 ILE d   1      11.059 -37.492  -1.485  0.00  0.00     0.027 H 
ATOM     18  H13 ILE d   1      11.825 -39.116  -1.429  0.00  0.00     0.027 H 
ENDBRANCH  12  15
ENDBRANCH   1  12
BRANCH   1  19
ATOM     19  CG2 ILE d   1      13.217 -36.164  -1.939  0.00  0.00    -0.070 C 
ATOM     20  H8  ILE d   1      14.176 -35.725  -1.627  0.00  0.00     0.028 H 
ATOM     21  H9  ILE d   1      12.644 -36.464  -1.049  0.00  0.00     0.028 H 
ATOM     22  H10 ILE d   1      12.643 -35.421  -2.512  0.00  0.00     0.028 H 
ENDBRANCH   1  19
TORSDOF 6
