REMARK  8 active torsions:
REMARK  status: ('A' for Active; 'I' for Inactive)
REMARK    1  A    between atoms: N_1  and  CA_2 
REMARK    2  A    between atoms: CA_2  and  CB_3 
REMARK    3  A    between atoms: CA_2  and  C_9 
REMARK    4  A    between atoms: CB_3  and  CG_4 
REMARK    5  A    between atoms: CG_4  and  CD_5 
REMARK    6  A    between atoms: CD_5  and  CE_6 
REMARK    7  A    between atoms: CE_6  and  NZ_7 
REMARK    8  A    between atoms: NZ_7  and  CM_8 
ROOT
ATOM      1  CG  MLZ d   1      29.071  18.396 -55.494  0.00  0.00    -0.061 C 
ATOM      2  H7  MLZ d   1      28.621  18.826 -54.587  0.00  0.00     0.033 H 
ATOM      3  H8  MLZ d   1      30.016  17.898 -55.233  0.00  0.00     0.033 H 
ENDROOT
BRANCH   1   4
ATOM      4  CB  MLZ d   1      29.340  19.514 -56.519  0.00  0.00    -0.029 C 
ATOM      5  H5  MLZ d   1      30.259  19.259 -57.068  0.00  0.00     0.036 H 
ATOM      6  H6  MLZ d   1      28.492  19.546 -57.219  0.00  0.00     0.036 H 
BRANCH   4   7
ATOM      7  CA  MLZ d   1      29.516  20.912 -55.925  0.00  0.00     0.182 C 
ATOM      8  H4  MLZ d   1      28.528  21.263 -55.593  0.00  0.00     0.101 H 
BRANCH   7   9
ATOM      9  N   MLZ d   1      30.016  21.844 -56.969  0.00  0.00    -0.065 N 
ATOM     10  H1  MLZ d   1      29.395  21.824 -57.762  0.00  0.00     0.275 HD
ATOM     11  H2  MLZ d   1      30.939  21.561 -57.258  0.00  0.00     0.275 HD
ATOM     12  H3  MLZ d   1      30.053  22.779 -56.595  0.00  0.00     0.275 HD
ENDBRANCH   7   9
BRANCH   7  13
ATOM     13  C   MLZ d   1      30.438  20.927 -54.722  0.00  0.00     0.204 C 
ATOM     14  O   MLZ d   1      29.911  20.989 -53.579  0.00  0.00    -0.646 OA
ATOM     15  O18 MLZ d   1      31.689  20.879 -54.860  0.00  0.00    -0.646 OA
ENDBRANCH   7  13
ENDBRANCH   4   7
ENDBRANCH   1   4
BRANCH   1  16
ATOM     16  CD  MLZ d   1      28.110  17.382 -56.114  0.00  0.00    -0.043 C 
ATOM     17  H9  MLZ d   1      28.302  17.327 -57.196  0.00  0.00     0.035 H 
ATOM     18  H10 MLZ d   1      27.078  17.720 -55.942  0.00  0.00     0.035 H 
BRANCH  16  19
ATOM     19  CE  MLZ d   1      28.278  15.996 -55.515  0.00  0.00     0.081 C 
ATOM     20  H11 MLZ d   1      28.180  16.070 -54.422  0.00  0.00     0.075 H 
ATOM     21  H12 MLZ d   1      29.280  15.621 -55.769  0.00  0.00     0.075 H 
BRANCH  19  22
ATOM     22  NZ  MLZ d   1      27.282  15.047 -56.013  0.00  0.00    -0.079 N 
ATOM     23  H13 MLZ d   1      27.594  14.703 -56.907  0.00  0.00     0.276 HD
ATOM     24  H14 MLZ d   1      26.409  15.538 -56.128  0.00  0.00     0.276 HD
BRANCH  22  25
ATOM     25  CM  MLZ d   1      27.049  13.898 -55.136  0.00  0.00     0.065 C 
ATOM     26  H15 MLZ d   1      26.290  13.241 -55.586  0.00  0.00     0.067 H 
ATOM     27  H16 MLZ d   1      26.694  14.251 -54.156  0.00  0.00     0.067 H 
ATOM     28  H17 MLZ d   1      27.988  13.339 -55.007  0.00  0.00     0.067 H 
ENDBRANCH  22  25
ENDBRANCH  19  22
ENDBRANCH  16  19
ENDBRANCH   1  16
TORSDOF 8
