REMARK  3 active torsions:
REMARK  status: ('A' for Active; 'I' for Inactive)
REMARK    1  A    between atoms: CAJ_2  and  CAI_5 
REMARK    2  A    between atoms: CAI_5  and  OAG_7 
REMARK    3  A    between atoms: OAG_7  and  CAH_8 
ROOT
ATOM      1  CAI ICF d   1      27.398  17.584   6.119  0.00  0.00     0.207 C 
ATOM      2 CLAF ICF d   1      26.202  16.280   6.624  0.00  0.00    -0.086 Cl
ATOM      3  H1  ICF d   1      28.087  17.765   6.957  0.00  0.00     0.123 H 
ENDROOT
BRANCH   1   4
ATOM      4  CAJ ICF d   1      28.208  17.225   4.870  0.00  0.00     0.427 C 
ATOM      5  FAC ICF d   1      27.400  17.182   3.811  0.00  0.00    -0.167 F 
ATOM      6  FAD ICF d   1      29.139  18.149   4.667  0.00  0.00    -0.167 F 
ATOM      7  FAE ICF d   1      28.809  16.065   5.039  0.00  0.00    -0.167 F 
ENDBRANCH   1   4
BRANCH   1   8
ATOM      8  OAG ICF d   1      26.699  18.792   5.791  0.00  0.00    -0.302 OA
BRANCH   8   9
ATOM      9  CAH ICF d   1      26.607  19.700   6.906  0.00  0.00     0.307 C 
ATOM     10  FAB ICF d   1      26.315  19.023   8.030  0.00  0.00    -0.184 F 
ATOM     11  FAA ICF d   1      27.746  20.404   7.071  0.00  0.00    -0.184 F 
ATOM     12  H2  ICF d   1      25.791  20.410   6.704  0.00  0.00     0.194 H 
ENDBRANCH   8   9
ENDBRANCH   1   8
TORSDOF 3
