REMARK  13 active torsions:
REMARK  status: ('A' for Active; 'I' for Inactive)
REMARK    1  A    between atoms: N1_1  and  C2_2 
REMARK    2  A    between atoms: C2_2  and  C3_3 
REMARK    3  A    between atoms: C2_2  and  C4_4 
REMARK       I    between atoms: C4_4  and  N6_6 
REMARK    4  A    between atoms: N6_6  and  C7_7 
REMARK    5  A    between atoms: C7_7  and  C8_8 
REMARK    6  A    between atoms: C7_7  and  C11_11 
REMARK    7  A    between atoms: C8_8  and  C9_9 
REMARK    8  A    between atoms: C8_8  and  C10_10 
REMARK       I    between atoms: C11_11  and  N13_13 
REMARK    9  A    between atoms: C14_14  and  C18_18 
REMARK       I    between atoms: C18_18  and  N21_21 
REMARK   10  A    between atoms: N21_21  and  C20_20 
REMARK   11  A    between atoms: C20_20  and  C22_22 
REMARK   12  A    between atoms: C22_22  and  C23_23 
REMARK   13  A    between atoms: C22_22  and  C29_29 
ROOT
ATOM      1  C11 389 d   1      22.320  45.543  -2.761  0.00  0.00     0.243 C 
ATOM      2  O12 389 d   1      23.185  46.233  -2.214  0.00  0.00    -0.271 OA
ATOM      3  N13 389 d   1      21.410  44.844  -2.066  0.00  0.00    -0.337 N 
ATOM      4  C14 389 d   1      21.516  44.785  -0.613  0.00  0.00     0.091 C 
ATOM      5  C15 389 d   1      20.220  44.080  -0.189  0.00  0.00    -0.036 C 
ATOM      6  C16 389 d   1      19.752  43.352  -1.384  0.00  0.00    -0.048 C 
ATOM      7  C17 389 d   1      20.251  44.098  -2.579  0.00  0.00    -0.001 C 
ATOM      8  H17 389 d   1      21.561  45.798  -0.186  0.00  0.00     0.087 H 
ATOM      9  H18 389 d   1      19.469  44.818   0.129  0.00  0.00     0.036 H 
ATOM     10  H19 389 d   1      20.417  43.378   0.635  0.00  0.00     0.036 H 
ATOM     11  H20 389 d   1      18.653  43.314  -1.396  0.00  0.00     0.035 H 
ATOM     12  H21 389 d   1      20.155  42.328  -1.383  0.00  0.00     0.035 H 
ATOM     13  H22 389 d   1      20.553  43.404  -3.377  0.00  0.00     0.064 H 
ATOM     14  H23 389 d   1      19.481  44.784  -2.962  0.00  0.00     0.064 H 
ENDROOT
BRANCH   4  15
ATOM     15  C18 389 d   1      22.766  44.000  -0.174  0.00  0.00     0.240 C 
ATOM     16  O19 389 d   1      23.248  43.152  -0.928  0.00  0.00    -0.271 OA
ATOM     17  N21 389 d   1      23.308  44.280   1.014  0.00  0.00    -0.358 N 
ATOM     18  H26 389 d   1      22.857  44.920   1.636  0.00  0.00     0.162 HD
BRANCH  17  19
ATOM     19  C20 389 d   1      24.571  43.640   1.398  0.00  0.00     0.006 C 
ATOM     20  H24 389 d   1      25.362  44.009   0.728  0.00  0.00     0.065 H 
ATOM     21  H25 389 d   1      24.459  42.553   1.270  0.00  0.00     0.065 H 
BRANCH  19  22
ATOM     22  C22 389 d   1      24.999  43.909   2.835  0.00  0.00     0.012 C 
ATOM     23  H27 389 d   1      24.162  43.620   3.487  0.00  0.00     0.057 H 
BRANCH  22  24
ATOM     24  C23 389 d   1      26.138  43.011   3.134  0.00  0.00    -0.048 A 
ATOM     25  C24 389 d   1      27.430  43.327   2.720  0.00  0.00    -0.076 A 
ATOM     26  C25 389 d   1      28.483  42.463   3.017  0.00  0.00    -0.082 A 
ATOM     27  H28 389 d   1      27.616  44.242   2.169  0.00  0.00     0.084 H 
ATOM     28  C26 389 d   1      28.244  41.291   3.723  0.00  0.00    -0.083 A 
ATOM     29  H29 389 d   1      29.490  42.706   2.696  0.00  0.00     0.083 H 
ATOM     30  C27 389 d   1      26.950  40.975   4.132  0.00  0.00    -0.082 A 
ATOM     31  H30 389 d   1      29.064  40.622   3.956  0.00  0.00     0.083 H 
ATOM     32  C28 389 d   1      25.898  41.834   3.837  0.00  0.00    -0.076 A 
ATOM     33  H31 389 d   1      26.764  40.059   4.681  0.00  0.00     0.083 H 
ATOM     34  H32 389 d   1      24.891  41.587   4.154  0.00  0.00     0.084 H 
ENDBRANCH  22  24
BRANCH  22  35
ATOM     35  C29 389 d   1      25.299  45.339   3.142  0.00  0.00    -0.048 A 
ATOM     36  C30 389 d   1      25.506  46.305   2.155  0.00  0.00    -0.076 A 
ATOM     37  C31 389 d   1      25.759  47.623   2.508  0.00  0.00    -0.082 A 
ATOM     38  H33 389 d   1      25.469  46.024   1.109  0.00  0.00     0.084 H 
ATOM     39  C32 389 d   1      25.808  48.005   3.840  0.00  0.00    -0.083 A 
ATOM     40  H34 389 d   1      25.920  48.363   1.733  0.00  0.00     0.083 H 
ATOM     41  C33 389 d   1      25.598  47.047   4.827  0.00  0.00    -0.082 A 
ATOM     42  H35 389 d   1      26.007  49.036   4.109  0.00  0.00     0.083 H 
ATOM     43  C34 389 d   1      25.344  45.724   4.481  0.00  0.00    -0.076 A 
ATOM     44  H36 389 d   1      25.633  47.334   5.872  0.00  0.00     0.083 H 
ATOM     45  H37 389 d   1      25.180  44.987   5.258  0.00  0.00     0.084 H 
ENDBRANCH  22  35
ENDBRANCH  19  22
ENDBRANCH  17  19
ENDBRANCH   4  15
BRANCH   1  46
ATOM     46  C7  389 d   1      22.240  45.467  -4.288  0.00  0.00     0.092 C 
ATOM     47  H9  389 d   1      21.187  45.395  -4.599  0.00  0.00     0.088 H 
BRANCH  46  48
ATOM     48  N6  389 d   1      22.809  46.697  -4.836  0.00  0.00    -0.346 N 
ATOM     49  C4  389 d   1      22.209  47.432  -5.771  0.00  0.00     0.248 C 
ATOM     50  O5  389 d   1      21.160  47.107  -6.320  0.00  0.00    -0.271 OA
ATOM     51  H8  389 d   1      23.696  47.003  -4.490  0.00  0.00     0.163 HD
BRANCH  49  52
ATOM     52  C2  389 d   1      22.934  48.709  -6.185  0.00  0.00     0.172 C 
ATOM     53  H4  389 d   1      24.014  48.503  -6.209  0.00  0.00     0.098 H 
BRANCH  52  54
ATOM     54  N1  389 d   1      22.502  49.118  -7.550  0.00  0.00    -0.067 N 
ATOM     55  H1  389 d   1      22.985  49.962  -7.816  0.00  0.00     0.275 HD
ATOM     56  H2  389 d   1      21.508  49.285  -7.552  0.00  0.00     0.275 HD
ATOM     57  H3  389 d   1      22.721  48.384  -8.206  0.00  0.00     0.275 HD
ENDBRANCH  52  54
BRANCH  52  58
ATOM     58  C3  389 d   1      22.683  49.827  -5.182  0.00  0.00    -0.042 C 
ATOM     59  H5  389 d   1      23.009  49.503  -4.183  0.00  0.00     0.030 H 
ATOM     60  H6  389 d   1      21.609  50.064  -5.158  0.00  0.00     0.030 H 
ATOM     61  H7  389 d   1      23.250  50.721  -5.481  0.00  0.00     0.030 H 
ENDBRANCH  52  58
ENDBRANCH  49  52
ENDBRANCH  46  48
BRANCH  46  62
ATOM     62  C8  389 d   1      22.991  44.188  -4.768  0.00  0.00    -0.033 C 
ATOM     63  H10 389 d   1      22.615  43.340  -4.176  0.00  0.00     0.042 H 
BRANCH  62  64
ATOM     64  C9  389 d   1      22.697  43.890  -6.247  0.00  0.00    -0.071 C 
ATOM     65  H11 389 d   1      23.240  42.984  -6.553  0.00  0.00     0.028 H 
ATOM     66  H12 389 d   1      23.024  44.740  -6.864  0.00  0.00     0.028 H 
ATOM     67  H13 389 d   1      21.617  43.733  -6.382  0.00  0.00     0.028 H 
ENDBRANCH  62  64
BRANCH  62  68
ATOM     68  C10 389 d   1      24.500  44.298  -4.514  0.00  0.00    -0.071 C 
ATOM     69  H14 389 d   1      24.678  44.511  -3.450  0.00  0.00     0.028 H 
ATOM     70  H15 389 d   1      24.916  45.112  -5.125  0.00  0.00     0.028 H 
ATOM     71  H16 389 d   1      24.988  43.350  -4.785  0.00  0.00     0.028 H 
ENDBRANCH  62  68
ENDBRANCH  46  62
ENDBRANCH   1  46
TORSDOF 13
