REMARK  14 active torsions:
REMARK  status: ('A' for Active; 'I' for Inactive)
REMARK    1  A    between atoms: C5_2  and  C3_3 
REMARK       I    between atoms: C5_2  and  N7_7 
REMARK    2  A    between atoms: C3_3  and  N2_4 
REMARK    3  A    between atoms: C3_3  and  C4_6 
REMARK    4  A    between atoms: N2_4  and  C1_5 
REMARK    5  A    between atoms: N7_7  and  C8_8 
REMARK    6  A    between atoms: C8_8  and  C9_9 
REMARK    7  A    between atoms: C8_8  and  C13_13 
REMARK    8  A    between atoms: C9_9  and  C10_10 
REMARK    9  A    between atoms: C9_9  and  C11_11 
REMARK   10  A    between atoms: C9_9  and  C12_12 
REMARK       I    between atoms: C13_13  and  N15_15 
REMARK   11  A    between atoms: C22_22  and  N25_23 
REMARK       I    between atoms: N25_23  and  C26_24 
REMARK   12  A    between atoms: C26_24  and  C28_26 
REMARK   13  A    between atoms: C28_26  and  C29_27 
REMARK   14  A    between atoms: C28_26  and  C35_33 
ROOT
ATOM      1  C13 419 d   1      81.355  62.804  13.694  0.00  0.00     0.243 C 
ATOM      2  O14 419 d   1      80.890  62.441  14.793  0.00  0.00    -0.271 OA
ATOM      3  N15 419 d   1      80.820  63.878  13.042  0.00  0.00    -0.343 N 
ATOM      4  C16 419 d   1      79.545  64.497  13.457  0.00  0.00     0.037 C 
ATOM      5  C19 419 d   1      81.389  64.562  11.867  0.00  0.00    -0.001 C 
ATOM      6  C18 419 d   1      80.825  65.972  11.989  0.00  0.00    -0.045 C 
ATOM      7  C17 419 d   1      79.423  65.755  12.573  0.00  0.00    -0.031 C 
ATOM      8  C20 419 d   1      78.311  65.434  11.552  0.00  0.00    -0.058 C 
ATOM      9  C21 419 d   1      78.058  63.931  11.653  0.00  0.00    -0.044 C 
ATOM     10  C22 419 d   1      78.318  63.610  13.130  0.00  0.00     0.032 C 
ATOM     11  H21 419 d   1      79.563  64.746  14.528  0.00  0.00     0.076 H 
ATOM     12  H22 419 d   1      81.060  64.084  10.933  0.00  0.00     0.064 H 
ATOM     13  H23 419 d   1      82.488  64.570  11.908  0.00  0.00     0.064 H 
ATOM     14  H24 419 d   1      80.768  66.458  11.004  0.00  0.00     0.036 H 
ATOM     15  H25 419 d   1      81.441  66.584  12.665  0.00  0.00     0.036 H 
ATOM     16  H26 419 d   1      79.132  66.637  13.163  0.00  0.00     0.043 H 
ATOM     17  H27 419 d   1      78.639  65.698  10.536  0.00  0.00     0.033 H 
ATOM     18  H28 419 d   1      77.395  65.992  11.798  0.00  0.00     0.033 H 
ATOM     19  H29 419 d   1      78.749  63.373  11.004  0.00  0.00     0.036 H 
ATOM     20  H30 419 d   1      77.021  63.690  11.377  0.00  0.00     0.036 H 
ATOM     21  H31 419 d   1      78.556  62.545  13.269  0.00  0.00     0.075 H 
ENDROOT
BRANCH   1  22
ATOM     22  C8  419 d   1      82.530  61.965  13.086  0.00  0.00     0.096 C 
ATOM     23  H11 419 d   1      83.070  62.599  12.368  0.00  0.00     0.088 H 
BRANCH  22  24
ATOM     24  N7  419 d   1      83.448  61.648  14.214  0.00  0.00    -0.345 N 
ATOM     25  C5  419 d   1      84.782  61.757  14.144  0.00  0.00     0.248 C 
ATOM     26  O6  419 d   1      85.372  62.202  13.157  0.00  0.00    -0.271 OA
ATOM     27  H10 419 d   1      83.046  61.335  15.075  0.00  0.00     0.163 HD
BRANCH  25  28
ATOM     28  C3  419 d   1      85.594  61.304  15.384  0.00  0.00     0.174 C 
ATOM     29  H1  419 d   1      85.119  60.397  15.787  0.00  0.00     0.098 H 
BRANCH  28  30
ATOM     30  N2  419 d   1      86.971  60.942  14.946  0.00  0.00    -0.067 N 
ATOM     31  H2  419 d   1      87.509  60.745  15.776  0.00  0.00     0.277 HD
ATOM     32  H3  419 d   1      87.359  61.746  14.477  0.00  0.00     0.277 HD
BRANCH  30  33
ATOM     33  C1  419 d   1      87.123  59.781  14.034  0.00  0.00     0.066 C 
ATOM     34  H4  419 d   1      88.188  59.636  13.799  0.00  0.00     0.067 H 
ATOM     35  H5  419 d   1      86.565  59.969  13.105  0.00  0.00     0.067 H 
ATOM     36  H6  419 d   1      86.729  58.877  14.522  0.00  0.00     0.067 H 
ENDBRANCH  30  33
ENDBRANCH  28  30
BRANCH  28  37
ATOM     37  C4  419 d   1      85.583  62.364  16.513  0.00  0.00    -0.041 C 
ATOM     38  H7  419 d   1      84.544  62.590  16.794  0.00  0.00     0.030 H 
ATOM     39  H8  419 d   1      86.075  63.282  16.159  0.00  0.00     0.030 H 
ATOM     40  H9  419 d   1      86.122  61.973  17.388  0.00  0.00     0.030 H 
ENDBRANCH  28  37
ENDBRANCH  25  28
ENDBRANCH  22  24
BRANCH  22  41
ATOM     41  C9  419 d   1      82.050  60.683  12.298  0.00  0.00    -0.022 C 
BRANCH  41  42
ATOM     42  C10 419 d   1      83.286  59.837  11.873  0.00  0.00    -0.067 C 
ATOM     43  H12 419 d   1      82.949  58.945  11.325  0.00  0.00     0.028 H 
ATOM     44  H13 419 d   1      83.844  59.527  12.769  0.00  0.00     0.028 H 
ATOM     45  H14 419 d   1      83.938  60.441  11.225  0.00  0.00     0.028 H 
ENDBRANCH  41  42
BRANCH  41  46
ATOM     46  C11 419 d   1      81.080  59.764  13.097  0.00  0.00    -0.067 C 
ATOM     47  H15 419 d   1      80.198  60.344  13.407  0.00  0.00     0.028 H 
ATOM     48  H16 419 d   1      81.594  59.374  13.988  0.00  0.00     0.028 H 
ATOM     49  H17 419 d   1      80.762  58.925  12.461  0.00  0.00     0.028 H 
ENDBRANCH  41  46
BRANCH  41  50
ATOM     50  C12 419 d   1      81.326  61.109  10.987  0.00  0.00    -0.067 C 
ATOM     51  H18 419 d   1      81.988  61.761  10.398  0.00  0.00     0.028 H 
ATOM     52  H19 419 d   1      80.403  61.653  11.238  0.00  0.00     0.028 H 
ATOM     53  H20 419 d   1      81.076  60.214  10.399  0.00  0.00     0.028 H 
ENDBRANCH  41  50
ENDBRANCH  22  41
ENDBRANCH   1  22
BRANCH  10  54
ATOM     54  N25 419 d   1      77.144  63.960  13.959  0.00  0.00    -0.354 N 
ATOM     55  C26 419 d   1      76.610  63.128  14.856  0.00  0.00     0.231 C 
ATOM     56  O27 419 d   1      76.939  61.945  14.968  0.00  0.00    -0.272 OA
ATOM     57  H32 419 d   1      76.731  64.863  13.842  0.00  0.00     0.163 HD
BRANCH  55  58
ATOM     58  C28 419 d   1      75.506  63.715  15.782  0.00  0.00     0.074 C 
ATOM     59  H33 419 d   1      75.270  64.724  15.412  0.00  0.00     0.069 H 
BRANCH  58  60
ATOM     60  C29 419 d   1      75.915  63.899  17.284  0.00  0.00    -0.041 A 
ATOM     61  C30 419 d   1      75.035  64.635  18.100  0.00  0.00    -0.076 A 
ATOM     62  C31 419 d   1      75.326  64.838  19.443  0.00  0.00    -0.082 A 
ATOM     63  H34 419 d   1      74.125  65.046  17.678  0.00  0.00     0.084 H 
ATOM     64  C32 419 d   1      76.488  64.314  19.997  0.00  0.00    -0.083 A 
ATOM     65  H35 419 d   1      74.643  65.408  20.062  0.00  0.00     0.083 H 
ATOM     66  C33 419 d   1      77.364  63.583  19.212  0.00  0.00    -0.082 A 
ATOM     67  H36 419 d   1      76.709  64.478  21.046  0.00  0.00     0.083 H 
ATOM     68  C34 419 d   1      77.088  63.371  17.864  0.00  0.00    -0.076 A 
ATOM     69  H37 419 d   1      78.268  63.174  19.649  0.00  0.00     0.083 H 
ATOM     70  H38 419 d   1      77.778  62.797  17.256  0.00  0.00     0.084 H 
ENDBRANCH  58  60
BRANCH  58  71
ATOM     71  C35 419 d   1      74.247  62.827  15.560  0.00  0.00    -0.041 A 
ATOM     72  C36 419 d   1      73.884  61.793  16.449  0.00  0.00    -0.076 A 
ATOM     73  C37 419 d   1      72.747  61.022  16.207  0.00  0.00    -0.082 A 
ATOM     74  H39 419 d   1      74.492  61.597  17.325  0.00  0.00     0.084 H 
ATOM     75  C38 419 d   1      71.968  61.271  15.080  0.00  0.00    -0.083 A 
ATOM     76  H40 419 d   1      72.471  60.231  16.895  0.00  0.00     0.083 H 
ATOM     77  C39 419 d   1      72.315  62.288  14.195  0.00  0.00    -0.082 A 
ATOM     78  H41 419 d   1      71.086  60.669  14.891  0.00  0.00     0.083 H 
ATOM     79  C40 419 d   1      73.451  63.064  14.428  0.00  0.00    -0.076 A 
ATOM     80  H42 419 d   1      71.701  62.478  13.322  0.00  0.00     0.083 H 
ATOM     81  H43 419 d   1      73.720  63.852  13.733  0.00  0.00     0.084 H 
ENDBRANCH  58  71
ENDBRANCH  55  58
ENDBRANCH  10  54
TORSDOF 14
