REMARK  12 active torsions:
REMARK  status: ('A' for Active; 'I' for Inactive)
REMARK    1  A    between atoms: C24_2  and  C26_3 
REMARK       I    between atoms: C24_2  and  N23_13 
REMARK    2  A    between atoms: N23_13  and  C20_14 
REMARK       I    between atoms: N15_21  and  C13_22 
REMARK    3  A    between atoms: C13_22  and  C8_24 
REMARK    4  A    between atoms: C8_24  and  C9_25 
REMARK    5  A    between atoms: C8_24  and  N7_29 
REMARK    6  A    between atoms: C9_25  and  C12_26 
REMARK    7  A    between atoms: C9_25  and  C11_27 
REMARK    8  A    between atoms: C9_25  and  C10_28 
REMARK       I    between atoms: N7_29  and  C5_30 
REMARK    9  A    between atoms: C5_30  and  C3_32 
REMARK   10  A    between atoms: C3_32  and  C4_33 
REMARK   11  A    between atoms: C3_32  and  N2_34 
REMARK   12  A    between atoms: N2_34  and  C1_35 
ROOT
ATOM      1  C20 G13 d   1      77.311  62.856  14.202  0.00  0.00     0.032 C 
ATOM      2  C16 G13 d   1      78.574  63.718  14.200  0.00  0.00     0.037 C 
ATOM      3  C17 G13 d   1      78.323  64.903  13.288  0.00  0.00    -0.031 C 
ATOM      4  C22 G13 d   1      77.036  64.626  12.516  0.00  0.00    -0.058 C 
ATOM      5  C21 G13 d   1      76.446  63.321  13.043  0.00  0.00    -0.044 C 
ATOM      6  C18 G13 d   1      79.530  65.011  12.380  0.00  0.00    -0.045 C 
ATOM      7  C19 G13 d   1      80.130  63.617  12.350  0.00  0.00    -0.001 C 
ATOM      8  N15 G13 d   1      79.722  63.009  13.616  0.00  0.00    -0.343 N 
ATOM      9  C13 G13 d   1      80.275  61.980  14.271  0.00  0.00     0.243 C 
ATOM     10  O14 G13 d   1      79.897  61.672  15.393  0.00  0.00    -0.271 OA
ATOM     11  H9  G13 d   1      77.575  61.795  14.078  0.00  0.00     0.075 H 
ATOM     12  H10 G13 d   1      78.806  64.045  15.224  0.00  0.00     0.076 H 
ATOM     13  H11 G13 d   1      78.212  65.829  13.872  0.00  0.00     0.043 H 
ATOM     14  H12 G13 d   1      77.257  64.530  11.443  0.00  0.00     0.033 H 
ATOM     15  H13 G13 d   1      76.322  65.449  12.671  0.00  0.00     0.033 H 
ATOM     16  H14 G13 d   1      75.415  63.489  13.389  0.00  0.00     0.036 H 
ATOM     17  H15 G13 d   1      76.447  62.562  12.247  0.00  0.00     0.036 H 
ATOM     18  H16 G13 d   1      80.254  65.734  12.784  0.00  0.00     0.036 H 
ATOM     19  H17 G13 d   1      79.226  65.322  11.370  0.00  0.00     0.036 H 
ATOM     20  H18 G13 d   1      81.227  63.668  12.280  0.00  0.00     0.064 H 
ATOM     21  H19 G13 d   1      79.735  63.043  11.499  0.00  0.00     0.064 H 
ENDROOT
BRANCH   9  22
ATOM     22  C8  G13 d   1      81.395  61.189  13.642  0.00  0.00     0.096 C 
ATOM     23  H20 G13 d   1      81.914  61.834  12.918  0.00  0.00     0.088 H 
BRANCH  22  24
ATOM     24  C9  G13 d   1      80.860  59.962  12.893  0.00  0.00    -0.022 C 
BRANCH  24  25
ATOM     25  C12 G13 d   1      79.982  60.406  11.729  0.00  0.00    -0.067 C 
ATOM     26  H21 G13 d   1      79.603  59.521  11.197  0.00  0.00     0.028 H 
ATOM     27  H22 G13 d   1      80.574  61.023  11.037  0.00  0.00     0.028 H 
ATOM     28  H23 G13 d   1      79.135  60.995  12.112  0.00  0.00     0.028 H 
ENDBRANCH  24  25
BRANCH  24  29
ATOM     29  C11 G13 d   1      80.028  59.069  13.807  0.00  0.00    -0.067 C 
ATOM     30  H24 G13 d   1      80.644  58.737  14.655  0.00  0.00     0.028 H 
ATOM     31  H25 G13 d   1      79.678  58.192  13.243  0.00  0.00     0.028 H 
ATOM     32  H26 G13 d   1      79.162  59.634  14.182  0.00  0.00     0.028 H 
ENDBRANCH  24  29
BRANCH  24  33
ATOM     33  C10 G13 d   1      82.009  59.149  12.304  0.00  0.00    -0.067 C 
ATOM     34  H27 G13 d   1      82.611  59.790  11.644  0.00  0.00     0.028 H 
ATOM     35  H28 G13 d   1      81.603  58.306  11.725  0.00  0.00     0.028 H 
ATOM     36  H29 G13 d   1      82.641  58.764  13.118  0.00  0.00     0.028 H 
ENDBRANCH  24  33
ENDBRANCH  22  24
BRANCH  22  37
ATOM     37  N7  G13 d   1      82.342  60.795  14.676  0.00  0.00    -0.345 N 
ATOM     38  C5  G13 d   1      83.666  60.828  14.537  0.00  0.00     0.248 C 
ATOM     39  O6  G13 d   1      84.224  61.235  13.530  0.00  0.00    -0.271 OA
ATOM     40  H30 G13 d   1      81.973  60.478  15.550  0.00  0.00     0.163 HD
BRANCH  38  41
ATOM     41  C3  G13 d   1      84.464  60.299  15.698  0.00  0.00     0.174 C 
ATOM     42  H31 G13 d   1      83.925  59.434  16.113  0.00  0.00     0.098 H 
BRANCH  41  43
ATOM     43  C4  G13 d   1      84.592  61.350  16.797  0.00  0.00    -0.041 C 
ATOM     44  H32 G13 d   1      85.178  60.938  17.632  0.00  0.00     0.030 H 
ATOM     45  H33 G13 d   1      83.590  61.630  17.155  0.00  0.00     0.030 H 
ATOM     46  H34 G13 d   1      85.100  62.240  16.396  0.00  0.00     0.030 H 
ENDBRANCH  41  43
BRANCH  41  47
ATOM     47  N2  G13 d   1      85.775  59.849  15.274  0.00  0.00    -0.067 N 
ATOM     48  H35 G13 d   1      86.304  59.660  16.111  0.00  0.00     0.277 HD
ATOM     49  H36 G13 d   1      86.199  60.614  14.774  0.00  0.00     0.277 HD
BRANCH  47  50
ATOM     50  C1  G13 d   1      85.894  58.674  14.426  0.00  0.00     0.066 C 
ATOM     51  H37 G13 d   1      86.956  58.485  14.208  0.00  0.00     0.067 H 
ATOM     52  H38 G13 d   1      85.351  58.845  13.485  0.00  0.00     0.067 H 
ATOM     53  H39 G13 d   1      85.466  57.803  14.944  0.00  0.00     0.067 H 
ENDBRANCH  47  50
ENDBRANCH  41  47
ENDBRANCH  38  41
ENDBRANCH  22  37
ENDBRANCH   9  22
BRANCH   1  54
ATOM     54  N23 G13 d   1      76.593  63.040  15.449  0.00  0.00    -0.350 N 
ATOM     55  C24 G13 d   1      75.889  62.091  16.072  0.00  0.00     0.252 C 
ATOM     56  O25 G13 d   1      75.605  61.033  15.538  0.00  0.00    -0.268 OA
ATOM     57  H8  G13 d   1      76.628  63.945  15.874  0.00  0.00     0.163 HD
BRANCH  55  58
ATOM     58  C26 G13 d   1      75.448  62.385  17.489  0.00  0.00     0.043 A 
ATOM     59  C27 G13 d   1      76.437  62.760  18.393  0.00  0.00    -0.067 A 
ATOM     60  C28 G13 d   1      76.124  63.066  19.717  0.00  0.00    -0.081 A 
ATOM     61  H1  G13 d   1      77.468  62.815  18.063  0.00  0.00     0.085 H 
ATOM     62  C29 G13 d   1      74.800  62.999  20.141  0.00  0.00    -0.072 A 
ATOM     63  H2  G13 d   1      76.906  63.354  20.411  0.00  0.00     0.083 H 
ATOM     64  C30 G13 d   1      73.803  62.631  19.238  0.00  0.00    -0.025 A 
ATOM     65  H3  G13 d   1      74.545  63.232  21.169  0.00  0.00     0.084 H 
ATOM     66  C32 G13 d   1      72.483  62.571  19.683  0.00  0.00    -0.072 A 
ATOM     67  C31 G13 d   1      74.116  62.326  17.912  0.00  0.00    -0.010 A 
ATOM     68  C33 G13 d   1      71.462  62.207  18.810  0.00  0.00    -0.082 A 
ATOM     69  H4  G13 d   1      72.251  62.809  20.715  0.00  0.00     0.084 H 
ATOM     70  C34 G13 d   1      71.764  61.903  17.486  0.00  0.00    -0.082 A 
ATOM     71  H7  G13 d   1      70.437  62.160  19.160  0.00  0.00     0.083 H 
ATOM     72  C35 G13 d   1      73.082  61.961  17.038  0.00  0.00    -0.071 A 
ATOM     73  H6  G13 d   1      70.972  61.620  16.802  0.00  0.00     0.083 H 
ATOM     74  H5  G13 d   1      73.310  61.722  16.006  0.00  0.00     0.084 H 
ENDBRANCH  55  58
ENDBRANCH   1  54
TORSDOF 12
