REMARK  7 active torsions:
REMARK  status: ('A' for Active; 'I' for Inactive)
REMARK    1  A    between atoms: C1_1  and  O1_2 
REMARK    2  A    between atoms: O1_2  and  C26_33 
REMARK    3  A    between atoms: C4_5  and  C7_8 
REMARK    4  A    between atoms: C12_15  and  C14_17 
REMARK    5  A    between atoms: C19_24  and  N5_26 
REMARK    6  A    between atoms: N6_29  and  C25_32 
REMARK    7  A    between atoms: C26_33  and  C27_34 
ROOT
ATOM      1  C14 HT1 d   1      -2.434  -0.791  -1.712  0.00  0.00     0.139 A 
ATOM      2  N3  HT1 d   1      -3.322  -1.599  -2.311  0.00  0.00    -0.338 N 
ATOM      3  C15 HT1 d   1      -3.774  -0.984  -3.410  0.00  0.00     0.064 A 
ATOM      4  C16 HT1 d   1      -3.117   0.245  -3.495  0.00  0.00     0.086 A 
ATOM      5  N4  HT1 d   1      -2.301   0.331  -2.447  0.00  0.00    -0.228 NA
ATOM      6  C17 HT1 d   1      -3.378   1.111  -4.557  0.00  0.00    -0.051 A 
ATOM      7  C18 HT1 d   1      -4.308   0.750  -5.541  0.00  0.00    -0.060 A 
ATOM      8  C19 HT1 d   1      -4.983  -0.471  -5.461  0.00  0.00     0.013 A 
ATOM      9  C20 HT1 d   1      -4.705  -1.350  -4.394  0.00  0.00    -0.034 A 
ATOM     10  H9  HT1 d   1      -3.607  -2.532  -1.981  0.00  0.00     0.167 HD
ATOM     11  H10 HT1 d   1      -2.862   2.062  -4.621  0.00  0.00     0.087 H 
ATOM     12  H11 HT1 d   1      -4.505   1.422  -6.369  0.00  0.00     0.086 H 
ATOM     13  H12 HT1 d   1      -5.210  -2.307  -4.334  0.00  0.00     0.089 H 
ENDROOT
BRANCH   1  14
ATOM     14  C12 HT1 d   1      -1.720  -1.075  -0.544  0.00  0.00     0.012 A 
ATOM     15  C11 HT1 d   1      -0.673  -0.216  -0.179  0.00  0.00    -0.067 A 
ATOM     16  C10 HT1 d   1       0.083  -0.456   0.960  0.00  0.00    -0.054 A 
ATOM     17  H7  HT1 d   1      -0.451   0.648  -0.795  0.00  0.00     0.085 H 
ATOM     18  C9  HT1 d   1      -0.201  -1.571   1.739  0.00  0.00     0.062 A 
ATOM     19  H6  HT1 d   1       0.885   0.218   1.238  0.00  0.00     0.087 H 
ATOM     20  C8  HT1 d   1      -1.243  -2.446   1.379  0.00  0.00     0.086 A 
ATOM     21  N2  HT1 d   1       0.347  -2.034   2.862  0.00  0.00    -0.338 N 
ATOM     22  N1  HT1 d   1      -1.275  -3.398   2.306  0.00  0.00    -0.228 NA
ATOM     23  C13 HT1 d   1      -2.016  -2.218   0.224  0.00  0.00    -0.039 A 
ATOM     24  C7  HT1 d   1      -0.302  -3.156   3.208  0.00  0.00     0.139 A 
ATOM     25  H8  HT1 d   1      -2.810  -2.898  -0.064  0.00  0.00     0.088 H 
ATOM     26  H5  HT1 d   1       1.131  -1.606   3.374  0.00  0.00     0.167 HD
BRANCH  24  27
ATOM     27  C4  HT1 d   1      -0.026  -3.947   4.327  0.00  0.00     0.010 A 
ATOM     28  C3  HT1 d   1      -0.722  -5.137   4.503  0.00  0.00    -0.067 A 
ATOM     29  C2  HT1 d   1      -0.465  -5.934   5.617  0.00  0.00    -0.050 A 
ATOM     30  H2  HT1 d   1      -1.464  -5.445   3.775  0.00  0.00     0.085 H 
ATOM     31  C1  HT1 d   1       0.484  -5.548   6.557  0.00  0.00     0.068 A 
ATOM     32  H1  HT1 d   1      -1.009  -6.862   5.752  0.00  0.00     0.087 H 
ATOM     33  C6  HT1 d   1       1.183  -4.350   6.393  0.00  0.00    -0.050 A 
ATOM     34  C5  HT1 d   1       0.930  -3.547   5.276  0.00  0.00    -0.067 A 
ATOM     35  H4  HT1 d   1       1.918  -4.044   7.128  0.00  0.00     0.087 H 
ATOM     36  H3  HT1 d   1       1.471  -2.617   5.143  0.00  0.00     0.085 H 
BRANCH  31  37
ATOM     37  O1  HT1 d   1       0.722  -6.342   7.643  0.00  0.00    -0.352 OA
BRANCH  37  38
ATOM     38  C26 HT1 d   1       0.012  -7.584   7.528  0.00  0.00     0.023 C 
ATOM     39  H25 HT1 d   1       0.586  -8.279   6.898  0.00  0.00     0.074 H 
ATOM     40  H26 HT1 d   1      -0.973  -7.404   7.072  0.00  0.00     0.074 H 
BRANCH  38  41
ATOM     41  C27 HT1 d   1      -0.173  -8.191   8.925  0.00  0.00    -0.056 C 
ATOM     42  H27 HT1 d   1      -0.717  -9.143   8.842  0.00  0.00     0.030 H 
ATOM     43  H28 HT1 d   1      -0.747  -7.495   9.554  0.00  0.00     0.030 H 
ATOM     44  H29 HT1 d   1       0.812  -8.370   9.380  0.00  0.00     0.030 H 
ENDBRANCH  38  41
ENDBRANCH  37  38
ENDBRANCH  31  37
ENDBRANCH  24  27
ENDBRANCH   1  14
BRANCH   8  45
ATOM     45  N5  HT1 d   1      -5.854  -0.828  -6.438  0.00  0.00    -0.280 NA
ATOM     46  C21 HT1 d   1      -6.991   0.096  -6.614  0.00  0.00     0.006 C 
ATOM     47  C22 HT1 d   1      -7.824  -0.352  -7.843  0.00  0.00     0.094 C 
ATOM     48  H13 HT1 d   1      -6.614   1.117  -6.777  0.00  0.00     0.058 H 
ATOM     49  H14 HT1 d   1      -7.623   0.077  -5.714  0.00  0.00     0.058 H 
ATOM     50  N6  HT1 d   1      -8.272  -1.761  -7.692  0.00  0.00    -0.073 N 
ATOM     51  H15 HT1 d   1      -7.206  -0.265  -8.749  0.00  0.00     0.077 H 
ATOM     52  H16 HT1 d   1      -8.706   0.299  -7.937  0.00  0.00     0.077 H 
ATOM     53  C23 HT1 d   1      -7.116  -2.650  -7.469  0.00  0.00     0.094 C 
ATOM     54  H17 HT1 d   1      -8.893  -1.820  -6.900  0.00  0.00     0.279 HD
ATOM     55  C24 HT1 d   1      -6.359  -2.187  -6.214  0.00  0.00     0.006 C 
ATOM     56  H18 HT1 d   1      -6.446  -2.608  -8.340  0.00  0.00     0.077 H 
ATOM     57  H19 HT1 d   1      -7.468  -3.683  -7.327  0.00  0.00     0.077 H 
ATOM     58  H20 HT1 d   1      -7.040  -2.190  -5.350  0.00  0.00     0.058 H 
ATOM     59  H21 HT1 d   1      -5.516  -2.867  -6.019  0.00  0.00     0.058 H 
BRANCH  50  60
ATOM     60  C25 HT1 d   1      -8.983  -2.217  -8.896  0.00  0.00     0.066 C 
ATOM     61  H22 HT1 d   1      -9.850  -1.565  -9.079  0.00  0.00     0.068 H 
ATOM     62  H23 HT1 d   1      -9.327  -3.252  -8.749  0.00  0.00     0.068 H 
ATOM     63  H24 HT1 d   1      -8.304  -2.175  -9.761  0.00  0.00     0.068 H 
ENDBRANCH  50  60
ENDBRANCH   8  45
TORSDOF 7
