REMARK  12 active torsions:
REMARK  status: ('A' for Active; 'I' for Inactive)
REMARK    1  A    between atoms: CAA_1  and  CAF_2 
REMARK    2  A    between atoms: CAF_2  and  CAE_3 
REMARK    3  A    between atoms: CAF_2  and  CAG_4 
REMARK    4  A    between atoms: CAG_4  and  CAH_5 
REMARK    5  A    between atoms: CAH_5  and  OAB_6 
REMARK    6  A    between atoms: CAH_5  and  CAI_7 
REMARK    7  A    between atoms: CAJ_9  and  OAC_10 
REMARK    8  A    between atoms: OAC_10  and  CAD_11 
REMARK    9  A    between atoms: CAQ_13  and  OAR_14 
REMARK   10  A    between atoms: CAP_15  and  CAT_16 
REMARK   11  A    between atoms: CAT_16  and  CAS_17 
REMARK   12  A    between atoms: CAS_17  and  CAN_18 
ROOT
ATOM      1  CAI TE1 d   1      -6.338   6.772  10.538  0.00  0.00     0.004 A 
ATOM      2  CAO TE1 d   1      -6.135   7.485   9.379  0.00  0.00    -0.063 A 
ATOM      3  CAJ TE1 d   1      -6.634   7.468  11.707  0.00  0.00     0.079 A 
ATOM      4  CAK TE1 d   1      -6.706   8.820  11.642  0.00  0.00    -0.018 A 
ATOM      5  CAQ TE1 d   1      -6.482   9.483  10.467  0.00  0.00     0.074 A 
ATOM      6  CAP TE1 d   1      -6.186   8.852   9.320  0.00  0.00    -0.024 A 
ATOM      7  H12 TE1 d   1      -5.924   6.938   8.467  0.00  0.00     0.085 H 
ATOM      8  H16 TE1 d   1      -6.945   9.385  12.536  0.00  0.00     0.092 H 
ENDROOT
BRANCH   1   9
ATOM      9  CAH TE1 d   1      -6.214   5.255  10.398  0.00  0.00     0.064 C 
ATOM     10  H10 TE1 d   1      -7.176   4.785  10.653  0.00  0.00     0.090 H 
BRANCH   9  11
ATOM     11  CAG TE1 d   1      -5.070   4.454  11.196  0.00  0.00    -0.034 C 
ATOM     12  H8  TE1 d   1      -4.420   5.204  11.671  0.00  0.00     0.037 H 
ATOM     13  H9  TE1 d   1      -5.572   3.859  11.973  0.00  0.00     0.037 H 
BRANCH  11  14
ATOM     14  CAF TE1 d   1      -4.143   3.480  10.394  0.00  0.00    -0.059 C 
ATOM     15  H4  TE1 d   1      -4.145   3.817   9.347  0.00  0.00     0.039 H 
BRANCH  14  16
ATOM     16  CAA TE1 d   1      -2.655   3.503  10.914  0.00  0.00    -0.073 C 
ATOM     17  H1  TE1 d   1      -2.048   2.804  10.319  0.00  0.00     0.028 H 
ATOM     18  H2  TE1 d   1      -2.631   3.201  11.971  0.00  0.00     0.028 H 
ATOM     19  H3  TE1 d   1      -2.247   4.520  10.814  0.00  0.00     0.028 H 
ENDBRANCH  14  16
BRANCH  14  20
ATOM     20  CAE TE1 d   1      -4.642   2.021  10.428  0.00  0.00    -0.073 C 
ATOM     21  H5  TE1 d   1      -5.681   1.980  10.069  0.00  0.00     0.028 H 
ATOM     22  H6  TE1 d   1      -4.596   1.642  11.460  0.00  0.00     0.028 H 
ATOM     23  H7  TE1 d   1      -4.005   1.401   9.780  0.00  0.00     0.028 H 
ENDBRANCH  14  20
ENDBRANCH  11  14
ENDBRANCH   9  11
BRANCH   9  24
ATOM     24  OAB TE1 d   1      -5.978   5.210   9.084  0.00  0.00    -0.391 OA
ATOM     25  H11 TE1 d   1      -5.972   4.305   8.795  0.00  0.00     0.210 HD
ENDBRANCH   9  24
ENDBRANCH   1   9
BRANCH   3  26
ATOM     26  OAC TE1 d   1      -6.802   6.820  12.868  0.00  0.00    -0.355 OA
BRANCH  26  27
ATOM     27  CAD TE1 d   1      -7.536   7.398  13.805  0.00  0.00     0.010 C 
ATOM     28  H13 TE1 d   1      -7.579   6.747  14.691  0.00  0.00     0.066 H 
ATOM     29  H14 TE1 d   1      -8.554   7.565  13.423  0.00  0.00     0.066 H 
ATOM     30  H15 TE1 d   1      -7.085   8.363  14.081  0.00  0.00     0.066 H 
ENDBRANCH  26  27
ENDBRANCH   3  26
BRANCH   6  31
ATOM     31  CAT TE1 d   1      -6.006   9.586   8.124  0.00  0.00    -0.029 C 
ATOM     32  H18 TE1 d   1      -5.340  10.413   8.411  0.00  0.00     0.041 H 
ATOM     33  H19 TE1 d   1      -7.006   9.983   7.897  0.00  0.00     0.041 H 
BRANCH  31  34
ATOM     34  CAS TE1 d   1      -5.502   9.152   6.855  0.00  0.00     0.019 C 
ATOM     35  H20 TE1 d   1      -4.512   9.631   6.820  0.00  0.00     0.049 H 
ATOM     36  H21 TE1 d   1      -6.178   9.656   6.149  0.00  0.00     0.049 H 
BRANCH  34  37
ATOM     37  CAN TE1 d   1      -5.261   7.910   6.209  0.00  0.00     0.172 C 
ATOM     38  OAL TE1 d   1      -5.141   6.811   6.752  0.00  0.00    -0.648 OA
ATOM     39  OAM TE1 d   1      -4.977   7.951   5.048  0.00  0.00    -0.648 OA
ENDBRANCH  34  37
ENDBRANCH  31  34
ENDBRANCH   6  31
BRANCH   5  40
ATOM     40  OAR TE1 d   1      -6.519  10.806  10.409  0.00  0.00    -0.360 OA
ATOM     41  H17 TE1 d   1      -6.341  11.088   9.519  0.00  0.00     0.217 HD
ENDBRANCH   5  40
TORSDOF 12
