REMARK  12 active torsions:
REMARK  status: ('A' for Active; 'I' for Inactive)
REMARK    1  A    between atoms: C4_4  and  O4_5 
REMARK    2  A    between atoms: O4_5  and  C21_29 
REMARK    3  A    between atoms: C8_10  and  O8_11 
REMARK    4  A    between atoms: C10_13  and  O10_14 
REMARK    5  A    between atoms: O10_14  and  C1'_30 
REMARK    6  A    between atoms: C12_16  and  O12_17 
REMARK    7  A    between atoms: C12_16  and  C13_18 
REMARK    8  A    between atoms: C13_18  and  C14_20 
REMARK    9  A    between atoms: C17_23  and  O17_24 
REMARK   10  A    between atoms: C3'_32  and  N3'_33 
REMARK   11  A    between atoms: C4'_34  and  O4'_35 
REMARK   12  A    between atoms: C5'_36  and  C6'_38 
ROOT
ATOM      1  C1  DM1 d   1      25.477  39.168  47.947  0.00  0.00    -0.068 A 
ATOM      2  C2  DM1 d   1      26.112  38.790  46.773  0.00  0.00    -0.079 A 
ATOM      3  C3  DM1 d   1      25.447  38.030  45.825  0.00  0.00    -0.050 A 
ATOM      4  C4  DM1 d   1      24.129  37.636  46.042  0.00  0.00     0.083 A 
ATOM      5  C5  DM1 d   1      23.477  38.019  47.235  0.00  0.00     0.062 A 
ATOM      6  C6  DM1 d   1      22.156  37.638  47.475  0.00  0.00     0.200 A 
ATOM      7  O6  DM1 d   1      21.554  36.962  46.639  0.00  0.00    -0.286 OA
ATOM      8  C7  DM1 d   1      21.513  38.021  48.664  0.00  0.00     0.066 A 
ATOM      9  C8  DM1 d   1      20.191  37.630  48.885  0.00  0.00     0.090 A 
ATOM     10  C9  DM1 d   1      19.483  38.026  50.145  0.00  0.00     0.014 A 
ATOM     11  C10 DM1 d   1      18.068  37.612  50.398  0.00  0.00     0.073 C 
ATOM     12  C11 DM1 d   1      17.974  37.106  51.835  0.00  0.00    -0.005 C 
ATOM     13  C12 DM1 d   1      18.520  38.078  52.900  0.00  0.00     0.101 C 
ATOM     14  C15 DM1 d   1      19.440  39.186  52.357  0.00  0.00    -0.006 C 
ATOM     15  C16 DM1 d   1      20.145  38.776  51.083  0.00  0.00    -0.009 A 
ATOM     16  C17 DM1 d   1      21.567  39.186  50.820  0.00  0.00     0.088 A 
ATOM     17  C18 DM1 d   1      22.200  38.795  49.622  0.00  0.00     0.066 A 
ATOM     18  C19 DM1 d   1      23.526  39.178  49.380  0.00  0.00     0.197 A 
ATOM     19  O19 DM1 d   1      24.139  39.861  50.222  0.00  0.00    -0.286 OA
ATOM     20  C20 DM1 d   1      24.162  38.788  48.185  0.00  0.00     0.032 A 
ATOM     21  H1  DM1 d   1      26.009  39.762  48.681  0.00  0.00     0.085 H 
ATOM     22  H2  DM1 d   1      27.138  39.092  46.596  0.00  0.00     0.083 H 
ATOM     23  H3  DM1 d   1      25.954  37.741  44.911  0.00  0.00     0.087 H 
ATOM     24  H5  DM1 d   1      17.385  38.459  50.239  0.00  0.00     0.091 H 
ATOM     25  H6  DM1 d   1      18.543  36.167  51.905  0.00  0.00     0.042 H 
ATOM     26  H7  DM1 d   1      16.915  36.911  52.060  0.00  0.00     0.042 H 
ATOM     27  H12 DM1 d   1      20.197  39.422  53.119  0.00  0.00     0.044 H 
ATOM     28  H13 DM1 d   1      18.833  40.081  52.153  0.00  0.00     0.044 H 
ENDROOT
BRANCH  11  29
ATOM     29  O10 DM1 d   1      17.738  36.539  49.533  0.00  0.00    -0.351 OA
BRANCH  29  30
ATOM     30  C1' DM1 d   1      16.344  36.424  49.297  0.00  0.00     0.134 C 
ATOM     31  C2' DM1 d   1      16.104  35.890  47.876  0.00  0.00     0.010 C 
ATOM     32  C3' DM1 d   1      16.581  34.436  47.726  0.00  0.00     0.131 C 
ATOM     33  H19 DM1 d   1      16.653  36.521  47.161  0.00  0.00     0.043 H 
ATOM     34  H20 DM1 d   1      15.027  35.936  47.655  0.00  0.00     0.043 H 
ATOM     35  C4' DM1 d   1      16.103  33.548  48.894  0.00  0.00     0.087 C 
ATOM     36  H21 DM1 d   1      17.681  34.433  47.721  0.00  0.00     0.088 H 
ATOM     37  C5' DM1 d   1      16.329  34.240  50.255  0.00  0.00     0.065 C 
ATOM     38  H25 DM1 d   1      16.691  32.618  48.881  0.00  0.00     0.090 H 
ATOM     39  O5' DM1 d   1      15.746  35.544  50.253  0.00  0.00    -0.354 OA
ATOM     40  H27 DM1 d   1      17.413  34.343  50.410  0.00  0.00     0.086 H 
ATOM     41  H18 DM1 d   1      15.883  37.418  49.390  0.00  0.00     0.129 H 
BRANCH  32  42
ATOM     42  N3' DM1 d   1      16.108  33.894  46.461  0.00  0.00    -0.072 N 
ATOM     43  H22 DM1 d   1      16.422  32.941  46.365  0.00  0.00     0.274 HD
ATOM     44  H23 DM1 d   1      16.474  34.446  45.701  0.00  0.00     0.274 HD
ATOM     45  H24 DM1 d   1      15.101  33.919  46.440  0.00  0.00     0.274 HD
ENDBRANCH  32  42
BRANCH  35  46
ATOM     46  O4' DM1 d   1      14.732  33.213  48.730  0.00  0.00    -0.391 OA
ATOM     47  H26 DM1 d   1      14.452  32.667  49.455  0.00  0.00     0.210 HD
ENDBRANCH  35  46
BRANCH  37  48
ATOM     48  C6' DM1 d   1      15.757  33.421  51.411  0.00  0.00    -0.050 C 
ATOM     49  H28 DM1 d   1      15.939  33.948  52.359  0.00  0.00     0.031 H 
ATOM     50  H29 DM1 d   1      16.246  32.436  51.440  0.00  0.00     0.031 H 
ATOM     51  H30 DM1 d   1      14.675  33.289  51.267  0.00  0.00     0.031 H 
ENDBRANCH  37  48
ENDBRANCH  29  30
ENDBRANCH  11  29
BRANCH   9  52
ATOM     52  O8  DM1 d   1      19.539  36.881  47.949  0.00  0.00    -0.359 OA
ATOM     53  H4  DM1 d   1      18.656  36.701  48.249  0.00  0.00     0.217 HD
ENDBRANCH   9  52
BRANCH  13  54
ATOM     54  O12 DM1 d   1      19.280  37.299  53.851  0.00  0.00    -0.386 OA
ATOM     55  H8  DM1 d   1      19.630  37.874  54.522  0.00  0.00     0.210 HD
ENDBRANCH  13  54
BRANCH  13  56
ATOM     56  C13 DM1 d   1      17.330  38.721  53.629  0.00  0.00     0.160 C 
ATOM     57  O13 DM1 d   1      16.123  38.631  53.108  0.00  0.00    -0.222 OA
BRANCH  56  58
ATOM     58  C14 DM1 d   1      17.573  39.441  54.931  0.00  0.00    -0.039 C 
ATOM     59  H9  DM1 d   1      16.621  39.838  55.314  0.00  0.00     0.032 H 
ATOM     60  H10 DM1 d   1      18.276  40.271  54.766  0.00  0.00     0.032 H 
ATOM     61  H11 DM1 d   1      17.999  38.740  55.664  0.00  0.00     0.032 H 
ENDBRANCH  56  58
ENDBRANCH  13  56
BRANCH  16  62
ATOM     62  O17 DM1 d   1      22.251  39.943  51.748  0.00  0.00    -0.359 OA
ATOM     63  H14 DM1 d   1      23.130  40.114  51.430  0.00  0.00     0.217 HD
ENDBRANCH  16  62
BRANCH   4  64
ATOM     64  O4  DM1 d   1      23.540  36.954  45.186  0.00  0.00    -0.355 OA
BRANCH  64  65
ATOM     65  C21 DM1 d   1      24.272  36.156  44.280  0.00  0.00     0.010 C 
ATOM     66  H15 DM1 d   1      23.576  35.633  43.607  0.00  0.00     0.066 H 
ATOM     67  H16 DM1 d   1      24.866  35.418  44.839  0.00  0.00     0.066 H 
ATOM     68  H17 DM1 d   1      24.944  36.795  43.688  0.00  0.00     0.066 H 
ENDBRANCH  64  65
ENDBRANCH   4  64
TORSDOF 12
