REMARK  5 active torsions:
REMARK  status: ('A' for Active; 'I' for Inactive)
REMARK    1  A    between atoms: N_1  and  CA_2 
REMARK    2  A    between atoms: CA_2  and  C_3 
REMARK    3  A    between atoms: CA_2  and  CB_6 
REMARK    4  A    between atoms: CB_6  and  CG_7 
REMARK    5  A    between atoms: CD2_9  and  CE2_10 
ROOT
ATOM      1  CB  AMQ d   1      11.122  51.945  20.892  0.00  0.00     0.002 C 
ATOM      2  H5  AMQ d   1      11.472  52.896  21.321  0.00  0.00     0.044 H 
ATOM      3  H6  AMQ d   1      10.509  51.412  21.634  0.00  0.00     0.044 H 
ENDROOT
BRANCH   1   4
ATOM      4  CA  AMQ d   1      12.346  51.073  20.521  0.00  0.00     0.186 C 
ATOM      5  H4  AMQ d   1      12.915  51.572  19.723  0.00  0.00     0.101 H 
BRANCH   4   6
ATOM      6  N   AMQ d   1      11.885  49.756  20.044  0.00  0.00    -0.065 N 
ATOM      7  H1  AMQ d   1      11.286  49.880  19.243  0.00  0.00     0.275 HD
ATOM      8  H2  AMQ d   1      11.373  49.293  20.778  0.00  0.00     0.275 HD
ATOM      9  H3  AMQ d   1      12.681  49.195  19.785  0.00  0.00     0.275 HD
ENDBRANCH   4   6
BRANCH   4  10
ATOM     10  C   AMQ d   1      13.251  50.873  21.733  0.00  0.00     0.204 C 
ATOM     11  OT1 AMQ d   1      13.710  51.909  22.267  0.00  0.00    -0.646 OA
ATOM     12  OT2 AMQ d   1      13.506  49.697  22.079  0.00  0.00    -0.646 OA
ENDBRANCH   4  10
ENDBRANCH   1   4
BRANCH   1  13
ATOM     13  CG  AMQ d   1      10.272  52.234  19.649  0.00  0.00     0.031 A 
ATOM     14  CD1 AMQ d   1      10.489  53.284  18.762  0.00  0.00     0.207 A 
ATOM     15  OE1 AMQ d   1      11.492  54.205  18.871  0.00  0.00    -0.170 OA
ATOM     16  NE1 AMQ d   1       9.596  53.265  17.781  0.00  0.00    -0.236 N 
ATOM     17  OE2 AMQ d   1       8.732  52.165  18.016  0.00  0.00    -0.240 OA
ATOM     18  H10 AMQ d   1       9.542  53.908  17.017  0.00  0.00     0.197 HD
ATOM     19  CD2 AMQ d   1       9.161  51.558  19.156  0.00  0.00     0.083 A 
BRANCH  19  20
ATOM     20  CE2 AMQ d   1       8.504  50.317  19.759  0.00  0.00    -0.029 C 
ATOM     21  H7  AMQ d   1       7.645  50.019  19.139  0.00  0.00     0.036 H 
ATOM     22  H8  AMQ d   1       8.159  50.544  20.779  0.00  0.00     0.036 H 
ATOM     23  H9  AMQ d   1       9.234  49.495  19.793  0.00  0.00     0.036 H 
ENDBRANCH  19  20
ENDBRANCH   1  13
TORSDOF 5
