REMARK  4 active torsions:
REMARK  status: ('A' for Active; 'I' for Inactive)
REMARK    1  A    between atoms: C01_1  and  C02_2 
REMARK    2  A    between atoms: C02_2  and  C03_3 
REMARK    3  A    between atoms: C02_2  and  NP3_6 
REMARK    4  A    between atoms: C03_3  and  N14_7 
ROOT
ATOM      1  C03 QUS d   1      16.611  42.134  18.187  0.00  0.00     0.049 C 
ATOM      2  H2  QUS d   1      15.995  43.039  18.077  0.00  0.00     0.064 H 
ATOM      3  H3  QUS d   1      16.144  41.460  18.920  0.00  0.00     0.064 H 
ENDROOT
BRANCH   1   4
ATOM      4  C02 QUS d   1      18.032  42.519  18.657  0.00  0.00     0.196 C 
ATOM      5  H1  QUS d   1      17.986  42.735  19.735  0.00  0.00     0.103 H 
BRANCH   4   6
ATOM      6  C01 QUS d   1      19.010  41.391  18.455  0.00  0.00     0.205 C 
ATOM      7  O16 QUS d   1      19.870  41.515  17.573  0.00  0.00    -0.646 OA
ATOM      8  O17 QUS d   1      18.855  40.379  19.187  0.00  0.00    -0.646 OA
ENDBRANCH   4   6
BRANCH   4   9
ATOM      9  NP3 QUS d   1      18.481  43.745  17.961  0.00  0.00    -0.064 N 
ATOM     10  H4  QUS d   1      19.408  43.988  18.273  0.00  0.00     0.275 HD
ATOM     11  H5  QUS d   1      17.847  44.501  18.169  0.00  0.00     0.275 HD
ATOM     12  H6  QUS d   1      18.494  43.581  16.966  0.00  0.00     0.275 HD
ENDBRANCH   4   9
ENDBRANCH   1   4
BRANCH   1  13
ATOM     13  N14 QUS d   1      16.737  41.452  16.888  0.00  0.00    -0.097 NA
ATOM     14  C04 QUS d   1      15.574  40.881  16.336  0.00  0.00     0.329 C 
ATOM     15  N15 QUS d   1      15.483  41.115  15.019  0.00  0.00    -0.256 N 
ATOM     16  O18 QUS d   1      14.800  40.242  17.013  0.00  0.00    -0.251 OA
ATOM     17  C05 QUS d   1      16.456  41.986  14.725  0.00  0.00     0.386 C 
ATOM     18  H7  QUS d   1      14.821  40.718  14.383  0.00  0.00     0.175 HD
ATOM     19  O19 QUS d   1      16.764  42.501  13.659  0.00  0.00    -0.236 OA
ATOM     20  O20 QUS d   1      17.248  42.342  15.870  0.00  0.00    -0.197 OA
ENDBRANCH   1  13
TORSDOF 4
