REMARK  5 active torsions:
REMARK  status: ('A' for Active; 'I' for Inactive)
REMARK    1  A    between atoms: N_1  and  CA_2 
REMARK    2  A    between atoms: CA_2  and  C_3 
REMARK    3  A    between atoms: CA_2  and  CB_5 
REMARK    4  A    between atoms: CB_5  and  CG_6 
REMARK    5  A    between atoms: CG_6  and  CD_7 
ROOT
ATOM      1  CA  GLU d   1      18.078  42.678  18.807  0.00  0.00     0.183 C 
ATOM      2  H4  GLU d   1      17.953  42.805  19.892  0.00  0.00     0.101 H 
ENDROOT
BRANCH   1   3
ATOM      3  N   GLU d   1      18.519  44.039  18.228  0.00  0.00    -0.065 N 
ATOM      4  H1  GLU d   1      17.795  44.722  18.387  0.00  0.00     0.275 HD
ATOM      5  H2  GLU d   1      18.682  43.946  17.238  0.00  0.00     0.275 HD
ATOM      6  H3  GLU d   1      19.368  44.338  18.682  0.00  0.00     0.275 HD
ENDBRANCH   1   3
BRANCH   1   7
ATOM      7  C   GLU d   1      19.126  41.647  18.589  0.00  0.00     0.204 C 
ATOM      8  O   GLU d   1      19.102  40.604  19.251  0.00  0.00    -0.646 OA
ATOM      9  OXT GLU d   1      19.951  41.859  17.629  0.00  0.00    -0.646 OA
ENDBRANCH   1   7
BRANCH   1  10
ATOM     10  CB  GLU d   1      16.747  42.225  18.246  0.00  0.00    -0.020 C 
ATOM     11  H5  GLU d   1      15.964  42.938  18.544  0.00  0.00     0.037 H 
ATOM     12  H6  GLU d   1      16.505  41.228  18.642  0.00  0.00     0.037 H 
BRANCH  10  13
ATOM     13  CG  GLU d   1      16.820  42.160  16.715  0.00  0.00     0.018 C 
ATOM     14  H7  GLU d   1      17.733  41.612  16.441  0.00  0.00     0.049 H 
ATOM     15  H8  GLU d   1      16.882  43.190  16.334  0.00  0.00     0.049 H 
BRANCH  13  16
ATOM     16  CD  GLU d   1      15.638  41.476  16.034  0.00  0.00     0.172 C 
ATOM     17  OE1 GLU d   1      14.914  40.736  16.717  0.00  0.00    -0.648 OA
ATOM     18  OE2 GLU d   1      15.451  41.703  14.794  0.00  0.00    -0.648 OA
ENDBRANCH  13  16
ENDBRANCH  10  13
ENDBRANCH   1  10
TORSDOF 5
