REMARK  8 active torsions:
REMARK  status: ('A' for Active; 'I' for Inactive)
REMARK    1  A    between atoms: C14_25  and  C13_1 
REMARK    2  A    between atoms: N35_35  and  C18_2 
REMARK    3  A    between atoms: C31_31  and  C17_3 
REMARK    4  A    between atoms: C15_5  and  C22_9 
REMARK    5  A    between atoms: C19_6  and  N38_38 
REMARK    6  A    between atoms: C21_8  and  C32_32 
REMARK    7  A    between atoms: C30_30  and  O42_42 
REMARK    8  A    between atoms: C31_31  and  N39_39 
ROOT
ATOM      1  C13 FFG d   1      36.614  33.262  19.782  0.00  0.00    -0.025 A 
ATOM      2  C19 FFG d   1      35.404  31.406  17.921  0.00  0.00     0.037 A 
ATOM      3  C11 FFG d   1      35.375  32.840  17.621  0.00  0.00    -0.056 A 
ATOM      4  C5  FFG d   1      36.635  31.822  20.071  0.00  0.00    -0.070 A 
ATOM      5  C6  FFG d   1      35.980  33.768  18.553  0.00  0.00    -0.070 A 
ATOM      6  C10 FFG d   1      36.028  30.886  19.139  0.00  0.00    -0.056 A 
ATOM      7  H1  FFG d   1      34.907  33.201  16.713  0.00  0.00     0.087 H 
ATOM      8  H9  FFG d   1      37.103  31.458  20.979  0.00  0.00     0.084 H 
ATOM      9  H10 FFG d   1      35.966  34.832  18.347  0.00  0.00     0.084 H 
ATOM     10  H14 FFG d   1      36.037  29.821  19.342  0.00  0.00     0.087 H 
ENDROOT
BRANCH   2  11
ATOM     11  N38 FFG d   1      34.829  30.573  17.001  0.00  0.00    -0.312 N 
ATOM     12  C23 FFG d   1      35.564  29.585  16.427  0.00  0.00     0.277 C 
ATOM     13  C20 FFG d   1      34.907  28.790  15.480  0.00  0.00     0.135 A 
ATOM     14  O40 FFG d   1      36.751  29.406  16.707  0.00  0.00    -0.265 OA
ATOM     15  C16 FFG d   1      33.532  28.733  15.292  0.00  0.00     0.013 A 
ATOM     16  N35 FFG d   1      35.442  27.958  14.544  0.00  0.00    -0.227 N 
ATOM     17  C21 FFG d   1      33.285  27.851  14.215  0.00  0.00     0.169 A 
ATOM     18  C25 FFG d   1      32.627  29.541  16.196  0.00  0.00    -0.021 C 
ATOM     19  N33 FFG d   1      34.461  27.389  13.788  0.00  0.00    -0.162 NA
ATOM     20  C27 FFG d   1      33.407  30.787  16.621  0.00  0.00     0.007 C 
ATOM     21  H15 FFG d   1      32.352  28.948  17.081  0.00  0.00     0.042 H 
ATOM     22  H16 FFG d   1      31.716  29.834  15.653  0.00  0.00     0.042 H 
ATOM     23  H3  FFG d   1      32.891  31.227  17.487  0.00  0.00     0.065 H 
ATOM     24  H4  FFG d   1      33.387  31.498  15.782  0.00  0.00     0.065 H 
BRANCH  17  25
ATOM     25  C32 FFG d   1      31.973  27.532  13.576  0.00  0.00     0.436 C 
ATOM     26  F43 FFG d   1      31.054  27.486  14.503  0.00  0.00    -0.164 F 
ATOM     27  F44 FFG d   1      31.757  28.483  12.676  0.00  0.00    -0.164 F 
ATOM     28  F45 FFG d   1      32.094  26.388  12.940  0.00  0.00    -0.164 F 
ENDBRANCH  17  25
BRANCH  16  29
ATOM     29  C18 FFG d   1      36.767  27.752  14.293  0.00  0.00     0.060 A 
ATOM     30  C12 FFG d   1      37.266  28.425  13.124  0.00  0.00    -0.042 A 
ATOM     31  C15 FFG d   1      38.659  28.294  12.747  0.00  0.00     0.014 A 
ATOM     32  H2  FFG d   1      36.598  29.032  12.523  0.00  0.00     0.088 H 
ATOM     33  C7  FFG d   1      39.591  27.479  13.541  0.00  0.00    -0.069 A 
ATOM     34  C3  FFG d   1      39.080  26.801  14.721  0.00  0.00    -0.080 A 
ATOM     35  H11 FFG d   1      40.632  27.386  13.254  0.00  0.00     0.085 H 
ATOM     36  C9  FFG d   1      37.673  26.941  15.088  0.00  0.00    -0.055 A 
ATOM     37  H7  FFG d   1      39.742  26.193  15.327  0.00  0.00     0.083 H 
ATOM     38  H13 FFG d   1      37.299  26.431  15.968  0.00  0.00     0.087 H 
BRANCH  31  39
ATOM     39  C22 FFG d   1      39.068  29.004  11.530  0.00  0.00     0.162 A 
ATOM     40  N34 FFG d   1      40.286  28.996  10.984  0.00  0.00    -0.151 NA
ATOM     41  N37 FFG d   1      40.226  29.687   9.943  0.00  0.00    -0.227 N 
ATOM     42  C24 FFG d   1      38.978  30.166   9.749  0.00  0.00     0.342 A 
ATOM     43  H27 FFG d   1      41.000  29.862   9.335  0.00  0.00     0.194 HD
ATOM     44  N36 FFG d   1      38.245  29.770  10.773  0.00  0.00    -0.290 N 
ATOM     45  O41 FFG d   1      38.581  30.841   8.798  0.00  0.00    -0.245 OA
ATOM     46  H26 FFG d   1      37.286  29.989  10.952  0.00  0.00     0.172 HD
ENDBRANCH  31  39
ENDBRANCH  16  29
ENDBRANCH   2  11
BRANCH   1  47
ATOM     47  C14 FFG d   1      37.261  34.226  20.758  0.00  0.00    -0.018 A 
ATOM     48  C17 FFG d   1      36.841  34.382  22.152  0.00  0.00    -0.021 A 
ATOM     49  C8  FFG d   1      37.475  35.336  23.079  0.00  0.00    -0.074 A 
ATOM     50  C2  FFG d   1      38.564  36.166  22.618  0.00  0.00    -0.082 A 
ATOM     51  H12 FFG d   1      37.126  35.415  24.102  0.00  0.00     0.084 H 
ATOM     52  C1  FFG d   1      38.991  36.016  21.235  0.00  0.00    -0.082 A 
ATOM     53  H6  FFG d   1      39.047  36.876  23.280  0.00  0.00     0.083 H 
ATOM     54  C4  FFG d   1      38.373  35.078  20.308  0.00  0.00    -0.072 A 
ATOM     55  H5  FFG d   1      39.808  36.632  20.878  0.00  0.00     0.083 H 
ATOM     56  H8  FFG d   1      38.732  35.008  19.288  0.00  0.00     0.084 H 
BRANCH  48  57
ATOM     57  C31 FFG d   1      35.707  33.539  22.729  0.00  0.00     0.108 C 
ATOM     58  H24 FFG d   1      36.084  33.016  23.620  0.00  0.00     0.083 H 
ATOM     59  H25 FFG d   1      35.404  32.801  21.971  0.00  0.00     0.083 H 
BRANCH  57  60
ATOM     60  N39 FFG d   1      34.521  34.317  23.117  0.00  0.00    -0.065 N 
ATOM     61  C28 FFG d   1      33.387  33.527  23.668  0.00  0.00     0.086 C 
ATOM     62  C26 FFG d   1      32.277  34.302  22.997  0.00  0.00    -0.017 C 
ATOM     63  H19 FFG d   1      33.415  32.474  23.352  0.00  0.00     0.076 H 
ATOM     64  H20 FFG d   1      33.332  33.579  24.765  0.00  0.00     0.076 H 
ATOM     65  C30 FFG d   1      32.710  34.807  21.628  0.00  0.00     0.060 C 
ATOM     66  H17 FFG d   1      32.007  35.162  23.628  0.00  0.00     0.039 H 
ATOM     67  H18 FFG d   1      31.402  33.646  22.878  0.00  0.00     0.039 H 
ATOM     68  C29 FFG d   1      34.058  35.329  22.125  0.00  0.00     0.107 C 
ATOM     69  H23 FFG d   1      32.773  34.028  20.854  0.00  0.00     0.085 H 
ATOM     70  H21 FFG d   1      33.940  36.313  22.603  0.00  0.00     0.080 H 
ATOM     71  H22 FFG d   1      34.772  35.409  21.292  0.00  0.00     0.080 H 
ATOM     72  H28 FFG d   1      34.845  34.865  23.898  0.00  0.00     0.280 HD
BRANCH  65  73
ATOM     73  O42 FFG d   1      31.898  35.907  21.198  0.00  0.00    -0.394 OA
ATOM     74  H29 FFG d   1      31.061  35.580  20.890  0.00  0.00     0.210 HD
ENDBRANCH  65  73
ENDBRANCH  57  60
ENDBRANCH  48  57
ENDBRANCH   1  47
TORSDOF 8
