REMARK  2 active torsions:
REMARK  status: ('A' for Active; 'I' for Inactive)
REMARK    1  A    between atoms: CAD_11  and  SAC_12 
REMARK    2  A    between atoms: SAC_12  and  NAB_15 
ROOT
ATOM      1  CAH LC1 d   1      -6.771   7.547  12.203  0.00  0.00    -0.012 A 
ATOM      2  SAI LC1 d   1      -6.619   8.958  11.261  0.00  0.00    -0.092 SA
ATOM      3  CAR LC1 d   1      -4.926   8.982  11.255  0.00  0.00     0.040 A 
ATOM      4  NAQ LC1 d   1      -4.539   7.906  11.972  0.00  0.00    -0.250 NA
ATOM      5  CAP LC1 d   1      -5.525   7.131  12.498  0.00  0.00     0.109 A 
ATOM      6  CAO LC1 d   1      -5.264   5.971  13.260  0.00  0.00     0.158 A 
ATOM      7  NAN LC1 d   1      -4.093   5.333  13.398  0.00  0.00    -0.337 N 
ATOM      8  CAM LC1 d   1      -4.280   4.272  14.191  0.00  0.00     0.063 A 
ATOM      9  CAL LC1 d   1      -3.437   3.264  14.634  0.00  0.00    -0.053 A 
ATOM     10  CAK LC1 d   1      -3.930   2.246  15.464  0.00  0.00    -0.058 A 
ATOM     11  CAD LC1 d   1      -5.292   2.192  15.822  0.00  0.00     0.081 A 
ATOM     12  CAE LC1 d   1      -6.120   3.230  15.389  0.00  0.00    -0.030 A 
ATOM     13  CAF LC1 d   1      -5.607   4.242  14.554  0.00  0.00     0.087 A 
ATOM     14  NAG LC1 d   1      -6.177   5.285  13.966  0.00  0.00    -0.227 NA
ATOM     15  H1  LC1 d   1      -7.701   7.071  12.509  0.00  0.00     0.098 H 
ATOM     16  H2  LC1 d   1      -4.282   9.715  10.772  0.00  0.00     0.126 H 
ATOM     17  H3  LC1 d   1      -3.200   5.612  12.966  0.00  0.00     0.167 HD
ATOM     18  H4  LC1 d   1      -2.394   3.263  14.338  0.00  0.00     0.087 H 
ATOM     19  H5  LC1 d   1      -3.251   1.487  15.837  0.00  0.00     0.086 H 
ATOM     20  H8  LC1 d   1      -7.159   3.257  15.696  0.00  0.00     0.089 H 
ENDROOT
BRANCH  11  21
ATOM     21  SAC LC1 d   1      -5.979   1.041  16.871  0.00  0.00     0.256 S 
ATOM     22  OAA LC1 d   1      -7.354   0.990  16.730  0.00  0.00    -0.201 OA
ATOM     23  OAJ LC1 d   1      -5.365   1.012  18.168  0.00  0.00    -0.201 OA
BRANCH  21  24
ATOM     24  NAB LC1 d   1      -5.442  -0.311  16.290  0.00  0.00    -0.324 N 
ATOM     25  H6  LC1 d   1      -5.694  -1.177  16.723  0.00  0.00     0.169 HD
ATOM     26  H7  LC1 d   1      -4.847  -0.309  15.486  0.00  0.00     0.169 HD
ENDBRANCH  21  24
ENDBRANCH  11  21
TORSDOF 2
