REMARK  9 active torsions:
REMARK  status: ('A' for Active; 'I' for Inactive)
REMARK    1  A    between atoms: CAE_7  and  OAH_8 
REMARK    2  A    between atoms: OAH_8  and  CAI_9 
REMARK    3  A    between atoms: CAL_14  and  OAO_15 
REMARK    4  A    between atoms: OAO_15  and  CAP_16 
REMARK    5  A    between atoms: CAP_16  and  CAQ_17 
REMARK    6  A    between atoms: NAU_21  and  CAV_22 
REMARK    7  A    between atoms: CAV_22  and  CAW_23 
REMARK    8  A    between atoms: CAW_23  and  CAX_24 
REMARK    9  A    between atoms: CAX_24  and  CAY_25 
ROOT
ATOM      1  CAP 25P d   1      31.199  85.334   0.658  0.00  0.00     0.053 C 
ATOM      2  H9  25P d   1      31.732  86.098   0.073  0.00  0.00     0.078 H 
ATOM      3  H10 25P d   1      30.779  84.578  -0.022  0.00  0.00     0.078 H 
ENDROOT
BRANCH   1   4
ATOM      4  OAO 25P d   1      30.215  85.898   1.510  0.00  0.00    -0.349 OA
BRANCH   4   5
ATOM      5  CAL 25P d   1      29.044  86.241   0.907  0.00  0.00     0.069 A 
ATOM      6  CAM 25P d   1      28.966  86.583  -0.451  0.00  0.00    -0.048 A 
ATOM      7  CAN 25P d   1      27.731  86.939  -1.030  0.00  0.00    -0.048 A 
ATOM      8  H6  25P d   1      29.863  86.573  -1.060  0.00  0.00     0.087 H 
ATOM      9  CAI 25P d   1      26.583  86.935  -0.225  0.00  0.00     0.076 A 
ATOM     10  H5  25P d   1      27.670  87.211  -2.078  0.00  0.00     0.087 H 
ATOM     11  CAJ 25P d   1      26.665  86.609   1.121  0.00  0.00    -0.048 A 
ATOM     12  CAK 25P d   1      27.889  86.266   1.701  0.00  0.00    -0.048 A 
ATOM     13  H7  25P d   1      25.768  86.621   1.730  0.00  0.00     0.087 H 
ATOM     14  H8  25P d   1      27.945  86.021   2.756  0.00  0.00     0.087 H 
BRANCH   9  15
ATOM     15  OAH 25P d   1      25.373  87.303  -0.706  0.00  0.00    -0.311 OA
BRANCH  15  16
ATOM     16  CAE 25P d   1      24.844  86.623  -1.737  0.00  0.00     0.076 A 
ATOM     17  CAD 25P d   1      24.586  87.333  -2.899  0.00  0.00    -0.049 A 
ATOM     18  CAC 25P d   1      24.021  86.665  -3.977  0.00  0.00    -0.059 A 
ATOM     19  H1  25P d   1      24.821  88.389  -2.965  0.00  0.00     0.087 H 
ATOM     20  CAB 25P d   1      23.739  85.313  -3.861  0.00  0.00     0.034 A 
ATOM     21  H2  25P d   1      23.803  87.194  -4.898  0.00  0.00     0.086 H 
ATOM     22 CLAG 25P d   1      23.074  84.520  -5.214  0.00  0.00    -0.084 Cl
ATOM     23  CAA 25P d   1      23.991  84.589  -2.702  0.00  0.00    -0.059 A 
ATOM     24  CAF 25P d   1      24.547  85.256  -1.618  0.00  0.00    -0.049 A 
ATOM     25  H3  25P d   1      23.760  83.531  -2.645  0.00  0.00     0.086 H 
ATOM     26  H4  25P d   1      24.749  84.728  -0.693  0.00  0.00     0.087 H 
ENDBRANCH  15  16
ENDBRANCH   9  15
ENDBRANCH   4   5
ENDBRANCH   1   4
BRANCH   1  27
ATOM     27  CAQ 25P d   1      32.080  84.714   1.738  0.00  0.00     0.124 C 
ATOM     28  CAR 25P d   1      32.738  85.780   2.602  0.00  0.00    -0.035 C 
ATOM     29  CAS 25P d   1      34.070  85.158   2.939  0.00  0.00    -0.040 C 
ATOM     30  H12 25P d   1      32.149  85.973   3.511  0.00  0.00     0.036 H 
ATOM     31  H13 25P d   1      32.868  86.719   2.043  0.00  0.00     0.036 H 
ATOM     32  CAT 25P d   1      34.449  84.473   1.647  0.00  0.00     0.084 C 
ATOM     33  H14 25P d   1      33.973  84.432   3.760  0.00  0.00     0.035 H 
ATOM     34  H15 25P d   1      34.809  85.925   3.213  0.00  0.00     0.035 H 
ATOM     35  NAU 25P d   1      33.183  83.861   1.213  0.00  0.00    -0.065 N 
ATOM     36  H16 25P d   1      35.220  83.707   1.817  0.00  0.00     0.076 H 
ATOM     37  H17 25P d   1      34.811  85.200   0.905  0.00  0.00     0.076 H 
ATOM     38  H18 25P d   1      33.102  82.951   1.639  0.00  0.00     0.280 HD
ATOM     39  H11 25P d   1      31.432  84.091   2.372  0.00  0.00     0.088 H 
BRANCH  35  40
ATOM     40  CAV 25P d   1      33.161  83.665  -0.232  0.00  0.00     0.085 C 
ATOM     41  H19 25P d   1      33.721  84.468  -0.733  0.00  0.00     0.076 H 
ATOM     42  H20 25P d   1      32.124  83.658  -0.598  0.00  0.00     0.076 H 
BRANCH  40  43
ATOM     43  CAW 25P d   1      33.816  82.329  -0.497  0.00  0.00    -0.033 C 
ATOM     44  H21 25P d   1      33.219  81.763  -1.227  0.00  0.00     0.036 H 
ATOM     45  H22 25P d   1      33.886  81.759   0.441  0.00  0.00     0.036 H 
BRANCH  43  46
ATOM     46  CAX 25P d   1      35.217  82.570  -1.057  0.00  0.00     0.017 C 
ATOM     47  H23 25P d   1      35.781  81.626  -1.020  0.00  0.00     0.049 H 
ATOM     48  H24 25P d   1      35.723  83.323  -0.435  0.00  0.00     0.049 H 
BRANCH  46  49
ATOM     49  CAY 25P d   1      35.182  83.063  -2.490  0.00  0.00     0.172 C 
ATOM     50  OBA 25P d   1      34.168  82.777  -3.180  0.00  0.00    -0.648 OA
ATOM     51  OAZ 25P d   1      36.198  83.655  -2.883  0.00  0.00    -0.648 OA
ENDBRANCH  46  49
ENDBRANCH  43  46
ENDBRANCH  40  43
ENDBRANCH  35  40
ENDBRANCH   1  27
TORSDOF 9
