REMARK  2 active torsions:
REMARK  status: ('A' for Active; 'I' for Inactive)
REMARK    1  A    between atoms: C1'_1  and  C1_4 
REMARK    2  A    between atoms: C3_6  and  N3_10 
ROOT
ATOM      1  C1  GAB d   1      16.102  -8.435  10.732  0.00  0.00     0.043 A 
ATOM      2  C2  GAB d   1      17.193  -9.138  11.219  0.00  0.00    -0.041 A 
ATOM      3  C3  GAB d   1      17.408 -10.435  10.753  0.00  0.00     0.026 A 
ATOM      4  C4  GAB d   1      16.574 -11.024   9.824  0.00  0.00    -0.058 A 
ATOM      5  C5  GAB d   1      15.490 -10.305   9.346  0.00  0.00    -0.080 A 
ATOM      6  C6  GAB d   1      15.256  -9.015   9.802  0.00  0.00    -0.066 A 
ATOM      7  H1  GAB d   1      17.863  -8.691  11.944  0.00  0.00     0.088 H 
ATOM      8  H2  GAB d   1      16.764 -12.032   9.474  0.00  0.00     0.086 H 
ATOM      9  H3  GAB d   1      14.824 -10.750   8.616  0.00  0.00     0.083 H 
ATOM     10  H4  GAB d   1      14.405  -8.458   9.427  0.00  0.00     0.085 H 
ENDROOT
BRANCH   1  11
ATOM     11  C1' GAB d   1      15.829  -7.017  11.201  0.00  0.00     0.209 C 
ATOM     12  O1' GAB d   1      14.631  -6.617  11.200  0.00  0.00    -0.644 OA
ATOM     13  O2' GAB d   1      16.839  -6.345  11.552  0.00  0.00    -0.644 OA
ENDBRANCH   1  11
BRANCH   3  14
ATOM     14  N3  GAB d   1      18.435 -11.136  11.199  0.00  0.00    -0.399 N 
ATOM     15  H5  GAB d   1      19.076 -10.726  11.893  0.00  0.00     0.156 HD
ATOM     16  H6  GAB d   1      18.594 -12.093  10.853  0.00  0.00     0.156 HD
ENDBRANCH   3  14
TORSDOF 2
