REMARK  4 active torsions:
REMARK  status: ('A' for Active; 'I' for Inactive)
REMARK    1  A    between atoms: C1_1  and  C2_4 
REMARK    2  A    between atoms: C2_4  and  C3_5 
REMARK    3  A    between atoms: C2_4  and  O2_6 
REMARK    4  A    between atoms: O2_6  and  P_7 
ROOT
ATOM      1  C2  PEQ d   1     -30.443   7.245 -26.494  0.00  0.00     0.131 C 
ATOM      2  H1  PEQ d   1     -29.814   7.492 -27.362  0.00  0.00     0.100 H 
ENDROOT
BRANCH   1   3
ATOM      3  C1  PEQ d   1     -31.868   7.147 -26.973  0.00  0.00     0.203 C 
ATOM      4  O1  PEQ d   1     -32.746   7.904 -26.499  0.00  0.00    -0.646 OA
ATOM      5  O2' PEQ d   1     -32.117   6.295 -27.852  0.00  0.00    -0.646 OA
ENDBRANCH   1   3
BRANCH   1   6
ATOM      6  C3  PEQ d   1     -30.245   8.332 -25.445  0.00  0.00    -0.042 C 
ATOM      7  H2  PEQ d   1     -29.190   8.355 -25.136  0.00  0.00     0.031 H 
ATOM      8  H3  PEQ d   1     -30.879   8.118 -24.572  0.00  0.00     0.031 H 
ATOM      9  H4  PEQ d   1     -30.524   9.307 -25.870  0.00  0.00     0.031 H 
ENDBRANCH   1   6
BRANCH   1  10
ATOM     10  O2  PEQ d   1     -30.008   5.996 -25.961  0.00  0.00    -0.267 OA
BRANCH  10  11
ATOM     11  P   PEQ d   1     -28.427   5.700 -25.901  0.00  0.00     0.423 P 
ATOM     12  O1P PEQ d   1     -27.999   6.212 -24.547  0.00  0.00    -0.617 OA
ATOM     13  O2P PEQ d   1     -27.865   6.485 -27.064  0.00  0.00    -0.617 OA
ATOM     14  O3P PEQ d   1     -28.334   4.203 -26.071  0.00  0.00    -0.617 OA
ENDBRANCH  10  11
ENDBRANCH   1  10
TORSDOF 4
