REMARK  5 active torsions:
REMARK  status: ('A' for Active; 'I' for Inactive)
REMARK    1  A    between atoms: C1_1  and  C2_4 
REMARK    2  A    between atoms: C2_4  and  O3_5 
REMARK    3  A    between atoms: C2_4  and  C3_6 
REMARK    4  A    between atoms: C3_6  and  O1P_7 
REMARK    5  A    between atoms: O1P_7  and  P_8 
ROOT
ATOM      1  C3  3PG d   1      -7.740   7.282  13.722  0.00  0.00     0.066 C 
ATOM      2  H3  3PG d   1      -7.273   7.236  12.727  0.00  0.00     0.080 H 
ATOM      3  H4  3PG d   1      -8.441   6.442  13.838  0.00  0.00     0.080 H 
ENDROOT
BRANCH   1   4
ATOM      4  C2  3PG d   1      -8.487   8.599  13.878  0.00  0.00     0.140 C 
ATOM      5  H1  3PG d   1      -8.811   8.717  14.922  0.00  0.00     0.103 H 
BRANCH   4   6
ATOM      6  C1  3PG d   1      -9.689   8.611  12.978  0.00  0.00     0.205 C 
ATOM      7  O1  3PG d   1     -10.737   8.059  13.378  0.00  0.00    -0.646 OA
ATOM      8  O2  3PG d   1      -9.599   9.172  11.863  0.00  0.00    -0.646 OA
ENDBRANCH   4   6
BRANCH   4   9
ATOM      9  O3  3PG d   1      -7.609   9.673  13.524  0.00  0.00    -0.383 OA
ATOM     10  H2  3PG d   1      -6.850   9.662  14.095  0.00  0.00     0.210 HD
ENDBRANCH   4   9
ENDBRANCH   1   4
BRANCH   1  11
ATOM     11  O1P 3PG d   1      -6.733   7.212  14.730  0.00  0.00    -0.280 OA
BRANCH  11  12
ATOM     12  P   3PG d   1      -5.333   6.458  14.469  0.00  0.00     0.422 P 
ATOM     13  O2P 3PG d   1      -4.594   6.659  15.768  0.00  0.00    -0.617 OA
ATOM     14  O3P 3PG d   1      -5.725   5.028  14.193  0.00  0.00    -0.617 OA
ATOM     15  O4P 3PG d   1      -4.735   7.175  13.283  0.00  0.00    -0.617 OA
ENDBRANCH  11  12
ENDBRANCH   1  11
TORSDOF 5
