REMARK  4 active torsions:
REMARK  status: ('A' for Active; 'I' for Inactive)
REMARK    1  A    between atoms: C13_4  and  O17_5 
REMARK    2  A    between atoms: C14_8  and  O16_9 
REMARK    3  A    between atoms: C5_17  and  O20_18 
REMARK    4  A    between atoms: C6_19  and  O15_20 
ROOT
ATOM      1  O18 TXQ d   1      21.346   9.237  18.707  0.00  0.00    -0.286 OA
ATOM      2  C9  TXQ d   1      22.103   8.255  18.547  0.00  0.00     0.197 A 
ATOM      3  C8  TXQ d   1      22.369   7.327  19.694  0.00  0.00     0.065 A 
ATOM      4  C13 TXQ d   1      21.770   7.549  20.940  0.00  0.00     0.081 A 
ATOM      5  C12 TXQ d   1      22.020   6.686  22.007  0.00  0.00    -0.047 A 
ATOM      6  C11 TXQ d   1      22.868   5.585  21.828  0.00  0.00    -0.047 A 
ATOM      7  C14 TXQ d   1      23.459   5.364  20.581  0.00  0.00     0.081 A 
ATOM      8  C7  TXQ d   1      23.216   6.231  19.515  0.00  0.00     0.065 A 
ATOM      9  C10 TXQ d   1      23.850   5.990  18.181  0.00  0.00     0.200 A 
ATOM     10  O19 TXQ d   1      24.598   5.002  18.008  0.00  0.00    -0.286 OA
ATOM     11  C2  TXQ d   1      22.732   8.022  17.218  0.00  0.00     0.032 A 
ATOM     12  C1  TXQ d   1      23.579   6.922  17.046  0.00  0.00     0.065 A 
ATOM     13  C3  TXQ d   1      22.488   8.895  16.147  0.00  0.00    -0.065 A 
ATOM     14  C4  TXQ d   1      23.085   8.655  14.899  0.00  0.00    -0.047 A 
ATOM     15  C5  TXQ d   1      23.925   7.551  14.735  0.00  0.00     0.099 A 
ATOM     16  C6  TXQ d   1      24.165   6.690  15.799  0.00  0.00     0.114 A 
ATOM     17  H2  TXQ d   1      21.560   6.867  22.972  0.00  0.00     0.087 H 
ATOM     18  H3  TXQ d   1      23.064   4.909  22.652  0.00  0.00     0.087 H 
ATOM     19  H5  TXQ d   1      21.840   9.753  16.283  0.00  0.00     0.085 H 
ATOM     20  H6  TXQ d   1      22.895   9.323  14.067  0.00  0.00     0.087 H 
ENDROOT
BRANCH   4  21
ATOM     21  O17 TXQ d   1      20.950   8.627  21.112  0.00  0.00    -0.360 OA
ATOM     22  H1  TXQ d   1      20.625   8.637  22.005  0.00  0.00     0.217 HD
ENDBRANCH   4  21
BRANCH   7  23
ATOM     23  O16 TXQ d   1      24.284   4.296  20.393  0.00  0.00    -0.360 OA
ATOM     24  H4  TXQ d   1      24.598   4.294  19.496  0.00  0.00     0.217 HD
ENDBRANCH   7  23
BRANCH  16  25
ATOM     25  O15 TXQ d   1      24.986   5.621  15.625  0.00  0.00    -0.357 OA
ATOM     26  H8  TXQ d   1      25.047   5.135  16.439  0.00  0.00     0.217 HD
ENDBRANCH  16  25
BRANCH  15  27
ATOM     27  O20 TXQ d   1      24.516   7.293  13.534  0.00  0.00    -0.358 OA
ATOM     28  H7  TXQ d   1      25.048   6.509  13.606  0.00  0.00     0.217 HD
ENDBRANCH  15  27
TORSDOF 4
