REMARK  7 active torsions:
REMARK  status: ('A' for Active; 'I' for Inactive)
REMARK    1  A    between atoms: C2_1  and  N7_18 
REMARK    2  A    between atoms: C4_4  and  C8_6 
REMARK    3  A    between atoms: N11_16  and  C6_5 
REMARK       I    between atoms: C8_6  and  N9_15 
REMARK    4  A    between atoms: C12_7  and  N11_16 
REMARK    5  A    between atoms: C15_10  and  C18_13 
REMARK    6  A    between atoms: N7_18  and  C19_19 
REMARK    7  A    between atoms: C24_20  and  N25_21 
ROOT
ATOM      1  C2  P5C d   1       3.533   2.684  13.505  0.00  0.00     0.724 A 
ATOM      2  C3  P5C d   1       5.305   1.783  14.732  0.00  0.00     0.040 A 
ATOM      3  N1  P5C d   1       2.788   1.591  13.806  0.00  0.00    -0.044 NA
ATOM      4  C4  P5C d   1       4.550   0.652  15.057  0.00  0.00     0.096 A 
ATOM      5  C6  P5C d   1       3.254   0.564  14.573  0.00  0.00     0.164 A 
ATOM      6  N5  P5C d   1       4.796   2.772  13.971  0.00  0.00    -0.074 NA
ATOM      7  H1  P5C d   1       6.321   1.866  15.100  0.00  0.00     0.117 H 
ENDROOT
BRANCH   1   8
ATOM      8  N7  P5C d   1       3.025   3.684  12.743  0.00  0.00    -0.216 N 
ATOM      9  H12 P5C d   1       3.655   4.437  12.431  0.00  0.00     0.178 HD
BRANCH   8  10
ATOM     10  C19 P5C d   1       1.623   3.736  12.347  0.00  0.00     0.053 C 
ATOM     11  C24 P5C d   1       0.733   4.398  13.423  0.00  0.00     0.120 C 
ATOM     12  C23 P5C d   1      -0.727   4.442  12.971  0.00  0.00    -0.037 C 
ATOM     13  H14 P5C d   1       0.803   3.803  14.346  0.00  0.00     0.087 H 
ATOM     14  C22 P5C d   1      -0.888   5.107  11.595  0.00  0.00    -0.063 C 
ATOM     15  H18 P5C d   1      -1.310   5.011  13.710  0.00  0.00     0.036 H 
ATOM     16  H19 P5C d   1      -1.112   3.413  12.915  0.00  0.00     0.036 H 
ATOM     17  C21 P5C d   1       0.033   4.518  10.526  0.00  0.00    -0.063 C 
ATOM     18  H20 P5C d   1      -0.663   6.179  11.697  0.00  0.00     0.033 H 
ATOM     19  H21 P5C d   1      -1.930   4.981  11.266  0.00  0.00     0.033 H 
ATOM     20  C20 P5C d   1       1.493   4.439  10.986  0.00  0.00    -0.044 C 
ATOM     21  H22 P5C d   1      -0.020   5.151   9.628  0.00  0.00     0.033 H 
ATOM     22  H23 P5C d   1      -0.315   3.504  10.281  0.00  0.00     0.033 H 
ATOM     23  H24 P5C d   1       2.072   3.878  10.238  0.00  0.00     0.036 H 
ATOM     24  H25 P5C d   1       1.895   5.459  11.072  0.00  0.00     0.036 H 
ATOM     25  H13 P5C d   1       1.272   2.701  12.225  0.00  0.00     0.076 H 
BRANCH  11  26
ATOM     26  N25 P5C d   1       1.173   5.759  13.705  0.00  0.00    -0.073 N 
ATOM     27  H15 P5C d   1       0.577   6.166  14.408  0.00  0.00     0.274 HD
ATOM     28  H16 P5C d   1       1.123   6.310  12.862  0.00  0.00     0.274 HD
ATOM     29  H17 P5C d   1       2.124   5.742  14.039  0.00  0.00     0.274 HD
ENDBRANCH  11  26
ENDBRANCH   8  10
ENDBRANCH   1   8
BRANCH   5  30
ATOM     30  N11 P5C d   1       2.488  -0.528  14.871  0.00  0.00    -0.340 N 
ATOM     31  H11 P5C d   1       2.944  -1.266  15.426  0.00  0.00     0.167 HD
BRANCH  30  32
ATOM     32  C12 P5C d   1       1.187  -0.755  14.518  0.00  0.00     0.034 A 
ATOM     33  C13 P5C d   1       0.520  -0.025  13.526  0.00  0.00    -0.057 A 
ATOM     34  C16 P5C d   1      -0.815  -0.285  13.202  0.00  0.00    -0.080 A 
ATOM     35  H2  P5C d   1       1.051   0.759  12.998  0.00  0.00     0.086 H 
ATOM     36  C14 P5C d   1      -1.496  -1.303  13.877  0.00  0.00    -0.077 A 
ATOM     37  H4  P5C d   1      -1.316   0.296  12.436  0.00  0.00     0.083 H 
ATOM     38  C15 P5C d   1      -0.839  -2.039  14.861  0.00  0.00    -0.060 A 
ATOM     39  H3  P5C d   1      -2.531  -1.519  13.636  0.00  0.00     0.084 H 
ATOM     40  C17 P5C d   1       0.491  -1.764  15.182  0.00  0.00    -0.051 A 
ATOM     41  H5  P5C d   1       0.987  -2.340  15.954  0.00  0.00     0.087 H 
BRANCH  38  42
ATOM     42  C18 P5C d   1      -1.567  -3.150  15.579  0.00  0.00    -0.051 C 
ATOM     43  H6  P5C d   1      -2.596  -3.220  15.198  0.00  0.00     0.033 H 
ATOM     44  H7  P5C d   1      -1.589  -2.937  16.658  0.00  0.00     0.033 H 
ATOM     45  H8  P5C d   1      -1.046  -4.103  15.405  0.00  0.00     0.033 H 
ENDBRANCH  38  42
ENDBRANCH  30  32
ENDBRANCH   5  30
BRANCH   4  46
ATOM     46  C8  P5C d   1       5.153  -0.433  15.914  0.00  0.00     0.254 C 
ATOM     47  O10 P5C d   1       4.509  -1.429  16.227  0.00  0.00    -0.268 OA
ATOM     48  N9  P5C d   1       6.406  -0.278  16.326  0.00  0.00    -0.366 N 
ATOM     49  H9  P5C d   1       6.835  -0.979  16.895  0.00  0.00     0.159 HD
ATOM     50  H10 P5C d   1       6.920   0.540  16.067  0.00  0.00     0.159 HD
ENDBRANCH   4  46
TORSDOF 7
