REMARK  10 active torsions:
REMARK  status: ('A' for Active; 'I' for Inactive)
REMARK    1  A    between atoms: C10_10  and  C2_2 
REMARK    2  A    between atoms: C17_17  and  C4_4 
REMARK    3  A    between atoms: C11_11  and  N23_23 
REMARK    4  A    between atoms: C18_18  and  C19_19 
REMARK       I    between atoms: C19_19  and  N21_21 
REMARK    5  A    between atoms: N21_21  and  C22_22 
REMARK    6  A    between atoms: N23_23  and  S24_24 
REMARK    7  A    between atoms: N23_23  and  C29_29 
REMARK    8  A    between atoms: S24_24  and  C27_27 
REMARK    9  A    between atoms: C29_29  and  C30_30 
REMARK   10  A    between atoms: C30_30  and  O31_31 
ROOT
ATOM      1  C10 79Z d   1     -15.408 -10.734  10.130  0.00  0.00    -0.025 A 
ATOM      2  C11 79Z d   1     -16.403 -10.325   9.218  0.00  0.00     0.054 A 
ATOM      3  C12 79Z d   1     -17.326 -11.242   8.713  0.00  0.00    -0.022 A 
ATOM      4  C13 79Z d   1     -15.358 -12.076  10.558  0.00  0.00    -0.061 A 
ATOM      5  C14 79Z d   1     -16.290 -12.965  10.038  0.00  0.00     0.017 A 
ATOM      6  C15 79Z d   1     -17.253 -12.548   9.134  0.00  0.00     0.089 A 
ATOM      7  O16 79Z d   1     -18.132 -13.575   8.727  0.00  0.00    -0.308 OA
ATOM      8  C17 79Z d   1     -17.765 -14.746   9.348  0.00  0.00     0.103 A 
ATOM      9  C18 79Z d   1     -16.599 -14.411  10.211  0.00  0.00     0.079 A 
ATOM     10  H10 79Z d   1     -18.084 -10.931   8.004  0.00  0.00     0.091 H 
ATOM     11  H11 79Z d   1     -14.613 -12.405  11.273  0.00  0.00     0.086 H 
ENDROOT
BRANCH   2  12
ATOM     12  N23 79Z d   1     -16.525  -9.005   8.698  0.00  0.00    -0.274 N 
BRANCH  12  13
ATOM     13  S24 79Z d   1     -15.929  -8.764   7.302  0.00  0.00     0.229 S 
ATOM     14  O25 79Z d   1     -15.166  -7.560   7.242  0.00  0.00    -0.206 OA
ATOM     15  O26 79Z d   1     -15.075  -9.825   6.827  0.00  0.00    -0.206 OA
BRANCH  13  16
ATOM     16  C27 79Z d   1     -17.213  -8.688   6.233  0.00  0.00     0.033 C 
ATOM     17  H16 79Z d   1     -16.833  -8.516   5.215  0.00  0.00     0.051 H 
ATOM     18  H17 79Z d   1     -17.881  -7.862   6.520  0.00  0.00     0.051 H 
ATOM     19  H18 79Z d   1     -17.770  -9.636   6.261  0.00  0.00     0.051 H 
ENDBRANCH  13  16
ENDBRANCH  12  13
BRANCH  12  20
ATOM     20  C29 79Z d   1     -17.253  -7.929   9.320  0.00  0.00     0.030 C 
ATOM     21  H19 79Z d   1     -18.192  -7.765   8.770  0.00  0.00     0.069 H 
ATOM     22  H20 79Z d   1     -16.643  -7.014   9.285  0.00  0.00     0.069 H 
BRANCH  20  23
ATOM     23  C30 79Z d   1     -17.575  -8.254  10.764  0.00  0.00     0.033 C 
ATOM     24  H21 79Z d   1     -16.676  -8.633  11.272  0.00  0.00     0.076 H 
ATOM     25  H22 79Z d   1     -18.369  -9.014  10.809  0.00  0.00     0.076 H 
BRANCH  23  26
ATOM     26  O31 79Z d   1     -18.016  -7.055  11.390  0.00  0.00    -0.399 OA
ATOM     27  H23 79Z d   1     -18.790  -6.732  10.943  0.00  0.00     0.209 HD
ENDBRANCH  23  26
ENDBRANCH  20  23
ENDBRANCH  12  20
ENDBRANCH   2  12
BRANCH   1  28
ATOM     28  C2  79Z d   1     -14.444  -9.721  10.642  0.00  0.00    -0.026 A 
ATOM     29  C1  79Z d   1     -14.268  -9.622  12.159  0.00  0.00    -0.057 A 
ATOM     30  C3  79Z d   1     -13.148 -10.183  11.294  0.00  0.00    -0.057 A 
ATOM     31  H1  79Z d   1     -14.837 -10.289  12.824  0.00  0.00     0.034 H 
ATOM     32  H2  79Z d   1     -14.154  -8.638  12.637  0.00  0.00     0.034 H 
ATOM     33  H4  79Z d   1     -12.906 -11.255  11.336  0.00  0.00     0.034 H 
ATOM     34  H5  79Z d   1     -12.224  -9.604  11.149  0.00  0.00     0.034 H 
ATOM     35  H3  79Z d   1     -14.461  -8.820  10.011  0.00  0.00     0.047 H 
ENDBRANCH   1  28
BRANCH   9  36
ATOM     36  C19 79Z d   1     -15.786 -15.306  11.095  0.00  0.00     0.255 C 
ATOM     37  O20 79Z d   1     -14.590 -15.397  10.881  0.00  0.00    -0.268 OA
ATOM     38  N21 79Z d   1     -16.340 -16.016  12.078  0.00  0.00    -0.361 N 
ATOM     39  H12 79Z d   1     -17.326 -15.927  12.218  0.00  0.00     0.162 HD
BRANCH  38  40
ATOM     40  C22 79Z d   1     -15.607 -16.915  12.965  0.00  0.00    -0.018 C 
ATOM     41  H13 79Z d   1     -16.305 -17.372  13.682  0.00  0.00     0.056 H 
ATOM     42  H14 79Z d   1     -14.840 -16.346  13.511  0.00  0.00     0.056 H 
ATOM     43  H15 79Z d   1     -15.124 -17.704  12.370  0.00  0.00     0.056 H 
ENDBRANCH  38  40
ENDBRANCH   9  36
BRANCH   8  44
ATOM     44  C4  79Z d   1     -18.419 -16.024   9.074  0.00  0.00    -0.001 A 
ATOM     45  C5  79Z d   1     -17.681 -17.196   9.166  0.00  0.00    -0.067 A 
ATOM     46  C6  79Z d   1     -18.282 -18.396   8.835  0.00  0.00    -0.045 A 
ATOM     47  H6  79Z d   1     -16.648 -17.171   9.493  0.00  0.00     0.085 H 
ATOM     48  C7  79Z d   1     -19.596 -18.412   8.388  0.00  0.00     0.116 A 
ATOM     49  H7  79Z d   1     -17.728 -19.323   8.924  0.00  0.00     0.088 H 
ATOM     50  C8  79Z d   1     -20.312 -17.232   8.249  0.00  0.00    -0.045 A 
ATOM     51  F28 79Z d   1     -20.148 -19.600   8.061  0.00  0.00    -0.206 F 
ATOM     52  C9  79Z d   1     -19.719 -16.023   8.582  0.00  0.00    -0.067 A 
ATOM     53  H8  79Z d   1     -21.331 -17.255   7.881  0.00  0.00     0.088 H 
ATOM     54  H9  79Z d   1     -20.261 -15.092   8.460  0.00  0.00     0.085 H 
ENDBRANCH   8  44
TORSDOF 10
