REMARK  7 active torsions:
REMARK  status: ('A' for Active; 'I' for Inactive)
REMARK    1  A    between atoms: P_2  and  C14_5 
REMARK    2  A    between atoms: C14_5  and  C13_8 
REMARK    3  A    between atoms: C13_8  and  C12_9 
REMARK    4  A    between atoms: C12_9  and  C11_10 
REMARK    5  A    between atoms: C11_10  and  C10_11 
REMARK    6  A    between atoms: C10_11  and  C9_12 
REMARK    7  A    between atoms: C2_19  and  N2_20 
ROOT
ATOM      1  C10 9D9 d   1      32.617 -10.111  27.492  0.00  0.00    -0.037 C 
ATOM      2  H7  9D9 d   1      32.795 -11.181  27.675  0.00  0.00     0.040 H 
ATOM      3  H8  9D9 d   1      31.543  -9.942  27.322  0.00  0.00     0.040 H 
ENDROOT
BRANCH   1   4
ATOM      4  C11 9D9 d   1      33.395  -9.685  26.227  0.00  0.00    -0.061 C 
ATOM      5  H5  9D9 d   1      33.358  -8.589  26.136  0.00  0.00     0.033 H 
ATOM      6  H6  9D9 d   1      34.441 -10.010  26.324  0.00  0.00     0.033 H 
BRANCH   4   7
ATOM      7  C12 9D9 d   1      32.794 -10.311  24.962  0.00  0.00    -0.059 C 
ATOM      8  H3  9D9 d   1      31.814  -9.851  24.766  0.00  0.00     0.033 H 
ATOM      9  H4  9D9 d   1      33.466 -10.118  24.113  0.00  0.00     0.033 H 
BRANCH   7  10
ATOM     10  C13 9D9 d   1      32.610 -11.835  25.120  0.00  0.00     0.009 C 
ATOM     11  H1  9D9 d   1      33.590 -12.305  25.291  0.00  0.00     0.043 H 
ATOM     12  H2  9D9 d   1      31.953 -12.036  25.979  0.00  0.00     0.043 H 
BRANCH  10  13
ATOM     13  C14 9D9 d   1      31.984 -12.416  23.858  0.00  0.00     0.353 C 
ATOM     14  F1  9D9 d   1      32.933 -12.497  22.886  0.00  0.00    -0.191 F 
ATOM     15  F2  9D9 d   1      30.986 -11.646  23.410  0.00  0.00    -0.191 F 
BRANCH  13  16
ATOM     16  P   9D9 d   1      31.339 -14.099  24.170  0.00  0.00     0.334 P 
ATOM     17  O2P 9D9 d   1      32.386 -14.941  24.980  0.00  0.00    -0.636 OA
ATOM     18  O3P 9D9 d   1      30.031 -13.864  25.068  0.00  0.00    -0.636 OA
ATOM     19  O1P 9D9 d   1      30.971 -14.699  22.846  0.00  0.00    -0.636 OA
ENDBRANCH  13  16
ENDBRANCH  10  13
ENDBRANCH   7  10
ENDBRANCH   4   7
ENDBRANCH   1   4
BRANCH   1  20
ATOM     20  C9  9D9 d   1      33.052  -9.320  28.727  0.00  0.00    -0.013 A 
ATOM     21  C8  9D9 d   1      34.109  -9.559  29.530  0.00  0.00    -0.014 A 
ATOM     22  N7  9D9 d   1      34.132  -8.625  30.503  0.00  0.00    -0.359 N 
ATOM     23  H9  9D9 d   1      34.825 -10.371  29.412  0.00  0.00     0.112 H 
ATOM     24  C5  9D9 d   1      33.095  -7.755  30.358  0.00  0.00     0.129 A 
ATOM     25  H10 9D9 d   1      34.837  -8.577  31.252  0.00  0.00     0.165 HD
ATOM     26  C6  9D9 d   1      32.657  -6.625  31.025  0.00  0.00     0.288 A 
ATOM     27  C4  9D9 d   1      32.407  -8.199  29.229  0.00  0.00     0.089 A 
ATOM     28  O6  9D9 d   1      33.195  -6.130  32.022  0.00  0.00    -0.265 OA
ATOM     29  N1  9D9 d   1      31.485  -5.981  30.503  0.00  0.00    -0.154 N 
ATOM     30  C2  9D9 d   1      30.853  -6.546  29.335  0.00  0.00     0.679 A 
ATOM     31  H11 9D9 d   1      31.115  -5.160  30.938  0.00  0.00     0.187 HD
ATOM     32  N3  9D9 d   1      31.232  -7.564  28.714  0.00  0.00    -0.189 N 
ATOM     33  H14 9D9 d   1      30.732  -7.921  27.887  0.00  0.00     0.184 HD
BRANCH  30  34
ATOM     34  N2  9D9 d   1      29.744  -5.842  29.017  0.00  0.00    -0.234 N 
ATOM     35  H12 9D9 d   1      29.175  -6.117  28.204  0.00  0.00     0.174 HD
ATOM     36  H13 9D9 d   1      29.468  -5.030  29.588  0.00  0.00     0.174 HD
ENDBRANCH  30  34
ENDBRANCH   1  20
TORSDOF 7
