REMARK  5 active torsions:
REMARK  status: ('A' for Active; 'I' for Inactive)
REMARK    1  A    between atoms: C25_8  and  S20_9 
REMARK    2  A    between atoms: S20_9  and  N23_12 
REMARK    3  A    between atoms: N23_12  and  C13_13 
REMARK    4  A    between atoms: C17_17  and  O11_21 
REMARK    5  A    between atoms: O11_21  and  C8_22 
ROOT
ATOM      1  C13 Z12 d   1       4.975   7.464  25.113  0.00  0.00     0.046 A 
ATOM      2  C14 Z12 d   1       4.168   8.497  24.646  0.00  0.00    -0.033 A 
ATOM      3  C15 Z12 d   1       4.628   9.795  24.666  0.00  0.00     0.071 A 
ATOM      4 CL16 Z12 d   1       3.562  11.082  24.041  0.00  0.00    -0.081 Cl
ATOM      5  C17 Z12 d   1       5.888  10.082  25.174  0.00  0.00     0.119 A 
ATOM      6  C18 Z12 d   1       6.686   9.061  25.637  0.00  0.00     0.071 A 
ATOM      7 CL19 Z12 d   1       8.294   9.490  26.275  0.00  0.00    -0.081 Cl
ATOM      8  C12 Z12 d   1       6.242   7.741  25.607  0.00  0.00    -0.033 A 
ATOM      9  H5  Z12 d   1       3.176   8.280  24.266  0.00  0.00     0.089 H 
ATOM     10  H6  Z12 d   1       6.878   6.940  25.965  0.00  0.00     0.089 H 
ENDROOT
BRANCH   5  11
ATOM     11  O11 Z12 d   1       6.378  11.361  25.217  0.00  0.00    -0.306 OA
BRANCH  11  12
ATOM     12  C8  Z12 d   1       6.347  12.165  26.347  0.00  0.00     0.094 A 
ATOM     13  C7  Z12 d   1       6.181  11.657  27.644  0.00  0.00    -0.037 A 
ATOM     14  C6  Z12 d   1       6.182  12.563  28.724  0.00  0.00    -0.005 A 
ATOM     15  H7  Z12 d   1       6.055  10.594  27.812  0.00  0.00     0.089 H 
ATOM     16  C1  Z12 d   1       6.027  12.107  30.029  0.00  0.00    -0.071 A 
ATOM     17  C5  Z12 d   1       6.342  13.933  28.485  0.00  0.00     0.067 A 
ATOM     18  C2  Z12 d   1       6.027  13.015  31.082  0.00  0.00    -0.082 A 
ATOM     19  H8  Z12 d   1       5.907  11.048  30.224  0.00  0.00     0.084 H 
ATOM     20  C3  Z12 d   1       6.180  14.384  30.833  0.00  0.00    -0.081 A 
ATOM     21  H12 Z12 d   1       5.908  12.661  32.100  0.00  0.00     0.083 H 
ATOM     22  C4  Z12 d   1       6.344  14.848  29.537  0.00  0.00    -0.054 A 
ATOM     23  H11 Z12 d   1       6.170  15.086  31.659  0.00  0.00     0.083 H 
ATOM     24  H10 Z12 d   1       6.472  15.907  29.344  0.00  0.00     0.087 H 
ATOM     25  N10 Z12 d   1       6.503  14.381  27.224  0.00  0.00    -0.258 NA
ATOM     26  C9  Z12 d   1       6.512  13.540  26.182  0.00  0.00     0.035 A 
ATOM     27  H9  Z12 d   1       6.651  13.939  25.184  0.00  0.00     0.119 H 
ENDBRANCH  11  12
ENDBRANCH   5  11
BRANCH   1  28
ATOM     28  N23 Z12 d   1       4.456   6.216  25.050  0.00  0.00    -0.280 N 
ATOM     29  H4  Z12 d   1       3.610   6.117  24.526  0.00  0.00     0.179 HD
BRANCH  28  30
ATOM     30  S20 Z12 d   1       5.033   4.885  25.712  0.00  0.00     0.264 S 
ATOM     31  O21 Z12 d   1       4.205   3.809  25.218  0.00  0.00    -0.200 OA
ATOM     32  O22 Z12 d   1       6.403   4.691  25.323  0.00  0.00    -0.200 OA
BRANCH  30  33
ATOM     33  C25 Z12 d   1       4.939   4.899  27.346  0.00  0.00     0.101 A 
ATOM     34  C31 Z12 d   1       3.720   4.940  28.055  0.00  0.00     0.059 A 
ATOM     35 CL32 Z12 d   1       2.108   5.021  27.277  0.00  0.00    -0.083 Cl
ATOM     36  C30 Z12 d   1       3.688   4.924  29.452  0.00  0.00    -0.039 A 
ATOM     37  C28 Z12 d   1       4.865   4.841  30.189  0.00  0.00     0.035 A 
ATOM     38  H1  Z12 d   1       2.736   4.977  29.967  0.00  0.00     0.088 H 
ATOM     39 CL29 Z12 d   1       4.732   4.824  31.982  0.00  0.00    -0.084 Cl
ATOM     40  C27 Z12 d   1       6.092   4.798  29.513  0.00  0.00    -0.060 A 
ATOM     41  C26 Z12 d   1       6.121   4.831  28.107  0.00  0.00    -0.057 A 
ATOM     42  H2  Z12 d   1       7.018   4.739  30.073  0.00  0.00     0.086 H 
ATOM     43  H3  Z12 d   1       7.077   4.803  27.597  0.00  0.00     0.086 H 
ENDBRANCH  30  33
ENDBRANCH  28  30
ENDBRANCH   1  28
TORSDOF 5
