REMARK  5 active torsions:
REMARK  status: ('A' for Active; 'I' for Inactive)
REMARK    1  A    between atoms: N_1  and  CA_2 
REMARK    2  A    between atoms: CA_2  and  C_3 
REMARK    3  A    between atoms: CA_2  and  CB_5 
REMARK    4  A    between atoms: CB_5  and  CG_6 
REMARK    5  A    between atoms: CG_6  and  CD_7 
ROOT
ATOM      1  CA  GLU d   1       5.612 -15.247  18.912  0.00  0.00     0.183 C 
ATOM      2  H4  GLU d   1       6.175 -15.999  18.339  0.00  0.00     0.101 H 
ENDROOT
BRANCH   1   3
ATOM      3  N   GLU d   1       5.951 -13.891  18.386  0.00  0.00    -0.065 N 
ATOM      4  H1  GLU d   1       6.938 -13.723  18.502  0.00  0.00     0.275 HD
ATOM      5  H2  GLU d   1       5.430 -13.194  18.894  0.00  0.00     0.275 HD
ATOM      6  H3  GLU d   1       5.714 -13.841  17.407  0.00  0.00     0.275 HD
ENDBRANCH   1   3
BRANCH   1   7
ATOM      7  C   GLU d   1       4.122 -15.516  18.744  0.00  0.00     0.204 C 
ATOM      8  O   GLU d   1       3.565 -16.521  19.202  0.00  0.00    -0.646 OA
ATOM      9  OXT GLU d   1       3.458 -14.701  18.139  0.00  0.00    -0.646 OA
ENDBRANCH   1   7
BRANCH   1  10
ATOM     10  CB  GLU d   1       5.999 -15.360  20.378  0.00  0.00    -0.020 C 
ATOM     11  H5  GLU d   1       5.451 -16.206  20.817  0.00  0.00     0.037 H 
ATOM     12  H6  GLU d   1       5.707 -14.430  20.887  0.00  0.00     0.037 H 
BRANCH  10  13
ATOM     13  CG  GLU d   1       7.487 -15.583  20.603  0.00  0.00     0.018 C 
ATOM     14  H7  GLU d   1       7.696 -15.474  21.677  0.00  0.00     0.049 H 
ATOM     15  H8  GLU d   1       8.042 -14.816  20.042  0.00  0.00     0.049 H 
BRANCH  13  16
ATOM     16  CD  GLU d   1       7.983 -16.974  20.148  0.00  0.00     0.172 C 
ATOM     17  OE1 GLU d   1       9.211 -17.160  19.968  0.00  0.00    -0.648 OA
ATOM     18  OE2 GLU d   1       7.155 -17.891  19.964  0.00  0.00    -0.648 OA
ENDBRANCH  13  16
ENDBRANCH  10  13
ENDBRANCH   1  10
TORSDOF 5
