REMARK  7 active torsions:
REMARK  status: ('A' for Active; 'I' for Inactive)
REMARK    1  A    between atoms: C_2  and  CA_4 
REMARK    2  A    between atoms: CA_4  and  N_5 
REMARK    3  A    between atoms: CA_4  and  CB_6 
REMARK    4  A    between atoms: CB_6  and  CAJ_7 
REMARK    5  A    between atoms: CAJ_7  and  CAD_8 
REMARK    6  A    between atoms: CAF_17  and  OAB_18 
REMARK    7  A    between atoms: CAG_19  and  OAC_20 
ROOT
ATOM      1  CAJ NDZ d   1      -7.253  15.208  20.148  0.00  0.00     0.154 C 
ATOM      2  CAR NDZ d   1      -7.411  15.189  21.676  0.00  0.00     0.000 C 
ATOM      3  OAI NDZ d   1      -8.048  14.122  19.657  0.00  0.00    -0.358 OA
ATOM      4  CAH NDZ d   1      -8.382  13.231  20.716  0.00  0.00     0.092 C 
ATOM      5  CAQ NDZ d   1      -8.500  14.153  21.924  0.00  0.00     0.069 C 
ATOM      6  OAP NDZ d   1      -9.764  14.832  21.994  0.00  0.00    -0.381 OA
ATOM      7  CAO NDZ d   1     -10.915  14.000  21.806  0.00  0.00     0.046 C 
ATOM      8  CAF NDZ d   1     -10.871  13.347  20.426  0.00  0.00     0.083 C 
ATOM      9  CAG NDZ d   1      -9.637  12.459  20.326  0.00  0.00     0.089 C 
ATOM     10  H7  NDZ d   1      -7.720  16.177  22.049  0.00  0.00     0.042 H 
ATOM     11  H8  NDZ d   1      -6.470  14.891  22.162  0.00  0.00     0.042 H 
ATOM     12  H9  NDZ d   1      -7.572  12.507  20.890  0.00  0.00     0.091 H 
ATOM     13  H10 NDZ d   1      -8.327  13.596  22.857  0.00  0.00     0.087 H 
ATOM     14  H11 NDZ d   1     -11.825  14.613  21.890  0.00  0.00     0.078 H 
ATOM     15  H12 NDZ d   1     -10.928  13.217  22.579  0.00  0.00     0.078 H 
ATOM     16  H13 NDZ d   1     -11.771  12.731  20.283  0.00  0.00     0.090 H 
ATOM     17  H15 NDZ d   1      -9.759  11.622  21.029  0.00  0.00     0.091 H 
ENDROOT
BRANCH   1  18
ATOM     18  CB  NDZ d   1      -5.785  15.003  19.773  0.00  0.00     0.010 C 
ATOM     19  H5  NDZ d   1      -5.210  15.852  20.170  0.00  0.00     0.042 H 
ATOM     20  H6  NDZ d   1      -5.439  14.072  20.246  0.00  0.00     0.042 H 
BRANCH  18  21
ATOM     21  CA  NDZ d   1      -5.510  14.903  18.272  0.00  0.00     0.185 C 
ATOM     22  H1  NDZ d   1      -6.082  15.695  17.766  0.00  0.00     0.101 H 
BRANCH  21  23
ATOM     23  C   NDZ d   1      -4.042  15.137  18.025  0.00  0.00     0.204 C 
ATOM     24  O   NDZ d   1      -3.374  14.316  17.348  0.00  0.00    -0.646 OA
ATOM     25  OXT NDZ d   1      -3.544  16.157  18.547  0.00  0.00    -0.646 OA
ENDBRANCH  21  23
BRANCH  21  26
ATOM     26  N   NDZ d   1      -5.923  13.623  17.709  0.00  0.00    -0.065 N 
ATOM     27  H2  NDZ d   1      -6.906  13.481  17.882  0.00  0.00     0.275 HD
ATOM     28  H3  NDZ d   1      -5.395  12.880  18.140  0.00  0.00     0.275 HD
ATOM     29  H4  NDZ d   1      -5.753  13.623  16.715  0.00  0.00     0.275 HD
ENDBRANCH  21  26
ENDBRANCH  18  21
ENDBRANCH   1  18
BRANCH   1  30
ATOM     30  CAD NDZ d   1      -7.823  16.493  19.579  0.00  0.00     0.209 C 
ATOM     31  OAA NDZ d   1      -9.039  16.491  19.239  0.00  0.00    -0.646 OA
ATOM     32  OAE NDZ d   1      -7.059  17.488  19.447  0.00  0.00    -0.646 OA
ENDBRANCH   1  30
BRANCH   9  33
ATOM     33  OAC NDZ d   1      -9.499  11.916  19.000  0.00  0.00    -0.390 OA
ATOM     34  H16 NDZ d   1      -9.415  12.627  18.375  0.00  0.00     0.210 HD
ENDBRANCH   9  33
BRANCH   8  35
ATOM     35  OAB NDZ d   1     -10.838  14.375  19.422  0.00  0.00    -0.391 OA
ATOM     36  H14 NDZ d   1     -10.065  14.913  19.547  0.00  0.00     0.210 HD
ENDBRANCH   8  35
TORSDOF 7
