REMARK WARNING: 32 MAX_TORS EXCEEDED!!!
REMARK  35 active torsions:
REMARK  status: ('A' for Active; 'I' for Inactive)
REMARK    1  A    between atoms: CA_1  and  CB_2 
REMARK    2  A    between atoms: CA_1  and  C_5 
REMARK    3  A    between atoms: CB_2  and  CG1_3 
REMARK    4  A    between atoms: CB_2  and  CG2_4 
REMARK       I    between atoms: C_5  and  N_7 
REMARK    5  A    between atoms: N_7  and  CA_8 
REMARK    6  A    between atoms: CA_8  and  C_9 
REMARK    7  A    between atoms: CA_8  and  CB_11 
REMARK       I    between atoms: C_9  and  N_14 
REMARK    8  A    between atoms: CB_11  and  CG1_12 
REMARK    9  A    between atoms: CB_11  and  CG2_13 
REMARK   10  A    between atoms: N_14  and  CA_15 
REMARK   11  A    between atoms: CA_15  and  C_16 
REMARK   12  A    between atoms: CA_15  and  CB_18 
REMARK       I    between atoms: C_16  and  N_21 
REMARK   13  A    between atoms: CB_18  and  CG1_19 
REMARK   14  A    between atoms: CB_18  and  CG2_20 
REMARK   15  A    between atoms: N_21  and  CA_22 
REMARK   16  A    between atoms: CA_22  and  CB_23 
REMARK   17  A    between atoms: CA_22  and  CH_27 
REMARK   18  A    between atoms: CB_23  and  CG_24 
REMARK   19  A    between atoms: CG_24  and  CD1_25 
REMARK   20  A    between atoms: CG_24  and  CD2_26 
REMARK   21  A    between atoms: CH_27  and  OH_28 
REMARK   22  A    between atoms: CH_27  and  CM_29 
REMARK   23  A    between atoms: CM_29  and  C_30 
REMARK       I    between atoms: C_30  and  N_32 
REMARK   24  A    between atoms: N_32  and  CA_33 
REMARK   25  A    between atoms: CA_33  and  C_34 
REMARK   26  A    between atoms: CA_33  and  CB_36 
REMARK       I    between atoms: C_34  and  N_37 
REMARK   27  A    between atoms: N_37  and  CA_38 
REMARK   28  A    between atoms: CA_38  and  CB_39 
REMARK   29  A    between atoms: CA_38  and  CH_43 
REMARK   30  A    between atoms: CB_39  and  CG_40 
REMARK   31  A    between atoms: CG_40  and  CD1_41 
REMARK   32  A    between atoms: CG_40  and  CD2_42 
REMARK   33  A    between atoms: CH_43  and  OH_44 
REMARK   34  A    between atoms: CH_43  and  CM_45 
REMARK   35  A    between atoms: CM_45  and  C_46 
ROOT
ATOM      1  CA  STA d   1      21.002  21.887  59.820  0.00  0.00     0.037 C 
ATOM      2  H29 STA d   1      19.982  21.667  60.166  0.00  0.00     0.076 H 
ENDROOT
BRANCH   1   3
ATOM      3  N   STA d   1      20.983  23.146  59.066  0.00  0.00    -0.352 N 
ATOM      4  C   VAL d   1      19.863  23.775  58.720  0.00  0.00     0.241 C 
ATOM      5  O   VAL d   1      18.740  23.435  59.047  0.00  0.00    -0.271 OA
ATOM      6  H28 STA d   1      21.857  23.552  58.799  0.00  0.00     0.163 HD
BRANCH   4   7
ATOM      7  CA  VAL d   1      20.003  24.952  57.804  0.00  0.00     0.092 C 
ATOM      8  H20 VAL d   1      21.066  25.216  57.706  0.00  0.00     0.088 H 
BRANCH   7   9
ATOM      9  N   VAL d   1      19.480  24.532  56.490  0.00  0.00    -0.346 N 
ATOM     10  C   VAL d   1      20.104  24.853  55.358  0.00  0.00     0.241 C 
ATOM     11  O   VAL d   1      21.057  25.620  55.289  0.00  0.00    -0.271 OA
ATOM     12  H19 VAL d   1      18.638  23.994  56.448  0.00  0.00     0.163 HD
BRANCH  10  13
ATOM     13  CA  VAL d   1      19.582  24.200  54.097  0.00  0.00     0.092 C 
ATOM     14  H11 VAL d   1      18.482  24.201  54.122  0.00  0.00     0.088 H 
BRANCH  13  15
ATOM     15  N   VAL d   1      20.021  24.972  52.942  0.00  0.00    -0.347 N 
ATOM     16  C   IVA d   1      19.157  25.424  52.036  0.00  0.00     0.218 C 
ATOM     17  O   IVA d   1      17.954  25.187  52.104  0.00  0.00    -0.274 OA
ATOM     18  H10 VAL d   1      20.995  25.167  52.827  0.00  0.00     0.163 HD
BRANCH  16  19
ATOM     19  CA  IVA d   1      19.760  26.234  50.901  0.00  0.00     0.012 C 
ATOM     20  H1  IVA d   1      20.795  26.498  51.162  0.00  0.00     0.047 H 
ATOM     21  H2  IVA d   1      19.757  25.623  49.986  0.00  0.00     0.047 H 
BRANCH  19  22
ATOM     22  CB  IVA d   1      18.976  27.510  50.644  0.00  0.00    -0.053 C 
ATOM     23  H3  IVA d   1      17.926  27.237  50.463  0.00  0.00     0.039 H 
BRANCH  22  24
ATOM     24  CG1 IVA d   1      19.028  28.453  51.840  0.00  0.00    -0.073 C 
ATOM     25  H4  IVA d   1      18.451  29.362  51.616  0.00  0.00     0.028 H 
ATOM     26  H5  IVA d   1      20.073  28.725  52.048  0.00  0.00     0.028 H 
ATOM     27  H6  IVA d   1      18.597  27.953  52.720  0.00  0.00     0.028 H 
ENDBRANCH  22  24
BRANCH  22  28
ATOM     28  CG2 IVA d   1      19.512  28.222  49.410  0.00  0.00    -0.073 C 
ATOM     29  H7  IVA d   1      19.474  27.540  48.548  0.00  0.00     0.028 H 
ATOM     30  H8  IVA d   1      20.553  28.530  49.588  0.00  0.00     0.028 H 
ATOM     31  H9  IVA d   1      18.897  29.110  49.203  0.00  0.00     0.028 H 
ENDBRANCH  22  28
ENDBRANCH  19  22
ENDBRANCH  16  19
ENDBRANCH  13  15
BRANCH  13  32
ATOM     32  CB  VAL d   1      20.069  22.738  54.029  0.00  0.00    -0.033 C 
ATOM     33  H12 VAL d   1      19.779  22.265  54.979  0.00  0.00     0.042 H 
BRANCH  32  34
ATOM     34  CG1 VAL d   1      19.384  21.960  52.888  0.00  0.00    -0.071 C 
ATOM     35  H13 VAL d   1      19.758  20.925  52.874  0.00  0.00     0.028 H 
ATOM     36  H14 VAL d   1      19.610  22.445  51.927  0.00  0.00     0.028 H 
ATOM     37  H15 VAL d   1      18.296  21.955  53.049  0.00  0.00     0.028 H 
ENDBRANCH  32  34
BRANCH  32  38
ATOM     38  CG2 VAL d   1      21.595  22.581  53.889  0.00  0.00    -0.071 C 
ATOM     39  H16 VAL d   1      22.096  23.132  54.698  0.00  0.00     0.028 H 
ATOM     40  H17 VAL d   1      21.917  22.983  52.917  0.00  0.00     0.028 H 
ATOM     41  H18 VAL d   1      21.861  21.516  53.952  0.00  0.00     0.028 H 
ENDBRANCH  32  38
ENDBRANCH  13  32
ENDBRANCH  10  13
ENDBRANCH   7   9
BRANCH   7  42
ATOM     42  CB  VAL d   1      19.246  26.172  58.350  0.00  0.00    -0.033 C 
ATOM     43  H21 VAL d   1      18.191  25.884  58.467  0.00  0.00     0.042 H 
BRANCH  42  44
ATOM     44  CG1 VAL d   1      19.800  26.575  59.728  0.00  0.00    -0.071 C 
ATOM     45  H22 VAL d   1      19.248  27.449  60.104  0.00  0.00     0.028 H 
ATOM     46  H23 VAL d   1      20.866  26.828  59.635  0.00  0.00     0.028 H 
ATOM     47  H24 VAL d   1      19.682  25.737  60.430  0.00  0.00     0.028 H 
ENDBRANCH  42  44
BRANCH  42  48
ATOM     48  CG2 VAL d   1      19.303  27.388  57.423  0.00  0.00    -0.071 C 
ATOM     49  H25 VAL d   1      18.909  27.113  56.433  0.00  0.00     0.028 H 
ATOM     50  H26 VAL d   1      20.346  27.724  57.322  0.00  0.00     0.028 H 
ATOM     51  H27 VAL d   1      18.695  28.201  57.847  0.00  0.00     0.028 H 
ENDBRANCH  42  48
ENDBRANCH   7  42
ENDBRANCH   4   7
ENDBRANCH   1   3
BRANCH   1  52
ATOM     52  CB  STA d   1      21.504  20.723  58.920  0.00  0.00    -0.041 C 
ATOM     53  H30 STA d   1      21.376  19.777  59.466  0.00  0.00     0.036 H 
ATOM     54  H31 STA d   1      22.571  20.881  58.705  0.00  0.00     0.036 H 
BRANCH  52  55
ATOM     55  CG  STA d   1      20.740  20.628  57.582  0.00  0.00    -0.059 C 
ATOM     56  H32 STA d   1      20.694  21.630  57.129  0.00  0.00     0.038 H 
BRANCH  55  57
ATOM     57  CD1 STA d   1      21.521  19.689  56.632  0.00  0.00    -0.073 C 
ATOM     58  H33 STA d   1      20.988  19.611  55.673  0.00  0.00     0.028 H 
ATOM     59  H34 STA d   1      21.602  18.691  57.088  0.00  0.00     0.028 H 
ATOM     60  H35 STA d   1      22.528  20.097  56.460  0.00  0.00     0.028 H 
ENDBRANCH  55  57
BRANCH  55  61
ATOM     61  CD2 STA d   1      19.314  20.135  57.797  0.00  0.00    -0.073 C 
ATOM     62  H36 STA d   1      18.787  20.822  58.475  0.00  0.00     0.028 H 
ATOM     63  H37 STA d   1      19.337  19.128  58.240  0.00  0.00     0.028 H 
ATOM     64  H38 STA d   1      18.789  20.099  56.831  0.00  0.00     0.028 H 
ENDBRANCH  55  61
ENDBRANCH  52  55
ENDBRANCH   1  52
BRANCH   1  65
ATOM     65  CH  STA d   1      21.938  21.984  61.032  0.00  0.00     0.063 C 
ATOM     66  H39 STA d   1      21.972  21.000  61.523  0.00  0.00     0.086 H 
BRANCH  65  67
ATOM     67  OH  STA d   1      23.248  22.349  60.595  0.00  0.00    -0.393 OA
ATOM     68  H40 STA d   1      23.826  22.409  61.346  0.00  0.00     0.210 HD
ENDBRANCH  65  67
BRANCH  65  69
ATOM     69  CM  STA d   1      21.499  23.036  62.060  0.00  0.00     0.035 C 
ATOM     70  H41 STA d   1      21.188  23.949  61.532  0.00  0.00     0.051 H 
ATOM     71  H42 STA d   1      22.345  23.266  62.724  0.00  0.00     0.051 H 
BRANCH  69  72
ATOM     72  C   STA d   1      20.339  22.523  62.891  0.00  0.00     0.220 C 
ATOM     73  O   STA d   1      19.192  22.663  62.484  0.00  0.00    -0.274 OA
ATOM     74  N   ALA d   1      20.650  21.956  64.075  0.00  0.00    -0.348 N 
ATOM     75  H43 ALA d   1      21.602  21.711  64.261  0.00  0.00     0.163 HD
BRANCH  74  76
ATOM     76  CA  ALA d   1      19.644  21.691  65.086  0.00  0.00     0.086 C 
ATOM     77  H44 ALA d   1      18.648  21.697  64.619  0.00  0.00     0.086 H 
BRANCH  76  78
ATOM     78  C   ALA d   1      19.711  22.797  66.098  0.00  0.00     0.240 C 
ATOM     79  O   ALA d   1      20.714  22.934  66.803  0.00  0.00    -0.271 OA
ATOM     80  N   STA d   1      18.676  23.631  66.092  0.00  0.00    -0.352 N 
ATOM     81  H48 STA d   1      17.822  23.350  65.654  0.00  0.00     0.163 HD
BRANCH  80  82
ATOM     82  CA  STA d   1      18.763  24.950  66.713  0.00  0.00     0.038 C 
ATOM     83  H49 STA d   1      19.800  25.128  67.035  0.00  0.00     0.076 H 
BRANCH  82  84
ATOM     84  CB  STA d   1      18.372  26.045  65.725  0.00  0.00    -0.041 C 
ATOM     85  H50 STA d   1      18.533  27.015  66.219  0.00  0.00     0.036 H 
ATOM     86  H51 STA d   1      17.303  25.923  65.496  0.00  0.00     0.036 H 
BRANCH  84  87
ATOM     87  CG  STA d   1      19.137  26.066  64.391  0.00  0.00    -0.059 C 
ATOM     88  H52 STA d   1      18.886  25.152  63.833  0.00  0.00     0.038 H 
BRANCH  87  89
ATOM     89  CD1 STA d   1      18.660  27.298  63.622  0.00  0.00    -0.073 C 
ATOM     90  H53 STA d   1      19.184  27.353  62.656  0.00  0.00     0.028 H 
ATOM     91  H54 STA d   1      18.877  28.203  64.209  0.00  0.00     0.028 H 
ATOM     92  H55 STA d   1      17.576  27.225  63.448  0.00  0.00     0.028 H 
ENDBRANCH  87  89
BRANCH  87  93
ATOM     93  CD2 STA d   1      20.655  26.159  64.500  0.00  0.00    -0.073 C 
ATOM     94  H56 STA d   1      21.037  25.286  65.050  0.00  0.00     0.028 H 
ATOM     95  H57 STA d   1      20.928  27.079  65.037  0.00  0.00     0.028 H 
ATOM     96  H58 STA d   1      21.095  26.179  63.492  0.00  0.00     0.028 H 
ENDBRANCH  87  93
ENDBRANCH  84  87
ENDBRANCH  82  84
BRANCH  82  97
ATOM     97  CH  STA d   1      17.848  24.952  67.950  0.00  0.00     0.064 C 
ATOM     98  H59 STA d   1      16.827  24.729  67.606  0.00  0.00     0.086 H 
BRANCH  97  99
ATOM     99  OH  STA d   1      18.264  23.922  68.873  0.00  0.00    -0.393 OA
ATOM    100  H60 STA d   1      19.159  24.085  69.145  0.00  0.00     0.210 HD
ENDBRANCH  97  99
BRANCH  97 101
ATOM    101  CM  STA d   1      17.806  26.275  68.712  0.00  0.00     0.041 C 
ATOM    102  H61 STA d   1      17.472  27.085  68.047  0.00  0.00     0.053 H 
ATOM    103  H62 STA d   1      18.803  26.515  69.111  0.00  0.00     0.053 H 
BRANCH 101 104
ATOM    104  C   STA d   1      16.810  26.090  69.859  0.00  0.00     0.175 C 
ATOM    105  O   STA d   1      17.231  26.232  71.031  0.00  0.00    -0.648 OA
ATOM    106  OXT STA d   1      15.605  25.780  69.616  0.00  0.00    -0.648 OA
ENDBRANCH 101 104
ENDBRANCH  97 101
ENDBRANCH  82  97
ENDBRANCH  80  82
ENDBRANCH  76  78
BRANCH  76 107
ATOM    107  CB  ALA d   1      19.878  20.311  65.708  0.00  0.00    -0.049 C 
ATOM    108  H45 ALA d   1      19.111  20.119  66.473  0.00  0.00     0.030 H 
ATOM    109  H46 ALA d   1      20.875  20.282  66.173  0.00  0.00     0.030 H 
ATOM    110  H47 ALA d   1      19.816  19.541  64.925  0.00  0.00     0.030 H 
ENDBRANCH  76 107
ENDBRANCH  74  76
ENDBRANCH  69  72
ENDBRANCH  65  69
ENDBRANCH   1  65
TORSDOF 35
