REMARK  6 active torsions:
REMARK  status: ('A' for Active; 'I' for Inactive)
REMARK    1  A    between atoms: C_2  and  CA_4 
REMARK    2  A    between atoms: CA_4  and  N_5 
REMARK    3  A    between atoms: CA_4  and  CB_6 
REMARK    4  A    between atoms: CB_6  and  CAS_7 
REMARK    5  A    between atoms: CAS_7  and  CAN_9 
REMARK    6  A    between atoms: CAP_16  and  OAF_17 
ROOT
ATOM      1  CAS 8DX d   1      -7.358  15.389  20.280  0.00  0.00     0.154 C 
ATOM      2  CAJ 8DX d   1      -7.552  15.455  21.796  0.00  0.00     0.000 C 
ATOM      3  OAL 8DX d   1      -8.133  14.270  19.820  0.00  0.00    -0.361 OA
ATOM      4  CAR 8DX d   1      -8.468  13.438  20.920  0.00  0.00     0.067 C 
ATOM      5  CAQ 8DX d   1      -8.602  14.404  22.083  0.00  0.00     0.067 C 
ATOM      6  CAH 8DX d   1      -9.724  12.626  20.591  0.00  0.00    -0.013 C 
ATOM      7  CAP 8DX d   1     -10.983  13.483  20.644  0.00  0.00     0.058 C 
ATOM      8  CAG 8DX d   1     -11.005  14.153  22.006  0.00  0.00     0.044 C 
ATOM      9  OAK 8DX d   1      -9.886  15.041  22.092  0.00  0.00    -0.381 OA
ATOM     10  H7  8DX d   1      -7.904  16.451  22.101  0.00  0.00     0.042 H 
ATOM     11  H8  8DX d   1      -6.613  15.222  22.320  0.00  0.00     0.042 H 
ATOM     12  H9  8DX d   1      -7.651  12.732  21.129  0.00  0.00     0.087 H 
ATOM     13  H10 8DX d   1      -8.422  13.897  23.043  0.00  0.00     0.087 H 
ATOM     14  H11 8DX d   1      -9.820  11.808  21.320  0.00  0.00     0.040 H 
ATOM     15  H12 8DX d   1      -9.622  12.206  19.579  0.00  0.00     0.040 H 
ATOM     16  H13 8DX d   1     -11.874  12.853  20.508  0.00  0.00     0.086 H 
ATOM     17  H15 8DX d   1     -10.935  13.391  22.796  0.00  0.00     0.078 H 
ATOM     18  H16 8DX d   1     -11.940  14.721  22.125  0.00  0.00     0.078 H 
ENDROOT
BRANCH   1  19
ATOM     19  CB  8DX d   1      -5.897  15.129  19.910  0.00  0.00     0.010 C 
ATOM     20  H5  8DX d   1      -5.290  15.957  20.305  0.00  0.00     0.042 H 
ATOM     21  H6  8DX d   1      -5.585  14.187  20.384  0.00  0.00     0.042 H 
BRANCH  19  22
ATOM     22  CA  8DX d   1      -5.630  15.017  18.398  0.00  0.00     0.185 C 
ATOM     23  H1  8DX d   1      -6.198  15.803  17.879  0.00  0.00     0.101 H 
BRANCH  22  24
ATOM     24  C   8DX d   1      -4.157  15.226  18.178  0.00  0.00     0.204 C 
ATOM     25  O   8DX d   1      -3.669  16.269  18.656  0.00  0.00    -0.646 OA
ATOM     26  OXT 8DX d   1      -3.486  14.394  17.522  0.00  0.00    -0.646 OA
ENDBRANCH  22  24
BRANCH  22  27
ATOM     27  N   8DX d   1      -6.011  13.719  17.837  0.00  0.00    -0.065 N 
ATOM     28  H2  8DX d   1      -6.997  13.568  17.979  0.00  0.00     0.275 HD
ATOM     29  H3  8DX d   1      -5.490  12.989  18.296  0.00  0.00     0.275 HD
ATOM     30  H4  8DX d   1      -5.808  13.707  16.850  0.00  0.00     0.275 HD
ENDBRANCH  22  27
ENDBRANCH  19  22
ENDBRANCH   1  19
BRANCH   1  31
ATOM     31  CAN 8DX d   1      -7.917  16.653  19.651  0.00  0.00     0.209 C 
ATOM     32  OAC 8DX d   1      -9.108  16.630  19.246  0.00  0.00    -0.646 OA
ATOM     33  OAE 8DX d   1      -7.169  17.652  19.557  0.00  0.00    -0.646 OA
ENDBRANCH   1  31
BRANCH   7  34
ATOM     34  OAF 8DX d   1     -10.955  14.507  19.642  0.00  0.00    -0.393 OA
ATOM     35  H14 8DX d   1     -10.200  15.067  19.784  0.00  0.00     0.210 HD
ENDBRANCH   7  34
TORSDOF 6
