REMARK  7 active torsions:
REMARK  status: ('A' for Active; 'I' for Inactive)
REMARK    1  A    between atoms: CAG_6  and  CAD_7 
REMARK    2  A    between atoms: CAD_7  and  CAB_8 
REMARK    3  A    between atoms: CAB_8  and  CAC_9 
REMARK    4  A    between atoms: CAB_8  and  CAA_12 
REMARK    5  A    between atoms: CAA_12  and  CAE_13 
REMARK    6  A    between atoms: CAE_13  and  CAF_15 
REMARK    7  A    between atoms: CAF_15  and  OAP_16 
ROOT
ATOM      1  CAB BHK d   1     -23.866   0.441  -8.950  0.00  0.00     0.041 C 
ATOM      2  H8  BHK d   1     -23.870  -0.574  -8.527  0.00  0.00     0.057 H 
ENDROOT
BRANCH   1   3
ATOM      3  CAD BHK d   1     -24.710   1.374  -8.079  0.00  0.00    -0.028 C 
ATOM      4  H6  BHK d   1     -24.201   1.507  -7.113  0.00  0.00     0.041 H 
ATOM      5  H7  BHK d   1     -24.794   2.346  -8.587  0.00  0.00     0.041 H 
BRANCH   3   6
ATOM      6  CAG BHK d   1     -26.120   0.837  -7.817  0.00  0.00    -0.057 A 
ATOM      7  CAH BHK d   1     -27.000   0.611  -8.869  0.00  0.00    -0.077 A 
ATOM      8  CAI BHK d   1     -28.291   0.158  -8.617  0.00  0.00    -0.082 A 
ATOM      9  H1  BHK d   1     -26.679   0.788  -9.889  0.00  0.00     0.084 H 
ATOM     10  CAJ BHK d   1     -28.703  -0.069  -7.309  0.00  0.00    -0.083 A 
ATOM     11  H2  BHK d   1     -28.975  -0.018  -9.440  0.00  0.00     0.083 H 
ATOM     12  CAK BHK d   1     -27.824   0.155  -6.255  0.00  0.00    -0.082 A 
ATOM     13  H3  BHK d   1     -29.709  -0.420  -7.111  0.00  0.00     0.083 H 
ATOM     14  CAL BHK d   1     -26.533   0.606  -6.510  0.00  0.00    -0.077 A 
ATOM     15  H4  BHK d   1     -28.145  -0.022  -5.235  0.00  0.00     0.083 H 
ATOM     16  H5  BHK d   1     -25.848   0.778  -5.688  0.00  0.00     0.084 H 
ENDBRANCH   3   6
ENDBRANCH   1   3
BRANCH   1  17
ATOM     17  CAC BHK d   1     -24.428   0.413 -10.374  0.00  0.00     0.177 C 
ATOM     18  OAN BHK d   1     -24.682  -0.709 -10.864  0.00  0.00    -0.648 OA
ATOM     19  OAM BHK d   1     -24.594   1.515 -10.939  0.00  0.00    -0.648 OA
ENDBRANCH   1  17
BRANCH   1  20
ATOM     20  CAA BHK d   1     -22.437   0.988  -8.994  0.00  0.00     0.005 C 
ATOM     21  H9  BHK d   1     -22.058   1.075  -7.965  0.00  0.00     0.045 H 
ATOM     22  H10 BHK d   1     -22.452   1.982  -9.464  0.00  0.00     0.045 H 
BRANCH  20  23
ATOM     23  CAE BHK d   1     -21.498   0.078  -9.791  0.00  0.00     0.150 C 
ATOM     24  OAO BHK d   1     -21.171  -1.022  -9.350  0.00  0.00    -0.296 OA
BRANCH  23  25
ATOM     25  CAF BHK d   1     -20.949   0.564 -11.135  0.00  0.00     0.071 C 
ATOM     26  H11 BHK d   1     -20.919   1.664 -11.135  0.00  0.00     0.085 H 
ATOM     27  H12 BHK d   1     -21.611   0.216 -11.941  0.00  0.00     0.085 H 
BRANCH  25  28
ATOM     28  OAP BHK d   1     -19.630   0.060 -11.363  0.00  0.00    -0.394 OA
ATOM     29  H13 BHK d   1     -19.652  -0.890 -11.368  0.00  0.00     0.209 HD
ENDBRANCH  25  28
ENDBRANCH  23  25
ENDBRANCH  20  23
ENDBRANCH   1  20
TORSDOF 7
