REMARK  6 active torsions:
REMARK  status: ('A' for Active; 'I' for Inactive)
REMARK    1  A    between atoms: CAN_2  and  CAS_4 
REMARK    2  A    between atoms: CAS_4  and  CB_5 
REMARK    3  A    between atoms: CB_5  and  CA_6 
REMARK    4  A    between atoms: CA_6  and  N_7 
REMARK    5  A    between atoms: CA_6  and  C_8 
REMARK    6  A    between atoms: CAP_13  and  OAF_14 
ROOT
ATOM      1  CAS 9DX d   1      -7.270  15.458  20.161  0.00  0.00     0.154 C 
ATOM      2  OAL 9DX d   1      -8.070  14.316  19.784  0.00  0.00    -0.358 OA
ATOM      3  CAR 9DX d   1      -8.790  13.813  20.889  0.00  0.00     0.090 C 
ATOM      4  CAP 9DX d   1     -10.251  13.593  20.477  0.00  0.00     0.065 C 
ATOM      5  CAH 9DX d   1     -11.193  13.749  21.684  0.00  0.00    -0.019 C 
ATOM      6  CAG 9DX d   1     -11.060  15.175  22.304  0.00  0.00     0.022 C 
ATOM      7  OAK 9DX d   1      -9.821  15.788  21.897  0.00  0.00    -0.383 OA
ATOM      8  CAQ 9DX d   1      -8.682  14.889  21.962  0.00  0.00     0.069 C 
ATOM      9  CAJ 9DX d   1      -7.436  15.659  21.669  0.00  0.00     0.000 C 
ATOM     10  H7  9DX d   1      -8.356  12.867  21.245  0.00  0.00     0.091 H 
ATOM     11  H8  9DX d   1     -10.343  12.586  20.044  0.00  0.00     0.087 H 
ATOM     12  H10 9DX d   1     -10.933  12.998  22.445  0.00  0.00     0.040 H 
ATOM     13  H11 9DX d   1     -12.231  13.593  21.355  0.00  0.00     0.040 H 
ATOM     14  H12 9DX d   1     -11.082  15.096  23.401  0.00  0.00     0.074 H 
ATOM     15  H13 9DX d   1     -11.901  15.797  21.964  0.00  0.00     0.074 H 
ATOM     16  H14 9DX d   1      -8.627  14.429  22.960  0.00  0.00     0.087 H 
ATOM     17  H15 9DX d   1      -7.559  16.724  21.917  0.00  0.00     0.042 H 
ATOM     18  H16 9DX d   1      -6.577  15.251  22.221  0.00  0.00     0.042 H 
ENDROOT
BRANCH   1  19
ATOM     19  CAN 9DX d   1      -7.773  16.738  19.451  0.00  0.00     0.209 C 
ATOM     20  OAC 9DX d   1      -7.056  17.767  19.497  0.00  0.00    -0.646 OA
ATOM     21  OAE 9DX d   1      -8.881  16.696  18.879  0.00  0.00    -0.646 OA
ENDBRANCH   1  19
BRANCH   1  22
ATOM     22  CB  9DX d   1      -5.813  15.190  19.851  0.00  0.00     0.010 C 
ATOM     23  H1  9DX d   1      -5.533  14.231  20.311  0.00  0.00     0.042 H 
ATOM     24  H2  9DX d   1      -5.212  15.998  20.293  0.00  0.00     0.042 H 
BRANCH  22  25
ATOM     25  CA  9DX d   1      -5.493  15.116  18.353  0.00  0.00     0.185 C 
ATOM     26  H3  9DX d   1      -6.053  15.909  17.836  0.00  0.00     0.101 H 
BRANCH  25  27
ATOM     27  N   9DX d   1      -5.884  13.797  17.758  0.00  0.00    -0.065 N 
ATOM     28  H4  9DX d   1      -5.657  13.791  16.776  0.00  0.00     0.275 HD
ATOM     29  H5  9DX d   1      -6.875  13.656  17.875  0.00  0.00     0.275 HD
ATOM     30  H6  9DX d   1      -5.383  13.057  18.223  0.00  0.00     0.275 HD
ENDBRANCH  25  27
BRANCH  25  31
ATOM     31  C   9DX d   1      -4.027  15.348  18.155  0.00  0.00     0.204 C 
ATOM     32  OXT 9DX d   1      -3.518  16.388  18.622  0.00  0.00    -0.646 OA
ATOM     33  O   9DX d   1      -3.360  14.493  17.489  0.00  0.00    -0.646 OA
ENDBRANCH  25  31
ENDBRANCH  22  25
ENDBRANCH   1  22
BRANCH   4  34
ATOM     34  OAF 9DX d   1     -10.739  14.567  19.553  0.00  0.00    -0.393 OA
ATOM     35  H9  9DX d   1     -10.682  15.430  19.945  0.00  0.00     0.210 HD
ENDBRANCH   4  34
TORSDOF 6
