REMARK  26 active torsions:
REMARK  status: ('A' for Active; 'I' for Inactive)
REMARK    1  A    between atoms: C_1  and  CH3_3 
REMARK       I    between atoms: C_1  and  N_4 
REMARK    2  A    between atoms: N_4  and  CA_5 
REMARK    3  A    between atoms: CA_5  and  C_6 
REMARK    4  A    between atoms: CA_5  and  CB_8 
REMARK       I    between atoms: C_6  and  N_12 
REMARK    5  A    between atoms: CB_8  and  CG_9 
REMARK    6  A    between atoms: CG_9  and  SD_10 
REMARK    7  A    between atoms: SD_10  and  CE_11 
REMARK    8  A    between atoms: N_12  and  CA_13 
REMARK    9  A    between atoms: CA_13  and  C_14 
REMARK   10  A    between atoms: CA_13  and  CB_16 
REMARK       I    between atoms: C_14  and  N_21 
REMARK   11  A    between atoms: CB_16  and  CG_17 
REMARK   12  A    between atoms: CG_17  and  CD_18 
REMARK   13  A    between atoms: N_21  and  CA_22 
REMARK   14  A    between atoms: CA_22  and  C_23 
REMARK   15  A    between atoms: CA_22  and  CB_25 
REMARK       I    between atoms: C_23  and  N_30 
REMARK   16  A    between atoms: CB_25  and  CG_26 
REMARK   17  A    between atoms: CG_26  and  CD_27 
REMARK   18  A    between atoms: N_30  and  CA_31 
REMARK   19  A    between atoms: CA_31  and  C_32 
REMARK   20  A    between atoms: CA_31  and  CB_34 
REMARK       I    between atoms: C_32  and  N_37 
REMARK   21  A    between atoms: CB_34  and  CG1_35 
REMARK   22  A    between atoms: CB_34  and  CG2_36 
REMARK   23  A    between atoms: N_37  and  CA_38 
REMARK   24  A    between atoms: CA_38  and  C_39 
REMARK   25  A    between atoms: CA_38  and  CB_41 
REMARK   26  A    between atoms: CB_41  and  CG_42 
ROOT
ATOM      1  CA  GLU d   1     -19.271  10.035   3.129  0.00  0.00     0.090 C 
ATOM      2  H20 GLU d   1     -20.191   9.452   3.284  0.00  0.00     0.087 H 
ENDROOT
BRANCH   1   3
ATOM      3  N   GLU d   1     -18.455   9.329   2.135  0.00  0.00    -0.346 N 
ATOM      4  C   GLU d   1     -18.982   8.893   1.004  0.00  0.00     0.241 C 
ATOM      5  O   GLU d   1     -20.174   9.036   0.719  0.00  0.00    -0.271 OA
ATOM      6  H19 GLU d   1     -17.484   9.175   2.316  0.00  0.00     0.163 HD
BRANCH   4   7
ATOM      7  CA  GLU d   1     -18.017   8.208   0.046  0.00  0.00     0.090 C 
ATOM      8  H14 GLU d   1     -17.117   7.896   0.596  0.00  0.00     0.087 H 
BRANCH   7   9
ATOM      9  N   GLU d   1     -18.668   7.038  -0.511  0.00  0.00    -0.346 N 
ATOM     10  C   MET d   1     -19.162   6.074   0.242  0.00  0.00     0.241 C 
ATOM     11  O   MET d   1     -18.987   5.981   1.463  0.00  0.00    -0.271 OA
ATOM     12  H13 GLU d   1     -18.745   6.959  -1.505  0.00  0.00     0.163 HD
BRANCH  10  13
ATOM     13  CA  MET d   1     -19.971   5.056  -0.539  0.00  0.00     0.090 C 
ATOM     14  H5  MET d   1     -19.492   4.906  -1.518  0.00  0.00     0.087 H 
BRANCH  13  15
ATOM     15  N   MET d   1     -20.021   3.759   0.146  0.00  0.00    -0.348 N 
ATOM     16  C   ACE d   1     -18.991   2.930   0.224  0.00  0.00     0.214 C 
ATOM     17  O   ACE d   1     -19.076   1.942   0.945  0.00  0.00    -0.274 OA
ATOM     18  H4  MET d   1     -20.881   3.486   0.578  0.00  0.00     0.163 HD
BRANCH  16  19
ATOM     19  CH3 ACE d   1     -17.884   3.075  -0.776  0.00  0.00    -0.003 C 
ATOM     20  H1  ACE d   1     -17.997   4.029  -1.312  0.00  0.00     0.040 H 
ATOM     21  H2  ACE d   1     -17.927   2.243  -1.494  0.00  0.00     0.040 H 
ATOM     22  H3  ACE d   1     -16.915   3.060  -0.255  0.00  0.00     0.040 H 
ENDBRANCH  16  19
ENDBRANCH  13  15
BRANCH  13  23
ATOM     23  CB  MET d   1     -21.386   5.616  -0.764  0.00  0.00    -0.030 C 
ATOM     24  H6  MET d   1     -21.298   6.544  -1.348  0.00  0.00     0.037 H 
ATOM     25  H7  MET d   1     -21.825   5.842   0.219  0.00  0.00     0.037 H 
BRANCH  23  26
ATOM     26  CG  MET d   1     -22.343   4.673  -1.508  0.00  0.00    -0.021 C 
ATOM     27  H8  MET d   1     -22.384   3.714  -0.971  0.00  0.00     0.049 H 
ATOM     28  H9  MET d   1     -21.957   4.508  -2.525  0.00  0.00     0.049 H 
BRANCH  26  29
ATOM     29  SD  MET d   1     -24.019   5.348  -1.623  0.00  0.00    -0.173 SA
BRANCH  29  30
ATOM     30  CE  MET d   1     -23.841   6.532  -2.963  0.00  0.00    -0.035 C 
ATOM     31  H10 MET d   1     -24.806   7.028  -3.145  0.00  0.00     0.041 H 
ATOM     32  H11 MET d   1     -23.521   6.008  -3.875  0.00  0.00     0.041 H 
ATOM     33  H12 MET d   1     -23.088   7.285  -2.689  0.00  0.00     0.041 H 
ENDBRANCH  29  30
ENDBRANCH  26  29
ENDBRANCH  23  26
ENDBRANCH  13  23
ENDBRANCH  10  13
ENDBRANCH   7   9
BRANCH   7  34
ATOM     34  CB  GLU d   1     -17.610   9.176  -1.074  0.00  0.00    -0.029 C 
ATOM     35  H15 GLU d   1     -17.233  10.101  -0.614  0.00  0.00     0.037 H 
ATOM     36  H16 GLU d   1     -18.501   9.403  -1.677  0.00  0.00     0.037 H 
BRANCH  34  37
ATOM     37  CG  GLU d   1     -16.537   8.628  -1.993  0.00  0.00     0.018 C 
ATOM     38  H17 GLU d   1     -16.365   9.351  -2.804  0.00  0.00     0.049 H 
ATOM     39  H18 GLU d   1     -16.889   7.676  -2.418  0.00  0.00     0.049 H 
BRANCH  37  40
ATOM     40  CD  GLU d   1     -15.228   8.384  -1.276  0.00  0.00     0.172 C 
ATOM     41  OE1 GLU d   1     -14.589   9.360  -0.849  0.00  0.00    -0.648 OA
ATOM     42  OE2 GLU d   1     -14.833   7.209  -1.146  0.00  0.00    -0.648 OA
ENDBRANCH  37  40
ENDBRANCH  34  37
ENDBRANCH   7  34
ENDBRANCH   4   7
ENDBRANCH   1   3
BRANCH   1  43
ATOM     43  C   GLU d   1     -19.647  11.417   2.677  0.00  0.00     0.241 C 
ATOM     44  O   GLU d   1     -18.827  12.161   2.135  0.00  0.00    -0.271 OA
ATOM     45  N   VAL d   1     -20.890  11.756   2.967  0.00  0.00    -0.346 N 
ATOM     46  H25 VAL d   1     -21.516  11.051   3.300  0.00  0.00     0.163 HD
BRANCH  45  47
ATOM     47  CA  VAL d   1     -21.382  13.119   2.819  0.00  0.00     0.092 C 
ATOM     48  H26 VAL d   1     -20.604  13.708   2.311  0.00  0.00     0.088 H 
BRANCH  47  49
ATOM     49  C   VAL d   1     -21.623  13.726   4.199  0.00  0.00     0.241 C 
ATOM     50  O   VAL d   1     -21.967  13.036   5.155  0.00  0.00    -0.271 OA
ATOM     51  N   PHE d   1     -21.407  15.031   4.284  0.00  0.00    -0.344 N 
ATOM     52  H34 PHE d   1     -21.206  15.546   3.451  0.00  0.00     0.163 HD
BRANCH  51  53
ATOM     53  CA  PHE d   1     -21.455  15.735   5.559  0.00  0.00     0.100 C 
ATOM     54  H35 PHE d   1     -21.647  15.001   6.356  0.00  0.00     0.090 H 
BRANCH  53  55
ATOM     55  C   PHE d   1     -22.583  16.760   5.582  0.00  0.00     0.197 C 
ATOM     56  O   PHE d   1     -22.772  17.442   6.595  0.00  0.00    -0.646 OA
ATOM     57  OXT PHE d   1     -23.325  16.901   4.595  0.00  0.00    -0.646 OA
ENDBRANCH  53  55
BRANCH  53  58
ATOM     58  CB  PHE d   1     -20.090  16.388   5.821  0.00  0.00    -0.013 C 
ATOM     59  H36 PHE d   1     -20.088  16.798   6.842  0.00  0.00     0.043 H 
ATOM     60  H37 PHE d   1     -19.948  17.204   5.097  0.00  0.00     0.043 H 
BRANCH  58  61
ATOM     61  CG  PHE d   1     -18.934  15.420   5.689  0.00  0.00    -0.056 A 
ATOM     62  CD1 PHE d   1     -18.601  14.564   6.727  0.00  0.00    -0.077 A 
ATOM     63  CE1 PHE d   1     -17.553  13.667   6.594  0.00  0.00    -0.082 A 
ATOM     64  H38 PHE d   1     -19.166  14.597   7.652  0.00  0.00     0.084 H 
ATOM     65  CZ  PHE d   1     -16.836  13.617   5.419  0.00  0.00    -0.083 A 
ATOM     66  H40 PHE d   1     -17.298  13.005   7.414  0.00  0.00     0.083 H 
ATOM     67  CE2 PHE d   1     -17.157  14.456   4.384  0.00  0.00    -0.082 A 
ATOM     68  H42 PHE d   1     -16.018  12.914   5.313  0.00  0.00     0.083 H 
ATOM     69  CD2 PHE d   1     -18.204  15.347   4.516  0.00  0.00    -0.077 A 
ATOM     70  H41 PHE d   1     -16.589  14.420   3.461  0.00  0.00     0.083 H 
ATOM     71  H39 PHE d   1     -18.458  15.999   3.688  0.00  0.00     0.084 H 
ENDBRANCH  58  61
ENDBRANCH  53  58
ENDBRANCH  51  53
ENDBRANCH  47  49
BRANCH  47  72
ATOM     72  CB  VAL d   1     -22.661  13.197   1.968  0.00  0.00    -0.033 C 
ATOM     73  H27 VAL d   1     -23.019  14.237   1.984  0.00  0.00     0.042 H 
BRANCH  72  74
ATOM     74  CG1 VAL d   1     -22.345  12.830   0.511  0.00  0.00    -0.071 C 
ATOM     75  H28 VAL d   1     -23.265  12.889  -0.090  0.00  0.00     0.028 H 
ATOM     76  H29 VAL d   1     -21.944  11.806   0.469  0.00  0.00     0.028 H 
ATOM     77  H30 VAL d   1     -21.600  13.532   0.109  0.00  0.00     0.028 H 
ENDBRANCH  72  74
BRANCH  72  78
ATOM     78  CG2 VAL d   1     -23.771  12.313   2.558  0.00  0.00    -0.071 C 
ATOM     79  H31 VAL d   1     -23.963  12.611   3.599  0.00  0.00     0.028 H 
ATOM     80  H32 VAL d   1     -23.454  11.260   2.531  0.00  0.00     0.028 H 
ATOM     81  H33 VAL d   1     -24.690  12.435   1.966  0.00  0.00     0.028 H 
ENDBRANCH  72  78
ENDBRANCH  47  72
ENDBRANCH  45  47
ENDBRANCH   1  43
BRANCH   1  82
ATOM     82  CB  GLU d   1     -18.547  10.179   4.469  0.00  0.00    -0.029 C 
ATOM     83  H21 GLU d   1     -19.192  10.756   5.148  0.00  0.00     0.037 H 
ATOM     84  H22 GLU d   1     -17.611  10.730   4.296  0.00  0.00     0.037 H 
BRANCH  82  85
ATOM     85  CG  GLU d   1     -18.211   8.885   5.133  0.00  0.00     0.018 C 
ATOM     86  H23 GLU d   1     -17.445   8.365   4.539  0.00  0.00     0.049 H 
ATOM     87  H24 GLU d   1     -19.117   8.264   5.187  0.00  0.00     0.049 H 
BRANCH  85  88
ATOM     88  CD  GLU d   1     -17.681   9.110   6.537  0.00  0.00     0.172 C 
ATOM     89  OE1 GLU d   1     -17.986  10.187   7.114  0.00  0.00    -0.648 OA
ATOM     90  OE2 GLU d   1     -16.964   8.215   7.048  0.00  0.00    -0.648 OA
ENDBRANCH  85  88
ENDBRANCH  82  85
ENDBRANCH   1  82
TORSDOF 26
