REMARK  9 active torsions:
REMARK  status: ('A' for Active; 'I' for Inactive)
REMARK    1  A    between atoms: CAK_6  and  CAF_7 
REMARK    2  A    between atoms: CAF_7  and  CAB_8 
REMARK    3  A    between atoms: CAB_8  and  CAC_9 
REMARK    4  A    between atoms: CAB_8  and  CAA_12 
REMARK    5  A    between atoms: CAA_12  and  CAG_13 
REMARK    6  A    between atoms: CAG_13  and  OAP_14 
REMARK    7  A    between atoms: CAG_13  and  OAQ_15 
REMARK    8  A    between atoms: CAG_13  and  CAH_16 
REMARK    9  A    between atoms: CAH_16  and  NAM_17 
ROOT
ATOM      1  CAB BPX d   1     -22.927   0.447  -9.774  0.00  0.00     0.039 C 
ATOM      2  H8  BPX d   1     -22.915  -0.600  -9.437  0.00  0.00     0.057 H 
ENDROOT
BRANCH   1   3
ATOM      3  CAF BPX d   1     -22.690   1.357  -8.565  0.00  0.00    -0.028 C 
ATOM      4  H6  BPX d   1     -21.652   1.233  -8.224  0.00  0.00     0.041 H 
ATOM      5  H7  BPX d   1     -22.854   2.402  -8.868  0.00  0.00     0.041 H 
BRANCH   3   6
ATOM      6  CAK BPX d   1     -23.635   1.022  -7.408  0.00  0.00    -0.057 A 
ATOM      7  CAJ BPX d   1     -24.890   1.614  -7.326  0.00  0.00    -0.077 A 
ATOM      8  CAI BPX d   1     -25.747   1.293  -6.280  0.00  0.00    -0.082 A 
ATOM      9  H1  BPX d   1     -25.201   2.328  -8.080  0.00  0.00     0.084 H 
ATOM     10  CAE BPX d   1     -25.349   0.379  -5.310  0.00  0.00    -0.083 A 
ATOM     11  H2  BPX d   1     -26.726   1.755  -6.220  0.00  0.00     0.083 H 
ATOM     12  CAD BPX d   1     -24.093  -0.212  -5.389  0.00  0.00    -0.082 A 
ATOM     13  H3  BPX d   1     -26.017   0.128  -4.494  0.00  0.00     0.083 H 
ATOM     14  CAL BPX d   1     -23.237   0.110  -6.436  0.00  0.00    -0.077 A 
ATOM     15  H4  BPX d   1     -23.781  -0.924  -4.634  0.00  0.00     0.083 H 
ATOM     16  H5  BPX d   1     -22.258  -0.350  -6.495  0.00  0.00     0.084 H 
ENDBRANCH   3   6
ENDBRANCH   1   3
BRANCH   1  17
ATOM     17  CAC BPX d   1     -24.280   0.745 -10.425  0.00  0.00     0.177 C 
ATOM     18  OAO BPX d   1     -24.704  -0.096 -11.248  0.00  0.00    -0.648 OA
ATOM     19  OAN BPX d   1     -24.858   1.802 -10.092  0.00  0.00    -0.648 OA
ENDBRANCH   1  17
BRANCH   1  20
ATOM     20  CAA BPX d   1     -21.821   0.653 -10.811  0.00  0.00     0.002 C 
ATOM     21  H9  BPX d   1     -21.266   1.574 -10.579  0.00  0.00     0.042 H 
ATOM     22  H10 BPX d   1     -22.267   0.736 -11.813  0.00  0.00     0.042 H 
BRANCH  20  23
ATOM     23  CAG BPX d   1     -20.867  -0.543 -10.772  0.00  0.00     0.182 C 
BRANCH  23  24
ATOM     24  OAP BPX d   1     -20.373  -0.737  -9.444  0.00  0.00    -0.364 OA
ATOM     25  H11 BPX d   1     -19.893   0.036  -9.170  0.00  0.00     0.213 HD
ENDBRANCH  23  24
BRANCH  23  26
ATOM     26  OAQ BPX d   1     -21.587  -1.711 -11.176  0.00  0.00    -0.364 OA
ATOM     27  H12 BPX d   1     -21.006  -2.462 -11.156  0.00  0.00     0.213 HD
ENDBRANCH  23  26
BRANCH  23  28
ATOM     28  CAH BPX d   1     -19.701  -0.319 -11.739  0.00  0.00     0.105 C 
ATOM     29  H13 BPX d   1     -18.933  -1.088 -11.570  0.00  0.00     0.082 H 
ATOM     30  H14 BPX d   1     -19.267   0.677 -11.564  0.00  0.00     0.082 H 
BRANCH  28  31
ATOM     31  NAM BPX d   1     -20.180  -0.405 -13.126  0.00  0.00    -0.150 N 
ATOM     32  OAS BPX d   1     -20.220  -1.664 -13.787  0.00  0.00    -0.536 OA
ATOM     33  OAR BPX d   1     -20.594   0.768 -13.814  0.00  0.00    -0.536 OA
ENDBRANCH  28  31
ENDBRANCH  23  28
ENDBRANCH  20  23
ENDBRANCH   1  20
TORSDOF 9
