REMARK  4 active torsions:
REMARK  status: ('A' for Active; 'I' for Inactive)
REMARK    1  A    between atoms: C14_13  and  C4_1 
REMARK    2  A    between atoms: C13_5  and  C3_11 
REMARK    3  A    between atoms: C19_16  and  C22_10 
REMARK       I    between atoms: C22_10  and  N25_19 
REMARK    4  A    between atoms: C18_15  and  C12_12 
ROOT
ATOM      1  C13 B49 d   1      34.110  -1.046 -78.024  0.00  0.00    -0.018 A 
ATOM      2  C14 B49 d   1      31.884  -1.220 -77.605  0.00  0.00     0.022 A 
ATOM      3  C18 B49 d   1      33.764  -2.398 -78.089  0.00  0.00     0.040 A 
ATOM      4  C19 B49 d   1      32.910  -0.291 -77.718  0.00  0.00     0.062 A 
ATOM      5  N23 B49 d   1      32.417  -2.467 -77.828  0.00  0.00    -0.359 N 
ATOM      6  H11 B49 d   1      31.875  -3.343 -77.803  0.00  0.00     0.166 HD
ENDROOT
BRANCH   3   7
ATOM      7  C12 B49 d   1      34.576  -3.546 -78.371  0.00  0.00    -0.041 C 
ATOM      8  C20 B49 d   1      34.296  -4.867 -78.442  0.00  0.00     0.047 A 
ATOM      9  C17 B49 d   1      35.342  -5.867 -78.784  0.00  0.00     0.009 A 
ATOM     10  C21 B49 d   1      33.015  -5.647 -78.233  0.00  0.00     0.257 A 
ATOM     11  C7  B49 d   1      36.729  -5.785 -79.092  0.00  0.00    -0.033 A 
ATOM     12  C16 B49 d   1      34.692  -7.132 -78.770  0.00  0.00     0.046 A 
ATOM     13  C15 B49 d   1      37.416  -6.994 -79.379  0.00  0.00     0.117 A 
ATOM     14  H6  B49 d   1      37.244  -4.831 -79.107  0.00  0.00     0.089 H 
ATOM     15  C5  B49 d   1      36.749  -8.255 -79.361  0.00  0.00    -0.043 A 
ATOM     16  F29 B49 d   1      38.725  -6.954 -79.672  0.00  0.00    -0.206 F 
ATOM     17  C6  B49 d   1      35.363  -8.333 -79.051  0.00  0.00    -0.053 A 
ATOM     18  H4  B49 d   1      37.302  -9.160 -79.585  0.00  0.00     0.088 H 
ATOM     19  H5  B49 d   1      34.844  -9.284 -79.032  0.00  0.00     0.087 H 
ATOM     20  N24 B49 d   1      33.345  -6.985 -78.448  0.00  0.00    -0.322 N 
ATOM     21  H12 B49 d   1      32.696  -7.743 -78.380  0.00  0.00     0.169 HD
ATOM     22  O27 B49 d   1      31.923  -5.205 -77.941  0.00  0.00    -0.267 OA
ATOM     23  H10 B49 d   1      35.621  -3.308 -78.566  0.00  0.00     0.088 H 
ENDBRANCH   3   7
BRANCH   1  24
ATOM     24  C3  B49 d   1      35.480  -0.475 -78.240  0.00  0.00    -0.048 C 
ATOM     25  H7  B49 d   1      36.187  -1.290 -78.455  0.00  0.00     0.033 H 
ATOM     26  H8  B49 d   1      35.801   0.060 -77.334  0.00  0.00     0.033 H 
ATOM     27  H9  B49 d   1      35.456   0.223 -79.090  0.00  0.00     0.033 H 
ENDBRANCH   1  24
BRANCH   4  28
ATOM     28  C22 B49 d   1      32.804   1.174 -77.561  0.00  0.00     0.251 C 
ATOM     29  N25 B49 d   1      33.733   1.747 -76.710  0.00  0.00    -0.366 N 
ATOM     30  H13 B49 d   1      33.725   2.735 -76.553  0.00  0.00     0.159 HD
ATOM     31  H14 B49 d   1      34.413   1.173 -76.252  0.00  0.00     0.159 HD
ATOM     32  O28 B49 d   1      31.936   1.823 -78.153  0.00  0.00    -0.268 OA
ENDBRANCH   4  28
BRANCH   2  33
ATOM     33  C4  B49 d   1      30.431  -1.087 -77.311  0.00  0.00    -0.036 C 
ATOM     34  H1  B49 d   1      29.964  -2.083 -77.313  0.00  0.00     0.035 H 
ATOM     35  H2  B49 d   1      29.957  -0.459 -78.080  0.00  0.00     0.035 H 
ATOM     36  H3  B49 d   1      30.298  -0.621 -76.323  0.00  0.00     0.035 H 
ENDBRANCH   2  33
TORSDOF 4
