REMARK  7 active torsions:
REMARK  status: ('A' for Active; 'I' for Inactive)
REMARK    1  A    between atoms: C5_1  and  C4_2 
REMARK    2  A    between atoms: C4_2  and  C3_3 
REMARK    3  A    between atoms: C3_3  and  C2_4 
REMARK    4  A    between atoms: C2_4  and  C3A_5 
REMARK    5  A    between atoms: C2_4  and  C1_8 
REMARK    6  A    between atoms: C3A_5  and  C4A_6 
REMARK    7  A    between atoms: C4A_6  and  C5A_7 
ROOT
ATOM      1  C2  VPR d   1      23.964  36.650  60.994  0.00  0.00     0.011 C 
ATOM      2  H8  VPR d   1      24.307  36.918  62.004  0.00  0.00     0.052 H 
ENDROOT
BRANCH   1   3
ATOM      3  C3  VPR d   1      24.598  37.638  60.016  0.00  0.00    -0.055 C 
ATOM      4  H6  VPR d   1      24.263  37.387  58.999  0.00  0.00     0.034 H 
ATOM      5  H7  VPR d   1      24.259  38.652  60.274  0.00  0.00     0.034 H 
BRANCH   3   6
ATOM      6  C4  VPR d   1      26.117  37.615  60.044  0.00  0.00    -0.068 C 
ATOM      7  H4  VPR d   1      26.497  38.348  60.771  0.00  0.00     0.032 H 
ATOM      8  H5  VPR d   1      26.479  36.612  60.312  0.00  0.00     0.032 H 
BRANCH   6   9
ATOM      9  C5  VPR d   1      26.564  37.977  58.654  0.00  0.00    -0.076 C 
ATOM     10  H1  VPR d   1      27.663  37.977  58.611  0.00  0.00     0.027 H 
ATOM     11  H2  VPR d   1      26.187  38.978  58.397  0.00  0.00     0.027 H 
ATOM     12  H3  VPR d   1      26.169  37.241  57.938  0.00  0.00     0.027 H 
ENDBRANCH   6   9
ENDBRANCH   3   6
ENDBRANCH   1   3
BRANCH   1  13
ATOM     13  C3A VPR d   1      22.440  36.734  60.981  0.00  0.00    -0.055 C 
ATOM     14  H9  VPR d   1      22.042  36.089  61.779  0.00  0.00     0.034 H 
ATOM     15  H10 VPR d   1      22.073  36.380  60.006  0.00  0.00     0.034 H 
BRANCH  13  16
ATOM     16  C4A VPR d   1      21.943  38.159  61.206  0.00  0.00    -0.068 C 
ATOM     17  H11 VPR d   1      22.786  38.862  61.132  0.00  0.00     0.032 H 
ATOM     18  H12 VPR d   1      21.485  38.239  62.203  0.00  0.00     0.032 H 
BRANCH  16  19
ATOM     19  C5A VPR d   1      20.918  38.480  60.148  0.00  0.00    -0.076 C 
ATOM     20  H13 VPR d   1      20.548  39.505  60.295  0.00  0.00     0.027 H 
ATOM     21  H14 VPR d   1      20.079  37.773  60.224  0.00  0.00     0.027 H 
ATOM     22  H15 VPR d   1      21.379  38.396  59.153  0.00  0.00     0.027 H 
ENDBRANCH  16  19
ENDBRANCH  13  16
ENDBRANCH   1  13
BRANCH   1  23
ATOM     23  C1  VPR d   1      24.405  35.240  60.717  0.00  0.00     0.153 C 
ATOM     24  N   VPR d   1      24.107  34.672  59.636  0.00  0.00    -0.381 N 
ATOM     25  H16 VPR d   1      24.407  33.733  59.465  0.00  0.00     0.158 HD
ATOM     26  H17 VPR d   1      23.570  35.159  58.947  0.00  0.00     0.158 HD
ATOM     27  O   VPR d   1      25.116  34.617  61.635  0.00  0.00    -0.177 OA
ENDBRANCH   1  23
TORSDOF 7
