REMARK  18 active torsions:
REMARK  status: ('A' for Active; 'I' for Inactive)
REMARK    1  A    between atoms: N_1  and  CA_2 
REMARK    2  A    between atoms: CA_2  and  C_3 
REMARK    3  A    between atoms: CA_2  and  CB_5 
REMARK       I    between atoms: C_3  and  N_9 
REMARK    4  A    between atoms: CB_5  and  CG_6 
REMARK    5  A    between atoms: CG_6  and  CD1_7 
REMARK    6  A    between atoms: CG_6  and  CD2_8 
REMARK    7  A    between atoms: N_9  and  CA_10 
REMARK    8  A    between atoms: CA_10  and  C_11 
REMARK    9  A    between atoms: CA_10  and  CB_13 
REMARK       I    between atoms: C_11  and  N_17 
REMARK   10  A    between atoms: CB_13  and  CG_14 
REMARK   11  A    between atoms: CG_14  and  CD1_15 
REMARK   12  A    between atoms: CG_14  and  CD2_16 
REMARK   13  A    between atoms: N_17  and  CA_18 
REMARK   14  A    between atoms: CA_18  and  C_19 
REMARK   15  A    between atoms: CA_18  and  CB_21 
REMARK   16  A    between atoms: CB_21  and  CG_22 
REMARK   17  A    between atoms: CG_22  and  CD1_23 
REMARK   18  A    between atoms: CG_22  and  CD2_24 
ROOT
ATOM      1  CA  LEU d   1      23.820  -7.466 -14.322  0.00  0.00     0.089 C 
ATOM      2  H15 LEU d   1      24.475  -7.236 -15.175  0.00  0.00     0.087 H 
ENDROOT
BRANCH   1   3
ATOM      3  N   LEU d   1      22.792  -6.434 -14.245  0.00  0.00    -0.346 N 
ATOM      4  C   LEU d   1      22.191  -5.958 -15.330  0.00  0.00     0.249 C 
ATOM      5  O   LEU d   1      22.451  -6.348 -16.467  0.00  0.00    -0.271 OA
ATOM      6  H14 LEU d   1      22.532  -6.074 -13.349  0.00  0.00     0.163 HD
BRANCH   4   7
ATOM      7  CA  LEU d   1      21.137  -4.880 -15.099  0.00  0.00     0.176 C 
ATOM      8  H4  LEU d   1      21.508  -4.195 -14.322  0.00  0.00     0.099 H 
BRANCH   7   9
ATOM      9  N   LEU d   1      20.898  -4.108 -16.312  0.00  0.00    -0.066 N 
ATOM     10  H1  LEU d   1      20.199  -3.405 -16.131  0.00  0.00     0.275 HD
ATOM     11  H2  LEU d   1      20.575  -4.722 -17.043  0.00  0.00     0.275 HD
ATOM     12  H3  LEU d   1      21.755  -3.663 -16.601  0.00  0.00     0.275 HD
ENDBRANCH   7   9
BRANCH   7  13
ATOM     13  CB  LEU d   1      19.834  -5.513 -14.604  0.00  0.00    -0.028 C 
ATOM     14  H5  LEU d   1      20.064  -6.084 -13.692  0.00  0.00     0.037 H 
ATOM     15  H6  LEU d   1      19.476  -6.199 -15.386  0.00  0.00     0.037 H 
BRANCH  13  16
ATOM     16  CG  LEU d   1      18.695  -4.546 -14.275  0.00  0.00    -0.059 C 
ATOM     17  H7  LEU d   1      18.511  -3.919 -15.160  0.00  0.00     0.038 H 
BRANCH  16  18
ATOM     18  CD1 LEU d   1      17.417  -5.309 -13.961  0.00  0.00    -0.073 C 
ATOM     19  H8  LEU d   1      16.612  -4.596 -13.728  0.00  0.00     0.028 H 
ATOM     20  H9  LEU d   1      17.586  -5.967 -13.096  0.00  0.00     0.028 H 
ATOM     21  H10 LEU d   1      17.128  -5.915 -14.832  0.00  0.00     0.028 H 
ENDBRANCH  16  18
BRANCH  16  22
ATOM     22  CD2 LEU d   1      19.077  -3.632 -13.119  0.00  0.00    -0.073 C 
ATOM     23  H11 LEU d   1      20.002  -3.092 -13.369  0.00  0.00     0.028 H 
ATOM     24  H12 LEU d   1      19.238  -4.234 -12.213  0.00  0.00     0.028 H 
ATOM     25  H13 LEU d   1      18.267  -2.909 -12.940  0.00  0.00     0.028 H 
ENDBRANCH  16  22
ENDBRANCH  13  16
ENDBRANCH   7  13
ENDBRANCH   4   7
ENDBRANCH   1   3
BRANCH   1  26
ATOM     26  C   LEU d   1      23.206  -8.846 -14.549  0.00  0.00     0.241 C 
ATOM     27  O   LEU d   1      22.110  -9.132 -14.065  0.00  0.00    -0.271 OA
ATOM     28  N   LEU d   1      23.928  -9.689 -15.283  0.00  0.00    -0.345 N 
ATOM     29  H25 LEU d   1      24.826  -9.388 -15.604  0.00  0.00     0.163 HD
BRANCH  28  30
ATOM     30  CA  LEU d   1      23.477 -11.034 -15.646  0.00  0.00     0.096 C 
ATOM     31  H26 LEU d   1      24.371 -11.620 -15.905  0.00  0.00     0.089 H 
BRANCH  30  32
ATOM     32  C   LEU d   1      22.572 -11.013 -16.875  0.00  0.00     0.196 C 
ATOM     33  O   LEU d   1      22.643 -11.897 -17.731  0.00  0.00    -0.646 OA
ATOM     34  OXT LEU d   1      21.757 -10.108 -17.044  0.00  0.00    -0.646 OA
ENDBRANCH  30  32
BRANCH  30  35
ATOM     35  CB  LEU d   1      22.790 -11.741 -14.471  0.00  0.00    -0.034 C 
ATOM     36  H27 LEU d   1      21.956 -11.104 -14.141  0.00  0.00     0.037 H 
ATOM     37  H28 LEU d   1      23.527 -11.829 -13.659  0.00  0.00     0.037 H 
BRANCH  35  38
ATOM     38  CG  LEU d   1      22.225 -13.141 -14.737  0.00  0.00    -0.059 C 
ATOM     39  H29 LEU d   1      22.918 -13.659 -15.417  0.00  0.00     0.038 H 
BRANCH  38  40
ATOM     40  CD1 LEU d   1      22.143 -13.947 -13.450  0.00  0.00    -0.073 C 
ATOM     41  H30 LEU d   1      21.735 -14.945 -13.668  0.00  0.00     0.028 H 
ATOM     42  H31 LEU d   1      21.486 -13.431 -12.735  0.00  0.00     0.028 H 
ATOM     43  H32 LEU d   1      23.149 -14.048 -13.016  0.00  0.00     0.028 H 
ENDBRANCH  38  40
BRANCH  38  44
ATOM     44  CD2 LEU d   1      20.863 -13.075 -15.421  0.00  0.00    -0.073 C 
ATOM     45  H33 LEU d   1      20.946 -12.488 -16.348  0.00  0.00     0.028 H 
ATOM     46  H34 LEU d   1      20.137 -12.596 -14.748  0.00  0.00     0.028 H 
ATOM     47  H35 LEU d   1      20.523 -14.093 -15.661  0.00  0.00     0.028 H 
ENDBRANCH  38  44
ENDBRANCH  35  38
ENDBRANCH  30  35
ENDBRANCH  28  30
ENDBRANCH   1  26
BRANCH   1  48
ATOM     48  CB  LEU d   1      24.667  -7.466 -13.048  0.00  0.00    -0.035 C 
ATOM     49  H16 LEU d   1      23.982  -7.599 -12.198  0.00  0.00     0.037 H 
ATOM     50  H17 LEU d   1      25.153  -6.482 -12.976  0.00  0.00     0.037 H 
BRANCH  48  51
ATOM     51  CG  LEU d   1      25.762  -8.528 -12.925  0.00  0.00    -0.059 C 
ATOM     52  H18 LEU d   1      25.297  -9.518 -13.046  0.00  0.00     0.038 H 
BRANCH  51  53
ATOM     53  CD1 LEU d   1      26.807  -8.357 -14.017  0.00  0.00    -0.073 C 
ATOM     54  H19 LEU d   1      27.582  -9.130 -13.908  0.00  0.00     0.028 H 
ATOM     55  H20 LEU d   1      27.268  -7.362 -13.931  0.00  0.00     0.028 H 
ATOM     56  H21 LEU d   1      26.328  -8.455 -15.002  0.00  0.00     0.028 H 
ENDBRANCH  51  53
BRANCH  51  57
ATOM     57  CD2 LEU d   1      26.407  -8.468 -11.550  0.00  0.00    -0.073 C 
ATOM     58  H22 LEU d   1      25.635  -8.594 -10.777  0.00  0.00     0.028 H 
ATOM     59  H23 LEU d   1      26.902  -7.494 -11.419  0.00  0.00     0.028 H 
ATOM     60  H24 LEU d   1      27.151  -9.273 -11.459  0.00  0.00     0.028 H 
ENDBRANCH  51  57
ENDBRANCH  48  51
ENDBRANCH   1  48
TORSDOF 18
