REMARK  6 active torsions:
REMARK  status: ('A' for Active; 'I' for Inactive)
REMARK    1  A    between atoms: P_2  and  O5'_5 
REMARK    2  A    between atoms: O5'_5  and  C5'_6 
REMARK    3  A    between atoms: C5'_6  and  C4'_7 
REMARK    4  A    between atoms: C3'_9  and  O3'_10 
REMARK    5  A    between atoms: C2'_11  and  O2'_12 
REMARK    6  A    between atoms: C1'_13  and  N1_14 
ROOT
ATOM      1  C4'   U d   1      22.056  -0.045  10.120  0.00  0.00     0.089 C 
ATOM      2  O4'   U d   1      20.988   0.808   9.653  0.00  0.00    -0.353 OA
ATOM      3  C3'   U d   1      21.387  -0.883  11.202  0.00  0.00     0.091 C 
ATOM      4  C2'   U d   1      19.972  -1.002  10.735  0.00  0.00     0.105 C 
ATOM      5  C1'   U d   1      19.729   0.344  10.099  0.00  0.00     0.141 C 
ATOM      6  H3    U d   1      22.841   0.563  10.593  0.00  0.00     0.090 H 
ATOM      7  H4    U d   1      21.858  -1.874  11.277  0.00  0.00     0.091 H 
ATOM      8  H6    U d   1      19.899  -1.788   9.969  0.00  0.00     0.093 H 
ATOM      9  H8    U d   1      19.343   1.014  10.881  0.00  0.00     0.123 H 
ENDROOT
BRANCH   5  10
ATOM     10  N1    U d   1      18.797   0.421   8.957  0.00  0.00    -0.280 N 
ATOM     11  C2    U d   1      18.950  -0.390   7.796  0.00  0.00     0.331 A 
ATOM     12  O2    U d   1      19.906  -1.116   7.639  0.00  0.00    -0.246 OA
ATOM     13  N3    U d   1      17.929  -0.271   6.873  0.00  0.00    -0.275 N 
ATOM     14  C4    U d   1      16.855   0.642   6.888  0.00  0.00     0.250 A 
ATOM     15  H9    U d   1      17.955  -0.908   6.103  0.00  0.00     0.173 HD
ATOM     16  O4    U d   1      16.116   0.669   5.923  0.00  0.00    -0.268 OA
ATOM     17  C5    U d   1      16.771   1.459   8.083  0.00  0.00    -0.002 A 
ATOM     18  C6    U d   1      17.721   1.350   9.038  0.00  0.00    -0.008 A 
ATOM     19  H10   U d   1      15.945   2.158   8.210  0.00  0.00     0.094 H 
ATOM     20  H11   U d   1      17.661   2.002   9.908  0.00  0.00     0.112 H 
ENDBRANCH   5  10
BRANCH   4  21
ATOM     21  O2'   U d   1      19.057  -1.336  11.776  0.00  0.00    -0.388 OA
ATOM     22  H7    U d   1      18.179  -1.397  11.417  0.00  0.00     0.210 HD
ENDBRANCH   4  21
BRANCH   1  23
ATOM     23  C5'   U d   1      22.699  -0.762   8.950  0.00  0.00     0.059 C 
ATOM     24  H1    U d   1      21.982  -1.459   8.492  0.00  0.00     0.079 H 
ATOM     25  H2    U d   1      23.035  -0.034   8.197  0.00  0.00     0.079 H 
BRANCH  23  26
ATOM     26  O5'   U d   1      23.822  -1.483   9.476  0.00  0.00    -0.280 OA
BRANCH  26  27
ATOM     27  P     U d   1      24.837  -2.265   8.556  0.00  0.00     0.422 P 
ATOM     28  OP3   U d   1      25.869  -1.215   7.916  0.00  0.00    -0.617 OA
ATOM     29  OP1   U d   1      24.113  -3.085   7.519  0.00  0.00    -0.617 OA
ATOM     30  OP2   U d   1      25.611  -3.138   9.506  0.00  0.00    -0.617 OA
ENDBRANCH  26  27
ENDBRANCH  23  26
ENDBRANCH   1  23
BRANCH   3  31
ATOM     31  O3'   U d   1      21.458  -0.227  12.469  0.00  0.00    -0.390 OA
ATOM     32  H5    U d   1      21.036  -0.766  13.127  0.00  0.00     0.210 HD
ENDBRANCH   3  31
TORSDOF 6
