REMARK  6 active torsions:
REMARK  status: ('A' for Active; 'I' for Inactive)
REMARK    1  A    between atoms: N1_9  and  C1'_10 
REMARK    2  A    between atoms: C2'_12  and  O2'_13 
REMARK    3  A    between atoms: C3'_14  and  O3'_15 
REMARK    4  A    between atoms: C4'_16  and  C5'_17 
REMARK    5  A    between atoms: C5'_17  and  O5'_18 
REMARK    6  A    between atoms: O5'_18  and  P_19 
ROOT
ATOM      1  C1' 5FU d   1       9.936   2.130   2.243  0.00  0.00     0.141 C 
ATOM      2  O4' 5FU d   1       9.074   0.991   1.999  0.00  0.00    -0.353 OA
ATOM      3  C2' 5FU d   1      10.623   1.832   3.560  0.00  0.00     0.105 C 
ATOM      4  C3' 5FU d   1      10.677   0.342   3.580  0.00  0.00     0.091 C 
ATOM      5  C4' 5FU d   1       9.405  -0.071   2.917  0.00  0.00     0.089 C 
ATOM      6  H3  5FU d   1      10.704   2.198   1.459  0.00  0.00     0.123 H 
ATOM      7  H4  5FU d   1       9.999   2.192   4.391  0.00  0.00     0.093 H 
ATOM      8  H6  5FU d   1      10.726  -0.042   4.610  0.00  0.00     0.091 H 
ATOM      9  H8  5FU d   1       9.564  -1.015   2.376  0.00  0.00     0.090 H 
ENDROOT
BRANCH   1  10
ATOM     10  N1  5FU d   1       9.117   3.360   2.179  0.00  0.00    -0.277 N 
ATOM     11  C2  5FU d   1       7.993   3.568   2.989  0.00  0.00     0.331 C 
ATOM     12  N3  5FU d   1       7.224   4.681   2.762  0.00  0.00    -0.273 N 
ATOM     13  O2  5FU d   1       7.671   2.783   3.890  0.00  0.00    -0.246 OA
ATOM     14  C4  5FU d   1       7.511   5.547   1.761  0.00  0.00     0.289 C 
ATOM     15  H1  5FU d   1       6.434   4.857   3.349  0.00  0.00     0.173 HD
ATOM     16  C5  5FU d   1       8.629   5.351   0.988  0.00  0.00     0.199 C 
ATOM     17  O4  5FU d   1       6.704   6.514   1.586  0.00  0.00    -0.265 OA
ATOM     18  F5  5FU d   1       8.924   6.190  -0.076  0.00  0.00    -0.199 F 
ATOM     19  C6  5FU d   1       9.482   4.294   1.266  0.00  0.00     0.030 C 
ATOM     20  H2  5FU d   1      10.440   4.214   0.754  0.00  0.00     0.117 H 
ENDBRANCH   1  10
BRANCH   3  21
ATOM     21  O2' 5FU d   1      11.904   2.439   3.689  0.00  0.00    -0.388 OA
ATOM     22  H5  5FU d   1      11.814   3.382   3.624  0.00  0.00     0.210 HD
ENDBRANCH   3  21
BRANCH   5  23
ATOM     23  C5' 5FU d   1       8.237  -0.241   3.880  0.00  0.00     0.059 C 
ATOM     24  H9  5FU d   1       7.294  -0.334   3.321  0.00  0.00     0.079 H 
ATOM     25  H10 5FU d   1       8.177   0.622   4.560  0.00  0.00     0.079 H 
BRANCH  23  26
ATOM     26  O5' 5FU d   1       8.490  -1.431   4.618  0.00  0.00    -0.280 OA
BRANCH  26  27
ATOM     27  P   5FU d   1       7.487  -1.961   5.761  0.00  0.00     0.422 P 
ATOM     28  O1P 5FU d   1       8.425  -2.728   6.635  0.00  0.00    -0.617 OA
ATOM     29  O2P 5FU d   1       6.876  -0.773   6.453  0.00  0.00    -0.617 OA
ATOM     30  O3P 5FU d   1       6.488  -2.844   5.082  0.00  0.00    -0.617 OA
ENDBRANCH  26  27
ENDBRANCH  23  26
ENDBRANCH   5  23
BRANCH   4  31
ATOM     31  O3' 5FU d   1      11.823  -0.107   2.839  0.00  0.00    -0.390 OA
ATOM     32  H7  5FU d   1      12.612   0.244   3.235  0.00  0.00     0.210 HD
ENDBRANCH   4  31
TORSDOF 6
