REMARK  4 active torsions:
REMARK  status: ('A' for Active; 'I' for Inactive)
REMARK    1  A    between atoms: C4_3  and  C12_4 
REMARK    2  A    between atoms: C12_4  and  C13_5 
REMARK    3  A    between atoms: C5_6  and  C14_7 
REMARK    4  A    between atoms: N2_9  and  C6_10 
ROOT
ATOM      1  O11 GF4 d   1      -4.718  51.226  12.901  0.00  0.00    -0.265 OA
ATOM      2  C3  GF4 d   1      -5.065  52.372  12.427  0.00  0.00     0.290 A 
ATOM      3  C4  GF4 d   1      -6.450  52.795  12.148  0.00  0.00     0.036 A 
ATOM      4  C5  GF4 d   1      -6.262  54.198  11.629  0.00  0.00     0.035 A 
ATOM      5  N1  GF4 d   1      -4.939  54.486  11.635  0.00  0.00    -0.280 N 
ATOM      6  N2  GF4 d   1      -4.255  53.372  12.138  0.00  0.00    -0.043 N 
ATOM      7  H9  GF4 d   1      -4.511  55.370  11.324  0.00  0.00     0.188 HD
ENDROOT
BRANCH   3   8
ATOM      8  C12 GF4 d   1      -7.713  51.991  12.345  0.00  0.00    -0.037 C 
ATOM      9  H1  GF4 d   1      -7.460  51.003  12.758  0.00  0.00     0.039 H 
ATOM     10  H2  GF4 d   1      -8.224  51.865  11.379  0.00  0.00     0.039 H 
BRANCH   8  11
ATOM     11  C13 GF4 d   1      -8.621  52.723  13.305  0.00  0.00    -0.072 C 
ATOM     12  H3  GF4 d   1      -9.543  52.142  13.453  0.00  0.00     0.028 H 
ATOM     13  H4  GF4 d   1      -8.872  53.711  12.891  0.00  0.00     0.028 H 
ATOM     14  H5  GF4 d   1      -8.109  52.849  14.270  0.00  0.00     0.028 H 
ENDBRANCH   8  11
ENDBRANCH   3   8
BRANCH   4  15
ATOM     15  C14 GF4 d   1      -7.333  55.155  11.169  0.00  0.00    -0.035 C 
ATOM     16  H6  GF4 d   1      -6.868  56.099  10.850  0.00  0.00     0.035 H 
ATOM     17  H7  GF4 d   1      -8.030  55.351  11.997  0.00  0.00     0.035 H 
ATOM     18  H8  GF4 d   1      -7.882  54.713  10.325  0.00  0.00     0.035 H 
ENDBRANCH   4  15
BRANCH   6  19
ATOM     19  C6  GF4 d   1      -2.925  53.335  12.232  0.00  0.00     0.756 A 
ATOM     20  N10 GF4 d   1      -2.177  53.542  11.153  0.00  0.00     0.032 NA
ATOM     21  N9  GF4 d   1      -0.859  53.426  11.616  0.00  0.00     0.033 NA
ATOM     22  N8  GF4 d   1      -0.914  53.144  12.991  0.00  0.00     0.009 NA
ATOM     23  N7  GF4 d   1      -2.262  53.095  13.368  0.00  0.00    -0.113 N 
ATOM     24  H10 GF4 d   1      -2.652  52.916  14.304  0.00  0.00     0.203 HD
ENDBRANCH   6  19
TORSDOF 4
