REMARK  3 active torsions:
REMARK  status: ('A' for Active; 'I' for Inactive)
REMARK    1  A    between atoms: C9_8  and  N5_9 
REMARK       I    between atoms: N5_9  and  C4_10 
REMARK    2  A    between atoms: C4_10  and  C3_12 
REMARK    3  A    between atoms: C1_13  and  C6_15 
ROOT
ATOM      1  N5  G30 d   1      24.659  41.323  94.996  0.00  0.00    -0.324 N 
ATOM      2  C4  G30 d   1      23.954  42.092  95.833  0.00  0.00     0.227 C 
ATOM      3  O15 G30 d   1      24.347  42.312  96.977  0.00  0.00    -0.273 OA
ATOM      4  H4  G30 d   1      24.138  40.756  94.358  0.00  0.00     0.169 HD
ENDROOT
BRANCH   1   5
ATOM      5  C9  G30 d   1      26.012  41.236  94.928  0.00  0.00     0.076 A 
ATOM      6  C14 G30 d   1      26.626  41.107  93.582  0.00  0.00     0.143 A 
ATOM      7  C13 G30 d   1      28.013  41.002  93.445  0.00  0.00    -0.041 A 
ATOM      8  F14 G30 d   1      25.839  41.091  92.497  0.00  0.00    -0.204 F 
ATOM      9  C12 G30 d   1      28.817  41.006  94.578  0.00  0.00    -0.043 A 
ATOM     10  H2  G30 d   1      28.459  40.918  92.460  0.00  0.00     0.088 H 
ATOM     11  C11 G30 d   1      28.264  41.123  95.854  0.00  0.00     0.118 A 
ATOM     12  H1  G30 d   1      29.892  40.917  94.469  0.00  0.00     0.088 H 
ATOM     13  F11 G30 d   1      29.086  41.131  96.928  0.00  0.00    -0.206 F 
ATOM     14  C10 G30 d   1      26.873  41.234  96.035  0.00  0.00    -0.017 A 
ATOM     15  H3  G30 d   1      26.465  41.318  97.036  0.00  0.00     0.091 H 
ENDBRANCH   1   5
BRANCH   2  16
ATOM     16  C3  G30 d   1      22.667  42.755  95.337  0.00  0.00     0.037 A 
ATOM     17  C1  G30 d   1      21.545  42.045  94.516  0.00  0.00     0.043 A 
ATOM     18  C2  G30 d   1      21.475  42.101  96.040  0.00  0.00    -0.039 A 
ATOM     19  H6  G30 d   1      20.896  42.635  93.852  0.00  0.00     0.058 H 
ATOM     20  H7  G30 d   1      20.717  42.730  96.529  0.00  0.00     0.035 H 
ATOM     21  H8  G30 d   1      21.624  41.183  96.627  0.00  0.00     0.035 H 
ATOM     22  H5  G30 d   1      22.800  43.841  95.224  0.00  0.00     0.056 H 
BRANCH  17  23
ATOM     23  C6  G30 d   1      21.668  40.606  94.040  0.00  0.00     0.177 C 
ATOM     24  O8  G30 d   1      20.642  39.873  93.964  0.00  0.00    -0.648 OA
ATOM     25  O7  G30 d   1      22.793  40.193  93.683  0.00  0.00    -0.648 OA
ENDBRANCH  17  23
ENDBRANCH   2  16
TORSDOF 3
