REMARK  3 active torsions:
REMARK  status: ('A' for Active; 'I' for Inactive)
REMARK    1  A    between atoms: N8_3  and  C12_4 
REMARK    2  A    between atoms: C12_4  and  C14_5 
REMARK    3  A    between atoms: C12_4  and  C13_8 
ROOT
ATOM      1  O10 GF1 d   1      -3.135  40.537  23.978  0.00  0.00    -0.272 OA
ATOM      2  C7  GF1 d   1      -1.970  40.611  24.331  0.00  0.00     0.232 A 
ATOM      3  N8  GF1 d   1      -0.901  40.091  23.699  0.00  0.00    -0.273 N 
ATOM      4  C2  GF1 d   1      -1.543  41.292  25.603  0.00  0.00     0.040 A 
ATOM      5  C3  GF1 d   1      -0.025  41.099  25.630  0.00  0.00     0.040 A 
ATOM      6  C9  GF1 d   1       0.241  40.324  24.368  0.00  0.00     0.232 A 
ATOM      7  O11 GF1 d   1       1.363  39.955  24.037  0.00  0.00    -0.272 OA
ATOM      8  C1  GF1 d   1      -1.677  42.819  25.634  0.00  0.00    -0.041 C 
ATOM      9  C6  GF1 d   1      -1.213  43.477  24.333  0.00  0.00    -0.060 C 
ATOM     10  C5  GF1 d   1       0.313  43.286  24.382  0.00  0.00    -0.060 C 
ATOM     11  C17 GF1 d   1      -0.519  43.202  26.541  0.00  0.00    -0.057 C 
ATOM     12  C4  GF1 d   1       0.530  42.527  25.685  0.00  0.00    -0.041 C 
ATOM     13  H5  GF1 d   1      -2.053  40.841  26.467  0.00  0.00     0.056 H 
ATOM     14  H6  GF1 d   1       0.317  40.528  26.506  0.00  0.00     0.056 H 
ATOM     15  H7  GF1 d   1      -2.672  43.156  25.961  0.00  0.00     0.041 H 
ATOM     16  H8  GF1 d   1      -1.478  44.544  24.312  0.00  0.00     0.033 H 
ATOM     17  H9  GF1 d   1      -1.648  42.973  23.457  0.00  0.00     0.033 H 
ATOM     18  H10 GF1 d   1       0.831  44.256  24.400  0.00  0.00     0.033 H 
ATOM     19  H11 GF1 d   1       0.664  42.699  23.521  0.00  0.00     0.033 H 
ATOM     20  H12 GF1 d   1      -0.598  42.767  27.548  0.00  0.00     0.034 H 
ATOM     21  H13 GF1 d   1      -0.376  44.290  26.621  0.00  0.00     0.034 H 
ATOM     22  H14 GF1 d   1       1.564  42.578  26.056  0.00  0.00     0.041 H 
ENDROOT
BRANCH   3  23
ATOM     23  C12 GF1 d   1      -0.938  39.322  22.444  0.00  0.00     0.102 C 
ATOM     24  H1  GF1 d   1       0.097  39.008  22.243  0.00  0.00     0.090 H 
BRANCH  23  25
ATOM     25  C14 GF1 d   1      -1.761  38.056  22.557  0.00  0.00     0.197 C 
ATOM     26  O16 GF1 d   1      -1.791  37.439  23.660  0.00  0.00    -0.646 OA
ATOM     27  O15 GF1 d   1      -2.377  37.662  21.540  0.00  0.00    -0.646 OA
ENDBRANCH  23  25
BRANCH  23  28
ATOM     28  C13 GF1 d   1      -1.381  40.167  21.242  0.00  0.00    -0.047 C 
ATOM     29  H2  GF1 d   1      -1.389  39.541  20.337  0.00  0.00     0.030 H 
ATOM     30  H3  GF1 d   1      -0.680  41.003  21.103  0.00  0.00     0.030 H 
ATOM     31  H4  GF1 d   1      -2.391  40.562  21.424  0.00  0.00     0.030 H 
ENDBRANCH  23  28
ENDBRANCH   3  23
TORSDOF 3
