REMARK  2 active torsions:
REMARK  status: ('A' for Active; 'I' for Inactive)
REMARK    1  A    between atoms: N7_3  and  C6_4 
REMARK    2  A    between atoms: C6_4  and  C3_5 
ROOT
ATOM      1  O20 1CE d   1      -3.985  50.884  10.080  0.00  0.00    -0.267 OA
ATOM      2  C12 1CE d   1      -4.874  51.663  10.496  0.00  0.00     0.262 A 
ATOM      3  N7  1CE d   1      -5.082  51.875  11.811  0.00  0.00    -0.301 N 
ATOM      4  C11 1CE d   1      -5.739  52.379   9.530  0.00  0.00     0.075 A 
ATOM      5  C13 1CE d   1      -5.825  52.415   8.030  0.00  0.00    -0.026 A 
ATOM      6  C16 1CE d   1      -4.981  51.656   7.034  0.00  0.00    -0.039 C 
ATOM      7  C17 1CE d   1      -5.119  52.350   5.672  0.00  0.00    -0.061 C 
ATOM      8  C18 1CE d   1      -6.572  52.629   5.253  0.00  0.00    -0.061 C 
ATOM      9  C19 1CE d   1      -7.304  53.636   6.148  0.00  0.00    -0.034 C 
ATOM     10  C14 1CE d   1      -6.902  53.334   7.566  0.00  0.00    -0.008 A 
ATOM     11  S15 1CE d   1      -7.765  54.129   8.919  0.00  0.00    -0.073 SA
ATOM     12  C10 1CE d   1      -6.758  53.284  10.119  0.00  0.00     0.115 A 
ATOM     13  N9  1CE d   1      -6.864  53.414  11.461  0.00  0.00    -0.235 NA
ATOM     14  C8  1CE d   1      -6.035  52.719  12.262  0.00  0.00     0.070 A 
ATOM     15  H4  1CE d   1      -5.333  50.617   6.961  0.00  0.00     0.040 H 
ATOM     16  H5  1CE d   1      -3.928  51.665   7.353  0.00  0.00     0.040 H 
ATOM     17  H6  1CE d   1      -4.657  51.707   4.908  0.00  0.00     0.033 H 
ATOM     18  H7  1CE d   1      -4.582  53.309   5.717  0.00  0.00     0.033 H 
ATOM     19  H8  1CE d   1      -7.126  51.679   5.278  0.00  0.00     0.033 H 
ATOM     20  H9  1CE d   1      -6.565  53.023   4.226  0.00  0.00     0.033 H 
ATOM     21  H10 1CE d   1      -8.392  53.525   6.032  0.00  0.00     0.040 H 
ATOM     22  H11 1CE d   1      -7.010  54.662   5.882  0.00  0.00     0.040 H 
ATOM     23  H12 1CE d   1      -6.139  52.845  13.339  0.00  0.00     0.144 H 
ENDROOT
BRANCH   3  24
ATOM     24  C6  1CE d   1      -4.243  51.195  12.796  0.00  0.00     0.063 C 
ATOM     25  H1  1CE d   1      -4.021  50.169  12.467  0.00  0.00     0.077 H 
ATOM     26  H2  1CE d   1      -4.747  51.165  13.773  0.00  0.00     0.077 H 
BRANCH  24  27
ATOM     27  C3  1CE d   1      -2.973  52.003  12.886  0.00  0.00     0.183 A 
ATOM     28  N2  1CE d   1      -2.908  53.345  13.068  0.00  0.00    -0.142 NA
ATOM     29  N1  1CE d   1      -1.561  53.727  13.092  0.00  0.00    -0.200 N 
ATOM     30  N5  1CE d   1      -0.813  52.562  12.911  0.00  0.00     0.021 NA
ATOM     31  H3  1CE d   1      -1.194  54.681  13.219  0.00  0.00     0.208 HD
ATOM     32  N4  1CE d   1      -1.723  51.503  12.784  0.00  0.00    -0.140 NA
ENDBRANCH  24  27
ENDBRANCH   3  24
TORSDOF 2
