REMARK  3 active torsions:
REMARK  status: ('A' for Active; 'I' for Inactive)
REMARK    1  A    between atoms: C14_7  and  C13_8 
REMARK       I    between atoms: C13_8  and  N12_10 
REMARK    2  A    between atoms: N12_10  and  C10_11 
REMARK    3  A    between atoms: C6_15  and  C4_17 
ROOT
ATOM      1  C10 F13 d   1      -6.654  54.578  12.643  0.00  0.00     0.035 A 
ATOM      2  C9  F13 d   1      -7.088  53.818  13.737  0.00  0.00    -0.057 A 
ATOM      3  C8  F13 d   1      -6.189  53.038  14.465  0.00  0.00    -0.080 A 
ATOM      4  C7  F13 d   1      -4.845  52.980  14.112  0.00  0.00    -0.069 A 
ATOM      5  C6  F13 d   1      -4.415  53.727  13.021  0.00  0.00     0.017 A 
ATOM      6  C11 F13 d   1      -5.304  54.525  12.297  0.00  0.00    -0.043 A 
ATOM      7  H6  F13 d   1      -8.134  53.836  14.021  0.00  0.00     0.086 H 
ATOM      8  H7  F13 d   1      -6.543  52.469  15.317  0.00  0.00     0.083 H 
ATOM      9  H8  F13 d   1      -4.149  52.367  14.674  0.00  0.00     0.085 H 
ATOM     10  H9  F13 d   1      -4.941  55.108  11.459  0.00  0.00     0.088 H 
ENDROOT
BRANCH   1  11
ATOM     11  N12 F13 d   1      -7.494  55.363  11.908  0.00  0.00    -0.323 N 
ATOM     12  C13 F13 d   1      -8.563  56.008  12.391  0.00  0.00     0.256 C 
ATOM     13  O20 F13 d   1      -8.942  55.901  13.547  0.00  0.00    -0.267 OA
ATOM     14  H5  F13 d   1      -7.296  55.464  10.933  0.00  0.00     0.169 HD
BRANCH  12  15
ATOM     15  C14 F13 d   1      -9.312  56.931  11.467  0.00  0.00     0.035 A 
ATOM     16  C15 F13 d   1     -10.149  57.909  12.002  0.00  0.00    -0.030 A 
ATOM     17  C16 F13 d   1     -10.824  58.784  11.157  0.00  0.00     0.117 A 
ATOM     18  H1  F13 d   1     -10.274  57.988  13.076  0.00  0.00     0.089 H 
ATOM     19  F21 F13 d   1     -11.626  59.731  11.693  0.00  0.00    -0.206 F 
ATOM     20  C17 F13 d   1     -10.674  58.669   9.783  0.00  0.00    -0.046 A 
ATOM     21  C18 F13 d   1      -9.845  57.692   9.236  0.00  0.00    -0.079 A 
ATOM     22  H2  F13 d   1     -11.208  59.347   9.127  0.00  0.00     0.088 H 
ATOM     23  C19 F13 d   1      -9.153  56.825  10.081  0.00  0.00    -0.068 A 
ATOM     24  H3  F13 d   1      -9.739  57.606   8.161  0.00  0.00     0.083 H 
ATOM     25  H4  F13 d   1      -8.494  56.071   9.665  0.00  0.00     0.085 H 
ENDBRANCH  12  15
ENDBRANCH   1  11
BRANCH   5  26
ATOM     26  C4  F13 d   1      -2.989  53.679  12.626  0.00  0.00     0.198 A 
ATOM     27  N5  F13 d   1      -2.527  53.957  11.393  0.00  0.00    -0.139 NA
ATOM     28  N1  F13 d   1      -1.149  53.794  11.394  0.00  0.00    -0.200 N 
ATOM     29  N2  F13 d   1      -0.791  53.398  12.682  0.00  0.00     0.022 NA
ATOM     30  H10 F13 d   1      -0.513  53.938  10.597  0.00  0.00     0.208 HD
ATOM     31  N3  F13 d   1      -1.964  53.326  13.429  0.00  0.00    -0.136 NA
ENDBRANCH   5  26
TORSDOF 3
