REMARK  16 active torsions:
REMARK  status: ('A' for Active; 'I' for Inactive)
REMARK    1  A    between atoms: C5_1  and  C3_2 
REMARK    2  A    between atoms: C5_1  and  C6_6 
REMARK       I    between atoms: C3_2  and  N1_4 
REMARK    3  A    between atoms: N1_4  and  O2_5 
REMARK    4  A    between atoms: C6_6  and  C12_7 
REMARK    5  A    between atoms: C6_6  and  C7_9 
REMARK       I    between atoms: C12_7  and  N14_14 
REMARK    6  A    between atoms: C7_9  and  C8_10 
REMARK    7  A    between atoms: C8_10  and  C9_11 
REMARK    8  A    between atoms: C9_11  and  C10_12 
REMARK    9  A    between atoms: C10_12  and  C11_13 
REMARK   10  A    between atoms: N14_14  and  C15_15 
REMARK   11  A    between atoms: C15_15  and  C16_16 
REMARK   12  A    between atoms: C15_15  and  C19_19 
REMARK   13  A    between atoms: C16_16  and  C18_17 
REMARK   14  A    between atoms: C16_16  and  C17_18 
REMARK       I    between atoms: C19_19  and  N21_21 
REMARK   15  A    between atoms: C22_22  and  C26_26 
REMARK   16  A    between atoms: C26_26  and  O27_27 
ROOT
ATOM      1  C12 BB2 d   1      35.129  11.429  11.094  0.00  0.00     0.223 C 
ATOM      2  O13 BB2 d   1      36.055  12.148  10.856  0.00  0.00    -0.273 OA
ATOM      3  N14 BB2 d   1      35.431  10.085  11.373  0.00  0.00    -0.347 N 
ATOM      4  H17 BB2 d   1      34.676   9.441  11.496  0.00  0.00     0.163 HD
ENDROOT
BRANCH   3   5
ATOM      5  C15 BB2 d   1      36.827   9.577  11.493  0.00  0.00     0.092 C 
ATOM      6  H18 BB2 d   1      37.558  10.347  11.205  0.00  0.00     0.088 H 
BRANCH   5   7
ATOM      7  C16 BB2 d   1      37.049   9.171  12.977  0.00  0.00    -0.033 C 
ATOM      8  H19 BB2 d   1      38.054   8.732  13.058  0.00  0.00     0.042 H 
BRANCH   7   9
ATOM      9  C18 BB2 d   1      36.133   8.058  13.345  0.00  0.00    -0.071 C 
ATOM     10  H20 BB2 d   1      36.299   7.779  14.396  0.00  0.00     0.028 H 
ATOM     11  H21 BB2 d   1      36.333   7.190  12.700  0.00  0.00     0.028 H 
ATOM     12  H22 BB2 d   1      35.090   8.382  13.211  0.00  0.00     0.028 H 
ENDBRANCH   7   9
BRANCH   7  13
ATOM     13  C17 BB2 d   1      37.124  10.462  13.741  0.00  0.00    -0.071 C 
ATOM     14  H23 BB2 d   1      37.872  11.121  13.275  0.00  0.00     0.028 H 
ATOM     15  H24 BB2 d   1      37.414  10.256  14.782  0.00  0.00     0.028 H 
ATOM     16  H25 BB2 d   1      36.141  10.955  13.726  0.00  0.00     0.028 H 
ENDBRANCH   7  13
ENDBRANCH   5   7
BRANCH   5  17
ATOM     17  C19 BB2 d   1      36.910   8.358  10.509  0.00  0.00     0.243 C 
ATOM     18  O20 BB2 d   1      35.867   7.739  10.126  0.00  0.00    -0.271 OA
ATOM     19  N21 BB2 d   1      38.114   7.894  10.178  0.00  0.00    -0.344 N 
ATOM     20  C22 BB2 d   1      38.363   6.758   9.296  0.00  0.00     0.035 C 
ATOM     21  C23 BB2 d   1      39.366   8.675  10.521  0.00  0.00    -0.002 C 
ATOM     22  C25 BB2 d   1      39.847   7.025   8.809  0.00  0.00    -0.043 C 
ATOM     23  H26 BB2 d   1      37.645   6.696   8.465  0.00  0.00     0.076 H 
ATOM     24  C24 BB2 d   1      40.501   8.033   9.766  0.00  0.00    -0.048 C 
ATOM     25  H31 BB2 d   1      39.834   7.436   7.789  0.00  0.00     0.036 H 
ATOM     26  H32 BB2 d   1      40.415   6.083   8.817  0.00  0.00     0.036 H 
ATOM     27  H29 BB2 d   1      41.180   7.517  10.461  0.00  0.00     0.035 H 
ATOM     28  H30 BB2 d   1      41.062   8.791   9.200  0.00  0.00     0.035 H 
ATOM     29  H27 BB2 d   1      39.557   8.628  11.603  0.00  0.00     0.064 H 
ATOM     30  H28 BB2 d   1      39.253   9.725  10.214  0.00  0.00     0.064 H 
BRANCH  20  31
ATOM     31  C26 BB2 d   1      38.357   5.486  10.145  0.00  0.00     0.036 C 
ATOM     32  H33 BB2 d   1      37.474   5.446  10.800  0.00  0.00     0.077 H 
ATOM     33  H34 BB2 d   1      39.270   5.406  10.754  0.00  0.00     0.077 H 
BRANCH  31  34
ATOM     34  O27 BB2 d   1      38.307   4.431   9.107  0.00  0.00    -0.399 OA
ATOM     35  H35 BB2 d   1      37.519   4.537   8.586  0.00  0.00     0.209 HD
ENDBRANCH  31  34
ENDBRANCH  20  31
ENDBRANCH   5  17
ENDBRANCH   3   5
BRANCH   1  36
ATOM     36  C6  BB2 d   1      33.796  11.875  10.861  0.00  0.00     0.032 C 
ATOM     37  H5  BB2 d   1      33.122  11.006  10.891  0.00  0.00     0.055 H 
BRANCH  36  38
ATOM     38  C5  BB2 d   1      33.376  12.813  12.048  0.00  0.00     0.022 C 
ATOM     39  H1  BB2 d   1      33.706  12.371  13.000  0.00  0.00     0.048 H 
ATOM     40  H2  BB2 d   1      33.844  13.800  11.919  0.00  0.00     0.048 H 
BRANCH  38  41
ATOM     41  C3  BB2 d   1      31.901  12.962  12.057  0.00  0.00     0.241 C 
ATOM     42  O4  BB2 d   1      31.018  12.206  12.579  0.00  0.00    -0.271 OA
ATOM     43  N1  BB2 d   1      31.283  13.820  11.350  0.00  0.00    -0.237 N 
ATOM     44  H3  BB2 d   1      31.767  14.479  10.774  0.00  0.00     0.197 HD
BRANCH  43  45
ATOM     45  O2  BB2 d   1      29.853  13.786  11.427  0.00  0.00    -0.287 OA
ATOM     46  H4  BB2 d   1      29.542  12.935  11.141  0.00  0.00     0.244 HD
ENDBRANCH  43  45
ENDBRANCH  38  41
ENDBRANCH  36  38
BRANCH  36  47
ATOM     47  C7  BB2 d   1      33.726  12.442   9.433  0.00  0.00    -0.053 C 
ATOM     48  H6  BB2 d   1      34.359  13.341   9.398  0.00  0.00     0.034 H 
ATOM     49  H7  BB2 d   1      32.681  12.722   9.234  0.00  0.00     0.034 H 
BRANCH  47  50
ATOM     50  C8  BB2 d   1      34.196  11.475   8.270  0.00  0.00    -0.064 C 
ATOM     51  H8  BB2 d   1      35.257  11.226   8.423  0.00  0.00     0.033 H 
ATOM     52  H9  BB2 d   1      34.076  11.995   7.308  0.00  0.00     0.033 H 
BRANCH  50  53
ATOM     53  C9  BB2 d   1      33.382  10.169   8.232  0.00  0.00    -0.065 C 
ATOM     54  H10 BB2 d   1      32.307  10.404   8.234  0.00  0.00     0.033 H 
ATOM     55  H11 BB2 d   1      33.625   9.557   9.113  0.00  0.00     0.033 H 
BRANCH  53  56
ATOM     56  C10 BB2 d   1      33.741   9.387   6.940  0.00  0.00    -0.069 C 
ATOM     57  H12 BB2 d   1      33.476  10.012   6.074  0.00  0.00     0.032 H 
ATOM     58  H13 BB2 d   1      33.146   8.462   6.920  0.00  0.00     0.032 H 
BRANCH  56  59
ATOM     59  C11 BB2 d   1      35.273   8.995   6.820  0.00  0.00    -0.077 C 
ATOM     60  H14 BB2 d   1      35.439   8.447   5.881  0.00  0.00     0.027 H 
ATOM     61  H15 BB2 d   1      35.556   8.358   7.671  0.00  0.00     0.027 H 
ATOM     62  H16 BB2 d   1      35.887   9.908   6.825  0.00  0.00     0.027 H 
ENDBRANCH  56  59
ENDBRANCH  53  56
ENDBRANCH  50  53
ENDBRANCH  47  50
ENDBRANCH  36  47
ENDBRANCH   1  36
TORSDOF 16
