REMARK  11 active torsions:
REMARK  status: ('A' for Active; 'I' for Inactive)
REMARK    1  A    between atoms: O3'_1  and  C3'_2 
REMARK    2  A    between atoms: C3'_2  and  C2'_3 
REMARK    3  A    between atoms: C2'_3  and  O2'_4 
REMARK    4  A    between atoms: C2'_3  and  C1'_5 
REMARK    5  A    between atoms: C1'_5  and  O1_6 
REMARK    6  A    between atoms: O1_6  and  C1_7 
REMARK    7  A    between atoms: C2_8  and  O2_9 
REMARK    8  A    between atoms: C3_10  and  O3_11 
REMARK    9  A    between atoms: C4_12  and  O4_13 
REMARK   10  A    between atoms: C5_14  and  C6_16 
REMARK   11  A    between atoms: C6_16  and  O6_17 
ROOT
ATOM      1  C1  RGG d   1      -0.417  -4.305   2.267  0.00  0.00     0.158 C 
ATOM      2  C2  RGG d   1       0.382  -4.836   3.455  0.00  0.00     0.110 C 
ATOM      3  C3  RGG d   1      -0.186  -4.390   4.793  0.00  0.00     0.092 C 
ATOM      4  C4  RGG d   1      -0.447  -2.886   4.792  0.00  0.00     0.090 C 
ATOM      5  C5  RGG d   1      -1.333  -2.508   3.609  0.00  0.00     0.089 C 
ATOM      6  O5  RGG d   1      -0.689  -2.898   2.387  0.00  0.00    -0.348 OA
ATOM      7  H8  RGG d   1      -1.373  -4.845   2.209  0.00  0.00     0.133 H 
ATOM      8  H9  RGG d   1       1.421  -4.485   3.373  0.00  0.00     0.094 H 
ATOM      9  H11 RGG d   1      -1.139  -4.912   4.965  0.00  0.00     0.091 H 
ATOM     10  H13 RGG d   1      -0.958  -2.610   5.726  0.00  0.00     0.091 H 
ATOM     11  H15 RGG d   1      -2.299  -3.026   3.697  0.00  0.00     0.090 H 
ENDROOT
BRANCH   1  12
ATOM     12  O1  RGG d   1       0.339  -4.546   1.079  0.00  0.00    -0.356 OA
BRANCH  12  13
ATOM     13  C1' RGG d   1      -0.348  -4.305  -0.134  0.00  0.00     0.048 C 
ATOM     14  H6  RGG d   1      -1.186  -5.012  -0.226  0.00  0.00     0.078 H 
ATOM     15  H7  RGG d   1      -0.735  -3.275  -0.136  0.00  0.00     0.078 H 
BRANCH  13  16
ATOM     16  C2' RGG d   1       0.603  -4.491  -1.314  0.00  0.00     0.076 C 
ATOM     17  H4  RGG d   1       0.945  -5.535  -1.372  0.00  0.00     0.089 H 
BRANCH  16  18
ATOM     18  C3' RGG d   1      -0.182  -4.104  -2.558  0.00  0.00     0.042 C 
ATOM     19  H2  RGG d   1      -0.813  -3.229  -2.343  0.00  0.00     0.078 H 
ATOM     20  H3  RGG d   1       0.512  -3.864  -3.377  0.00  0.00     0.078 H 
BRANCH  18  21
ATOM     21  O3' RGG d   1      -1.007  -5.218  -2.931  0.00  0.00    -0.398 OA
ATOM     22  H1  RGG d   1      -1.602  -5.423  -2.219  0.00  0.00     0.209 HD
ENDBRANCH  18  21
ENDBRANCH  16  18
BRANCH  16  23
ATOM     23  O2' RGG d   1       1.730  -3.607  -1.203  0.00  0.00    -0.391 OA
ATOM     24  H5  RGG d   1       2.276  -3.694  -1.975  0.00  0.00     0.210 HD
ENDBRANCH  16  23
ENDBRANCH  13  16
ENDBRANCH  12  13
ENDBRANCH   1  12
BRANCH   2  25
ATOM     25  O2  RGG d   1       0.344  -6.273   3.408  0.00  0.00    -0.388 OA
ATOM     26  H10 RGG d   1       0.836  -6.626   4.140  0.00  0.00     0.210 HD
ENDBRANCH   2  25
BRANCH   3  27
ATOM     27  O3  RGG d   1       0.731  -4.737   5.849  0.00  0.00    -0.390 OA
ATOM     28  H12 RGG d   1       0.860  -5.678   5.859  0.00  0.00     0.210 HD
ENDBRANCH   3  27
BRANCH   5  29
ATOM     29  C6  RGG d   1      -1.566  -0.996   3.591  0.00  0.00     0.043 C 
ATOM     30  H16 RGG d   1      -0.613  -0.482   3.786  0.00  0.00     0.078 H 
ATOM     31  H17 RGG d   1      -2.291  -0.734   4.375  0.00  0.00     0.078 H 
BRANCH  29  32
ATOM     32  O6  RGG d   1      -2.077  -0.572   2.316  0.00  0.00    -0.398 OA
ATOM     33  H18 RGG d   1      -1.452  -0.794   1.636  0.00  0.00     0.209 HD
ENDBRANCH  29  32
ENDBRANCH   5  29
BRANCH   4  34
ATOM     34  O4  RGG d   1       0.797  -2.178   4.710  0.00  0.00    -0.390 OA
ATOM     35  H14 RGG d   1       1.338  -2.403   5.458  0.00  0.00     0.210 HD
ENDBRANCH   4  34
TORSDOF 11
