REMARK  8 active torsions:
REMARK  status: ('A' for Active; 'I' for Inactive)
REMARK    1  A    between atoms: CAA_1  and  NH_2 
REMARK    2  A    between atoms: NH_2  and  CAH_3 
REMARK    3  A    between atoms: CAG_4  and  OAC_5 
REMARK    4  A    between atoms: CAK_12  and  CAE_13 
REMARK    5  A    between atoms: CAK_12  and  CB_16 
REMARK    6  A    between atoms: CB_16  and  CA_17 
REMARK    7  A    between atoms: CA_17  and  C_18 
REMARK    8  A    between atoms: CA_17  and  N_21 
ROOT
ATOM      1  CAH DYH d   1     -14.960  55.247  50.837  0.00  0.00     0.155 C 
ATOM      2  CAG DYH d   1     -15.740  53.976  50.536  0.00  0.00     0.086 C 
ATOM      3  CAP DYH d   1     -17.053  53.974  51.299  0.00  0.00     0.046 C 
ATOM      4  OAQ DYH d   1     -17.854  55.061  50.887  0.00  0.00    -0.381 OA
ATOM      5  CAR DYH d   1     -17.275  56.324  51.277  0.00  0.00     0.069 C 
ATOM      6  CAS DYH d   1     -18.006  57.409  50.520  0.00  0.00     0.000 C 
ATOM      7  CAI DYH d   1     -15.858  56.488  50.749  0.00  0.00     0.095 C 
ATOM      8  OAJ DYH d   1     -16.014  56.806  49.347  0.00  0.00    -0.359 OA
ATOM      9  CAK DYH d   1     -17.283  57.432  49.160  0.00  0.00     0.154 C 
ATOM     10  H6  DYH d   1     -14.560  55.181  51.860  0.00  0.00     0.092 H 
ATOM     11  H7  DYH d   1     -15.138  53.112  50.854  0.00  0.00     0.089 H 
ATOM     12  H9  DYH d   1     -16.848  54.061  52.376  0.00  0.00     0.078 H 
ATOM     13  H10 DYH d   1     -17.587  53.033  51.102  0.00  0.00     0.078 H 
ATOM     14  H11 DYH d   1     -17.325  56.456  52.368  0.00  0.00     0.087 H 
ATOM     15  H12 DYH d   1     -17.915  58.378  51.032  0.00  0.00     0.042 H 
ATOM     16  H13 DYH d   1     -19.070  57.157  50.398  0.00  0.00     0.042 H 
ATOM     17  H14 DYH d   1     -15.369  57.314  51.285  0.00  0.00     0.090 H 
ENDROOT
BRANCH   9  18
ATOM     18  CAE DYH d   1     -18.112  56.659  48.135  0.00  0.00     0.209 C 
ATOM     19  OAB DYH d   1     -17.743  55.505  47.819  0.00  0.00    -0.646 OA
ATOM     20  OAF DYH d   1     -19.106  57.242  47.690  0.00  0.00    -0.646 OA
ENDBRANCH   9  18
BRANCH   9  21
ATOM     21  CB  DYH d   1     -17.088  58.891  48.743  0.00  0.00     0.010 C 
ATOM     22  H15 DYH d   1     -16.438  59.373  49.487  0.00  0.00     0.042 H 
ATOM     23  H16 DYH d   1     -18.073  59.380  48.745  0.00  0.00     0.042 H 
BRANCH  21  24
ATOM     24  CA  DYH d   1     -16.456  59.099  47.352  0.00  0.00     0.185 C 
ATOM     25  H17 DYH d   1     -16.942  58.407  46.649  0.00  0.00     0.101 H 
BRANCH  24  26
ATOM     26  C   DYH d   1     -16.742  60.524  46.910  0.00  0.00     0.204 C 
ATOM     27  OXT DYH d   1     -17.936  60.893  46.984  0.00  0.00    -0.646 OA
ATOM     28  O   DYH d   1     -15.781  61.234  46.531  0.00  0.00    -0.646 OA
ENDBRANCH  24  26
BRANCH  24  29
ATOM     29  N   DYH d   1     -15.009  58.830  47.317  0.00  0.00    -0.065 N 
ATOM     30  H18 DYH d   1     -14.661  58.984  46.384  0.00  0.00     0.275 HD
ATOM     31  H19 DYH d   1     -14.838  57.873  47.585  0.00  0.00     0.275 HD
ATOM     32  H20 DYH d   1     -14.537  59.448  47.958  0.00  0.00     0.275 HD
ENDBRANCH  24  29
ENDBRANCH  21  24
ENDBRANCH   9  21
BRANCH   1  33
ATOM     33  NH  DYH d   1     -13.824  55.350  49.884  0.00  0.00    -0.070 N 
ATOM     34  H4  DYH d   1     -13.293  54.494  49.911  0.00  0.00     0.277 HD
ATOM     35  H5  DYH d   1     -14.186  55.491  48.954  0.00  0.00     0.277 HD
BRANCH  33  36
ATOM     36  CAA DYH d   1     -12.945  56.470  50.230  0.00  0.00     0.065 C 
ATOM     37  H1  DYH d   1     -12.116  56.521  49.509  0.00  0.00     0.067 H 
ATOM     38  H2  DYH d   1     -12.542  56.321  51.243  0.00  0.00     0.067 H 
ATOM     39  H3  DYH d   1     -13.517  57.409  50.198  0.00  0.00     0.067 H 
ENDBRANCH  33  36
ENDBRANCH   1  33
BRANCH   2  40
ATOM     40  OAC DYH d   1     -16.021  53.855  49.138  0.00  0.00    -0.391 OA
ATOM     41  H8  DYH d   1     -16.537  54.600  48.854  0.00  0.00     0.210 HD
ENDBRANCH   2  40
TORSDOF 8
