REMARK  5 active torsions:
REMARK  status: ('A' for Active; 'I' for Inactive)
REMARK    1  A    between atoms: C2_2  and  O2_3 
REMARK    2  A    between atoms: C3_4  and  O3_5 
REMARK    3  A    between atoms: C4_6  and  O4_7 
REMARK    4  A    between atoms: C5_8  and  C6_10 
REMARK    5  A    between atoms: C6_10  and  O6_11 
ROOT
ATOM      1  C1  NOJ d   1      14.758  37.535  43.999  0.00  0.00     0.108 C 
ATOM      2  C2  NOJ d   1      13.670  38.203  44.893  0.00  0.00     0.086 C 
ATOM      3  C3  NOJ d   1      12.685  38.984  43.978  0.00  0.00     0.088 C 
ATOM      4  C4  NOJ d   1      13.491  40.112  43.279  0.00  0.00     0.092 C 
ATOM      5  C5  NOJ d   1      14.686  39.481  42.471  0.00  0.00     0.149 C 
ATOM      6  N5  NOJ d   1      15.526  38.594  43.268  0.00  0.00    -0.064 N 
ATOM      7  H1  NOJ d   1      14.275  36.866  43.272  0.00  0.00     0.079 H 
ATOM      8  H2  NOJ d   1      15.446  36.954  44.631  0.00  0.00     0.079 H 
ATOM      9  H3  NOJ d   1      14.153  38.903  45.591  0.00  0.00     0.089 H 
ATOM     10  H5  NOJ d   1      12.268  38.299  43.225  0.00  0.00     0.091 H 
ATOM     11  H7  NOJ d   1      13.903  40.783  44.047  0.00  0.00     0.090 H 
ATOM     12  H9  NOJ d   1      14.254  38.900  41.643  0.00  0.00     0.091 H 
ATOM     13  H10 NOJ d   1      16.185  38.142  42.654  0.00  0.00     0.277 HD
ATOM     14  H11 NOJ d   1      16.024  39.151  43.945  0.00  0.00     0.277 HD
ENDROOT
BRANCH   5  15
ATOM     15  C6  NOJ d   1      15.633  40.580  41.876  0.00  0.00     0.046 C 
ATOM     16  H12 NOJ d   1      15.060  41.290  41.261  0.00  0.00     0.077 H 
ATOM     17  H13 NOJ d   1      16.422  40.118  41.264  0.00  0.00     0.077 H 
BRANCH  15  18
ATOM     18  O6  NOJ d   1      16.229  41.276  43.065  0.00  0.00    -0.399 OA
ATOM     19  H14 NOJ d   1      16.711  40.648  43.590  0.00  0.00     0.209 HD
ENDBRANCH  15  18
ENDBRANCH   5  15
BRANCH   4  20
ATOM     20  O4  NOJ d   1      12.611  40.887  42.410  0.00  0.00    -0.391 OA
ATOM     21  H8  NOJ d   1      13.111  41.575  41.986  0.00  0.00     0.210 HD
ENDBRANCH   4  20
BRANCH   3  22
ATOM     22  O3  NOJ d   1      11.618  39.571  44.712  0.00  0.00    -0.390 OA
ATOM     23  H6  NOJ d   1      11.129  38.889  45.158  0.00  0.00     0.210 HD
ENDBRANCH   3  22
BRANCH   2  24
ATOM     24  O2  NOJ d   1      12.973  37.230  45.630  0.00  0.00    -0.391 OA
ATOM     25  H4  NOJ d   1      12.315  37.654  46.169  0.00  0.00     0.210 HD
ENDBRANCH   2  24
TORSDOF 5
