REMARK  8 active torsions:
REMARK  status: ('A' for Active; 'I' for Inactive)
REMARK    1  A    between atoms: C6_6  and  C7_7 
REMARK    2  A    between atoms: C7_7  and  C8_8 
REMARK    3  A    between atoms: C8_8  and  N2_9 
REMARK    4  A    between atoms: N2_9  and  C9_10 
REMARK    5  A    between atoms: C9_10  and  C10_11 
REMARK    6  A    between atoms: C17_19  and  N4_20 
REMARK    7  A    between atoms: N4_20  and  C1_21 
REMARK    8  A    between atoms: C18_23  and  N6_24 
ROOT
ATOM      1  N1  AAQ d   1      19.194  17.783  18.084  0.00  0.00    -0.063 NA
ATOM      2  C3  AAQ d   1      18.463  17.424  19.190  0.00  0.00     0.104 A 
ATOM      3  C2  AAQ d   1      18.739  17.446  20.556  0.00  0.00    -0.035 A 
ATOM      4  C4  AAQ d   1      17.690  17.093  21.402  0.00  0.00     0.063 A 
ATOM      5  C5  AAQ d   1      16.455  16.617  20.913  0.00  0.00     0.073 A 
ATOM      6  C6  AAQ d   1      16.241  16.521  19.519  0.00  0.00     0.001 A 
ATOM      7  C16 AAQ d   1      17.266  16.966  18.665  0.00  0.00     0.087 A 
ATOM      8  N3  AAQ d   1      17.259  17.056  17.295  0.00  0.00    -0.187 N 
ATOM      9  C17 AAQ d   1      18.381  17.653  16.979  0.00  0.00     0.701 C 
ATOM     10  N5  AAQ d   1      15.421  16.318  21.832  0.00  0.00    -0.190 N 
ATOM     11  C18 AAQ d   1      15.564  16.504  23.118  0.00  0.00     0.679 A 
ATOM     12  N7  AAQ d   1      16.765  16.943  23.646  0.00  0.00    -0.156 N 
ATOM     13  C19 AAQ d   1      17.876  17.206  22.855  0.00  0.00     0.272 A 
ATOM     14  O1  AAQ d   1      18.978  17.515  23.313  0.00  0.00    -0.267 OA
ATOM     15  H1  AAQ d   1      19.715  17.722  20.939  0.00  0.00     0.088 H 
ATOM     16  H15 AAQ d   1      16.526  16.724  16.652  0.00  0.00     0.184 HD
ATOM     17  H20 AAQ d   1      14.530  15.943  21.477  0.00  0.00     0.184 HD
ATOM     18  H23 AAQ d   1      16.836  17.076  24.635  0.00  0.00     0.187 HD
ENDROOT
BRANCH   6  19
ATOM     19  C7  AAQ d   1      14.917  16.143  18.899  0.00  0.00    -0.014 C 
ATOM     20  H2  AAQ d   1      14.676  16.835  18.079  0.00  0.00     0.042 H 
ATOM     21  H3  AAQ d   1      14.122  16.183  19.658  0.00  0.00     0.042 H 
BRANCH  19  22
ATOM     22  C8  AAQ d   1      15.048  14.727  18.361  0.00  0.00     0.086 C 
ATOM     23  H4  AAQ d   1      14.773  14.017  19.155  0.00  0.00     0.076 H 
ATOM     24  H5  AAQ d   1      16.092  14.555  18.061  0.00  0.00     0.076 H 
BRANCH  22  25
ATOM     25  N2  AAQ d   1      14.173  14.501  17.195  0.00  0.00    -0.071 N 
ATOM     26  H6  AAQ d   1      14.486  13.672  16.714  0.00  0.00     0.277 HD
ATOM     27  H7  AAQ d   1      14.246  15.295  16.579  0.00  0.00     0.277 HD
BRANCH  25  28
ATOM     28  C9  AAQ d   1      12.739  14.321  17.573  0.00  0.00     0.105 C 
ATOM     29  H8  AAQ d   1      12.646  14.287  18.669  0.00  0.00     0.083 H 
ATOM     30  H9  AAQ d   1      12.358  13.383  17.143  0.00  0.00     0.083 H 
BRANCH  28  31
ATOM     31  C10 AAQ d   1      11.952  15.477  17.037  0.00  0.00    -0.033 A 
ATOM     32  C11 AAQ d   1      11.708  16.589  17.834  0.00  0.00    -0.075 A 
ATOM     33  C12 AAQ d   1      10.980  17.680  17.363  0.00  0.00    -0.082 A 
ATOM     34  H10 AAQ d   1      12.093  16.608  18.847  0.00  0.00     0.084 H 
ATOM     35  C13 AAQ d   1      10.496  17.627  16.062  0.00  0.00    -0.083 A 
ATOM     36  H11 AAQ d   1      10.797  18.543  17.992  0.00  0.00     0.083 H 
ATOM     37  C14 AAQ d   1      10.735  16.518  15.253  0.00  0.00    -0.082 A 
ATOM     38  H12 AAQ d   1       9.924  18.460  15.671  0.00  0.00     0.083 H 
ATOM     39  C15 AAQ d   1      11.464  15.432  15.731  0.00  0.00    -0.075 A 
ATOM     40  H13 AAQ d   1      10.349  16.500  14.240  0.00  0.00     0.083 H 
ATOM     41  H14 AAQ d   1      11.649  14.569  15.101  0.00  0.00     0.084 H 
ENDBRANCH  28  31
ENDBRANCH  25  28
ENDBRANCH  22  25
ENDBRANCH  19  22
ENDBRANCH   6  19
BRANCH  11  42
ATOM     42  N6  AAQ d   1      14.612  16.081  24.030  0.00  0.00    -0.234 N 
ATOM     43  H21 AAQ d   1      14.756  16.243  25.037  0.00  0.00     0.174 HD
ATOM     44  H22 AAQ d   1      13.760  15.604  23.701  0.00  0.00     0.174 HD
ENDBRANCH  11  42
BRANCH   9  45
ATOM     45  N4  AAQ d   1      18.910  17.863  15.762  0.00  0.00    -0.229 N 
ATOM     46  H16 AAQ d   1      19.902  18.120  15.663  0.00  0.00     0.177 HD
BRANCH  45  47
ATOM     47  C1  AAQ d   1      18.074  17.724  14.599  0.00  0.00    -0.005 C 
ATOM     48  H17 AAQ d   1      18.666  17.930  13.695  0.00  0.00     0.057 H 
ATOM     49  H18 AAQ d   1      17.238  18.437  14.661  0.00  0.00     0.057 H 
ATOM     50  H19 AAQ d   1      17.679  16.699  14.552  0.00  0.00     0.057 H 
ENDBRANCH  45  47
ENDBRANCH   9  45
TORSDOF 8
