REMARK  6 active torsions:
REMARK  status: ('A' for Active; 'I' for Inactive)
REMARK    1  A    between atoms: C4_4  and  N20_5 
REMARK    2  A    between atoms: C10_8  and  C16_9 
REMARK    3  A    between atoms: C16_9  and  C17_10 
REMARK    4  A    between atoms: C17_10  and  N18_11 
REMARK    5  A    between atoms: C12_14  and  N14_15 
REMARK    6  A    between atoms: N14_15  and  C15_16 
ROOT
ATOM      1  C2  2MQ d   1      17.753  17.020  23.215  0.00  0.00     0.272 A 
ATOM      2  O19 2MQ d   1      18.861  17.354  23.667  0.00  0.00    -0.267 OA
ATOM      3  N3  2MQ d   1      16.730  16.686  23.979  0.00  0.00    -0.154 N 
ATOM      4  C4  2MQ d   1      15.583  16.269  23.462  0.00  0.00     0.701 A 
ATOM      5  N5  2MQ d   1      15.418  16.126  22.183  0.00  0.00    -0.064 NA
ATOM      6  C6  2MQ d   1      16.380  16.437  21.242  0.00  0.00     0.100 A 
ATOM      7  C10 2MQ d   1      16.112  16.466  19.864  0.00  0.00     0.006 C 
ATOM      8  C9  2MQ d   1      17.121  16.927  19.012  0.00  0.00     0.111 C 
ATOM      9  N11 2MQ d   1      17.188  17.035  17.665  0.00  0.00    -0.062 NA
ATOM     10  C12 2MQ d   1      18.338  17.526  17.362  0.00  0.00     0.701 C 
ATOM     11  N13 2MQ d   1      19.116  17.632  18.415  0.00  0.00    -0.188 N 
ATOM     12  C8  2MQ d   1      18.399  17.228  19.476  0.00  0.00     0.080 C 
ATOM     13  C7  2MQ d   1      18.657  17.287  20.844  0.00  0.00    -0.037 C 
ATOM     14  C1  2MQ d   1      17.606  16.926  21.708  0.00  0.00     0.065 A 
ATOM     15  H16 2MQ d   1      20.091  17.962  18.425  0.00  0.00     0.184 HD
ATOM     16  H17 2MQ d   1      19.623  17.597  21.226  0.00  0.00     0.088 H 
ATOM     17  H1  2MQ d   1      16.823  16.749  24.973  0.00  0.00     0.187 HD
ENDROOT
BRANCH   7  18
ATOM     18  C16 2MQ d   1      14.776  16.048  19.200  0.00  0.00    -0.014 C 
ATOM     19  H5  2MQ d   1      14.544  16.738  18.375  0.00  0.00     0.042 H 
ATOM     20  H6  2MQ d   1      13.968  16.084  19.946  0.00  0.00     0.042 H 
BRANCH  18  21
ATOM     21  C17 2MQ d   1      14.909  14.575  18.635  0.00  0.00     0.084 C 
ATOM     22  H7  2MQ d   1      14.740  13.849  19.444  0.00  0.00     0.075 H 
ATOM     23  H8  2MQ d   1      15.914  14.427  18.214  0.00  0.00     0.075 H 
BRANCH  21  24
ATOM     24  N18 2MQ d   1      13.894  14.393  17.580  0.00  0.00    -0.079 N 
ATOM     25  H9  2MQ d   1      13.962  13.459  17.206  0.00  0.00     0.274 HD
ATOM     26  H10 2MQ d   1      14.052  15.062  16.843  0.00  0.00     0.274 HD
ATOM     27  H11 2MQ d   1      12.975  14.533  17.970  0.00  0.00     0.274 HD
ENDBRANCH  21  24
ENDBRANCH  18  21
ENDBRANCH   7  18
BRANCH   4  28
ATOM     28  N20 2MQ d   1      14.581  15.994  24.269  0.00  0.00    -0.233 N 
ATOM     29  H2  2MQ d   1      13.683  15.669  23.883  0.00  0.00     0.174 HD
ATOM     30  H3  2MQ d   1      14.694  16.104  25.287  0.00  0.00     0.174 HD
ENDBRANCH   4  28
BRANCH  10  31
ATOM     31  N14 2MQ d   1      18.788  17.764  16.143  0.00  0.00    -0.229 N 
ATOM     32  H12 2MQ d   1      19.760  18.096  16.063  0.00  0.00     0.177 HD
BRANCH  31  33
ATOM     33  C15 2MQ d   1      18.051  17.604  14.913  0.00  0.00    -0.005 C 
ATOM     34  H13 2MQ d   1      18.692  17.880  14.063  0.00  0.00     0.057 H 
ATOM     35  H14 2MQ d   1      17.164  18.255  14.930  0.00  0.00     0.057 H 
ATOM     36  H15 2MQ d   1      17.735  16.556  14.809  0.00  0.00     0.057 H 
ENDBRANCH  31  33
ENDBRANCH  10  31
TORSDOF 6
