REMARK  6 active torsions:
REMARK  status: ('A' for Active; 'I' for Inactive)
REMARK    1  A    between atoms: S1_3  and  O2_1 
REMARK    2  A    between atoms: S1_3  and  C1_2 
REMARK    3  A    between atoms: CA3_6  and  S1_3 
REMARK    4  A    between atoms: CC2_17  and  CA6_9 
REMARK    5  A    between atoms: CC5_20  and  CB4_13 
REMARK    6  A    between atoms: CD6_26  and  CC4_19 
ROOT
ATOM      1  NC1 SB2 d   1      22.154   1.512 -19.618  0.00  0.00    -0.227 NA
ATOM      2  CC2 SB2 d   1      22.295   0.953 -18.415  0.00  0.00     0.139 A 
ATOM      3  NC3 SB2 d   1      22.819  -0.261 -18.579  0.00  0.00    -0.338 N 
ATOM      4  CC4 SB2 d   1      23.019  -0.490 -19.870  0.00  0.00     0.074 A 
ATOM      5  CC5 SB2 d   1      22.599   0.672 -20.562  0.00  0.00     0.097 A 
ATOM      6  H13 SB2 d   1      23.036  -0.921 -17.819  0.00  0.00     0.167 HD
ENDROOT
BRANCH   2   7
ATOM      7  CA6 SB2 d   1      21.905   1.496 -17.181  0.00  0.00     0.010 A 
ATOM      8  CA1 SB2 d   1      21.426   2.799 -17.084  0.00  0.00    -0.068 A 
ATOM      9  CA2 SB2 d   1      21.022   3.317 -15.853  0.00  0.00    -0.065 A 
ATOM     10  H5  SB2 d   1      21.366   3.417 -17.973  0.00  0.00     0.085 H 
ATOM     11  CA3 SB2 d   1      21.072   2.535 -14.711  0.00  0.00     0.015 A 
ATOM     12  H6  SB2 d   1      20.666   4.339 -15.790  0.00  0.00     0.085 H 
ATOM     13  CA4 SB2 d   1      21.529   1.226 -14.815  0.00  0.00    -0.065 A 
ATOM     14  CA5 SB2 d   1      21.937   0.707 -16.039  0.00  0.00    -0.068 A 
ATOM     15  H7  SB2 d   1      21.568   0.601 -13.930  0.00  0.00     0.085 H 
ATOM     16  H8  SB2 d   1      22.282  -0.319 -16.102  0.00  0.00     0.085 H 
BRANCH  11  17
ATOM     17  S1  SB2 d   1      20.558   3.232 -13.137  0.00  0.00    -0.062 S 
BRANCH  17  18
ATOM     18  O2  SB2 d   1      19.339   4.046 -13.413  0.00  0.00    -0.337 OA
ATOM     19  H1  SB2 d   1      19.019   4.420 -12.601  0.00  0.00     0.227 HD
ENDBRANCH  17  18
BRANCH  17  20
ATOM     20  C1  SB2 d   1      20.206   1.905 -12.000  0.00  0.00    -0.017 C 
ATOM     21  H2  SB2 d   1      21.123   1.325 -11.818  0.00  0.00     0.044 H 
ATOM     22  H3  SB2 d   1      19.436   1.248 -12.431  0.00  0.00     0.044 H 
ATOM     23  H4  SB2 d   1      19.842   2.323 -11.050  0.00  0.00     0.044 H 
ENDBRANCH  17  20
ENDBRANCH  11  17
ENDBRANCH   2   7
BRANCH   5  24
ATOM     24  CB4 SB2 d   1      22.577   0.937 -21.959  0.00  0.00    -0.002 A 
ATOM     25  CB3 SB2 d   1      22.444  -0.075 -22.916  0.00  0.00    -0.054 A 
ATOM     26  CB2 SB2 d   1      22.403   0.261 -24.266  0.00  0.00     0.003 A 
ATOM     27  H10 SB2 d   1      22.373  -1.112 -22.608  0.00  0.00     0.087 H 
ATOM     28  NB1 SB2 d   1      22.474   1.514 -24.693  0.00  0.00    -0.273 NA
ATOM     29  H9  SB2 d   1      22.309  -0.533 -24.997  0.00  0.00     0.114 H 
ATOM     30  CB6 SB2 d   1      22.578   2.516 -23.821  0.00  0.00     0.003 A 
ATOM     31  CB5 SB2 d   1      22.618   2.264 -22.434  0.00  0.00    -0.054 A 
ATOM     32  H12 SB2 d   1      22.633   3.537 -24.182  0.00  0.00     0.114 H 
ATOM     33  H11 SB2 d   1      22.680   3.089 -21.734  0.00  0.00     0.087 H 
ENDBRANCH   5  24
BRANCH   4  34
ATOM     34  CD6 SB2 d   1      23.577  -1.690 -20.324  0.00  0.00    -0.007 A 
ATOM     35  CD1 SB2 d   1      23.039  -2.912 -19.866  0.00  0.00    -0.068 A 
ATOM     36  CD2 SB2 d   1      23.609  -4.120 -20.272  0.00  0.00    -0.045 A 
ATOM     37  H14 SB2 d   1      22.184  -2.913 -19.200  0.00  0.00     0.085 H 
ATOM     38  CD3 SB2 d   1      24.738  -4.105 -21.108  0.00  0.00     0.116 A 
ATOM     39  H15 SB2 d   1      23.184  -5.062 -19.945  0.00  0.00     0.088 H 
ATOM     40  CD4 SB2 d   1      25.277  -2.896 -21.539  0.00  0.00    -0.045 A 
ATOM     41  FD3 SB2 d   1      25.321  -5.267 -21.523  0.00  0.00    -0.206 F 
ATOM     42  CD5 SB2 d   1      24.713  -1.692 -21.140  0.00  0.00    -0.068 A 
ATOM     43  H16 SB2 d   1      26.143  -2.895 -22.191  0.00  0.00     0.088 H 
ATOM     44  H17 SB2 d   1      25.152  -0.754 -21.460  0.00  0.00     0.085 H 
ENDBRANCH   4  34
TORSDOF 6
