REMARK  11 active torsions:
REMARK  status: ('A' for Active; 'I' for Inactive)
REMARK    1  A    between atoms: C2B_3  and  N1E_4 
REMARK    2  A    between atoms: C6_11  and  N1Y_12 
REMARK    3  A    between atoms: N1Y_12  and  C2D_13 
REMARK    4  A    between atoms: C2C_18  and  N1W_19 
REMARK       I    between atoms: N1W_19  and  C1Z_20 
REMARK       I    between atoms: C1Z_20  and  N1X_22 
REMARK    5  A    between atoms: N1X_22  and  C2G_23 
REMARK    6  A    between atoms: C2F_25  and  C2L_26 
REMARK    7  A    between atoms: C2L_26  and  C1C_27 
REMARK    8  A    between atoms: C2L_26  and  C1D_28 
REMARK    9  A    between atoms: C2L_26  and  C1B_29 
REMARK   10  A    between atoms: N2K_31  and  C2E_32 
REMARK   11  A    between atoms: C2A_35  and  C1A_36 
ROOT
ATOM      1  N1W R48 d   1      13.616  -4.700  -0.019  0.00  0.00    -0.309 N 
ATOM      2  C1Z R48 d   1      14.917  -4.936   0.164  0.00  0.00     0.326 C 
ATOM      3  O1F R48 d   1      15.556  -4.414   1.073  0.00  0.00    -0.247 OA
ATOM      4  N1X R48 d   1      15.470  -5.774  -0.732  0.00  0.00    -0.293 N 
ATOM      5  H12 R48 d   1      13.206  -5.178  -0.795  0.00  0.00     0.170 HD
ATOM      6  H13 R48 d   1      14.886  -6.045  -1.497  0.00  0.00     0.172 HD
ENDROOT
BRANCH   4   7
ATOM      7  C2G R48 d   1      16.729  -6.300  -0.726  0.00  0.00     0.135 A 
ATOM      8  C1R R48 d   1      17.512  -6.502   0.364  0.00  0.00    -0.012 A 
ATOM      9  C2F R48 d   1      18.613  -7.173  -0.066  0.00  0.00     0.066 A 
ATOM     10  H14 R48 d   1      17.299  -6.188   1.385  0.00  0.00     0.092 H 
ATOM     11  N1V R48 d   1      18.451  -7.410  -1.365  0.00  0.00    -0.169 NA
ATOM     12  N2K R48 d   1      17.343  -6.931  -1.733  0.00  0.00    -0.217 N 
BRANCH   9  13
ATOM     13  C2L R48 d   1      19.824  -7.619   0.809  0.00  0.00    -0.005 C 
BRANCH  13  14
ATOM     14  C1C R48 d   1      19.335  -8.818   1.619  0.00  0.00    -0.064 C 
ATOM     15  H15 R48 d   1      20.149  -9.183   2.262  0.00  0.00     0.028 H 
ATOM     16  H16 R48 d   1      19.021  -9.620   0.934  0.00  0.00     0.028 H 
ATOM     17  H17 R48 d   1      18.482  -8.515   2.244  0.00  0.00     0.028 H 
ENDBRANCH  13  14
BRANCH  13  18
ATOM     18  C1D R48 d   1      21.084  -8.074   0.065  0.00  0.00    -0.064 C 
ATOM     19  H18 R48 d   1      21.476  -7.240  -0.536  0.00  0.00     0.028 H 
ATOM     20  H19 R48 d   1      20.835  -8.917  -0.596  0.00  0.00     0.028 H 
ATOM     21  H20 R48 d   1      21.845  -8.391   0.793  0.00  0.00     0.028 H 
ENDBRANCH  13  18
BRANCH  13  22
ATOM     22  C1B R48 d   1      20.242  -6.517   1.755  0.00  0.00    -0.064 C 
ATOM     23  H21 R48 d   1      19.364  -6.159   2.312  0.00  0.00     0.028 H 
ATOM     24  H22 R48 d   1      20.675  -5.685   1.180  0.00  0.00     0.028 H 
ATOM     25  H23 R48 d   1      20.991  -6.904   2.461  0.00  0.00     0.028 H 
ENDBRANCH  13  22
ENDBRANCH   9  13
BRANCH  12  26
ATOM     26  C2E R48 d   1      16.879  -7.026  -2.995  0.00  0.00     0.060 A 
ATOM     27  C1N R48 d   1      16.971  -8.291  -3.579  0.00  0.00    -0.055 A 
ATOM     28  C1K R48 d   1      16.522  -8.520  -4.869  0.00  0.00    -0.075 A 
ATOM     29  H24 R48 d   1      17.402  -9.109  -3.012  0.00  0.00     0.087 H 
ATOM     30  C2A R48 d   1      15.962  -7.481  -5.588  0.00  0.00    -0.062 A 
ATOM     31  H25 R48 d   1      16.609  -9.506  -5.311  0.00  0.00     0.084 H 
ATOM     32  C1L R48 d   1      15.865  -6.204  -5.037  0.00  0.00    -0.075 A 
ATOM     33  C1O R48 d   1      16.314  -5.963  -3.723  0.00  0.00    -0.055 A 
ATOM     34  H29 R48 d   1      15.443  -5.394  -5.621  0.00  0.00     0.084 H 
ATOM     35  H30 R48 d   1      16.226  -4.977  -3.281  0.00  0.00     0.087 H 
BRANCH  30  36
ATOM     36  C1A R48 d   1      15.502  -7.757  -7.024  0.00  0.00    -0.051 C 
ATOM     37  H26 R48 d   1      15.082  -6.837  -7.458  0.00  0.00     0.033 H 
ATOM     38  H27 R48 d   1      14.733  -8.544  -7.018  0.00  0.00     0.033 H 
ATOM     39  H28 R48 d   1      16.360  -8.088  -7.627  0.00  0.00     0.033 H 
ENDBRANCH  30  36
ENDBRANCH  12  26
ENDBRANCH   4   7
BRANCH   1  40
ATOM     40  C2C R48 d   1      12.769  -3.918   0.679  0.00  0.00     0.038 A 
ATOM     41  C1Q R48 d   1      12.991  -2.565   0.978  0.00  0.00    -0.031 A 
ATOM     42  C2D R48 d   1      12.043  -1.813   1.719  0.00  0.00     0.035 A 
ATOM     43  H8  R48 d   1      13.902  -2.086   0.637  0.00  0.00     0.090 H 
ATOM     44  C1J R48 d   1      10.858  -2.444   2.128  0.00  0.00    -0.057 A 
ATOM     45  C1G R48 d   1      10.626  -3.796   1.816  0.00  0.00    -0.079 A 
ATOM     46  H9  R48 d   1      10.117  -1.886   2.688  0.00  0.00     0.086 H 
ATOM     47  C1I R48 d   1      11.577  -4.527   1.096  0.00  0.00    -0.057 A 
ATOM     48  H10 R48 d   1       9.707  -4.273   2.135  0.00  0.00     0.083 H 
ATOM     49  H11 R48 d   1      11.392  -5.569   0.860  0.00  0.00     0.086 H 
BRANCH  42  50
ATOM     50  N1Y R48 d   1      12.266  -0.479   1.981  0.00  0.00    -0.340 N 
ATOM     51  H7  R48 d   1      12.517   0.132   1.190  0.00  0.00     0.167 HD
BRANCH  50  52
ATOM     52  C6  R48 d   1      12.177   0.080   3.208  0.00  0.00     0.142 A 
ATOM     53  C5  R48 d   1      12.061   1.480   3.338  0.00  0.00     0.041 A 
ATOM     54  C1S R48 d   1      12.007   2.338   2.209  0.00  0.00    -0.042 A 
ATOM     55  C4  R48 d   1      11.978   2.020   4.633  0.00  0.00     0.072 A 
ATOM     56  C2B R48 d   1      11.872   3.732   2.370  0.00  0.00     0.026 A 
ATOM     57  H1  R48 d   1      12.070   1.917   1.212  0.00  0.00     0.088 H 
ATOM     58  C1M R48 d   1      11.802   4.233   3.668  0.00  0.00    -0.056 A 
ATOM     59  C1P R48 d   1      11.856   3.399   4.800  0.00  0.00    -0.052 A 
ATOM     60  H4  R48 d   1      11.702   5.303   3.811  0.00  0.00     0.087 H 
ATOM     61  H5  R48 d   1      11.803   3.826   5.795  0.00  0.00     0.087 H 
ATOM     62  N3  R48 d   1      12.029   1.217   5.702  0.00  0.00    -0.241 NA
ATOM     63  C2  R48 d   1      12.145  -0.120   5.559  0.00  0.00     0.089 A 
ATOM     64  N1  R48 d   1      12.228  -0.677   4.344  0.00  0.00    -0.224 NA
ATOM     65  H6  R48 d   1      12.171  -0.752   6.440  0.00  0.00     0.146 H 
BRANCH  56  66
ATOM     66  N1E R48 d   1      11.824   4.587   1.297  0.00  0.00    -0.399 N 
ATOM     67  H2  R48 d   1      11.725   5.601   1.450  0.00  0.00     0.156 HD
ATOM     68  H3  R48 d   1      11.887   4.215   0.339  0.00  0.00     0.156 HD
ENDBRANCH  56  66
ENDBRANCH  50  52
ENDBRANCH  42  50
ENDBRANCH   1  40
TORSDOF 11
