REMARK  6 active torsions:
REMARK  status: ('A' for Active; 'I' for Inactive)
REMARK    1  A    between atoms: N1_1  and  C1'_9 
REMARK    2  A    between atoms: C2'_10  and  O2'_13 
REMARK    3  A    between atoms: C3'_11  and  O3'_14 
REMARK    4  A    between atoms: C4'_12  and  C5'_16 
REMARK    5  A    between atoms: C5'_16  and  O5'_17 
REMARK    6  A    between atoms: O5'_17  and  P_18 
ROOT
ATOM      1  C1' UP6 d   1      60.223  57.769  23.768  0.00  0.00     0.158 C 
ATOM      2  C2' UP6 d   1      60.884  57.363  25.084  0.00  0.00     0.106 C 
ATOM      3  C3' UP6 d   1      61.772  56.229  24.631  0.00  0.00     0.091 C 
ATOM      4  C4' UP6 d   1      60.931  55.556  23.542  0.00  0.00     0.089 C 
ATOM      5  O4' UP6 d   1      60.070  56.579  23.015  0.00  0.00    -0.352 OA
ATOM      6  H3  UP6 d   1      60.937  58.426  23.250  0.00  0.00     0.125 H 
ATOM      7  H4  UP6 d   1      60.141  57.022  25.820  0.00  0.00     0.094 H 
ATOM      8  H5  UP6 d   1      62.000  55.540  25.458  0.00  0.00     0.091 H 
ATOM      9  H6  UP6 d   1      61.613  55.194  22.759  0.00  0.00     0.090 H 
ENDROOT
BRANCH   1  10
ATOM     10  N1  UP6 d   1      58.961  58.480  23.781  0.00  0.00    -0.187 N 
ATOM     11  C2  UP6 d   1      58.624  59.373  22.752  0.00  0.00     0.348 C 
ATOM     12  N3  UP6 d   1      57.462  60.085  22.990  0.00  0.00    -0.273 N 
ATOM     13  O2  UP6 d   1      59.269  59.506  21.757  0.00  0.00    -0.245 OA
ATOM     14  C4  UP6 d   1      56.561  59.859  24.040  0.00  0.00     0.268 C 
ATOM     15  H1  UP6 d   1      57.245  60.828  22.356  0.00  0.00     0.173 HD
ATOM     16  C5  UP6 d   1      56.941  58.865  25.007  0.00  0.00     0.087 C 
ATOM     17  O4  UP6 d   1      55.542  60.509  24.063  0.00  0.00    -0.266 OA
ATOM     18  N6  UP6 d   1      58.098  58.222  24.867  0.00  0.00    -0.173 NA
ATOM     19  H2  UP6 d   1      56.287  58.640  25.848  0.00  0.00     0.126 H 
ENDBRANCH   1  10
BRANCH   2  20
ATOM     20  O2' UP6 d   1      61.648  58.445  25.642  0.00  0.00    -0.388 OA
ATOM     21  H7  UP6 d   1      62.249  58.778  24.986  0.00  0.00     0.210 HD
ENDBRANCH   2  20
BRANCH   3  22
ATOM     22  O3' UP6 d   1      62.978  56.722  24.052  0.00  0.00    -0.390 OA
ATOM     23  H8  UP6 d   1      63.503  57.140  24.724  0.00  0.00     0.210 HD
ENDBRANCH   3  22
BRANCH   4  24
ATOM     24  C5' UP6 d   1      60.048  54.399  23.959  0.00  0.00     0.059 C 
ATOM     25  H9  UP6 d   1      59.176  54.764  24.522  0.00  0.00     0.079 H 
ATOM     26  H10 UP6 d   1      60.614  53.688  24.579  0.00  0.00     0.079 H 
BRANCH  24  27
ATOM     27  O5' UP6 d   1      59.633  53.780  22.748  0.00  0.00    -0.280 OA
BRANCH  27  28
ATOM     28  P   UP6 d   1      59.360  52.186  22.672  0.00  0.00     0.422 P 
ATOM     29  O1P UP6 d   1      60.624  51.444  23.015  0.00  0.00    -0.617 OA
ATOM     30  O2P UP6 d   1      58.900  51.995  21.258  0.00  0.00    -0.617 OA
ATOM     31  O3P UP6 d   1      58.153  51.885  23.672  0.00  0.00    -0.617 OA
ENDBRANCH  27  28
ENDBRANCH  24  27
ENDBRANCH   4  24
TORSDOF 6
