REMARK  16 active torsions:
REMARK  status: ('A' for Active; 'I' for Inactive)
REMARK    1  A    between atoms: C2_2  and  N1_1 
REMARK    2  A    between atoms: S8_8  and  C5_5 
REMARK    3  A    between atoms: N11_11  and  S8_8 
REMARK    4  A    between atoms: N11_11  and  C12_12 
REMARK    5  A    between atoms: C16_16  and  N11_11 
REMARK    6  A    between atoms: C12_12  and  C13_13 
REMARK    7  A    between atoms: C13_13  and  C14_14 
REMARK    8  A    between atoms: C13_13  and  C15_15 
REMARK    9  A    between atoms: C17_17  and  C16_16 
REMARK   10  A    between atoms: C17_17  and  O18_18 
REMARK   11  A    between atoms: C19_19  and  C17_17 
REMARK   12  A    between atoms: C19_19  and  N20_20 
REMARK   13  A    between atoms: C32_32  and  C19_19 
REMARK       I    between atoms: N20_20  and  C21_21 
REMARK   14  A    between atoms: C21_21  and  O23_23 
REMARK   15  A    between atoms: O23_23  and  C24_24 
REMARK   16  A    between atoms: C38_38  and  C32_32 
ROOT
ATOM      1  C19 017 d   1     -10.800  16.266  27.362  0.00  0.00     0.044 C 
ATOM      2  H20 017 d   1     -10.090  15.485  27.054  0.00  0.00     0.077 H 
ENDROOT
BRANCH   1   3
ATOM      3  C17 017 d   1     -10.338  17.632  26.848  0.00  0.00     0.067 C 
ATOM      4  H18 017 d   1      -9.485  17.952  27.464  0.00  0.00     0.088 H 
BRANCH   3   5
ATOM      5  C16 017 d   1      -9.868  17.597  25.387  0.00  0.00     0.019 C 
ATOM      6  H16 017 d   1     -10.646  17.123  24.770  0.00  0.00     0.061 H 
ATOM      7  H17 017 d   1      -9.699  18.626  25.038  0.00  0.00     0.061 H 
BRANCH   5   8
ATOM      8  N11 017 d   1      -8.608  16.827  25.256  0.00  0.00    -0.204 NA
BRANCH   8   9
ATOM      9  S8  017 d   1      -8.774  15.536  24.260  0.00  0.00     0.243 S 
ATOM     10  O9  017 d   1      -9.922  14.783  24.661  0.00  0.00    -0.206 OA
ATOM     11  O10 017 d   1      -7.599  14.762  24.466  0.00  0.00    -0.206 OA
BRANCH   9  12
ATOM     12  C5  017 d   1      -8.908  15.896  22.710  0.00  0.00     0.074 A 
ATOM     13  C4  017 d   1     -10.184  16.113  22.182  0.00  0.00    -0.059 A 
ATOM     14  C3  017 d   1     -10.324  16.420  20.838  0.00  0.00    -0.056 A 
ATOM     15  H4  017 d   1     -11.058  16.042  22.820  0.00  0.00     0.086 H 
ATOM     16  C2  017 d   1      -9.196  16.517  20.032  0.00  0.00     0.025 A 
ATOM     17  H3  017 d   1     -11.309  16.584  20.417  0.00  0.00     0.086 H 
ATOM     18  C7  017 d   1      -7.920  16.305  20.539  0.00  0.00    -0.056 A 
ATOM     19  C6  017 d   1      -7.781  15.987  21.887  0.00  0.00    -0.059 A 
ATOM     20  H6  017 d   1      -7.050  16.386  19.898  0.00  0.00     0.086 H 
ATOM     21  H5  017 d   1      -6.795  15.809  22.301  0.00  0.00     0.086 H 
BRANCH  16  22
ATOM     22  N1  017 d   1      -9.363  16.816  18.736  0.00  0.00    -0.399 N 
ATOM     23  H1  017 d   1     -10.310  16.973  18.361  0.00  0.00     0.156 HD
ATOM     24  H2  017 d   1      -8.545  16.889  18.115  0.00  0.00     0.156 HD
ENDBRANCH  16  22
ENDBRANCH   9  12
ENDBRANCH   8   9
BRANCH   8  25
ATOM     25  C12 017 d   1      -7.476  17.703  24.868  0.00  0.00    -0.004 C 
ATOM     26  H7  017 d   1      -7.822  18.441  24.129  0.00  0.00     0.058 H 
ATOM     27  H8  017 d   1      -6.675  17.091  24.428  0.00  0.00     0.058 H 
BRANCH  25  28
ATOM     28  C13 017 d   1      -6.937  18.436  26.108  0.00  0.00    -0.049 C 
ATOM     29  H9  017 d   1      -7.791  18.924  26.599  0.00  0.00     0.040 H 
BRANCH  28  30
ATOM     30  C14 017 d   1      -6.315  17.476  27.119  0.00  0.00    -0.072 C 
ATOM     31  H10 017 d   1      -5.945  18.045  27.985  0.00  0.00     0.028 H 
ATOM     32  H11 017 d   1      -5.478  16.939  26.648  0.00  0.00     0.028 H 
ATOM     33  H12 017 d   1      -7.074  16.752  27.452  0.00  0.00     0.028 H 
ENDBRANCH  28  30
BRANCH  28  34
ATOM     34  C15 017 d   1      -5.948  19.524  25.712  0.00  0.00    -0.072 C 
ATOM     35  H13 017 d   1      -6.420  20.201  24.985  0.00  0.00     0.028 H 
ATOM     36  H14 017 d   1      -5.057  19.063  25.260  0.00  0.00     0.028 H 
ATOM     37  H15 017 d   1      -5.653  20.094  26.605  0.00  0.00     0.028 H 
ENDBRANCH  28  34
ENDBRANCH  25  28
ENDBRANCH   8  25
ENDBRANCH   5   8
ENDBRANCH   3   5
BRANCH   3  38
ATOM     38  O18 017 d   1     -11.391  18.584  27.011  0.00  0.00    -0.392 OA
ATOM     39  H19 017 d   1     -12.123  18.343  26.456  0.00  0.00     0.210 HD
ENDBRANCH   3  38
ENDBRANCH   1   3
BRANCH   1  40
ATOM     40  N20 017 d   1     -10.856  16.408  28.807  0.00  0.00    -0.329 N 
ATOM     41  C21 017 d   1      -9.992  15.831  29.643  0.00  0.00     0.361 C 
ATOM     42  O22 017 d   1      -9.039  15.111  29.329  0.00  0.00    -0.238 OA
ATOM     43  H21 017 d   1     -11.585  16.971  29.197  0.00  0.00     0.165 HD
BRANCH  41  44
ATOM     44  O23 017 d   1     -10.239  16.119  31.032  0.00  0.00    -0.296 OA
BRANCH  44  45
ATOM     45  C24 017 d   1      -9.550  15.346  32.001  0.00  0.00     0.078 C 
ATOM     46  C25 017 d   1      -9.242  16.370  33.073  0.00  0.00     0.048 C 
ATOM     47  O26 017 d   1     -10.487  16.531  33.756  0.00  0.00    -0.358 OA
ATOM     48  H23 017 d   1      -8.915  17.320  32.625  0.00  0.00     0.078 H 
ATOM     49  H24 017 d   1      -8.464  16.000  33.757  0.00  0.00     0.078 H 
ATOM     50  C27 017 d   1     -11.174  15.272  33.760  0.00  0.00     0.137 C 
ATOM     51  O28 017 d   1     -12.536  15.497  33.417  0.00  0.00    -0.361 OA
ATOM     52  C31 017 d   1     -10.539  14.415  32.679  0.00  0.00     0.023 C 
ATOM     53  H25 017 d   1     -11.097  14.785  34.743  0.00  0.00     0.129 H 
ATOM     54  C29 017 d   1     -12.900  14.771  32.232  0.00  0.00     0.023 C 
ATOM     55  C30 017 d   1     -11.685  13.963  31.792  0.00  0.00    -0.035 C 
ATOM     56  H26 017 d   1     -13.191  15.473  31.437  0.00  0.00     0.074 H 
ATOM     57  H27 017 d   1     -13.740  14.095  32.450  0.00  0.00     0.074 H 
ATOM     58  H28 017 d   1     -11.454  14.165  30.736  0.00  0.00     0.037 H 
ATOM     59  H29 017 d   1     -11.872  12.887  31.927  0.00  0.00     0.037 H 
ATOM     60  H30 017 d   1     -10.017  13.541  33.095  0.00  0.00     0.051 H 
ATOM     61  H22 017 d   1      -8.669  14.825  31.599  0.00  0.00     0.088 H 
ENDBRANCH  44  45
ENDBRANCH  41  44
ENDBRANCH   1  40
BRANCH   1  62
ATOM     62  C32 017 d   1     -12.220  15.886  26.926  0.00  0.00    -0.020 C 
ATOM     63  H31 017 d   1     -12.283  15.880  25.828  0.00  0.00     0.043 H 
ATOM     64  H32 017 d   1     -12.940  16.612  27.331  0.00  0.00     0.043 H 
BRANCH  62  65
ATOM     65  C38 017 d   1     -12.523  14.530  27.454  0.00  0.00    -0.056 A 
ATOM     66  C33 017 d   1     -13.577  14.357  28.348  0.00  0.00    -0.077 A 
ATOM     67  C34 017 d   1     -13.827  13.095  28.847  0.00  0.00    -0.082 A 
ATOM     68  H33 017 d   1     -14.190  15.199  28.647  0.00  0.00     0.084 H 
ATOM     69  C35 017 d   1     -13.052  12.011  28.469  0.00  0.00    -0.083 A 
ATOM     70  H34 017 d   1     -14.643  12.950  29.546  0.00  0.00     0.083 H 
ATOM     71  C36 017 d   1     -11.996  12.187  27.585  0.00  0.00    -0.082 A 
ATOM     72  H35 017 d   1     -13.270  11.025  28.863  0.00  0.00     0.083 H 
ATOM     73  C37 017 d   1     -11.726  13.449  27.074  0.00  0.00    -0.077 A 
ATOM     74  H36 017 d   1     -11.384  11.341  27.295  0.00  0.00     0.083 H 
ATOM     75  H37 017 d   1     -10.902  13.594  26.385  0.00  0.00     0.084 H 
ENDBRANCH  62  65
ENDBRANCH   1  62
TORSDOF 16
