REMARK  16 active torsions:
REMARK  status: ('A' for Active; 'I' for Inactive)
REMARK    1  A    between atoms: S8_2  and  C5_4 
REMARK    2  A    between atoms: S8_2  and  N11_13 
REMARK    3  A    between atoms: N11_13  and  C12_14 
REMARK    4  A    between atoms: N11_13  and  C16_18 
REMARK    5  A    between atoms: C12_14  and  C13_15 
REMARK    6  A    between atoms: C13_15  and  C14_16 
REMARK    7  A    between atoms: C13_15  and  C15_17 
REMARK    8  A    between atoms: C16_18  and  C17_19 
REMARK    9  A    between atoms: C17_19  and  O18_20 
REMARK   10  A    between atoms: C17_19  and  C19_21 
REMARK   11  A    between atoms: C19_21  and  C32_22 
REMARK   12  A    between atoms: C19_21  and  N20_29 
REMARK   13  A    between atoms: C32_22  and  C38_23 
REMARK       I    between atoms: N20_29  and  C21_30 
REMARK   14  A    between atoms: C21_30  and  C29_32 
REMARK   15  A    between atoms: N24_37  and  C43_38 
REMARK   16  A    between atoms: C41_43  and  C46_44 
ROOT
ATOM      1  C19 K60 d   1      19.453  29.085  14.153  0.00  0.00     0.042 C 
ATOM      2  H19 K60 d   1      19.337  30.044  13.627  0.00  0.00     0.077 H 
ENDROOT
BRANCH   1   3
ATOM      3  C17 K60 d   1      19.893  29.414  15.582  0.00  0.00     0.067 C 
ATOM      4  H17 K60 d   1      20.938  29.754  15.543  0.00  0.00     0.088 H 
BRANCH   3   5
ATOM      5  C16 K60 d   1      19.020  30.546  16.141  0.00  0.00     0.019 C 
ATOM      6  H15 K60 d   1      17.959  30.280  16.020  0.00  0.00     0.061 H 
ATOM      7  H16 K60 d   1      19.244  30.683  17.209  0.00  0.00     0.061 H 
BRANCH   5   8
ATOM      8  N11 K60 d   1      19.291  31.802  15.422  0.00  0.00    -0.204 NA
BRANCH   8   9
ATOM      9  S8  K60 d   1      17.996  32.463  14.698  0.00  0.00     0.243 S 
ATOM     10  O10 K60 d   1      17.213  31.403  14.134  0.00  0.00    -0.206 OA
ATOM     11  O9  K60 d   1      18.522  33.357  13.694  0.00  0.00    -0.206 OA
BRANCH   9  12
ATOM     12  C5  K60 d   1      17.095  33.287  15.770  0.00  0.00     0.077 A 
ATOM     13  C4  K60 d   1      17.327  34.652  16.013  0.00  0.00    -0.026 A 
ATOM     14  C3  K60 d   1      16.544  35.315  16.967  0.00  0.00     0.106 A 
ATOM     15  H1  K60 d   1      18.100  35.184  15.470  0.00  0.00     0.090 H 
ATOM     16  C2  K60 d   1      15.566  34.658  17.676  0.00  0.00     0.105 A 
ATOM     17  O29 K60 d   1      16.583  36.619  17.364  0.00  0.00    -0.323 OA
ATOM     18  O19 K60 d   1      14.959  35.516  18.548  0.00  0.00    -0.323 OA
ATOM     19  C7  K60 d   1      15.318  33.317  17.464  0.00  0.00    -0.046 A 
ATOM     20  C18 K60 d   1      15.614  36.799  18.414  0.00  0.00     0.115 A 
ATOM     21  H2  K60 d   1      16.111  37.078  19.354  0.00  0.00     0.118 H 
ATOM     22  H3  K60 d   1      14.887  37.577  18.139  0.00  0.00     0.118 H 
ATOM     23  C6  K60 d   1      16.094  32.632  16.505  0.00  0.00    -0.058 A 
ATOM     24  H4  K60 d   1      14.544  32.801  18.022  0.00  0.00     0.087 H 
ATOM     25  H5  K60 d   1      15.913  31.577  16.332  0.00  0.00     0.086 H 
ENDBRANCH   9  12
ENDBRANCH   8   9
BRANCH   8  26
ATOM     26  C12 K60 d   1      20.068  32.781  16.228  0.00  0.00    -0.004 C 
ATOM     27  H6  K60 d   1      19.672  32.799  17.254  0.00  0.00     0.058 H 
ATOM     28  H7  K60 d   1      19.968  33.780  15.778  0.00  0.00     0.058 H 
BRANCH  26  29
ATOM     29  C13 K60 d   1      21.554  32.393  16.268  0.00  0.00    -0.049 C 
ATOM     30  H8  K60 d   1      21.626  31.401  16.739  0.00  0.00     0.040 H 
BRANCH  29  31
ATOM     31  C14 K60 d   1      22.205  32.286  14.883  0.00  0.00    -0.072 C 
ATOM     32  H9  K60 d   1      23.263  32.006  14.996  0.00  0.00     0.028 H 
ATOM     33  H10 K60 d   1      22.135  33.256  14.369  0.00  0.00     0.028 H 
ATOM     34  H11 K60 d   1      21.684  31.519  14.291  0.00  0.00     0.028 H 
ENDBRANCH  29  31
BRANCH  29  35
ATOM     35  C15 K60 d   1      22.305  33.391  17.144  0.00  0.00    -0.072 C 
ATOM     36  H12 K60 d   1      21.821  33.450  18.130  0.00  0.00     0.028 H 
ATOM     37  H13 K60 d   1      22.289  34.382  16.667  0.00  0.00     0.028 H 
ATOM     38  H14 K60 d   1      23.347  33.060  17.267  0.00  0.00     0.028 H 
ENDBRANCH  29  35
ENDBRANCH  26  29
ENDBRANCH   8  26
ENDBRANCH   5   8
ENDBRANCH   3   5
BRANCH   3  39
ATOM     39  O18 K60 d   1      19.820  28.297  16.490  0.00  0.00    -0.392 OA
ATOM     40  H18 K60 d   1      18.918  28.008  16.563  0.00  0.00     0.210 HD
ENDBRANCH   3  39
ENDBRANCH   1   3
BRANCH   1  41
ATOM     41  C32 K60 d   1      18.138  28.300  14.071  0.00  0.00    -0.020 C 
ATOM     42  H20 K60 d   1      17.328  28.896  14.516  0.00  0.00     0.043 H 
ATOM     43  H21 K60 d   1      18.242  27.354  14.622  0.00  0.00     0.043 H 
BRANCH  41  44
ATOM     44  C38 K60 d   1      17.806  28.003  12.617  0.00  0.00    -0.056 A 
ATOM     45  C33 K60 d   1      17.946  26.707  12.118  0.00  0.00    -0.077 A 
ATOM     46  C34 K60 d   1      17.666  26.427  10.790  0.00  0.00    -0.082 A 
ATOM     47  H22 K60 d   1      18.277  25.912  12.776  0.00  0.00     0.084 H 
ATOM     48  C35 K60 d   1      17.237  27.430   9.932  0.00  0.00    -0.083 A 
ATOM     49  H23 K60 d   1      17.783  25.416  10.418  0.00  0.00     0.083 H 
ATOM     50  C36 K60 d   1      17.099  28.723  10.415  0.00  0.00    -0.082 A 
ATOM     51  H24 K60 d   1      17.012  27.205   8.896  0.00  0.00     0.083 H 
ATOM     52  C37 K60 d   1      17.384  29.014  11.754  0.00  0.00    -0.077 A 
ATOM     53  H25 K60 d   1      16.768  29.513   9.751  0.00  0.00     0.083 H 
ATOM     54  H26 K60 d   1      17.276  30.028  12.121  0.00  0.00     0.084 H 
ENDBRANCH  41  44
ENDBRANCH   1  41
BRANCH   1  55
ATOM     55  N20 K60 d   1      20.376  28.234  13.396  0.00  0.00    -0.351 N 
ATOM     56  C21 K60 d   1      21.124  28.677  12.376  0.00  0.00     0.249 C 
ATOM     57  O22 K60 d   1      21.199  29.845  12.001  0.00  0.00    -0.271 OA
ATOM     58  H27 K60 d   1      20.452  27.271  13.655  0.00  0.00     0.163 HD
BRANCH  56  59
ATOM     59  C29 K60 d   1      21.900  27.648  11.604  0.00  0.00     0.142 C 
ATOM     60  O28 K60 d   1      21.860  26.319  12.145  0.00  0.00    -0.287 OA
ATOM     61  C26 K60 d   1      21.512  25.429  11.058  0.00  0.00     0.368 C 
ATOM     62  O27 K60 d   1      21.617  24.228  11.213  0.00  0.00    -0.238 OA
ATOM     63  N24 K60 d   1      21.146  26.129   9.984  0.00  0.00    -0.291 N 
ATOM     64  C25 K60 d   1      21.210  27.560  10.230  0.00  0.00     0.038 C 
ATOM     65  H29 K60 d   1      21.805  28.067   9.456  0.00  0.00     0.069 H 
ATOM     66  H30 K60 d   1      20.202  28.000  10.265  0.00  0.00     0.069 H 
ATOM     67  H28 K60 d   1      22.947  27.973  11.508  0.00  0.00     0.102 H 
BRANCH  63  68
ATOM     68  C43 K60 d   1      20.769  25.623   8.718  0.00  0.00     0.040 A 
ATOM     69  C44 K60 d   1      21.246  24.393   8.256  0.00  0.00    -0.057 A 
ATOM     70  C45 K60 d   1      20.873  23.908   7.005  0.00  0.00    -0.080 A 
ATOM     71  H31 K60 d   1      21.914  23.810   8.879  0.00  0.00     0.086 H 
ATOM     72  C40 K60 d   1      20.040  24.653   6.179  0.00  0.00    -0.068 A 
ATOM     73  H32 K60 d   1      21.235  22.942   6.673  0.00  0.00     0.083 H 
ATOM     74  C41 K60 d   1      19.553  25.886   6.615  0.00  0.00     0.050 A 
ATOM     75  H33 K60 d   1      19.769  24.277   5.199  0.00  0.00     0.084 H 
ATOM     76  C42 K60 d   1      19.930  26.367   7.872  0.00  0.00    -0.042 A 
ATOM     77  H34 K60 d   1      19.567  27.334   8.201  0.00  0.00     0.088 H 
BRANCH  74  78
ATOM     78  C46 K60 d   1      18.640  26.702   5.730  0.00  0.00     0.417 C 
ATOM     79  F1  K60 d   1      17.389  26.655   6.141  0.00  0.00    -0.166 F 
ATOM     80  F2  K60 d   1      18.636  26.232   4.513  0.00  0.00    -0.166 F 
ATOM     81  F3  K60 d   1      19.052  27.956   5.690  0.00  0.00    -0.166 F 
ENDBRANCH  74  78
ENDBRANCH  63  68
ENDBRANCH  56  59
ENDBRANCH   1  55
TORSDOF 16
