REMARK  17 active torsions:
REMARK  status: ('A' for Active; 'I' for Inactive)
REMARK    1  A    between atoms: C46_2  and  C47_3 
REMARK    2  A    between atoms: C46_2  and  C41_4 
REMARK    3  A    between atoms: C43_9  and  N24_10 
REMARK    4  A    between atoms: C29_15  and  C21_16 
REMARK       I    between atoms: C21_16  and  N20_18 
REMARK    5  A    between atoms: N20_18  and  C19_19 
REMARK    6  A    between atoms: C19_19  and  C32_20 
REMARK    7  A    between atoms: C19_19  and  C17_27 
REMARK    8  A    between atoms: C32_20  and  C38_21 
REMARK    9  A    between atoms: C17_27  and  O18_28 
REMARK   10  A    between atoms: C17_27  and  C16_29 
REMARK   11  A    between atoms: C16_29  and  N11_30 
REMARK   12  A    between atoms: N11_30  and  C12_31 
REMARK   13  A    between atoms: N11_30  and  S8_35 
REMARK   14  A    between atoms: C12_31  and  C13_32 
REMARK   15  A    between atoms: C13_32  and  C15_33 
REMARK   16  A    between atoms: C13_32  and  C14_34 
REMARK   17  A    between atoms: S8_35  and  C5_38 
ROOT
ATOM      1  C19 K62 d   1      19.417  29.204  14.125  0.00  0.00     0.042 C 
ATOM      2  H12 K62 d   1      19.314  30.171  13.611  0.00  0.00     0.077 H 
ENDROOT
BRANCH   1   3
ATOM      3  N20 K62 d   1      20.345  28.345  13.376  0.00  0.00    -0.351 N 
ATOM      4  C21 K62 d   1      21.053  28.792  12.321  0.00  0.00     0.249 C 
ATOM      5  O22 K62 d   1      21.073  29.956  11.942  0.00  0.00    -0.271 OA
ATOM      6  H11 K62 d   1      20.455  27.393  13.660  0.00  0.00     0.163 HD
BRANCH   4   7
ATOM      7  C29 K62 d   1      21.868  27.805  11.538  0.00  0.00     0.142 C 
ATOM      8  O28 K62 d   1      21.856  26.484  12.093  0.00  0.00    -0.287 OA
ATOM      9  C26 K62 d   1      21.529  25.579  11.017  0.00  0.00     0.368 C 
ATOM     10  N24 K62 d   1      21.192  26.260   9.920  0.00  0.00    -0.291 N 
ATOM     11  O27 K62 d   1      21.612  24.373  11.185  0.00  0.00    -0.238 OA
ATOM     12  C25 K62 d   1      21.239  27.703  10.125  0.00  0.00     0.038 C 
ATOM     13  H8  K62 d   1      20.231  28.143  10.103  0.00  0.00     0.069 H 
ATOM     14  H9  K62 d   1      21.870  28.194   9.370  0.00  0.00     0.069 H 
ATOM     15  H10 K62 d   1      22.906  28.163  11.474  0.00  0.00     0.102 H 
BRANCH  10  16
ATOM     16  C43 K62 d   1      20.855  25.677   8.679  0.00  0.00     0.040 A 
ATOM     17  C44 K62 d   1      21.366  24.428   8.298  0.00  0.00    -0.057 A 
ATOM     18  C45 K62 d   1      21.019  23.854   7.080  0.00  0.00    -0.080 A 
ATOM     19  H6  K62 d   1      22.042  23.902   8.963  0.00  0.00     0.086 H 
ATOM     20  C40 K62 d   1      20.172  24.519   6.205  0.00  0.00    -0.069 A 
ATOM     21  H5  K62 d   1      21.413  22.880   6.812  0.00  0.00     0.083 H 
ATOM     22  C41 K62 d   1      19.652  25.760   6.564  0.00  0.00     0.011 A 
ATOM     23  H4  K62 d   1      19.917  24.076   5.249  0.00  0.00     0.085 H 
ATOM     24  C42 K62 d   1      19.997  26.339   7.789  0.00  0.00    -0.043 A 
ATOM     25  H7  K62 d   1      19.597  27.311   8.054  0.00  0.00     0.088 H 
BRANCH  22  26
ATOM     26  C46 K62 d   1      18.728  26.491   5.628  0.00  0.00     0.155 C 
ATOM     27  O45 K62 d   1      18.485  27.669   5.850  0.00  0.00    -0.293 OA
BRANCH  26  28
ATOM     28  C47 K62 d   1      18.128  25.773   4.452  0.00  0.00    -0.017 C 
ATOM     29  H1  K62 d   1      18.477  24.730   4.442  0.00  0.00     0.038 H 
ATOM     30  H2  K62 d   1      18.436  26.272   3.521  0.00  0.00     0.038 H 
ATOM     31  H3  K62 d   1      17.031  25.791   4.532  0.00  0.00     0.038 H 
ENDBRANCH  26  28
ENDBRANCH  22  26
ENDBRANCH  10  16
ENDBRANCH   4   7
ENDBRANCH   1   3
BRANCH   1  32
ATOM     32  C32 K62 d   1      18.093  28.422  14.019  0.00  0.00    -0.020 C 
ATOM     33  H13 K62 d   1      17.278  29.025  14.446  0.00  0.00     0.043 H 
ATOM     34  H14 K62 d   1      18.181  27.478  14.576  0.00  0.00     0.043 H 
BRANCH  32  35
ATOM     35  C38 K62 d   1      17.786  28.119  12.554  0.00  0.00    -0.056 A 
ATOM     36  C37 K62 d   1      17.394  29.124  11.669  0.00  0.00    -0.077 A 
ATOM     37  C36 K62 d   1      17.136  28.829  10.319  0.00  0.00    -0.082 A 
ATOM     38  H15 K62 d   1      17.287  30.142  12.026  0.00  0.00     0.084 H 
ATOM     39  C35 K62 d   1      17.278  27.539   9.839  0.00  0.00    -0.083 A 
ATOM     40  H16 K62 d   1      16.823  29.620   9.647  0.00  0.00     0.083 H 
ATOM     41  C34 K62 d   1      17.663  26.535  10.719  0.00  0.00    -0.082 A 
ATOM     42  H17 K62 d   1      17.092  27.316   8.795  0.00  0.00     0.083 H 
ATOM     43  C33 K62 d   1      17.918  26.822  12.061  0.00  0.00    -0.077 A 
ATOM     44  H18 K62 d   1      17.767  25.518  10.359  0.00  0.00     0.083 H 
ATOM     45  H19 K62 d   1      18.223  26.025  12.729  0.00  0.00     0.084 H 
ENDBRANCH  32  35
ENDBRANCH   1  32
BRANCH   1  46
ATOM     46  C17 K62 d   1      19.862  29.499  15.559  0.00  0.00     0.067 C 
ATOM     47  H20 K62 d   1      20.914  29.819  15.531  0.00  0.00     0.088 H 
BRANCH  46  48
ATOM     48  O18 K62 d   1      19.769  28.334  16.419  0.00  0.00    -0.392 OA
ATOM     49  H21 K62 d   1      20.055  28.565  17.295  0.00  0.00     0.210 HD
ENDBRANCH  46  48
BRANCH  46  50
ATOM     50  C16 K62 d   1      19.015  30.646  16.139  0.00  0.00     0.019 C 
ATOM     51  H22 K62 d   1      19.265  30.772  17.203  0.00  0.00     0.061 H 
ATOM     52  H23 K62 d   1      17.950  30.388  16.041  0.00  0.00     0.061 H 
BRANCH  50  53
ATOM     53  N11 K62 d   1      19.268  31.928  15.429  0.00  0.00    -0.204 NA
BRANCH  53  54
ATOM     54  C12 K62 d   1      20.053  32.892  16.242  0.00  0.00    -0.004 C 
ATOM     55  H24 K62 d   1      19.645  32.918  17.263  0.00  0.00     0.058 H 
ATOM     56  H25 K62 d   1      19.975  33.892  15.790  0.00  0.00     0.058 H 
BRANCH  54  57
ATOM     57  C13 K62 d   1      21.535  32.480  16.302  0.00  0.00    -0.049 C 
ATOM     58  H26 K62 d   1      21.595  31.471  16.735  0.00  0.00     0.040 H 
BRANCH  57  59
ATOM     59  C15 K62 d   1      22.309  33.438  17.197  0.00  0.00    -0.072 C 
ATOM     60  H27 K62 d   1      23.366  33.134  17.232  0.00  0.00     0.028 H 
ATOM     61  H28 K62 d   1      21.886  33.414  18.212  0.00  0.00     0.028 H 
ATOM     62  H29 K62 d   1      22.234  34.458  16.793  0.00  0.00     0.028 H 
ENDBRANCH  57  59
BRANCH  57  63
ATOM     63  C14 K62 d   1      22.168  32.443  14.906  0.00  0.00    -0.072 C 
ATOM     64  H30 K62 d   1      21.604  31.749  14.266  0.00  0.00     0.028 H 
ATOM     65  H31 K62 d   1      23.211  32.103  14.985  0.00  0.00     0.028 H 
ATOM     66  H32 K62 d   1      22.143  33.451  14.466  0.00  0.00     0.028 H 
ENDBRANCH  57  63
ENDBRANCH  54  57
ENDBRANCH  53  54
BRANCH  53  67
ATOM     67  S8  K62 d   1      17.961  32.576  14.697  0.00  0.00     0.243 S 
ATOM     68  O9  K62 d   1      18.477  33.480  13.715  0.00  0.00    -0.206 OA
ATOM     69  O10 K62 d   1      17.204  31.504  14.089  0.00  0.00    -0.206 OA
BRANCH  67  70
ATOM     70  C5  K62 d   1      17.057  33.401  15.765  0.00  0.00     0.077 A 
ATOM     71  C6  K62 d   1      16.066  32.727  16.481  0.00  0.00    -0.058 A 
ATOM     72  C7  K62 d   1      15.287  33.392  17.441  0.00  0.00    -0.046 A 
ATOM     73  H33 K62 d   1      15.895  31.673  16.293  0.00  0.00     0.086 H 
ATOM     74  C2  K62 d   1      15.517  34.736  17.675  0.00  0.00     0.105 A 
ATOM     75  H34 K62 d   1      14.518  32.861  17.990  0.00  0.00     0.087 H 
ATOM     76  C3  K62 d   1      16.487  35.423  16.981  0.00  0.00     0.106 A 
ATOM     77  O19 K62 d   1      14.897  35.570  18.556  0.00  0.00    -0.323 OA
ATOM     78  C4  K62 d   1      17.266  34.775  16.021  0.00  0.00    -0.026 A 
ATOM     79  O29 K62 d   1      16.497  36.730  17.405  0.00  0.00    -0.323 OA
ATOM     80  H35 K62 d   1      18.026  35.322  15.475  0.00  0.00     0.090 H 
ATOM     81  C18 K62 d   1      15.538  36.861  18.467  0.00  0.00     0.115 A 
ATOM     82  H36 K62 d   1      14.801  37.642  18.228  0.00  0.00     0.118 H 
ATOM     83  H37 K62 d   1      16.041  37.108  19.413  0.00  0.00     0.118 H 
ENDBRANCH  67  70
ENDBRANCH  53  67
ENDBRANCH  50  53
ENDBRANCH  46  50
ENDBRANCH   1  46
TORSDOF 17
