REMARK  18 active torsions:
REMARK  status: ('A' for Active; 'I' for Inactive)
REMARK    1  A    between atoms: S8_2  and  C5_4 
REMARK    2  A    between atoms: S8_2  and  N11_12 
REMARK    3  A    between atoms: C2_7  and  O19_8 
REMARK    4  A    between atoms: O19_8  and  C18_9 
REMARK    5  A    between atoms: N11_12  and  C12_13 
REMARK    6  A    between atoms: N11_12  and  C16_17 
REMARK    7  A    between atoms: C12_13  and  C13_14 
REMARK    8  A    between atoms: C13_14  and  C14_15 
REMARK    9  A    between atoms: C13_14  and  C15_16 
REMARK   10  A    between atoms: C16_17  and  C17_18 
REMARK   11  A    between atoms: C17_18  and  O18_19 
REMARK   12  A    between atoms: C17_18  and  C19_20 
REMARK   13  A    between atoms: C19_20  and  C32_21 
REMARK   14  A    between atoms: C19_20  and  N20_28 
REMARK   15  A    between atoms: C32_21  and  C38_22 
REMARK       I    between atoms: N20_28  and  C21_29 
REMARK   16  A    between atoms: C21_29  and  C29_31 
REMARK   17  A    between atoms: N24_36  and  C43_37 
REMARK   18  A    between atoms: C41_42  and  C46_43 
ROOT
ATOM      1  C19 D78 d   1      19.455  29.009  14.189  0.00  0.00     0.042 C 
ATOM      2  H21 D78 d   1      19.337  29.969  13.665  0.00  0.00     0.077 H 
ENDROOT
BRANCH   1   3
ATOM      3  C17 D78 d   1      19.910  29.334  15.616  0.00  0.00     0.067 C 
ATOM      4  H19 D78 d   1      20.962  29.651  15.570  0.00  0.00     0.088 H 
BRANCH   3   5
ATOM      5  C16 D78 d   1      19.069  30.474  16.199  0.00  0.00     0.019 C 
ATOM      6  H17 D78 d   1      18.003  30.214  16.114  0.00  0.00     0.061 H 
ATOM      7  H18 D78 d   1      19.330  30.607  17.259  0.00  0.00     0.061 H 
BRANCH   5   8
ATOM      8  N11 D78 d   1      19.317  31.742  15.477  0.00  0.00    -0.204 NA
BRANCH   8   9
ATOM      9  S8  D78 d   1      18.001  32.380  14.754  0.00  0.00     0.243 S 
ATOM     10  O9  D78 d   1      18.530  33.221  13.705  0.00  0.00    -0.206 OA
ATOM     11  O10 D78 d   1      17.175  31.354  14.209  0.00  0.00    -0.206 OA
BRANCH   9  12
ATOM     12  C5  D78 d   1      17.137  33.276  15.791  0.00  0.00     0.074 A 
ATOM     13  C4  D78 d   1      17.380  34.646  15.935  0.00  0.00    -0.058 A 
ATOM     14  C3  D78 d   1      16.649  35.422  16.843  0.00  0.00    -0.049 A 
ATOM     15  H1  D78 d   1      18.149  35.116  15.332  0.00  0.00     0.086 H 
ATOM     16  C2  D78 d   1      15.658  34.823  17.642  0.00  0.00     0.068 A 
ATOM     17  H2  D78 d   1      16.847  36.484  16.930  0.00  0.00     0.087 H 
ATOM     18  C7  D78 d   1      15.415  33.464  17.503  0.00  0.00    -0.049 A 
ATOM     19  C6  D78 d   1      16.147  32.698  16.588  0.00  0.00    -0.058 A 
ATOM     20  H6  D78 d   1      14.651  32.991  18.109  0.00  0.00     0.087 H 
ATOM     21  H7  D78 d   1      15.942  31.638  16.497  0.00  0.00     0.086 H 
BRANCH  16  22
ATOM     22  O19 D78 d   1      14.913  35.512  18.565  0.00  0.00    -0.356 OA
BRANCH  22  23
ATOM     23  C18 D78 d   1      15.093  36.909  18.842  0.00  0.00     0.010 C 
ATOM     24  H3  D78 d   1      14.379  37.224  19.617  0.00  0.00     0.066 H 
ATOM     25  H4  D78 d   1      14.919  37.490  17.924  0.00  0.00     0.066 H 
ATOM     26  H5  D78 d   1      16.119  37.083  19.197  0.00  0.00     0.066 H 
ENDBRANCH  22  23
ENDBRANCH  16  22
ENDBRANCH   9  12
ENDBRANCH   8   9
BRANCH   8  27
ATOM     27  C12 D78 d   1      20.050  32.740  16.291  0.00  0.00    -0.004 C 
ATOM     28  H8  D78 d   1      19.644  32.743  17.313  0.00  0.00     0.058 H 
ATOM     29  H9  D78 d   1      19.924  33.737  15.843  0.00  0.00     0.058 H 
BRANCH  27  30
ATOM     30  C13 D78 d   1      21.546  32.394  16.342  0.00  0.00    -0.049 C 
ATOM     31  H10 D78 d   1      21.644  31.399  16.800  0.00  0.00     0.040 H 
BRANCH  30  32
ATOM     32  C14 D78 d   1      22.184  32.332  14.954  0.00  0.00    -0.072 C 
ATOM     33  H11 D78 d   1      23.251  32.082  15.052  0.00  0.00     0.028 H 
ATOM     34  H12 D78 d   1      22.081  33.309  14.459  0.00  0.00     0.028 H 
ATOM     35  H13 D78 d   1      21.680  31.561  14.353  0.00  0.00     0.028 H 
ENDBRANCH  30  32
BRANCH  30  36
ATOM     36  C15 D78 d   1      22.287  33.394  17.217  0.00  0.00    -0.072 C 
ATOM     37  H14 D78 d   1      21.818  33.429  18.212  0.00  0.00     0.028 H 
ATOM     38  H15 D78 d   1      22.240  34.391  16.755  0.00  0.00     0.028 H 
ATOM     39  H16 D78 d   1      23.338  33.085  17.317  0.00  0.00     0.028 H 
ENDBRANCH  30  36
ENDBRANCH  27  30
ENDBRANCH   8  27
ENDBRANCH   5   8
ENDBRANCH   3   5
BRANCH   3  40
ATOM     40  O18 D78 d   1      19.811  28.218  16.518  0.00  0.00    -0.392 OA
ATOM     41  H20 D78 d   1      18.902  27.954  16.595  0.00  0.00     0.210 HD
ENDBRANCH   3  40
ENDBRANCH   1   3
BRANCH   1  42
ATOM     42  C32 D78 d   1      18.136  28.220  14.113  0.00  0.00    -0.020 C 
ATOM     43  H22 D78 d   1      17.327  28.825  14.548  0.00  0.00     0.043 H 
ATOM     44  H23 D78 d   1      18.241  27.284  14.682  0.00  0.00     0.043 H 
BRANCH  42  45
ATOM     45  C38 D78 d   1      17.794  27.891  12.664  0.00  0.00    -0.056 A 
ATOM     46  C33 D78 d   1      17.935  26.587  12.180  0.00  0.00    -0.077 A 
ATOM     47  C34 D78 d   1      17.644  26.286  10.854  0.00  0.00    -0.082 A 
ATOM     48  H24 D78 d   1      18.275  25.802  12.846  0.00  0.00     0.084 H 
ATOM     49  C35 D78 d   1      17.206  27.278   9.984  0.00  0.00    -0.083 A 
ATOM     50  H25 D78 d   1      17.760  25.270  10.496  0.00  0.00     0.083 H 
ATOM     51  C36 D78 d   1      17.063  28.573  10.456  0.00  0.00    -0.082 A 
ATOM     52  H26 D78 d   1      16.980  27.042   8.951  0.00  0.00     0.083 H 
ATOM     53  C37 D78 d   1      17.358  28.883  11.789  0.00  0.00    -0.077 A 
ATOM     54  H27 D78 d   1      16.719  29.353   9.787  0.00  0.00     0.083 H 
ATOM     55  H28 D78 d   1      17.246  29.902  12.142  0.00  0.00     0.084 H 
ENDBRANCH  42  45
ENDBRANCH   1  42
BRANCH   1  56
ATOM     56  N20 D78 d   1      20.367  28.151  13.425  0.00  0.00    -0.351 N 
ATOM     57  C21 D78 d   1      21.091  28.600  12.391  0.00  0.00     0.249 C 
ATOM     58  O22 D78 d   1      21.150  29.772  12.035  0.00  0.00    -0.271 OA
ATOM     59  H29 D78 d   1      20.452  27.190  13.687  0.00  0.00     0.163 HD
BRANCH  57  60
ATOM     60  C29 D78 d   1      21.876  27.581  11.609  0.00  0.00     0.142 C 
ATOM     61  O28 D78 d   1      21.837  26.260  12.180  0.00  0.00    -0.287 OA
ATOM     62  C26 D78 d   1      21.493  25.360  11.106  0.00  0.00     0.368 C 
ATOM     63  O27 D78 d   1      21.615  24.161  11.298  0.00  0.00    -0.238 OA
ATOM     64  N24 D78 d   1      21.110  26.040  10.013  0.00  0.00    -0.291 N 
ATOM     65  C25 D78 d   1      21.227  27.475  10.218  0.00  0.00     0.038 C 
ATOM     66  H31 D78 d   1      21.867  27.932   9.449  0.00  0.00     0.069 H 
ATOM     67  H32 D78 d   1      20.238  27.957  10.207  0.00  0.00     0.069 H 
ATOM     68  H30 D78 d   1      22.921  27.913  11.527  0.00  0.00     0.102 H 
BRANCH  64  69
ATOM     69  C43 D78 d   1      20.725  25.522   8.790  0.00  0.00     0.040 A 
ATOM     70  C44 D78 d   1      21.137  24.252   8.367  0.00  0.00    -0.057 A 
ATOM     71  C45 D78 d   1      20.745  23.738   7.124  0.00  0.00    -0.080 A 
ATOM     72  H33 D78 d   1      21.771  23.656   9.013  0.00  0.00     0.086 H 
ATOM     73  C40 D78 d   1      19.951  24.488   6.268  0.00  0.00    -0.068 A 
ATOM     74  H34 D78 d   1      21.065  22.745   6.828  0.00  0.00     0.083 H 
ATOM     75  C41 D78 d   1      19.521  25.759   6.653  0.00  0.00     0.050 A 
ATOM     76  H35 D78 d   1      19.665  24.088   5.302  0.00  0.00     0.084 H 
ATOM     77  C42 D78 d   1      19.915  26.270   7.901  0.00  0.00    -0.042 A 
ATOM     78  H36 D78 d   1      19.590  27.263   8.191  0.00  0.00     0.088 H 
BRANCH  75  79
ATOM     79  C46 D78 d   1      18.643  26.569   5.722  0.00  0.00     0.417 C 
ATOM     80  F1  D78 d   1      17.383  26.482   6.088  0.00  0.00    -0.166 F 
ATOM     81  F2  D78 d   1      18.716  26.128   4.491  0.00  0.00    -0.166 F 
ATOM     82  F3  D78 d   1      18.995  27.838   5.726  0.00  0.00    -0.166 F 
ENDBRANCH  75  79
ENDBRANCH  64  69
ENDBRANCH  57  60
ENDBRANCH   1  56
TORSDOF 18
