REMARK  2 active torsions:
REMARK  status: ('A' for Active; 'I' for Inactive)
REMARK    1  A    between atoms: C21_18  and  C12_5 
REMARK    2  A    between atoms: N22_6  and  C21_18 
ROOT
ATOM      1  C2  GJW d   1      50.996  55.416   9.039  0.00  0.00    -0.014 A 
ATOM      2  C4  GJW d   1      49.531  55.858  10.685  0.00  0.00     0.107 A 
ATOM      3  C6  GJW d   1      48.890  54.147   9.136  0.00  0.00     0.066 A 
ATOM      4  C11 GJW d   1      48.226  52.489   7.597  0.00  0.00    -0.073 A 
ATOM      5  C12 GJW d   1      47.048  52.332   8.295  0.00  0.00    -0.030 A 
ATOM      6  C1  GJW d   1      51.548  56.405   9.823  0.00  0.00    -0.065 A 
ATOM      7  N3  GJW d   1      49.788  55.094   9.589  0.00  0.00    -0.315 N 
ATOM      8  C5  GJW d   1      50.622  56.683  10.860  0.00  0.00    -0.050 A 
ATOM      9  C7  GJW d   1      47.730  53.991   9.853  0.00  0.00     0.063 A 
ATOM     10  N8  GJW d   1      47.473  54.759  10.995  0.00  0.00    -0.320 N 
ATOM     11  C9  GJW d   1      48.331  55.743  11.445  0.00  0.00     0.273 A 
ATOM     12  C10 GJW d   1      49.164  53.403   8.014  0.00  0.00    -0.054 A 
ATOM     13  C13 GJW d   1      46.796  53.078   9.424  0.00  0.00    -0.047 A 
ATOM     14  O20 GJW d   1      48.091  56.439  12.419  0.00  0.00    -0.266 OA
ATOM     15  H1  GJW d   1      51.440  54.974   8.148  0.00  0.00     0.112 H 
ATOM     16  H2  GJW d   1      48.414  51.888   6.714  0.00  0.00     0.084 H 
ATOM     17  H8  GJW d   1      52.515  56.884   9.674  0.00  0.00     0.085 H 
ATOM     18  H9  GJW d   1      50.750  57.418  11.654  0.00  0.00     0.087 H 
ATOM     19  H10 GJW d   1      46.631  54.587  11.507  0.00  0.00     0.169 HD
ATOM     20  H11 GJW d   1      50.094  53.533   7.473  0.00  0.00     0.087 H 
ATOM     21  H12 GJW d   1      45.869  52.947   9.970  0.00  0.00     0.087 H 
ENDROOT
BRANCH   5  22
ATOM     22  C21 GJW d   1      46.030  51.367   7.807  0.00  0.00     0.107 C 
ATOM     23  H13 GJW d   1      46.306  51.064   6.786  0.00  0.00     0.083 H 
ATOM     24  H14 GJW d   1      45.055  51.877   7.788  0.00  0.00     0.083 H 
BRANCH  22  25
ATOM     25  N22 GJW d   1      45.897  50.152   8.626  0.00  0.00    -0.067 N 
ATOM     26  C23 GJW d   1      44.616  49.472   8.343  0.00  0.00     0.084 C 
ATOM     27  C24 GJW d   1      44.889  48.022   8.642  0.00  0.00    -0.041 C 
ATOM     28  H4  GJW d   1      44.329  49.605   7.290  0.00  0.00     0.076 H 
ATOM     29  H5  GJW d   1      43.817  49.860   8.992  0.00  0.00     0.076 H 
ATOM     30  C25 GJW d   1      46.392  47.855   8.673  0.00  0.00    -0.041 C 
ATOM     31  H15 GJW d   1      44.454  47.386   7.857  0.00  0.00     0.035 H 
ATOM     32  H16 GJW d   1      44.458  47.749   9.617  0.00  0.00     0.035 H 
ATOM     33  C26 GJW d   1      47.024  49.210   8.453  0.00  0.00     0.084 C 
ATOM     34  H17 GJW d   1      46.702  47.454   9.649  0.00  0.00     0.035 H 
ATOM     35  H18 GJW d   1      46.706  47.164   7.877  0.00  0.00     0.035 H 
ATOM     36  H6  GJW d   1      47.813  49.401   9.196  0.00  0.00     0.076 H 
ATOM     37  H7  GJW d   1      47.447  49.286   7.441  0.00  0.00     0.076 H 
ATOM     38  H3  GJW d   1      45.889  50.440   9.592  0.00  0.00     0.280 HD
ENDBRANCH  22  25
ENDBRANCH   5  22
TORSDOF 2
