REMARK  11 active torsions:
REMARK  status: ('A' for Active; 'I' for Inactive)
REMARK    1  A    between atoms: C2_2  and  C1_1 
REMARK       I    between atoms: N1_8  and  C2_2 
REMARK    2  A    between atoms: N2_9  and  C3_3 
REMARK    3  A    between atoms: C3_3  and  N3_10 
REMARK    4  A    between atoms: C4_4  and  C6_6 
REMARK    5  A    between atoms: C6_6  and  C7_7 
REMARK    6  A    between atoms: C7_7  and  C9_11 
REMARK    7  A    between atoms: N1_8  and  N2_9 
REMARK    8  A    between atoms: N3_10  and  C10_14 
REMARK    9  A    between atoms: C9_11  and  C11_17 
REMARK   10  A    between atoms: C11_17  and  C12_18 
REMARK   11  A    between atoms: C12_18  and  C13_19 
ROOT
ATOM      1  C1  32A d   1       5.876   6.757  13.336  0.00  0.00     0.146 A 
ATOM      2  C4  32A d   1       4.232   6.199  14.535  0.00  0.00     0.129 A 
ATOM      3  C5  32A d   1       6.408   6.458  14.596  0.00  0.00    -0.041 A 
ATOM      4  C8  32A d   1       5.326   6.096  15.381  0.00  0.00    -0.039 A 
ATOM      5  O1  32A d   1       4.519   6.615  13.266  0.00  0.00    -0.296 OA
ATOM      6  H1  32A d   1       7.454   6.501  14.896  0.00  0.00     0.088 H 
ATOM      7  H7  32A d   1       5.333   5.797  16.428  0.00  0.00     0.088 H 
ENDROOT
BRANCH   2   8
ATOM      8  C6  32A d   1       2.972   5.981  14.850  0.00  0.00    -0.041 C 
BRANCH   8   9
ATOM      9  C7  32A d   1       1.831   5.898  15.243  0.00  0.00    -0.099 C 
BRANCH   9  10
ATOM     10  C9  32A d   1       0.423   6.007  15.579  0.00  0.00    -0.009 C 
ATOM     11  H5  32A d   1       0.329   6.366  16.614  0.00  0.00     0.051 H 
ATOM     12  H6  32A d   1      -0.044   5.015  15.491  0.00  0.00     0.051 H 
BRANCH  10  13
ATOM     13  C11 32A d   1      -0.292   6.971  14.657  0.00  0.00    -0.056 C 
ATOM     14  H11 32A d   1       0.450   7.543  14.080  0.00  0.00     0.034 H 
ATOM     15  H12 32A d   1      -0.903   7.663  15.255  0.00  0.00     0.034 H 
BRANCH  13  16
ATOM     16  C12 32A d   1      -1.191   6.201  13.700  0.00  0.00    -0.068 C 
ATOM     17  H13 32A d   1      -1.327   5.180  14.086  0.00  0.00     0.032 H 
ATOM     18  H14 32A d   1      -0.705   6.159  12.714  0.00  0.00     0.032 H 
BRANCH  16  19
ATOM     19  C13 32A d   1      -2.554   6.850  13.545  0.00  0.00    -0.076 C 
ATOM     20  H15 32A d   1      -3.164   6.259  12.846  0.00  0.00     0.027 H 
ATOM     21  H16 32A d   1      -2.432   7.870  13.152  0.00  0.00     0.027 H 
ATOM     22  H17 32A d   1      -3.054   6.891  14.524  0.00  0.00     0.027 H 
ENDBRANCH  16  19
ENDBRANCH  13  16
ENDBRANCH  10  13
ENDBRANCH   9  10
ENDBRANCH   8   9
ENDBRANCH   2   8
BRANCH   1  23
ATOM     23  C2  32A d   1       6.469   7.201  12.047  0.00  0.00     0.293 C 
ATOM     24  N1  32A d   1       7.487   8.056  12.058  0.00  0.00    -0.262 N 
ATOM     25  H2  32A d   1       7.674   8.606  12.872  0.00  0.00     0.190 HD
ATOM     26  O2  32A d   1       6.000   6.763  11.004  0.00  0.00    -0.264 OA
BRANCH  24  27
ATOM     27  N2  32A d   1       8.301   8.181  10.913  0.00  0.00    -0.274 N 
ATOM     28  H3  32A d   1       7.995   7.825  10.030  0.00  0.00     0.189 HD
BRANCH  27  29
ATOM     29  C3  32A d   1       9.481   8.780  11.027  0.00  0.00     0.186 C 
ATOM     30  S1  32A d   1       9.977   9.096  12.494  0.00  0.00    -0.040 SA
BRANCH  29  31
ATOM     31  N3  32A d   1      10.187   9.126   9.928  0.00  0.00    -0.370 N 
ATOM     32  H4  32A d   1      10.288  10.104   9.748  0.00  0.00     0.161 HD
BRANCH  31  33
ATOM     33  C10 32A d   1      10.816   8.215   8.979  0.00  0.00    -0.019 C 
ATOM     34  H8  32A d   1      11.317   8.796   8.191  0.00  0.00     0.056 H 
ATOM     35  H9  32A d   1      10.049   7.569   8.527  0.00  0.00     0.056 H 
ATOM     36  H10 32A d   1      11.556   7.593   9.503  0.00  0.00     0.056 H 
ENDBRANCH  31  33
ENDBRANCH  29  31
ENDBRANCH  27  29
ENDBRANCH  24  27
ENDBRANCH   1  23
TORSDOF 11
