REMARK  5 active torsions:
REMARK  status: ('A' for Active; 'I' for Inactive)
REMARK    1  A    between atoms: N_1  and  CA_2 
REMARK    2  A    between atoms: N_1  and  CM_11 
REMARK    3  A    between atoms: CA_2  and  C_3 
REMARK    4  A    between atoms: CA_2  and  CB_4 
REMARK    5  A    between atoms: CB_4  and  CG_5 
ROOT
ATOM      1  CB  B40 d   1      -3.484  -3.622  17.008  0.00  0.00    -0.015 C 
ATOM      2  H7  B40 d   1      -4.156  -2.790  17.265  0.00  0.00     0.043 H 
ATOM      3  H8  B40 d   1      -2.615  -3.614  17.683  0.00  0.00     0.043 H 
ENDROOT
BRANCH   1   4
ATOM      4  CA  B40 d   1      -2.985  -3.426  15.553  0.00  0.00     0.102 C 
ATOM      5  H3  B40 d   1      -3.824  -3.581  14.859  0.00  0.00     0.084 H 
BRANCH   4   6
ATOM      6  N   B40 d   1      -2.440  -2.058  15.379  0.00  0.00    -0.075 N 
ATOM      7  H1  B40 d   1      -1.945  -2.011  14.502  0.00  0.00     0.277 HD
ATOM      8  H2  B40 d   1      -1.804  -1.859  16.135  0.00  0.00     0.277 HD
BRANCH   6   9
ATOM      9  CM  B40 d   1      -3.518  -1.047  15.379  0.00  0.00     0.065 C 
ATOM     10  H14 B40 d   1      -3.082  -0.046  15.248  0.00  0.00     0.067 H 
ATOM     11  H15 B40 d   1      -4.060  -1.089  16.335  0.00  0.00     0.067 H 
ATOM     12  H16 B40 d   1      -4.215  -1.254  14.553  0.00  0.00     0.067 H 
ENDBRANCH   6   9
ENDBRANCH   4   6
BRANCH   4  13
ATOM     13  C   B40 d   1      -1.866  -4.425  15.240  0.00  0.00    -0.049 C 
ATOM     14  H4  B40 d   1      -2.245  -5.450  15.362  0.00  0.00     0.030 H 
ATOM     15  H5  B40 d   1      -1.025  -4.261  15.929  0.00  0.00     0.030 H 
ATOM     16  H6  B40 d   1      -1.525  -4.281  14.204  0.00  0.00     0.030 H 
ENDBRANCH   4  13
ENDBRANCH   1   4
BRANCH   1  17
ATOM     17  CG  B40 d   1      -4.234  -4.930  17.196  0.00  0.00    -0.056 A 
ATOM     18  CD1 B40 d   1      -3.600  -6.035  17.808  0.00  0.00    -0.077 A 
ATOM     19  CE1 B40 d   1      -4.303  -7.238  17.986  0.00  0.00    -0.082 A 
ATOM     20  H9  B40 d   1      -2.571  -5.954  18.140  0.00  0.00     0.084 H 
ATOM     21  CZ  B40 d   1      -5.643  -7.348  17.559  0.00  0.00    -0.083 A 
ATOM     22  H11 B40 d   1      -3.814  -8.085  18.453  0.00  0.00     0.083 H 
ATOM     23  CE2 B40 d   1      -6.278  -6.249  16.951  0.00  0.00    -0.082 A 
ATOM     24  H13 B40 d   1      -6.183  -8.278  17.699  0.00  0.00     0.083 H 
ATOM     25  CD2 B40 d   1      -5.572  -5.041  16.772  0.00  0.00    -0.077 A 
ATOM     26  H12 B40 d   1      -7.307  -6.331  16.621  0.00  0.00     0.083 H 
ATOM     27  H10 B40 d   1      -6.062  -4.194  16.306  0.00  0.00     0.084 H 
ENDBRANCH   1  17
TORSDOF 5
