REMARK  5 active torsions:
REMARK  status: ('A' for Active; 'I' for Inactive)
REMARK    1  A    between atoms: CA_4  and  N_3 
REMARK    2  A    between atoms: N_3  and  CM_13 
REMARK    3  A    between atoms: CA_4  and  C_5 
REMARK    4  A    between atoms: CB_6  and  CA_4 
REMARK    5  A    between atoms: CG_7  and  CB_6 
ROOT
ATOM      1  CB  B41 d   1      -3.481  -3.602  17.106  0.00  0.00    -0.015 C 
ATOM      2  H7  B41 d   1      -3.951  -2.723  17.570  0.00  0.00     0.043 H 
ATOM      3  H8  B41 d   1      -2.534  -3.825  17.619  0.00  0.00     0.043 H 
ENDROOT
BRANCH   1   4
ATOM      4  CA  B41 d   1      -3.179  -3.279  15.626  0.00  0.00     0.102 C 
ATOM      5  H3  B41 d   1      -4.107  -3.369  15.043  0.00  0.00     0.084 H 
BRANCH   4   6
ATOM      6  N   B41 d   1      -2.660  -1.901  15.506  0.00  0.00    -0.075 N 
ATOM      7  H1  B41 d   1      -2.070  -1.838  14.691  0.00  0.00     0.277 HD
ATOM      8  H2  B41 d   1      -2.122  -1.676  16.328  0.00  0.00     0.277 HD
BRANCH   6   9
ATOM      9  CM  B41 d   1      -3.765  -0.951  15.377  0.00  0.00     0.065 C 
ATOM     10  H12 B41 d   1      -3.363   0.069  15.289  0.00  0.00     0.067 H 
ATOM     11  H13 B41 d   1      -4.410  -1.015  16.266  0.00  0.00     0.067 H 
ATOM     12  H14 B41 d   1      -4.353  -1.192  14.479  0.00  0.00     0.067 H 
ENDBRANCH   6   9
ENDBRANCH   4   6
BRANCH   4  13
ATOM     13  C   B41 d   1      -2.136  -4.264  15.071  0.00  0.00    -0.049 C 
ATOM     14  H4  B41 d   1      -2.519  -5.292  15.159  0.00  0.00     0.030 H 
ATOM     15  H5  B41 d   1      -1.202  -4.171  15.644  0.00  0.00     0.030 H 
ATOM     16  H6  B41 d   1      -1.941  -4.034  14.013  0.00  0.00     0.030 H 
ENDBRANCH   4  13
ENDBRANCH   1   4
BRANCH   1  17
ATOM     17  CG  B41 d   1      -4.412  -4.792  17.263  0.00  0.00    -0.053 A 
ATOM     18  CD1 B41 d   1      -5.810  -4.614  17.106  0.00  0.00    -0.042 A 
ATOM     19  CE1 B41 d   1      -6.683  -5.712  17.267  0.00  0.00     0.105 A 
ATOM     20  H9  B41 d   1      -6.208  -3.636  16.863  0.00  0.00     0.088 H 
ATOM     21  O1  B41 d   1      -7.834  -5.867  16.542  0.00  0.00    -0.323 OA
ATOM     22  CZ  B41 d   1      -6.180  -6.971  17.577  0.00  0.00     0.105 A 
ATOM     23  CT  B41 d   1      -8.284  -7.222  16.823  0.00  0.00     0.115 C 
ATOM     24  O2  B41 d   1      -7.054  -7.935  17.121  0.00  0.00    -0.323 OA
ATOM     25  H15 B41 d   1      -8.789  -7.658  15.948  0.00  0.00     0.118 H 
ATOM     26  H16 B41 d   1      -8.966  -7.238  17.686  0.00  0.00     0.118 H 
ATOM     27  CE2 B41 d   1      -4.788  -7.171  17.731  0.00  0.00    -0.047 A 
ATOM     28  CD2 B41 d   1      -3.902  -6.076  17.579  0.00  0.00    -0.074 A 
ATOM     29  H11 B41 d   1      -4.402  -8.157  17.964  0.00  0.00     0.087 H 
ATOM     30  H10 B41 d   1      -2.835  -6.220  17.704  0.00  0.00     0.084 H 
ENDBRANCH   1  17
TORSDOF 5
