REMARK  4 active torsions:
REMARK  status: ('A' for Active; 'I' for Inactive)
REMARK    1  A    between atoms: C16_2  and  C17_3 
REMARK    2  A    between atoms: C16_2  and  C9_4 
REMARK    3  A    between atoms: C6_9  and  N1_10 
REMARK    4  A    between atoms: C4_14  and  C13_16 
ROOT
ATOM      1  C9  GF7 d   1     -35.843  12.770  18.174  0.00  0.00     0.009 A 
ATOM      2  C8  GF7 d   1     -35.576  12.776  19.544  0.00  0.00    -0.067 A 
ATOM      3  C7  GF7 d   1     -34.569  11.967  20.062  0.00  0.00    -0.056 A 
ATOM      4  C10 GF7 d   1     -35.095  11.950  17.326  0.00  0.00    -0.067 A 
ATOM      5  C11 GF7 d   1     -34.086  11.139  17.841  0.00  0.00    -0.056 A 
ATOM      6  C6  GF7 d   1     -33.826  11.150  19.211  0.00  0.00     0.037 A 
ATOM      7  H4  GF7 d   1     -36.154  13.412  20.205  0.00  0.00     0.085 H 
ATOM      8  H5  GF7 d   1     -34.362  11.972  21.126  0.00  0.00     0.087 H 
ATOM      9  H6  GF7 d   1     -35.301  11.945  16.262  0.00  0.00     0.085 H 
ATOM     10  H7  GF7 d   1     -33.507  10.504  17.181  0.00  0.00     0.087 H 
ENDROOT
BRANCH   6  11
ATOM     11  N1  GF7 d   1     -32.816  10.345  19.750  0.00  0.00    -0.317 N 
ATOM     12  C2  GF7 d   1     -32.986   9.046  19.933  0.00  0.00     0.225 C 
ATOM     13  O12 GF7 d   1     -33.969   8.377  19.632  0.00  0.00    -0.273 OA
ATOM     14  C3  GF7 d   1     -31.754   8.481  20.595  0.00  0.00     0.024 C 
ATOM     15  C4  GF7 d   1     -30.796   9.677  20.601  0.00  0.00     0.054 C 
ATOM     16  H11 GF7 d   1     -31.340   7.644  20.014  0.00  0.00     0.048 H 
ATOM     17  H12 GF7 d   1     -31.973   8.143  21.619  0.00  0.00     0.048 H 
ATOM     18  C5  GF7 d   1     -31.548  10.932  20.144  0.00  0.00     0.016 C 
ATOM     19  H10 GF7 d   1     -29.986   9.475  19.884  0.00  0.00     0.059 H 
ATOM     20  H8  GF7 d   1     -31.671  11.654  20.965  0.00  0.00     0.066 H 
ATOM     21  H9  GF7 d   1     -31.045  11.422  19.297  0.00  0.00     0.066 H 
BRANCH  15  22
ATOM     22  C13 GF7 d   1     -30.175   9.891  21.957  0.00  0.00     0.179 C 
ATOM     23  O14 GF7 d   1     -30.097  11.050  22.421  0.00  0.00    -0.648 OA
ATOM     24  O15 GF7 d   1     -29.725   8.893  22.569  0.00  0.00    -0.648 OA
ENDBRANCH  15  22
ENDBRANCH   6  11
BRANCH   1  25
ATOM     25  C16 GF7 d   1     -36.926  13.642  17.602  0.00  0.00     0.155 C 
ATOM     26  O18 GF7 d   1     -37.158  13.597  16.404  0.00  0.00    -0.293 OA
BRANCH  25  27
ATOM     27  C17 GF7 d   1     -37.702  14.566  18.496  0.00  0.00    -0.017 C 
ATOM     28  H1  GF7 d   1     -37.346  14.459  19.531  0.00  0.00     0.038 H 
ATOM     29  H2  GF7 d   1     -38.771  14.311  18.448  0.00  0.00     0.038 H 
ATOM     30  H3  GF7 d   1     -37.557  15.605  18.164  0.00  0.00     0.038 H 
ENDBRANCH  25  27
ENDBRANCH   1  25
TORSDOF 4
