REMARK  4 active torsions:
REMARK  status: ('A' for Active; 'I' for Inactive)
REMARK    1  A    between atoms: C4_3  and  C12_4 
REMARK    2  A    between atoms: C12_4  and  C13_5 
REMARK    3  A    between atoms: C5_6  and  C14_7 
REMARK    4  A    between atoms: N2_9  and  C6_10 
ROOT
ATOM      1  O11 GF4 d   1     -36.546   5.722   9.585  0.00  0.00    -0.270 OA
ATOM      2  C3  GF4 d   1     -37.110   5.714  10.743  0.00  0.00     0.271 A 
ATOM      3  C4  GF4 d   1     -36.561   6.363  11.945  0.00  0.00     0.066 A 
ATOM      4  C5  GF4 d   1     -37.593   6.049  12.987  0.00  0.00     0.043 A 
ATOM      5  N1  GF4 d   1     -38.586   5.324  12.411  0.00  0.00    -0.158 NA
ATOM      6  N2  GF4 d   1     -38.261   5.141  11.058  0.00  0.00    -0.025 N 
ATOM      7  H1  GF4 d   1     -37.040   7.322  11.700  0.00  0.00     0.064 H 
ENDROOT
BRANCH   3   8
ATOM      8  C12 GF4 d   1     -35.272   7.129  12.090  0.00  0.00    -0.052 C 
ATOM      9  H2  GF4 d   1     -35.415   7.993  12.755  0.00  0.00     0.034 H 
ATOM     10  H3  GF4 d   1     -34.922   7.477  11.107  0.00  0.00     0.034 H 
BRANCH   8  11
ATOM     11  C13 GF4 d   1     -34.269   6.160  12.693  0.00  0.00    -0.075 C 
ATOM     12  H4  GF4 d   1     -33.302   6.667  12.823  0.00  0.00     0.027 H 
ATOM     13  H5  GF4 d   1     -34.143   5.298  12.022  0.00  0.00     0.027 H 
ATOM     14  H6  GF4 d   1     -34.636   5.814  13.671  0.00  0.00     0.027 H 
ENDBRANCH   8  11
ENDBRANCH   3   8
BRANCH   4  15
ATOM     15  C14 GF4 d   1     -37.557   6.466  14.436  0.00  0.00    -0.036 C 
ATOM     16  H7  GF4 d   1     -38.453   6.086  14.949  0.00  0.00     0.035 H 
ATOM     17  H8  GF4 d   1     -37.535   7.564  14.501  0.00  0.00     0.035 H 
ATOM     18  H9  GF4 d   1     -36.657   6.052  14.915  0.00  0.00     0.035 H 
ENDBRANCH   4  15
BRANCH   6  19
ATOM     19  C6  GF4 d   1     -39.038   4.460  10.203  0.00  0.00     0.757 A 
ATOM     20  N10 GF4 d   1     -40.081   3.724  10.625  0.00  0.00    -0.113 N 
ATOM     21  N9  GF4 d   1     -40.620   3.184   9.444  0.00  0.00     0.009 NA
ATOM     22  H10 GF4 d   1     -40.410   3.587  11.591  0.00  0.00     0.203 HD
ATOM     23  N8  GF4 d   1     -39.843   3.639   8.359  0.00  0.00     0.033 NA
ATOM     24  N7  GF4 d   1     -38.828   4.461   8.874  0.00  0.00     0.032 NA
ENDBRANCH   6  19
TORSDOF 4
