REMARK  11 active torsions:
REMARK  status: ('A' for Active; 'I' for Inactive)
REMARK       I    between atoms: CAP_2  and  NAO_3 
REMARK    1  A    between atoms: CAP_2  and  OAQ_10 
REMARK    2  A    between atoms: NAO_3  and  CAS_4 
REMARK    3  A    between atoms: OAQ_10  and  NAY_11 
REMARK    4  A    between atoms: CAE_14  and  CAF_15 
REMARK    5  A    between atoms: CAF_15  and  OAM_16 
REMARK    6  A    between atoms: CAD_17  and  OAK_18 
REMARK    7  A    between atoms: CAC_19  and  OAJ_20 
REMARK    8  A    between atoms: CAB_21  and  NAI_22 
REMARK       I    between atoms: NAI_22  and  CAG_23 
REMARK    9  A    between atoms: CAG_23  and  CAH_25 
REMARK   10  A    between atoms: CAH_25  and  C1_26 
REMARK   11  A    between atoms: C1_26  and  C2_27 
ROOT
ATOM      1  NAY NP6 d   1     -16.006 -10.610   3.651  0.00  0.00    -0.100 NA
ATOM      2  CAA NP6 d   1     -15.255 -10.488   4.672  0.00  0.00     0.194 C 
ATOM      3  OAL NP6 d   1     -14.055 -11.311   4.774  0.00  0.00    -0.324 OA
ATOM      4  CAE NP6 d   1     -13.164 -11.153   5.883  0.00  0.00     0.094 C 
ATOM      5  CAD NP6 d   1     -13.867 -10.579   7.120  0.00  0.00     0.090 C 
ATOM      6  CAC NP6 d   1     -14.587  -9.267   6.761  0.00  0.00     0.089 C 
ATOM      7  CAB NP6 d   1     -15.734  -9.590   5.787  0.00  0.00     0.105 C 
ATOM      8  H7  NP6 d   1     -12.373 -10.444   5.596  0.00  0.00     0.091 H 
ATOM      9  H11 NP6 d   1     -14.631 -11.300   7.446  0.00  0.00     0.091 H 
ATOM     10  H13 NP6 d   1     -13.870  -8.596   6.265  0.00  0.00     0.090 H 
ATOM     11  H15 NP6 d   1     -16.525 -10.124   6.333  0.00  0.00     0.090 H 
ENDROOT
BRANCH   1  12
ATOM     12  OAQ NP6 d   1     -15.688 -11.395   2.711  0.00  0.00    -0.153 OA
BRANCH  12  13
ATOM     13  CAP NP6 d   1     -16.437 -11.502   1.451  0.00  0.00     0.389 C 
ATOM     14  OAR NP6 d   1     -17.493 -10.888   1.323  0.00  0.00    -0.236 OA
ATOM     15  NAO NP6 d   1     -15.913 -12.291   0.499  0.00  0.00    -0.301 N 
ATOM     16  H1  NP6 d   1     -15.061 -12.765   0.719  0.00  0.00     0.171 HD
BRANCH  15  17
ATOM     17  CAS NP6 d   1     -16.457 -12.511  -0.784  0.00  0.00     0.036 A 
ATOM     18  CAT NP6 d   1     -15.877 -13.488  -1.608  0.00  0.00    -0.057 A 
ATOM     19  CAU NP6 d   1     -16.376 -13.728  -2.890  0.00  0.00    -0.081 A 
ATOM     20  H2  NP6 d   1     -15.032 -14.063  -1.245  0.00  0.00     0.086 H 
ATOM     21  CAV NP6 d   1     -17.454 -12.978  -3.361  0.00  0.00    -0.083 A 
ATOM     22  H3  NP6 d   1     -15.929 -14.492  -3.515  0.00  0.00     0.083 H 
ATOM     23  CAW NP6 d   1     -18.028 -11.994  -2.544  0.00  0.00    -0.081 A 
ATOM     24  H4  NP6 d   1     -17.846 -13.156  -4.356  0.00  0.00     0.083 H 
ATOM     25  CAX NP6 d   1     -17.533 -11.754  -1.260  0.00  0.00    -0.057 A 
ATOM     26  H5  NP6 d   1     -18.865 -11.413  -2.913  0.00  0.00     0.083 H 
ATOM     27  H6  NP6 d   1     -17.979 -10.987  -0.637  0.00  0.00     0.086 H 
ENDBRANCH  15  17
ENDBRANCH  12  13
ENDBRANCH   1  12
BRANCH   7  28
ATOM     28  NAI NP6 d   1     -16.277  -8.327   5.310  0.00  0.00    -0.346 N 
ATOM     29  CAG NP6 d   1     -17.506  -7.937   5.647  0.00  0.00     0.218 C 
ATOM     30  OAN NP6 d   1     -18.241  -8.612   6.350  0.00  0.00    -0.274 OA
ATOM     31  H16 NP6 d   1     -15.719  -7.743   4.720  0.00  0.00     0.163 HD
BRANCH  29  32
ATOM     32  CAH NP6 d   1     -17.979  -6.600   5.110  0.00  0.00     0.009 C 
ATOM     33  H17 NP6 d   1     -17.352  -6.297   4.259  0.00  0.00     0.047 H 
ATOM     34  H18 NP6 d   1     -17.918  -5.838   5.901  0.00  0.00     0.047 H 
BRANCH  32  35
ATOM     35  C1  NP6 d   1     -19.426  -6.759   4.655  0.00  0.00    -0.061 C 
ATOM     36  H19 NP6 d   1     -19.833  -5.772   4.389  0.00  0.00     0.033 H 
ATOM     37  H20 NP6 d   1     -20.019  -7.192   5.474  0.00  0.00     0.033 H 
BRANCH  35  38
ATOM     38  C2  NP6 d   1     -19.501  -7.678   3.440  0.00  0.00    -0.076 C 
ATOM     39  H21 NP6 d   1     -20.549  -7.783   3.124  0.00  0.00     0.027 H 
ATOM     40  H22 NP6 d   1     -19.096  -8.667   3.703  0.00  0.00     0.027 H 
ATOM     41  H23 NP6 d   1     -18.911  -7.247   2.617  0.00  0.00     0.027 H 
ENDBRANCH  35  38
ENDBRANCH  32  35
ENDBRANCH  29  32
ENDBRANCH   7  28
BRANCH   4  42
ATOM     42  CAF NP6 d   1     -12.523 -12.504   6.141  0.00  0.00     0.044 C 
ATOM     43  H8  NP6 d   1     -11.906 -12.394   7.045  0.00  0.00     0.078 H 
ATOM     44  H9  NP6 d   1     -11.875 -12.717   5.278  0.00  0.00     0.078 H 
BRANCH  42  45
ATOM     45  OAM NP6 d   1     -13.226 -13.500   6.311  0.00  0.00    -0.398 OA
ATOM     46  H10 NP6 d   1     -13.787 -13.365   7.066  0.00  0.00     0.209 HD
ENDBRANCH  42  45
ENDBRANCH   4  42
BRANCH   6  47
ATOM     47  OAJ NP6 d   1     -15.111  -8.593   7.927  0.00  0.00    -0.390 OA
ATOM     48  H14 NP6 d   1     -15.545  -7.792   7.660  0.00  0.00     0.210 HD
ENDBRANCH   6  47
BRANCH   5  49
ATOM     49  OAK NP6 d   1     -12.926 -10.424   8.197  0.00  0.00    -0.390 OA
ATOM     50  H12 NP6 d   1     -12.553 -11.270   8.415  0.00  0.00     0.210 HD
ENDBRANCH   5  49
TORSDOF 11
