REMARK  9 active torsions:
REMARK  status: ('A' for Active; 'I' for Inactive)
REMARK    1  A    between atoms: C3_1  and  C2_2 
REMARK    2  A    between atoms: C2_2  and  C1_3 
REMARK    3  A    between atoms: C1_3  and  CAH_4 
REMARK    4  A    between atoms: CAH_4  and  CAG_5 
REMARK       I    between atoms: CAG_5  and  NAI_7 
REMARK    5  A    between atoms: NAI_7  and  CAB_8 
REMARK    6  A    between atoms: CAC_9  and  OAJ_10 
REMARK    7  A    between atoms: CAD_11  and  OAK_12 
REMARK    8  A    between atoms: CAE_13  and  CAF_14 
REMARK    9  A    between atoms: CAF_14  and  OAM_15 
ROOT
ATOM      1  CAB VPU d   1      -3.533  16.050  11.825  0.00  0.00     0.102 C 
ATOM      2  CAC VPU d   1      -2.577  14.918  12.240  0.00  0.00     0.089 C 
ATOM      3  CAD VPU d   1      -1.931  14.395  10.952  0.00  0.00     0.090 C 
ATOM      4  CAE VPU d   1      -0.971  15.428  10.341  0.00  0.00     0.094 C 
ATOM      5  OAL VPU d   1      -1.507  16.766  10.300  0.00  0.00    -0.326 OA
ATOM      6  CAA VPU d   1      -2.741  17.077  11.032  0.00  0.00     0.159 C 
ATOM      7  NAY VPU d   1      -3.192  18.258  10.974  0.00  0.00    -0.280 NA
ATOM      8  H11 VPU d   1      -4.306  15.633  11.162  0.00  0.00     0.089 H 
ATOM      9  H12 VPU d   1      -1.799  15.335  12.896  0.00  0.00     0.090 H 
ATOM     10  H14 VPU d   1      -2.733  14.202  10.225  0.00  0.00     0.091 H 
ATOM     11  H16 VPU d   1      -0.062  15.447  10.961  0.00  0.00     0.091 H 
ATOM     12  H20 VPU d   1      -2.692  18.964  10.457  0.00  0.00     0.189 HD
ENDROOT
BRANCH   1  13
ATOM     13  NAI VPU d   1      -4.215  16.604  13.008  0.00  0.00    -0.346 N 
ATOM     14  CAG VPU d   1      -5.456  16.226  13.374  0.00  0.00     0.218 C 
ATOM     15  OAN VPU d   1      -6.113  15.387  12.768  0.00  0.00    -0.274 OA
ATOM     16  H10 VPU d   1      -3.738  17.287  13.561  0.00  0.00     0.163 HD
BRANCH  14  17
ATOM     17  CAH VPU d   1      -6.053  16.885  14.605  0.00  0.00     0.009 C 
ATOM     18  H8  VPU d   1      -5.998  16.187  15.454  0.00  0.00     0.047 H 
ATOM     19  H9  VPU d   1      -5.484  17.796  14.842  0.00  0.00     0.047 H 
BRANCH  17  20
ATOM     20  C1  VPU d   1      -7.518  17.255  14.346  0.00  0.00    -0.058 C 
ATOM     21  H6  VPU d   1      -7.964  16.497  13.686  0.00  0.00     0.033 H 
ATOM     22  H7  VPU d   1      -8.056  17.268  15.306  0.00  0.00     0.033 H 
BRANCH  20  23
ATOM     23  C2  VPU d   1      -7.654  18.620  13.688  0.00  0.00    -0.068 C 
ATOM     24  H4  VPU d   1      -8.072  19.325  14.422  0.00  0.00     0.032 H 
ATOM     25  H5  VPU d   1      -6.656  18.963  13.378  0.00  0.00     0.032 H 
BRANCH  23  26
ATOM     26  C3  VPU d   1      -8.571  18.593  12.453  0.00  0.00    -0.077 C 
ATOM     27  H1  VPU d   1      -8.632  19.602  12.020  0.00  0.00     0.027 H 
ATOM     28  H2  VPU d   1      -9.576  18.260  12.750  0.00  0.00     0.027 H 
ATOM     29  H3  VPU d   1      -8.160  17.898  11.706  0.00  0.00     0.027 H 
ENDBRANCH  23  26
ENDBRANCH  20  23
ENDBRANCH  17  20
ENDBRANCH  14  17
ENDBRANCH   1  13
BRANCH   2  30
ATOM     30  OAJ VPU d   1      -3.228  13.842  12.946  0.00  0.00    -0.390 OA
ATOM     31  H13 VPU d   1      -3.628  14.181  13.738  0.00  0.00     0.210 HD
ENDBRANCH   2  30
BRANCH   3  32
ATOM     32  OAK VPU d   1      -1.236  13.158  11.195  0.00  0.00    -0.390 OA
ATOM     33  H15 VPU d   1      -0.844  12.852  10.386  0.00  0.00     0.210 HD
ENDBRANCH   3  32
BRANCH   4  34
ATOM     34  CAF VPU d   1      -0.589  15.011   8.930  0.00  0.00     0.044 C 
ATOM     35  H17 VPU d   1      -0.584  13.911   8.917  0.00  0.00     0.078 H 
ATOM     36  H18 VPU d   1       0.431  15.385   8.756  0.00  0.00     0.078 H 
BRANCH  34  37
ATOM     37  OAM VPU d   1      -1.262  15.370   7.973  0.00  0.00    -0.398 OA
ATOM     38  H19 VPU d   1      -1.273  16.319   7.933  0.00  0.00     0.209 HD
ENDBRANCH  34  37
ENDBRANCH   4  34
TORSDOF 9
