REMARK  20 active torsions:
REMARK  status: ('A' for Active; 'I' for Inactive)
REMARK    1  A    between atoms: CA1_2  and  N1_1 
REMARK    2  A    between atoms: CA1_2  and  C1_3 
REMARK    3  A    between atoms: CB1_6  and  CA1_2 
REMARK    4  A    between atoms: CG1_7  and  CB1_6 
REMARK    5  A    between atoms: CD1_8  and  CG1_7 
REMARK       I    between atoms: N2_10  and  CD1_8 
REMARK    6  A    between atoms: CA2_11  and  N2_10 
REMARK    7  A    between atoms: CA2_11  and  C2_12 
REMARK    8  A    between atoms: CB2_14  and  CA2_11 
REMARK       I    between atoms: C2_12  and  N3_16 
REMARK    9  A    between atoms: SG2_15  and  CB2_14 
REMARK   10  A    between atoms: C11_35  and  SG2_15 
REMARK   11  A    between atoms: N3_16  and  CA3_17 
REMARK   12  A    between atoms: CA3_17  and  C3_18 
REMARK   13  A    between atoms: C1_21  and  O2_22 
REMARK   14  A    between atoms: O2_22  and  C12_36 
REMARK   15  A    between atoms: C7_30  and  C4_27 
REMARK   16  A    between atoms: C8_32  and  C7_30 
REMARK   17  A    between atoms: C8_32  and  C9_33 
REMARK   18  A    between atoms: C11_35  and  C8_32 
REMARK   19  A    between atoms: C9_33  and  C10_34 
REMARK   20  A    between atoms: C12_36  and  C13_37 
ROOT
ATOM      1  CB2 GSH d   1       9.525   5.893  27.114  0.00  0.00     0.004 C 
ATOM      2  H11 GSH d   1       9.958   5.637  26.136  0.00  0.00     0.052 H 
ATOM      3  H12 GSH d   1       8.443   5.696  27.099  0.00  0.00     0.052 H 
ENDROOT
BRANCH   1   4
ATOM      4  CA2 GSH d   1       9.740   7.383  27.360  0.00  0.00     0.097 C 
ATOM      5  H10 GSH d   1       9.093   7.943  26.669  0.00  0.00     0.088 H 
BRANCH   4   6
ATOM      6  N2  GSH d   1      11.120   7.756  27.110  0.00  0.00    -0.347 N 
ATOM      7  CD1 GSH d   1      11.513   8.127  25.904  0.00  0.00     0.218 C 
ATOM      8  OE1 GSH d   1      10.759   8.125  24.938  0.00  0.00    -0.274 OA
ATOM      9  H9  GSH d   1      11.782   7.732  27.859  0.00  0.00     0.163 HD
BRANCH   7  10
ATOM     10  CG1 GSH d   1      12.962   8.524  25.769  0.00  0.00     0.012 C 
ATOM     11  H7  GSH d   1      13.252   9.110  26.654  0.00  0.00     0.047 H 
ATOM     12  H8  GSH d   1      13.575   7.612  25.716  0.00  0.00     0.047 H 
BRANCH  10  13
ATOM     13  CB1 GSH d   1      13.218   9.352  24.534  0.00  0.00    -0.021 C 
ATOM     14  H5  GSH d   1      13.140   8.697  23.654  0.00  0.00     0.037 H 
ATOM     15  H6  GSH d   1      12.450  10.137  24.476  0.00  0.00     0.037 H 
BRANCH  13  16
ATOM     16  CA1 GSH d   1      14.589  10.018  24.518  0.00  0.00     0.183 C 
ATOM     17  H4  GSH d   1      14.715  10.616  25.433  0.00  0.00     0.101 H 
BRANCH  16  18
ATOM     18  N1  GSH d   1      14.706  10.882  23.329  0.00  0.00    -0.065 N 
ATOM     19  H1  GSH d   1      13.988  11.589  23.356  0.00  0.00     0.275 HD
ATOM     20  H2  GSH d   1      14.598  10.324  22.496  0.00  0.00     0.275 HD
ATOM     21  H3  GSH d   1      15.612  11.323  23.322  0.00  0.00     0.275 HD
ENDBRANCH  16  18
BRANCH  16  22
ATOM     22  C1  GSH d   1      15.690   8.974  24.428  0.00  0.00     0.204 C 
ATOM     23  O11 GSH d   1      16.105   8.444  25.475  0.00  0.00    -0.646 OA
ATOM     24  O12 GSH d   1      16.161   8.721  23.297  0.00  0.00    -0.646 OA
ENDBRANCH  16  22
ENDBRANCH  13  16
ENDBRANCH  10  13
ENDBRANCH   7  10
ENDBRANCH   4   6
BRANCH   4  25
ATOM     25  C2  GSH d   1       9.373   7.764  28.782  0.00  0.00     0.241 C 
ATOM     26  O2  GSH d   1      10.251   7.977  29.620  0.00  0.00    -0.271 OA
ATOM     27  N3  GSH d   1       8.074   7.849  29.042  0.00  0.00    -0.349 N 
ATOM     28  H13 GSH d   1       7.413   7.647  28.320  0.00  0.00     0.163 HD
BRANCH  27  29
ATOM     29  CA3 GSH d   1       7.600   8.230  30.356  0.00  0.00     0.075 C 
ATOM     30  H14 GSH d   1       8.450   8.284  31.052  0.00  0.00     0.080 H 
ATOM     31  H15 GSH d   1       6.877   7.484  30.717  0.00  0.00     0.080 H 
BRANCH  29  32
ATOM     32  C3  GSH d   1       6.927   9.589  30.268  0.00  0.00     0.191 C 
ATOM     33  O31 GSH d   1       6.176   9.941  31.190  0.00  0.00    -0.647 OA
ATOM     34  O32 GSH d   1       7.124  10.301  29.262  0.00  0.00    -0.647 OA
ENDBRANCH  29  32
ENDBRANCH  27  29
ENDBRANCH   4  25
ENDBRANCH   1   4
BRANCH   1  35
ATOM     35  SG2 GSH d   1      10.267   4.849  28.347  0.00  0.00    -0.166 SA
BRANCH  35  36
ATOM     36  C11 EAA d   1       9.863   3.171  27.840  0.00  0.00    -0.013 C 
ATOM     37  H24 GSH d   1      10.407   2.948  26.910  0.00  0.00     0.050 H 
ATOM     38  H25 GSH d   1      10.191   2.481  28.631  0.00  0.00     0.050 H 
BRANCH  36  39
ATOM     39  C8  EAA d   1       8.357   2.946  27.589  0.00  0.00     0.016 C 
ATOM     40  H18 GSH d   1       7.855   3.642  28.277  0.00  0.00     0.053 H 
BRANCH  39  41
ATOM     41  C7  EAA d   1       7.859   3.376  26.153  0.00  0.00     0.166 C 
ATOM     42  O1  EAA d   1       8.665   3.156  25.247  0.00  0.00    -0.292 OA
BRANCH  41  43
ATOM     43  C4  EAA d   1       6.494   4.020  25.896  0.00  0.00     0.034 A 
ATOM     44  C3  EAA d   1       6.252   4.913  24.801  0.00  0.00     0.072 A 
ATOM     45  C2  EAA d   1       4.950   5.422  24.578  0.00  0.00     0.090 A 
ATOM     46 CL2  EAA d   1       7.549   5.418  23.694  0.00  0.00    -0.081 Cl
ATOM     47  C1  EAA d   1       3.886   5.069  25.444  0.00  0.00     0.092 A 
ATOM     48 CL1  EAA d   1       4.647   6.501  23.201  0.00  0.00    -0.080 Cl
ATOM     49  C6  EAA d   1       4.136   4.199  26.517  0.00  0.00    -0.048 A 
ATOM     50  C5  EAA d   1       5.410   3.688  26.744  0.00  0.00    -0.065 A 
ATOM     51  H17 GSH d   1       3.324   3.921  27.179  0.00  0.00     0.087 H 
ATOM     52  H16 GSH d   1       5.575   3.024  27.585  0.00  0.00     0.085 H 
BRANCH  47  53
ATOM     53  O2  EAA d   1       2.631   5.587  25.157  0.00  0.00    -0.339 OA
BRANCH  53  54
ATOM     54  C12 EAA d   1       1.537   4.807  24.582  0.00  0.00     0.106 C 
ATOM     55  H26 GSH d   1       0.846   4.531  25.392  0.00  0.00     0.091 H 
ATOM     56  H27 GSH d   1       1.960   3.896  24.134  0.00  0.00     0.091 H 
BRANCH  54  57
ATOM     57  C13 EAA d   1       0.746   5.547  23.508  0.00  0.00     0.198 C 
ATOM     58  O   EAA d   1      -0.473   5.296  23.380  0.00  0.00    -0.646 OA
ATOM     59  OXT EAA d   1       1.327   6.421  22.818  0.00  0.00    -0.646 OA
ENDBRANCH  54  57
ENDBRANCH  53  54
ENDBRANCH  47  53
ENDBRANCH  41  43
ENDBRANCH  39  41
BRANCH  39  60
ATOM     60  C9  EAA d   1       7.864   1.548  28.014  0.00  0.00    -0.058 C 
ATOM     61  H19 GSH d   1       8.136   0.849  27.210  0.00  0.00     0.033 H 
ATOM     62  H20 GSH d   1       6.769   1.601  28.098  0.00  0.00     0.033 H 
BRANCH  60  63
ATOM     63  C10 EAA d   1       8.388   0.960  29.319  0.00  0.00    -0.076 C 
ATOM     64  H21 GSH d   1       7.944  -0.034  29.478  0.00  0.00     0.027 H 
ATOM     65  H22 GSH d   1       8.115   1.621  30.155  0.00  0.00     0.027 H 
ATOM     66  H23 GSH d   1       9.483   0.869  29.266  0.00  0.00     0.027 H 
ENDBRANCH  60  63
ENDBRANCH  39  60
ENDBRANCH  36  39
ENDBRANCH  35  36
ENDBRANCH   1  35
TORSDOF 20
