REMARK  13 active torsions:
REMARK  status: ('A' for Active; 'I' for Inactive)
REMARK    1  A    between atoms: N1_1  and  CA1_2 
REMARK    2  A    between atoms: CA1_2  and  CB1_6 
REMARK    3  A    between atoms: CA1_2  and  C1_3 
REMARK    4  A    between atoms: CB1_6  and  CG1_7 
REMARK    5  A    between atoms: CG1_7  and  CD1_8 
REMARK       I    between atoms: CD1_8  and  N2_10 
REMARK    6  A    between atoms: N2_10  and  CA2_11 
REMARK    7  A    between atoms: CA2_11  and  CB2_14 
REMARK    8  A    between atoms: CA2_11  and  C2_12 
REMARK       I    between atoms: C2_12  and  N3_16 
REMARK    9  A    between atoms: CB2_14  and  SG2_15 
REMARK   10  A    between atoms: SG2_15  and  CA4_21 
REMARK   11  A    between atoms: N3_16  and  CA3_17 
REMARK   12  A    between atoms: CA3_17  and  C3_18 
REMARK   13  A    between atoms: CA5_34  and  O5_35 
ROOT
ATOM      1  CA2 GPR d   1      17.209  16.969  31.269  0.00  0.00     0.097 C 
ATOM      2  H10 GPR d   1      18.239  16.724  30.970  0.00  0.00     0.088 H 
ENDROOT
BRANCH   1   3
ATOM      3  N2  GPR d   1      16.295  16.279  30.330  0.00  0.00    -0.347 N 
ATOM      4  CD1 GPR d   1      16.767  15.690  29.219  0.00  0.00     0.218 C 
ATOM      5  OE1 GPR d   1      17.975  15.518  28.921  0.00  0.00    -0.274 OA
ATOM      6  H9  GPR d   1      15.315  16.251  30.526  0.00  0.00     0.163 HD
BRANCH   4   7
ATOM      7  CG1 GPR d   1      15.793  15.185  28.229  0.00  0.00     0.012 C 
ATOM      8  H7  GPR d   1      16.231  14.282  27.778  0.00  0.00     0.047 H 
ATOM      9  H8  GPR d   1      14.882  14.913  28.783  0.00  0.00     0.047 H 
BRANCH   7  10
ATOM     10  CB1 GPR d   1      15.374  16.075  27.108  0.00  0.00    -0.021 C 
ATOM     11  H5  GPR d   1      15.074  17.058  27.498  0.00  0.00     0.037 H 
ATOM     12  H6  GPR d   1      16.203  16.201  26.395  0.00  0.00     0.037 H 
BRANCH  10  13
ATOM     13  CA1 GPR d   1      14.151  15.377  26.399  0.00  0.00     0.183 C 
ATOM     14  H4  GPR d   1      13.723  14.601  27.050  0.00  0.00     0.101 H 
BRANCH  13  15
ATOM     15  N1  GPR d   1      14.562  14.745  25.092  0.00  0.00    -0.065 N 
ATOM     16  H1  GPR d   1      15.224  14.006  25.270  0.00  0.00     0.275 HD
ATOM     17  H2  GPR d   1      14.987  15.442  24.501  0.00  0.00     0.275 HD
ATOM     18  H3  GPR d   1      13.749  14.365  24.633  0.00  0.00     0.275 HD
ENDBRANCH  13  15
BRANCH  13  19
ATOM     19  C1  GPR d   1      13.144  16.508  26.189  0.00  0.00     0.204 C 
ATOM     20  OT1 GPR d   1      13.140  17.033  24.968  0.00  0.00    -0.646 OA
ATOM     21  O1  GPR d   1      12.438  16.898  27.111  0.00  0.00    -0.646 OA
ENDBRANCH  13  19
ENDBRANCH  10  13
ENDBRANCH   7  10
ENDBRANCH   4   7
ENDBRANCH   1   3
BRANCH   1  22
ATOM     22  CB2 GPR d   1      17.091  18.508  31.271  0.00  0.00     0.004 C 
ATOM     23  H11 GPR d   1      17.856  18.927  31.941  0.00  0.00     0.052 H 
ATOM     24  H12 GPR d   1      16.092  18.793  31.632  0.00  0.00     0.052 H 
BRANCH  22  25
ATOM     25  SG2 GPR d   1      17.325  19.156  29.649  0.00  0.00    -0.154 SA
BRANCH  25  26
ATOM     26  CA4 GPR d   1      19.012  19.064  29.878  0.00  0.00     0.046 C 
ATOM     27  CB4 GPR d   1      19.467  20.427  30.327  0.00  0.00    -0.030 A 
ATOM     28  CH4 GPR d   1      19.792  21.444  29.393  0.00  0.00    -0.018 A 
ATOM     29  CG4 GPR d   1      19.636  20.666  31.717  0.00  0.00    -0.075 A 
ATOM     30  CH5 GPR d   1      19.588  21.160  27.929  0.00  0.00    -0.017 A 
ATOM     31  CZ4 GPR d   1      20.218  22.699  29.862  0.00  0.00    -0.072 A 
ATOM     32  CB5 GPR d   1      19.500  19.850  27.487  0.00  0.00    -0.017 A 
ATOM     33  CZ5 GPR d   1      19.534  22.230  26.987  0.00  0.00    -0.072 A 
ATOM     34  CA5 GPR d   1      19.528  18.683  28.471  0.00  0.00     0.077 C 
ATOM     35  CG5 GPR d   1      19.305  19.551  26.140  0.00  0.00    -0.073 A 
ATOM     36  H25 GPR d   1      18.946  17.837  28.076  0.00  0.00     0.092 H 
ATOM     37  CD5 GPR d   1      19.197  20.595  25.217  0.00  0.00    -0.082 A 
ATOM     38  H24 GPR d   1      19.238  18.520  25.812  0.00  0.00     0.084 H 
ATOM     39  CE5 GPR d   1      19.335  21.912  25.651  0.00  0.00    -0.082 A 
ATOM     40  H23 GPR d   1      19.007  20.382  24.171  0.00  0.00     0.083 H 
ATOM     41  H22 GPR d   1      19.285  22.713  24.922  0.00  0.00     0.083 H 
ATOM     42  H21 GPR d   1      19.645  23.260  27.305  0.00  0.00     0.084 H 
ATOM     43  CE4 GPR d   1      20.359  22.910  31.234  0.00  0.00    -0.082 A 
ATOM     44  H20 GPR d   1      20.436  23.498  29.162  0.00  0.00     0.084 H 
ATOM     45  CD4 GPR d   1      20.088  21.898  32.180  0.00  0.00    -0.082 A 
ATOM     46  H19 GPR d   1      20.687  23.882  31.585  0.00  0.00     0.083 H 
ATOM     47  H18 GPR d   1      20.228  22.076  33.240  0.00  0.00     0.083 H 
ATOM     48  H17 GPR d   1      19.410  19.878  32.426  0.00  0.00     0.084 H 
ATOM     49  H16 GPR d   1      19.293  18.304  30.622  0.00  0.00     0.068 H 
BRANCH  34  50
ATOM     50  O5  GPR d   1      20.920  18.346  28.610  0.00  0.00    -0.389 OA
ATOM     51  H26 GPR d   1      21.394  19.096  28.950  0.00  0.00     0.210 HD
ENDBRANCH  34  50
ENDBRANCH  25  26
ENDBRANCH  22  25
ENDBRANCH   1  22
BRANCH   1  52
ATOM     52  C2  GPR d   1      16.964  16.399  32.694  0.00  0.00     0.241 C 
ATOM     53  N3  GPR d   1      16.267  15.309  32.780  0.00  0.00    -0.349 N 
ATOM     54  H13 GPR d   1      15.989  14.812  31.958  0.00  0.00     0.163 HD
ATOM     55  O2  GPR d   1      17.555  16.926  33.609  0.00  0.00    -0.271 OA
BRANCH  53  56
ATOM     56  CA3 GPR d   1      15.891  14.817  34.134  0.00  0.00     0.075 C 
ATOM     57  H14 GPR d   1      14.814  14.596  34.153  0.00  0.00     0.080 H 
ATOM     58  H15 GPR d   1      16.119  15.594  34.878  0.00  0.00     0.080 H 
BRANCH  56  59
ATOM     59  C3  GPR d   1      16.651  13.581  34.467  0.00  0.00     0.191 C 
ATOM     60  OT3 GPR d   1      16.422  12.951  35.613  0.00  0.00    -0.647 OA
ATOM     61  O3  GPR d   1      17.523  13.037  33.773  0.00  0.00    -0.647 OA
ENDBRANCH  56  59
ENDBRANCH  53  56
ENDBRANCH   1  52
TORSDOF 13
