REMARK  9 active torsions:
REMARK  status: ('A' for Active; 'I' for Inactive)
REMARK    1  A    between atoms: C15_2  and  C8_3 
REMARK       I    between atoms: C15_2  and  N17_17 
REMARK    2  A    between atoms: C8_3  and  C9_4 
REMARK    3  A    between atoms: C8_3  and  N7_10 
REMARK       I    between atoms: N7_10  and  C5_11 
REMARK    4  A    between atoms: C5_11  and  C3_13 
REMARK    5  A    between atoms: C3_13  and  C4_14 
REMARK    6  A    between atoms: C3_13  and  N2_15 
REMARK    7  A    between atoms: N2_15  and  C1_16 
REMARK    8  A    between atoms: C18_18  and  C22_22 
REMARK    9  A    between atoms: C25_25  and  C27_27 
ROOT
ATOM      1  O16 516 d   1      80.526  62.063  14.922  0.00  0.00    -0.271 OA
ATOM      2  C15 516 d   1      80.848  62.349  13.778  0.00  0.00     0.243 C 
ATOM      3  N17 516 d   1      80.174  63.260  13.065  0.00  0.00    -0.340 N 
ATOM      4  C18 516 d   1      78.994  63.902  13.637  0.00  0.00     0.063 C 
ATOM      5  C19 516 d   1      78.565  64.966  12.629  0.00  0.00    -0.039 C 
ATOM      6  C20 516 d   1      79.719  65.112  11.707  0.00  0.00    -0.048 C 
ATOM      7  C21 516 d   1      80.438  63.769  11.723  0.00  0.00    -0.001 C 
ATOM      8  H23 516 d   1      79.275  64.388  14.583  0.00  0.00     0.083 H 
ATOM      9  H24 516 d   1      78.355  65.918  13.138  0.00  0.00     0.036 H 
ATOM     10  H25 516 d   1      77.670  64.639  12.079  0.00  0.00     0.036 H 
ATOM     11  H26 516 d   1      80.390  65.910  12.057  0.00  0.00     0.035 H 
ATOM     12  H27 516 d   1      79.370  65.347  10.691  0.00  0.00     0.035 H 
ATOM     13  H28 516 d   1      80.027  63.094  10.958  0.00  0.00     0.064 H 
ATOM     14  H29 516 d   1      81.518  63.898  11.556  0.00  0.00     0.064 H 
ENDROOT
BRANCH   2  15
ATOM     15  C8  516 d   1      82.020  61.651  13.144  0.00  0.00     0.093 C 
ATOM     16  H1  516 d   1      82.568  62.379  12.527  0.00  0.00     0.088 H 
BRANCH  15  17
ATOM     17  C9  516 d   1      81.511  60.529  12.234  0.00  0.00    -0.026 C 
ATOM     18  C10 516 d   1      80.898  59.369  13.019  0.00  0.00    -0.059 C 
ATOM     19  C11 516 d   1      80.359  58.293  12.084  0.00  0.00    -0.065 C 
ATOM     20  H3  516 d   1      80.073  59.751  13.639  0.00  0.00     0.033 H 
ATOM     21  H4  516 d   1      81.669  58.927  13.667  0.00  0.00     0.033 H 
ATOM     22  C12 516 d   1      81.449  57.777  11.149  0.00  0.00    -0.065 C 
ATOM     23  H5  516 d   1      79.542  58.717  11.482  0.00  0.00     0.033 H 
ATOM     24  H6  516 d   1      79.975  57.455  12.685  0.00  0.00     0.033 H 
ATOM     25  C13 516 d   1      82.106  58.923  10.386  0.00  0.00    -0.065 C 
ATOM     26  H7  516 d   1      81.002  57.076  10.429  0.00  0.00     0.033 H 
ATOM     27  H8  516 d   1      82.214  57.255  11.743  0.00  0.00     0.033 H 
ATOM     28  C14 516 d   1      82.627  59.990  11.344  0.00  0.00    -0.059 C 
ATOM     29  H9  516 d   1      81.366  59.377   9.711  0.00  0.00     0.033 H 
ATOM     30  H10 516 d   1      82.946  58.528   9.797  0.00  0.00     0.033 H 
ATOM     31  H11 516 d   1      83.410  59.550  11.979  0.00  0.00     0.033 H 
ATOM     32  H12 516 d   1      83.052  60.820  10.760  0.00  0.00     0.033 H 
ATOM     33  H2  516 d   1      80.729  60.954  11.588  0.00  0.00     0.043 H 
ENDBRANCH  15  17
BRANCH  15  34
ATOM     34  N7  516 d   1      82.933  61.135  14.156  0.00  0.00    -0.346 N 
ATOM     35  C5  516 d   1      84.261  61.195  14.056  0.00  0.00     0.248 C 
ATOM     36  O6  516 d   1      84.845  61.654  13.089  0.00  0.00    -0.271 OA
ATOM     37  H13 516 d   1      82.541  60.712  14.973  0.00  0.00     0.163 HD
BRANCH  35  38
ATOM     38  C3  516 d   1      85.046  60.633  15.206  0.00  0.00     0.174 C 
ATOM     39  H14 516 d   1      84.525  59.738  15.577  0.00  0.00     0.098 H 
BRANCH  38  40
ATOM     40  C4  516 d   1      85.124  61.651  16.334  0.00  0.00    -0.041 C 
ATOM     41  H15 516 d   1      85.701  61.228  17.170  0.00  0.00     0.030 H 
ATOM     42  H16 516 d   1      84.108  61.897  16.677  0.00  0.00     0.030 H 
ATOM     43  H17 516 d   1      85.620  62.563  15.971  0.00  0.00     0.030 H 
ENDBRANCH  38  40
BRANCH  38  44
ATOM     44  N2  516 d   1      86.382  60.245  14.790  0.00  0.00    -0.067 N 
ATOM     45  H18 516 d   1      86.914  60.075  15.629  0.00  0.00     0.277 HD
ATOM     46  H19 516 d   1      86.776  61.030  14.296  0.00  0.00     0.277 HD
BRANCH  44  47
ATOM     47  C1  516 d   1      86.551  59.082  13.939  0.00  0.00     0.066 C 
ATOM     48  H20 516 d   1      87.620  58.937  13.725  0.00  0.00     0.067 H 
ATOM     49  H21 516 d   1      86.005  59.235  12.996  0.00  0.00     0.067 H 
ATOM     50  H22 516 d   1      86.156  58.192  14.451  0.00  0.00     0.067 H 
ENDBRANCH  44  47
ENDBRANCH  38  44
ENDBRANCH  35  38
ENDBRANCH  15  34
ENDBRANCH   2  15
BRANCH   4  51
ATOM     51  C22 516 d   1      77.871  62.939  13.926  0.00  0.00     0.098 A 
ATOM     52  S23 516 d   1      77.608  61.513  13.098  0.00  0.00    -0.082 SA
ATOM     53  C24 516 d   1      76.307  61.289  14.118  0.00  0.00    -0.015 A 
ATOM     54  C25 516 d   1      76.116  62.251  15.032  0.00  0.00     0.075 A 
ATOM     55  H30 516 d   1      75.656  60.419  14.046  0.00  0.00     0.098 H 
ATOM     56  N26 516 d   1      77.023  63.209  14.908  0.00  0.00    -0.243 NA
BRANCH  54  57
ATOM     57  C27 516 d   1      74.995  62.261  16.039  0.00  0.00     0.004 A 
ATOM     58  C28 516 d   1      73.740  61.838  15.599  0.00  0.00    -0.070 A 
ATOM     59  C29 516 d   1      72.651  61.824  16.463  0.00  0.00    -0.081 A 
ATOM     60  H31 516 d   1      73.613  61.517  14.572  0.00  0.00     0.084 H 
ATOM     61  C30 516 d   1      72.813  62.241  17.779  0.00  0.00    -0.072 A 
ATOM     62  H32 516 d   1      71.681  61.490  16.112  0.00  0.00     0.083 H 
ATOM     63  C31 516 d   1      74.060  62.669  18.226  0.00  0.00    -0.025 A 
ATOM     64  H33 516 d   1      71.968  62.233  18.458  0.00  0.00     0.084 H 
ATOM     65  C33 516 d   1      74.188  63.081  19.550  0.00  0.00    -0.072 A 
ATOM     66  C32 516 d   1      75.160  62.685  17.365  0.00  0.00    -0.013 A 
ATOM     67  C34 516 d   1      75.415  63.516  20.033  0.00  0.00    -0.082 A 
ATOM     68  H34 516 d   1      73.326  63.062  20.207  0.00  0.00     0.084 H 
ATOM     69  C35 516 d   1      76.520  63.536  19.190  0.00  0.00    -0.082 A 
ATOM     70  H37 516 d   1      75.511  63.839  21.063  0.00  0.00     0.083 H 
ATOM     71  C36 516 d   1      76.394  63.124  17.865  0.00  0.00    -0.071 A 
ATOM     72  H36 516 d   1      77.480  63.872  19.564  0.00  0.00     0.083 H 
ATOM     73  H35 516 d   1      77.260  63.143  17.213  0.00  0.00     0.084 H 
ENDBRANCH  54  57
ENDBRANCH   4  51
TORSDOF 9
