REMARK  9 active torsions:
REMARK  status: ('A' for Active; 'I' for Inactive)
REMARK    1  A    between atoms: C15_2  and  C8_3 
REMARK       I    between atoms: C15_2  and  N17_17 
REMARK    2  A    between atoms: C8_3  and  C9_4 
REMARK    3  A    between atoms: C8_3  and  N7_10 
REMARK       I    between atoms: N7_10  and  C5_11 
REMARK    4  A    between atoms: C5_11  and  C3_13 
REMARK    5  A    between atoms: C3_13  and  C4_14 
REMARK    6  A    between atoms: C3_13  and  N2_15 
REMARK    7  A    between atoms: N2_15  and  C1_16 
REMARK    8  A    between atoms: C18_21  and  C22_22 
REMARK    9  A    between atoms: C30_25  and  C31_31 
ROOT
ATOM      1  O16 851 d   1      80.433  61.756  15.427  0.00  0.00    -0.271 OA
ATOM      2  C15 851 d   1      80.770  62.138  14.293  0.00  0.00     0.243 C 
ATOM      3  N17 851 d   1      80.085  63.136  13.671  0.00  0.00    -0.340 N 
ATOM      4  C21 851 d   1      80.405  63.765  12.376  0.00  0.00    -0.001 C 
ATOM      5  C20 851 d   1      79.753  65.137  12.513  0.00  0.00    -0.048 C 
ATOM      6  C19 851 d   1      78.479  64.837  13.298  0.00  0.00    -0.039 C 
ATOM      7  C18 851 d   1      78.872  63.713  14.276  0.00  0.00     0.063 C 
ATOM      8  H23 851 d   1      79.970  63.199  11.539  0.00  0.00     0.064 H 
ATOM      9  H24 851 d   1      81.492  63.853  12.233  0.00  0.00     0.064 H 
ATOM     10  H25 851 d   1      79.518  65.563  11.527  0.00  0.00     0.035 H 
ATOM     11  H26 851 d   1      80.404  65.830  13.066  0.00  0.00     0.035 H 
ATOM     12  H27 851 d   1      77.678  64.500  12.623  0.00  0.00     0.036 H 
ATOM     13  H28 851 d   1      78.144  65.729  13.848  0.00  0.00     0.036 H 
ATOM     14  H29 851 d   1      79.151  64.165  15.239  0.00  0.00     0.083 H 
ENDROOT
BRANCH   2  15
ATOM     15  C8  851 d   1      81.975  61.385  13.666  0.00  0.00     0.093 C 
ATOM     16  H1  851 d   1      82.533  62.130  13.079  0.00  0.00     0.088 H 
BRANCH  15  17
ATOM     17  C9  851 d   1      81.529  60.276  12.667  0.00  0.00    -0.026 C 
ATOM     18  C14 851 d   1      82.682  59.636  11.834  0.00  0.00    -0.059 C 
ATOM     19  C13 851 d   1      82.155  58.561  10.856  0.00  0.00    -0.065 C 
ATOM     20  H3  851 d   1      83.402  59.169  12.522  0.00  0.00     0.033 H 
ATOM     21  H4  851 d   1      83.186  60.426  11.257  0.00  0.00     0.033 H 
ATOM     22  C12 851 d   1      81.387  57.457  11.618  0.00  0.00    -0.065 C 
ATOM     23  H5  851 d   1      83.005  58.108  10.325  0.00  0.00     0.033 H 
ATOM     24  H6  851 d   1      81.479  59.035  10.129  0.00  0.00     0.033 H 
ATOM     25  C11 851 d   1      80.220  58.042  12.446  0.00  0.00    -0.065 C 
ATOM     26  H7  851 d   1      82.083  56.942  12.297  0.00  0.00     0.033 H 
ATOM     27  H8  851 d   1      80.983  56.737  10.891  0.00  0.00     0.033 H 
ATOM     28  C10 851 d   1      80.694  59.170  13.393  0.00  0.00    -0.059 C 
ATOM     29  H9  851 d   1      79.772  57.237  13.047  0.00  0.00     0.033 H 
ATOM     30  H10 851 d   1      79.465  58.449  11.758  0.00  0.00     0.033 H 
ATOM     31  H11 851 d   1      79.809  59.641  13.845  0.00  0.00     0.033 H 
ATOM     32  H12 851 d   1      81.317  58.724  14.183  0.00  0.00     0.033 H 
ATOM     33  H2  851 d   1      80.859  60.764  11.944  0.00  0.00     0.043 H 
ENDBRANCH  15  17
BRANCH  15  34
ATOM     34  N7  851 d   1      82.915  60.859  14.679  0.00  0.00    -0.346 N 
ATOM     35  C5  851 d   1      84.237  61.041  14.609  0.00  0.00     0.248 C 
ATOM     36  O6  851 d   1      84.801  61.534  13.632  0.00  0.00    -0.271 OA
ATOM     37  H13 851 d   1      82.544  60.344  15.452  0.00  0.00     0.163 HD
BRANCH  35  38
ATOM     38  C3  851 d   1      85.063  60.550  15.817  0.00  0.00     0.174 C 
ATOM     39  H14 851 d   1      84.592  59.626  16.184  0.00  0.00     0.098 H 
BRANCH  38  40
ATOM     40  C4  851 d   1      85.036  61.546  16.997  0.00  0.00    -0.041 C 
ATOM     41  H15 851 d   1      85.638  61.148  17.827  0.00  0.00     0.030 H 
ATOM     42  H16 851 d   1      83.998  61.689  17.332  0.00  0.00     0.030 H 
ATOM     43  H17 851 d   1      85.453  62.511  16.672  0.00  0.00     0.030 H 
ENDBRANCH  38  40
BRANCH  38  44
ATOM     44  N2  851 d   1      86.427  60.184  15.340  0.00  0.00    -0.067 N 
ATOM     45  H18 851 d   1      86.993  60.028  16.159  0.00  0.00     0.277 HD
ATOM     46  H19 851 d   1      86.784  60.978  14.831  0.00  0.00     0.277 HD
BRANCH  44  47
ATOM     47  C1  851 d   1      86.595  58.997  14.465  0.00  0.00     0.066 C 
ATOM     48  H20 851 d   1      87.658  58.876  14.211  0.00  0.00     0.067 H 
ATOM     49  H21 851 d   1      86.011  59.136  13.543  0.00  0.00     0.067 H 
ATOM     50  H22 851 d   1      86.240  58.099  14.992  0.00  0.00     0.067 H 
ENDBRANCH  44  47
ENDBRANCH  38  44
ENDBRANCH  35  38
ENDBRANCH  15  34
ENDBRANCH   2  15
BRANCH   7  51
ATOM     51  C22 851 d   1      77.728  62.735  14.576  0.00  0.00     0.099 A 
ATOM     52  N26 851 d   1      77.068  62.760  15.746  0.00  0.00    -0.242 NA
ATOM     53  C25 851 d   1      76.104  61.773  15.762  0.00  0.00     0.086 A 
ATOM     54  C30 851 d   1      75.204  61.499  16.820  0.00  0.00     0.004 A 
ATOM     55  C24 851 d   1      76.083  61.019  14.586  0.00  0.00     0.036 A 
ATOM     56  C29 851 d   1      74.291  60.425  16.621  0.00  0.00    -0.070 A 
ATOM     57  C28 851 d   1      74.273  59.676  15.440  0.00  0.00    -0.081 A 
ATOM     58  H30 851 d   1      73.588  60.180  17.409  0.00  0.00     0.084 H 
ATOM     59  C27 851 d   1      75.160  59.952  14.406  0.00  0.00    -0.064 A 
ATOM     60  H31 851 d   1      73.558  58.869  15.329  0.00  0.00     0.083 H 
ATOM     61  H32 851 d   1      75.149  59.372  13.490  0.00  0.00     0.085 H 
ATOM     62  S23 851 d   1      77.266  61.522  13.444  0.00  0.00    -0.070 SA
BRANCH  54  63
ATOM     63  C31 851 d   1      75.210  62.232  18.022  0.00  0.00    -0.024 A 
ATOM     64  C36 851 d   1      76.428  62.549  18.686  0.00  0.00    -0.072 A 
ATOM     65  C35 851 d   1      76.444  63.273  19.879  0.00  0.00    -0.082 A 
ATOM     66  H33 851 d   1      77.367  62.220  18.255  0.00  0.00     0.084 H 
ATOM     67  C34 851 d   1      75.247  63.692  20.450  0.00  0.00    -0.083 A 
ATOM     68  H34 851 d   1      77.387  63.508  20.359  0.00  0.00     0.083 H 
ATOM     69  C33 851 d   1      74.038  63.399  19.831  0.00  0.00    -0.082 A 
ATOM     70  H35 851 d   1      75.257  64.249  21.380  0.00  0.00     0.083 H 
ATOM     71  C32 851 d   1      74.010  62.679  18.636  0.00  0.00    -0.072 A 
ATOM     72  H36 851 d   1      73.109  63.732  20.280  0.00  0.00     0.083 H 
ATOM     73  H37 851 d   1      73.057  62.457  18.169  0.00  0.00     0.084 H 
ENDBRANCH  54  63
ENDBRANCH   7  51
TORSDOF 9
