REMARK  3 active torsions:
REMARK  status: ('A' for Active; 'I' for Inactive)
REMARK    1  A    between atoms: C7_11  and  C6_1 
REMARK    2  A    between atoms: C5_3  and  C12_7 
REMARK    3  A    between atoms: C10_5  and  S15_15 
ROOT
ATOM      1  C6  GTC d   1      21.224   4.088  11.360  0.00  0.00     0.020 C 
ATOM      2  C2  GTC d   1      23.662   4.615  11.523  0.00  0.00    -0.064 C 
ATOM      3  C5  GTC d   1      21.146   5.622  11.274  0.00  0.00     0.041 C 
ATOM      4  C4  GTC d   1      22.107   6.130  10.201  0.00  0.00    -0.052 C 
ATOM      5  C3  GTC d   1      23.541   5.876  10.668  0.00  0.00    -0.064 C 
ATOM      6  C1  GTC d   1      22.638   3.570  11.102  0.00  0.00    -0.054 C 
ATOM      7  H1  GTC d   1      20.956   3.816  12.392  0.00  0.00     0.053 H 
ATOM      8  H2  GTC d   1      23.494   4.878  12.578  0.00  0.00     0.033 H 
ATOM      9  H3  GTC d   1      24.672   4.196  11.405  0.00  0.00     0.033 H 
ATOM     10  H4  GTC d   1      21.495   6.016  12.240  0.00  0.00     0.057 H 
ATOM     11  H5  GTC d   1      21.953   7.208  10.047  0.00  0.00     0.034 H 
ATOM     12  H6  GTC d   1      21.925   5.595   9.257  0.00  0.00     0.034 H 
ATOM     13  H7  GTC d   1      24.186   5.766   9.784  0.00  0.00     0.033 H 
ATOM     14  H8  GTC d   1      23.877   6.739  11.262  0.00  0.00     0.033 H 
ATOM     15  H9  GTC d   1      22.757   3.355  10.030  0.00  0.00     0.034 H 
ATOM     16  H10 GTC d   1      22.799   2.649  11.681  0.00  0.00     0.034 H 
ENDROOT
BRANCH   1  17
ATOM     17  C7  GTC d   1      20.266   3.394  10.461  0.00  0.00     0.154 A 
ATOM     18  N8  GTC d   1      20.193   3.382   9.098  0.00  0.00    -0.157 NA
ATOM     19  N9  GTC d   1      19.103   2.574   8.720  0.00  0.00    -0.254 N 
ATOM     20  C10 GTC d   1      18.619   2.169   9.910  0.00  0.00     0.181 A 
ATOM     21  H11 GTC d   1      18.763   2.350   7.774  0.00  0.00     0.191 HD
ATOM     22  N11 GTC d   1      19.282   2.630  10.961  0.00  0.00    -0.206 NA
BRANCH  20  23
ATOM     23  S15 GTC d   1      17.227   1.100  10.173  0.00  0.00    -0.104 SA
ATOM     24  H12 GTC d   1      16.834   0.837   9.283  0.00  0.00     0.110 HD
ENDBRANCH  20  23
ENDBRANCH   1  17
BRANCH   3  25
ATOM     25  C12 GTC d   1      19.745   6.151  11.074  0.00  0.00     0.177 C 
ATOM     26  O13 GTC d   1      19.149   5.957   9.993  0.00  0.00    -0.648 OA
ATOM     27  O14 GTC d   1      19.220   6.788  12.016  0.00  0.00    -0.648 OA
ENDBRANCH   3  25
TORSDOF 3
