REMARK  3 active torsions:
REMARK  status: ('A' for Active; 'I' for Inactive)
REMARK    1  A    between atoms: N8_4  and  C4_10 
REMARK    2  A    between atoms: C11_6  and  C14_7 
REMARK    3  A    between atoms: C5_11  and  O7_12 
ROOT
ATOM      1  O13 3GV d   1      10.695  45.904  27.620  0.00  0.00    -0.273 OA
ATOM      2  C9  3GV d   1      11.620  45.695  26.851  0.00  0.00     0.225 C 
ATOM      3  C10 3GV d   1      11.682  46.210  25.439  0.00  0.00     0.024 C 
ATOM      4  N8  3GV d   1      12.712  44.987  27.089  0.00  0.00    -0.315 N 
ATOM      5  C12 3GV d   1      13.614  44.769  25.969  0.00  0.00     0.016 C 
ATOM      6  C11 3GV d   1      12.801  45.373  24.819  0.00  0.00     0.054 C 
ATOM      7  H1  3GV d   1      11.931  47.281  25.419  0.00  0.00     0.048 H 
ATOM      8  H2  3GV d   1      10.729  46.046  24.916  0.00  0.00     0.048 H 
ATOM      9  H3  3GV d   1      13.807  43.698  25.808  0.00  0.00     0.066 H 
ATOM     10  H4  3GV d   1      14.569  45.297  26.110  0.00  0.00     0.066 H 
ATOM     11  H5  3GV d   1      13.445  46.009  24.194  0.00  0.00     0.059 H 
ENDROOT
BRANCH   4  12
ATOM     12  C4  3GV d   1      12.999  44.475  28.368  0.00  0.00     0.070 A 
ATOM     13  C5  3GV d   1      13.000  43.102  28.606  0.00  0.00     0.092 A 
ATOM     14  C6  3GV d   1      13.290  42.612  29.879  0.00  0.00    -0.049 A 
ATOM     15  C1  3GV d   1      13.574  43.491  30.922  0.00  0.00    -0.080 A 
ATOM     16  H7  3GV d   1      13.294  41.543  30.058  0.00  0.00     0.087 H 
ATOM     17  C2  3GV d   1      13.573  44.865  30.689  0.00  0.00    -0.081 A 
ATOM     18  H8  3GV d   1      13.795  43.107  31.912  0.00  0.00     0.083 H 
ATOM     19  C3  3GV d   1      13.288  45.355  29.414  0.00  0.00    -0.054 A 
ATOM     20  H9  3GV d   1      13.793  45.553  31.498  0.00  0.00     0.083 H 
ATOM     21  H10 3GV d   1      13.291  46.424  29.234  0.00  0.00     0.087 H 
BRANCH  13  22
ATOM     22  O7  3GV d   1      12.725  42.220  27.605  0.00  0.00    -0.358 OA
ATOM     23  H6  3GV d   1      11.853  42.387  27.268  0.00  0.00     0.217 HD
ENDBRANCH  13  22
ENDBRANCH   4  12
BRANCH   6  24
ATOM     24  C14 3GV d   1      12.216  44.271  23.981  0.00  0.00     0.179 C 
ATOM     25  O15 3GV d   1      11.020  43.942  24.151  0.00  0.00    -0.648 OA
ATOM     26  O16 3GV d   1      12.950  43.715  23.135  0.00  0.00    -0.648 OA
ENDBRANCH   6  24
TORSDOF 3
