REMARK  9 active torsions:
REMARK  status: ('A' for Active; 'I' for Inactive)
REMARK    1  A    between atoms: C5_3  and  C7_7 
REMARK    2  A    between atoms: C9_11  and  N13_13 
REMARK    3  A    between atoms: N13_13  and  C14_14 
REMARK    4  A    between atoms: C19_15  and  C20_37 
REMARK    5  A    between atoms: C16_18  and  N21_20 
REMARK       I    between atoms: N21_20  and  C22_21 
REMARK    6  A    between atoms: C22_21  and  C23_22 
REMARK    7  A    between atoms: C27_25  and  C46_28 
REMARK    8  A    between atoms: C46_28  and  N48_29 
REMARK    9  A    between atoms: N51_32  and  C54_33 
ROOT
ATOM      1  N21 STI d   1      16.571   9.663  17.992  0.00  0.00    -0.323 N 
ATOM      2  C22 STI d   1      17.077   9.836  19.227  0.00  0.00     0.256 C 
ATOM      3  O29 STI d   1      16.448   9.748  20.287  0.00  0.00    -0.267 OA
ATOM      4  H11 STI d   1      17.165   9.906  17.226  0.00  0.00     0.169 HD
ENDROOT
BRANCH   1   5
ATOM      5  C16 STI d   1      15.337   9.192  17.680  0.00  0.00     0.037 A 
ATOM      6  C17 STI d   1      14.998   9.095  16.339  0.00  0.00    -0.057 A 
ATOM      7  C18 STI d   1      13.785   8.573  15.964  0.00  0.00    -0.073 A 
ATOM      8  H9  STI d   1      15.696   9.434  15.582  0.00  0.00     0.086 H 
ATOM      9  C19 STI d   1      12.864   8.126  16.901  0.00  0.00    -0.035 A 
ATOM     10  H8  STI d   1      13.540   8.508  14.910  0.00  0.00     0.084 H 
ATOM     11  C14 STI d   1      13.172   8.218  18.245  0.00  0.00     0.057 A 
ATOM     12  C15 STI d   1      14.411   8.726  18.616  0.00  0.00    -0.030 A 
ATOM     13  H10 STI d   1      14.668   8.762  19.669  0.00  0.00     0.090 H 
BRANCH   9  14
ATOM     14  C20 STI d   1      11.517   7.562  16.433  0.00  0.00    -0.049 C 
ATOM     15  H31 STI d   1      10.922   7.260  17.308  0.00  0.00     0.033 H 
ATOM     16  H32 STI d   1      11.690   6.688  15.788  0.00  0.00     0.033 H 
ATOM     17  H33 STI d   1      10.973   8.333  15.868  0.00  0.00     0.033 H 
ENDBRANCH   9  14
BRANCH  11  18
ATOM     18  N13 STI d   1      12.337   7.743  19.190  0.00  0.00    -0.188 N 
ATOM     19  H7  STI d   1      12.524   6.802  19.565  0.00  0.00     0.184 HD
BRANCH  18  20
ATOM     20  C9  STI d   1      11.291   8.403  19.671  0.00  0.00     0.727 A 
ATOM     21  N10 STI d   1      11.082   9.676  19.327  0.00  0.00    -0.075 NA
ATOM     22  C11 STI d   1      10.043  10.333  19.805  0.00  0.00     0.023 A 
ATOM     23  C12 STI d   1       9.136   9.725  20.671  0.00  0.00    -0.036 A 
ATOM     24  H6  STI d   1       9.891  11.367  19.518  0.00  0.00     0.115 H 
ATOM     25  C7  STI d   1       9.352   8.390  21.009  0.00  0.00     0.089 A 
ATOM     26  H5  STI d   1       8.290  10.273  21.069  0.00  0.00     0.089 H 
ATOM     27  N8  STI d   1      10.426   7.759  20.480  0.00  0.00    -0.062 NA
BRANCH  25  28
ATOM     28  C5  STI d   1       8.474   7.718  21.866  0.00  0.00     0.011 A 
ATOM     29  C6  STI d   1       7.413   8.386  22.500  0.00  0.00    -0.068 A 
ATOM     30  C1  STI d   1       6.574   7.654  23.339  0.00  0.00    -0.065 A 
ATOM     31  H2  STI d   1       7.250   9.446  22.340  0.00  0.00     0.085 H 
ATOM     32  C2  STI d   1       6.808   6.284  23.518  0.00  0.00     0.002 A 
ATOM     33  H1  STI d   1       5.749   8.140  23.848  0.00  0.00     0.085 H 
ATOM     34  N3  STI d   1       7.815   5.680  22.909  0.00  0.00    -0.272 NA
ATOM     35  H4  STI d   1       6.154   5.711  24.165  0.00  0.00     0.114 H 
ATOM     36  C4  STI d   1       8.633   6.351  22.102  0.00  0.00     0.014 A 
ATOM     37  H3  STI d   1       9.444   5.822  21.615  0.00  0.00     0.116 H 
ENDBRANCH  25  28
ENDBRANCH  18  20
ENDBRANCH  11  18
ENDBRANCH   1   5
BRANCH   2  38
ATOM     38  C23 STI d   1      18.564  10.223  19.289  0.00  0.00     0.032 A 
ATOM     39  C25 STI d   1      19.247  10.823  18.238  0.00  0.00    -0.067 A 
ATOM     40  C26 STI d   1      20.598  11.153  18.375  0.00  0.00    -0.074 A 
ATOM     41  H12 STI d   1      18.730  11.036  17.309  0.00  0.00     0.085 H 
ATOM     42  C27 STI d   1      21.281  10.887  19.557  0.00  0.00    -0.033 A 
ATOM     43  H13 STI d   1      21.120  11.622  17.549  0.00  0.00     0.084 H 
ATOM     44  C28 STI d   1      20.590  10.284  20.579  0.00  0.00    -0.074 A 
ATOM     45  C29 STI d   1      19.247   9.961  20.456  0.00  0.00    -0.067 A 
ATOM     46  H14 STI d   1      21.107  10.055  21.504  0.00  0.00     0.084 H 
ATOM     47  H15 STI d   1      18.729   9.497  21.288  0.00  0.00     0.085 H 
BRANCH  42  48
ATOM     48  C46 STI d   1      22.785  11.255  19.771  0.00  0.00     0.107 C 
ATOM     49  H16 STI d   1      23.411  10.535  19.223  0.00  0.00     0.083 H 
ATOM     50  H17 STI d   1      23.017  11.200  20.845  0.00  0.00     0.083 H 
BRANCH  48  51
ATOM     51  N48 STI d   1      23.082  12.619  19.284  0.00  0.00    -0.064 N 
ATOM     52  C53 STI d   1      22.263  13.509  20.022  0.00  0.00     0.106 C 
ATOM     53  C52 STI d   1      22.513  14.894  19.409  0.00  0.00     0.105 C 
ATOM     54  H19 STI d   1      22.546  13.502  21.085  0.00  0.00     0.078 H 
ATOM     55  H20 STI d   1      21.204  13.229  19.923  0.00  0.00     0.078 H 
ATOM     56  N51 STI d   1      23.920  15.334  19.584  0.00  0.00    -0.072 N 
ATOM     57  H21 STI d   1      21.850  15.623  19.897  0.00  0.00     0.078 H 
ATOM     58  H22 STI d   1      22.285  14.853  18.334  0.00  0.00     0.078 H 
ATOM     59  C50 STI d   1      24.718  14.303  18.843  0.00  0.00     0.105 C 
ATOM     60  H23 STI d   1      24.160  15.441  20.557  0.00  0.00     0.279 HD
ATOM     61  C49 STI d   1      24.487  12.894  19.459  0.00  0.00     0.106 C 
ATOM     62  H27 STI d   1      25.787  14.556  18.908  0.00  0.00     0.078 H 
ATOM     63  H28 STI d   1      24.407  14.293  17.788  0.00  0.00     0.078 H 
ATOM     64  H29 STI d   1      25.094  12.142  18.934  0.00  0.00     0.078 H 
ATOM     65  H30 STI d   1      24.748  12.895  20.528  0.00  0.00     0.078 H 
ATOM     66  H18 STI d   1      22.855  12.691  18.305  0.00  0.00     0.280 HD
BRANCH  56  67
ATOM     67  C54 STI d   1      24.284  16.496  18.778  0.00  0.00     0.066 C 
ATOM     68  H24 STI d   1      25.336  16.756  18.965  0.00  0.00     0.068 H 
ATOM     69  H25 STI d   1      23.642  17.347  19.050  0.00  0.00     0.068 H 
ATOM     70  H26 STI d   1      24.148  16.260  17.712  0.00  0.00     0.068 H 
ENDBRANCH  56  67
ENDBRANCH  48  51
ENDBRANCH  42  48
ENDBRANCH   2  38
TORSDOF 9
