REMARK  23 active torsions:
REMARK  status: ('A' for Active; 'I' for Inactive)
REMARK    1  A    between atoms: CA1_2  and  N1_1 
REMARK    2  A    between atoms: CA1_2  and  C1_3 
REMARK    3  A    between atoms: CB1_6  and  CA1_2 
REMARK    4  A    between atoms: CG1_7  and  CB1_6 
REMARK    5  A    between atoms: CD1_8  and  CG1_7 
REMARK       I    between atoms: N2_10  and  CD1_8 
REMARK    6  A    between atoms: CA2_11  and  N2_10 
REMARK    7  A    between atoms: CA2_11  and  C2_12 
REMARK    8  A    between atoms: CB2_14  and  CA2_11 
REMARK       I    between atoms: C2_12  and  N3_16 
REMARK    9  A    between atoms: SG2_15  and  CB2_14 
REMARK   10  A    between atoms: SG5_31  and  SG2_15 
REMARK   11  A    between atoms: N3_16  and  CA3_17 
REMARK   12  A    between atoms: CA3_17  and  C3_18 
REMARK   13  A    between atoms: N4_21  and  CA4_22 
REMARK       I    between atoms: C5_26  and  N4_21 
REMARK   14  A    between atoms: CA4_22  and  C4_23 
REMARK   15  A    between atoms: CA5_28  and  C5_26 
REMARK   16  A    between atoms: N5_29  and  CA5_28 
REMARK   17  A    between atoms: CA5_28  and  CB5_30 
REMARK       I    between atoms: CD6_39  and  N5_29 
REMARK   18  A    between atoms: CB5_30  and  SG5_31 
REMARK   19  A    between atoms: CA6_32  and  C6_33 
REMARK   20  A    between atoms: CA6_32  and  N6_36 
REMARK   21  A    between atoms: CB6_37  and  CA6_32 
REMARK   22  A    between atoms: CG6_38  and  CB6_37 
REMARK   23  A    between atoms: CG6_38  and  CD6_39 
ROOT
ATOM      1  SG2 GDS d   1      26.975  38.412  46.438  0.00  0.00    -0.095 SA
ENDROOT
BRANCH   1   2
ATOM      2  CB2 GDS d   1      28.302  37.747  47.507  0.00  0.00     0.013 C 
ATOM      3  H11 GDS d   1      28.157  36.660  47.592  0.00  0.00     0.053 H 
ATOM      4  H12 GDS d   1      29.266  37.951  47.019  0.00  0.00     0.053 H 
BRANCH   2   5
ATOM      5  CA2 GDS d   1      28.356  38.328  48.920  0.00  0.00     0.098 C 
ATOM      6  H10 GDS d   1      27.348  38.342  49.361  0.00  0.00     0.088 H 
BRANCH   5   7
ATOM      7  N2  GDS d   1      28.903  39.712  48.876  0.00  0.00    -0.347 N 
ATOM      8  CD1 GDS d   1      28.187  40.813  49.173  0.00  0.00     0.218 C 
ATOM      9  O1  GDS d   1      26.997  40.801  49.530  0.00  0.00    -0.274 OA
ATOM     10  H9  GDS d   1      29.860  39.831  48.610  0.00  0.00     0.163 HD
BRANCH   8  11
ATOM     11  CG1 GDS d   1      28.975  42.158  49.049  0.00  0.00     0.012 C 
ATOM     12  H7  GDS d   1      30.052  41.936  49.085  0.00  0.00     0.047 H 
ATOM     13  H8  GDS d   1      28.728  42.620  48.082  0.00  0.00     0.047 H 
BRANCH  11  14
ATOM     14  CB1 GDS d   1      28.643  43.167  50.174  0.00  0.00    -0.021 C 
ATOM     15  H5  GDS d   1      29.148  44.121  49.961  0.00  0.00     0.037 H 
ATOM     16  H6  GDS d   1      27.555  43.327  50.203  0.00  0.00     0.037 H 
BRANCH  14  17
ATOM     17  CA1 GDS d   1      29.117  42.639  51.564  0.00  0.00     0.183 C 
ATOM     18  H4  GDS d   1      28.815  41.584  51.639  0.00  0.00     0.101 H 
BRANCH  17  19
ATOM     19  N1  GDS d   1      28.505  43.369  52.674  0.00  0.00    -0.065 N 
ATOM     20  H1  GDS d   1      27.501  43.328  52.590  0.00  0.00     0.275 HD
ATOM     21  H2  GDS d   1      28.805  44.331  52.650  0.00  0.00     0.275 HD
ATOM     22  H3  GDS d   1      28.787  42.951  53.547  0.00  0.00     0.275 HD
ENDBRANCH  17  19
BRANCH  17  23
ATOM     23  C1  GDS d   1      30.639  42.715  51.713  0.00  0.00     0.204 C 
ATOM     24  OE1 GDS d   1      31.130  43.822  52.071  0.00  0.00    -0.646 OA
ATOM     25  OE2 GDS d   1      31.285  41.651  51.466  0.00  0.00    -0.646 OA
ENDBRANCH  17  23
ENDBRANCH  14  17
ENDBRANCH  11  14
ENDBRANCH   8  11
ENDBRANCH   5   7
BRANCH   5  26
ATOM     26  C2  GDS d   1      29.277  37.444  49.748  0.00  0.00     0.241 C 
ATOM     27  O2  GDS d   1      30.479  37.726  49.834  0.00  0.00    -0.271 OA
ATOM     28  N3  GDS d   1      28.706  36.374  50.328  0.00  0.00    -0.349 N 
ATOM     29  H13 GDS d   1      27.725  36.222  50.211  0.00  0.00     0.163 HD
BRANCH  28  30
ATOM     30  CA3 GDS d   1      29.490  35.418  51.133  0.00  0.00     0.075 C 
ATOM     31  H14 GDS d   1      29.638  35.835  52.140  0.00  0.00     0.080 H 
ATOM     32  H15 GDS d   1      30.468  35.263  50.653  0.00  0.00     0.080 H 
BRANCH  30  33
ATOM     33  C3  GDS d   1      28.772  34.064  51.253  0.00  0.00     0.191 C 
ATOM     34  OE3 GDS d   1      28.936  33.456  52.355  0.00  0.00    -0.647 OA
ATOM     35  OE4 GDS d   1      28.060  33.665  50.284  0.00  0.00    -0.647 OA
ENDBRANCH  30  33
ENDBRANCH  28  30
ENDBRANCH   5  26
ENDBRANCH   2   5
ENDBRANCH   1   2
BRANCH   1  36
ATOM     36  SG5 GDS d   1      25.209  37.680  47.248  0.00  0.00    -0.095 SA
BRANCH  36  37
ATOM     37  CB5 GDS d   1      24.407  39.095  48.057  0.00  0.00     0.013 C 
ATOM     38  H21 GDS d   1      24.913  40.017  47.736  0.00  0.00     0.053 H 
ATOM     39  H22 GDS d   1      23.353  39.128  47.745  0.00  0.00     0.053 H 
BRANCH  37  40
ATOM     40  CA5 GDS d   1      24.464  39.011  49.597  0.00  0.00     0.098 C 
ATOM     41  H19 GDS d   1      25.507  39.149  49.919  0.00  0.00     0.088 H 
BRANCH  40  42
ATOM     42  C5  GDS d   1      23.587  40.134  50.153  0.00  0.00     0.241 C 
ATOM     43  N4  GDS d   1      24.261  41.186  50.644  0.00  0.00    -0.349 N 
ATOM     44  H16 GDS d   1      25.261  41.191  50.637  0.00  0.00     0.163 HD
ATOM     45  O5  GDS d   1      22.344  40.047  50.109  0.00  0.00    -0.271 OA
BRANCH  43  46
ATOM     46  CA4 GDS d   1      23.507  42.350  51.201  0.00  0.00     0.075 C 
ATOM     47  H17 GDS d   1      22.623  41.987  51.745  0.00  0.00     0.080 H 
ATOM     48  H18 GDS d   1      23.188  43.007  50.379  0.00  0.00     0.080 H 
BRANCH  46  49
ATOM     49  C4  GDS d   1      24.416  43.138  52.165  0.00  0.00     0.191 C 
ATOM     50  OE5 GDS d   1      25.573  42.670  52.340  0.00  0.00    -0.647 OA
ATOM     51  OE6 GDS d   1      23.932  44.175  52.701  0.00  0.00    -0.647 OA
ENDBRANCH  46  49
ENDBRANCH  43  46
ENDBRANCH  40  42
BRANCH  40  52
ATOM     52  N5  GDS d   1      23.953  37.740  50.166  0.00  0.00    -0.347 N 
ATOM     53  CD6 GDS d   1      24.722  36.840  50.782  0.00  0.00     0.218 C 
ATOM     54  O6  GDS d   1      25.949  36.912  50.897  0.00  0.00    -0.274 OA
ATOM     55  H20 GDS d   1      22.975  37.546  50.083  0.00  0.00     0.163 HD
BRANCH  53  56
ATOM     56  CG6 GDS d   1      23.952  35.638  51.342  0.00  0.00     0.012 C 
ATOM     57  H29 GDS d   1      23.149  35.995  52.004  0.00  0.00     0.047 H 
ATOM     58  H30 GDS d   1      23.515  35.065  50.511  0.00  0.00     0.047 H 
BRANCH  56  59
ATOM     59  CB6 GDS d   1      24.891  34.750  52.125  0.00  0.00    -0.021 C 
ATOM     60  H27 GDS d   1      25.608  34.290  51.429  0.00  0.00     0.037 H 
ATOM     61  H28 GDS d   1      25.434  35.366  52.857  0.00  0.00     0.037 H 
BRANCH  59  62
ATOM     62  CA6 GDS d   1      24.147  33.647  52.866  0.00  0.00     0.183 C 
ATOM     63  H23 GDS d   1      23.386  34.113  53.510  0.00  0.00     0.101 H 
BRANCH  62  64
ATOM     64  C6  GDS d   1      23.421  32.716  51.878  0.00  0.00     0.204 C 
ATOM     65  OE7 GDS d   1      22.283  33.098  51.527  0.00  0.00    -0.646 OA
ATOM     66  OE8 GDS d   1      23.986  31.650  51.500  0.00  0.00    -0.646 OA
ENDBRANCH  62  64
BRANCH  62  67
ATOM     67  N6  GDS d   1      25.101  32.915  53.734  0.00  0.00    -0.065 N 
ATOM     68  H24 GDS d   1      25.550  33.564  54.361  0.00  0.00     0.275 HD
ATOM     69  H25 GDS d   1      25.798  32.464  53.162  0.00  0.00     0.275 HD
ATOM     70  H26 GDS d   1      24.604  32.220  54.269  0.00  0.00     0.275 HD
ENDBRANCH  62  67
ENDBRANCH  59  62
ENDBRANCH  56  59
ENDBRANCH  53  56
ENDBRANCH  40  52
ENDBRANCH  37  40
ENDBRANCH  36  37
ENDBRANCH   1  36
TORSDOF 23
