REMARK  8 active torsions:
REMARK  status: ('A' for Active; 'I' for Inactive)
REMARK    1  A    between atoms: C1_1  and  N1_10 
REMARK    2  A    between atoms: C4_4  and  C7_7 
REMARK    3  A    between atoms: C7_7  and  NA_8 
REMARK    4  A    between atoms: N1_10  and  N_11 
REMARK    5  A    between atoms: N_11  and  N1'_12 
REMARK    6  A    between atoms: N1'_12  and  C1'_13 
REMARK    7  A    between atoms: C4'_16  and  C7'_19 
REMARK    8  A    between atoms: C7'_19  and  NA'_20 
ROOT
ATOM      1  N   BRN d   1      -0.106  16.744  19.467  0.00  0.00    -0.068 NA
ENDROOT
BRANCH   1   2
ATOM      2  N1  BRN d   1      -1.124  15.953  19.314  0.00  0.00    -0.133 NA
BRANCH   2   3
ATOM      3  C1  BRN d   1      -1.359  15.307  18.173  0.00  0.00     0.080 A 
ATOM      4  C2  BRN d   1      -1.467  13.926  18.220  0.00  0.00    -0.052 A 
ATOM      5  C3  BRN d   1      -1.729  13.244  17.046  0.00  0.00    -0.067 A 
ATOM      6  H1  BRN d   1      -1.349  13.393  19.156  0.00  0.00     0.087 H 
ATOM      7  C4  BRN d   1      -1.885  13.948  15.852  0.00  0.00     0.007 A 
ATOM      8  H2  BRN d   1      -1.813  12.163  17.054  0.00  0.00     0.085 H 
ATOM      9  C5  BRN d   1      -1.785  15.340  15.808  0.00  0.00    -0.067 A 
ATOM     10  C6  BRN d   1      -1.508  16.021  16.989  0.00  0.00    -0.052 A 
ATOM     11  H3  BRN d   1      -1.920  15.877  14.876  0.00  0.00     0.085 H 
ATOM     12  H4  BRN d   1      -1.409  17.101  16.986  0.00  0.00     0.087 H 
BRANCH   7  13
ATOM     13  C7  BRN d   1      -2.185  13.185  14.609  0.00  0.00     0.102 C 
ATOM     14  NB  BRN d   1      -1.817  11.908  14.529  0.00  0.00    -0.385 N 
ATOM     15  H7  BRN d   1      -1.312  11.467  15.311  0.00  0.00     0.157 HD
ATOM     16  H8  BRN d   1      -2.037  11.361  13.685  0.00  0.00     0.157 HD
BRANCH  13  17
ATOM     17  NA  BRN d   1      -2.806  13.742  13.657  0.00  0.00    -0.385 N 
ATOM     18  H5  BRN d   1      -3.013  13.213  12.798  0.00  0.00     0.157 HD
ATOM     19  H6  BRN d   1      -3.104  14.724  13.742  0.00  0.00     0.157 HD
ENDBRANCH  13  17
ENDBRANCH   7  13
ENDBRANCH   2   3
ENDBRANCH   1   2
BRANCH   1  20
ATOM     20  N1' BRN d   1      -0.269  17.632  20.305  0.00  0.00    -0.260 N 
ATOM     21  H9  BRN d   1      -1.174  17.732  20.787  0.00  0.00     0.191 HD
BRANCH  20  22
ATOM     22  C1' BRN d   1       0.774  18.494  20.594  0.00  0.00     0.051 A 
ATOM     23  C2' BRN d   1       1.999  18.364  19.935  0.00  0.00    -0.055 A 
ATOM     24  C3' BRN d   1       3.034  19.229  20.260  0.00  0.00    -0.067 A 
ATOM     25  H10 BRN d   1       2.139  17.598  19.181  0.00  0.00     0.087 H 
ATOM     26  C4' BRN d   1       2.819  20.183  21.255  0.00  0.00     0.007 A 
ATOM     27  H11 BRN d   1       3.989  19.165  19.752  0.00  0.00     0.085 H 
ATOM     28  C5' BRN d   1       1.599  20.302  21.910  0.00  0.00    -0.067 A 
ATOM     29  C6' BRN d   1       0.564  19.446  21.584  0.00  0.00    -0.055 A 
ATOM     30  H12 BRN d   1       1.460  21.061  22.671  0.00  0.00     0.085 H 
ATOM     31  H13 BRN d   1      -0.392  19.516  22.090  0.00  0.00     0.087 H 
BRANCH  26  32
ATOM     32  C7' BRN d   1       3.922  21.113  21.624  0.00  0.00     0.102 C 
ATOM     33  NB' BRN d   1       4.024  21.583  22.869  0.00  0.00    -0.385 N 
ATOM     34  H16 BRN d   1       3.329  21.313  23.580  0.00  0.00     0.157 HD
ATOM     35  H17 BRN d   1       4.798  22.215  23.119  0.00  0.00     0.157 HD
BRANCH  32  36
ATOM     36  NA' BRN d   1       4.755  21.426  20.739  0.00  0.00    -0.385 N 
ATOM     37  H14 BRN d   1       5.529  22.067  20.964  0.00  0.00     0.157 HD
ATOM     38  H15 BRN d   1       4.665  21.042  19.788  0.00  0.00     0.157 HD
ENDBRANCH  32  36
ENDBRANCH  26  32
ENDBRANCH  20  22
ENDBRANCH   1  20
TORSDOF 8
