REMARK  13 active torsions:
REMARK  status: ('A' for Active; 'I' for Inactive)
REMARK    1  A    between atoms: O1_20  and  C1_1 
REMARK    2  A    between atoms: C4_4  and  C9_9 
REMARK    3  A    between atoms: C8_8  and  C7_7 
REMARK    4  A    between atoms: C7_7  and  O1_20 
REMARK    5  A    between atoms: C10_10  and  C8_8 
REMARK    6  A    between atoms: C9_9  and  N1_22 
REMARK    7  A    between atoms: C9_9  and  N2_23 
REMARK    8  A    between atoms: C8'_18  and  C10_10 
REMARK    9  A    between atoms: O1'_21  and  C1'_11 
REMARK   10  A    between atoms: C4'_14  and  C9'_19 
REMARK   11  A    between atoms: C7'_17  and  C8'_18 
REMARK   12  A    between atoms: C7'_17  and  O1'_21 
REMARK   13  A    between atoms: C9'_19  and  N1'_24 
ROOT
ATOM      1  C10 PNT d   1     -12.579  23.829  48.801  0.00  0.00    -0.061 C 
ATOM      2  H9  PNT d   1     -12.325  23.699  49.863  0.00  0.00     0.033 H 
ATOM      3  H10 PNT d   1     -13.298  23.054  48.498  0.00  0.00     0.033 H 
ENDROOT
BRANCH   1   4
ATOM      4  C8  PNT d   1     -11.313  23.707  47.956  0.00  0.00    -0.045 C 
ATOM      5  H7  PNT d   1     -11.581  23.837  46.897  0.00  0.00     0.036 H 
ATOM      6  H8  PNT d   1     -10.610  24.498  48.256  0.00  0.00     0.036 H 
BRANCH   4   7
ATOM      7  C7  PNT d   1     -10.631  22.354  48.127  0.00  0.00     0.026 C 
ATOM      8  H5  PNT d   1      -9.850  22.226  47.363  0.00  0.00     0.075 H 
ATOM      9  H6  PNT d   1     -11.370  21.545  48.035  0.00  0.00     0.075 H 
BRANCH   7  10
ATOM     10  O1  PNT d   1     -10.052  22.338  49.422  0.00  0.00    -0.351 OA
BRANCH  10  11
ATOM     11  C1  PNT d   1      -9.623  21.183  50.011  0.00  0.00     0.068 A 
ATOM     12  C2  PNT d   1      -9.636  19.950  49.344  0.00  0.00    -0.050 A 
ATOM     13  C3  PNT d   1      -9.168  18.813  49.985  0.00  0.00    -0.067 A 
ATOM     14  H1  PNT d   1     -10.011  19.886  48.329  0.00  0.00     0.087 H 
ATOM     15  C4  PNT d   1      -8.688  18.913  51.291  0.00  0.00     0.007 A 
ATOM     16  H2  PNT d   1      -9.175  17.856  49.476  0.00  0.00     0.085 H 
ATOM     17  C5  PNT d   1      -8.659  20.149  51.947  0.00  0.00    -0.067 A 
ATOM     18  C6  PNT d   1      -9.116  21.290  51.306  0.00  0.00    -0.050 A 
ATOM     19  H3  PNT d   1      -8.278  20.214  52.960  0.00  0.00     0.085 H 
ATOM     20  H4  PNT d   1      -9.080  22.252  51.804  0.00  0.00     0.087 H 
BRANCH  15  21
ATOM     21  C9  PNT d   1      -8.187  17.704  52.012  0.00  0.00     0.102 C 
BRANCH  21  22
ATOM     22  N1  PNT d   1      -8.589  16.553  51.695  0.00  0.00    -0.385 N 
ATOM     23  H19 PNT d   1      -8.236  15.727  52.200  0.00  0.00     0.157 HD
ATOM     24  H20 PNT d   1      -9.270  16.438  50.931  0.00  0.00     0.157 HD
ENDBRANCH  21  22
BRANCH  21  25
ATOM     25  N2  PNT d   1      -7.332  17.857  53.022  0.00  0.00    -0.385 N 
ATOM     26  H21 PNT d   1      -7.004  18.798  53.281  0.00  0.00     0.157 HD
ATOM     27  H22 PNT d   1      -6.999  17.034  53.544  0.00  0.00     0.157 HD
ENDBRANCH  21  25
ENDBRANCH  15  21
ENDBRANCH  10  11
ENDBRANCH   7  10
ENDBRANCH   4   7
ENDBRANCH   1   4
BRANCH   1  28
ATOM     28  C8' PNT d   1     -13.198  25.206  48.592  0.00  0.00    -0.045 C 
ATOM     29  H17 PNT d   1     -14.260  25.153  48.872  0.00  0.00     0.036 H 
ATOM     30  H18 PNT d   1     -13.112  25.465  47.526  0.00  0.00     0.036 H 
BRANCH  28  31
ATOM     31  C7' PNT d   1     -12.539  26.323  49.413  0.00  0.00     0.026 C 
ATOM     32  H15 PNT d   1     -13.185  27.213  49.384  0.00  0.00     0.075 H 
ATOM     33  H16 PNT d   1     -11.563  26.564  48.966  0.00  0.00     0.075 H 
BRANCH  31  34
ATOM     34  O1' PNT d   1     -12.339  25.940  50.782  0.00  0.00    -0.351 OA
BRANCH  34  35
ATOM     35  C1' PNT d   1     -13.364  25.595  51.618  0.00  0.00     0.068 A 
ATOM     36  C2' PNT d   1     -14.597  26.261  51.537  0.00  0.00    -0.050 A 
ATOM     37  C3' PNT d   1     -15.640  25.919  52.385  0.00  0.00    -0.067 A 
ATOM     38  H11 PNT d   1     -14.735  27.049  50.806  0.00  0.00     0.087 H 
ATOM     39  C4' PNT d   1     -15.445  24.915  53.317  0.00  0.00     0.007 A 
ATOM     40  H12 PNT d   1     -16.593  26.430  52.319  0.00  0.00     0.085 H 
ATOM     41  C5' PNT d   1     -14.213  24.249  53.413  0.00  0.00    -0.067 A 
ATOM     42  C6' PNT d   1     -13.162  24.585  52.555  0.00  0.00    -0.050 A 
ATOM     43  H13 PNT d   1     -14.076  23.471  54.155  0.00  0.00     0.085 H 
ATOM     44  H14 PNT d   1     -12.210  24.070  52.618  0.00  0.00     0.087 H 
BRANCH  39  45
ATOM     45  C9' PNT d   1     -16.563  24.516  54.222  0.00  0.00     0.102 C 
ATOM     46  N2' PNT d   1     -16.689  23.222  54.532  0.00  0.00    -0.385 N 
ATOM     47  H25 PNT d   1     -16.003  22.539  54.180  0.00  0.00     0.157 HD
ATOM     48  H26 PNT d   1     -17.472  22.908  55.123  0.00  0.00     0.157 HD
BRANCH  45  49
ATOM     49  N1' PNT d   1     -17.389  25.375  54.639  0.00  0.00    -0.385 N 
ATOM     50  H23 PNT d   1     -18.157  25.090  55.263  0.00  0.00     0.157 HD
ATOM     51  H24 PNT d   1     -17.295  26.361  54.355  0.00  0.00     0.157 HD
ENDBRANCH  45  49
ENDBRANCH  39  45
ENDBRANCH  34  35
ENDBRANCH  31  34
ENDBRANCH  28  31
ENDBRANCH   1  28
TORSDOF 13
