REMARK  2 active torsions:
REMARK  status: ('A' for Active; 'I' for Inactive)
REMARK    1  A    between atoms: C1_1  and  C_7 
REMARK    2  A    between atoms: C_7  and  N1_8 
ROOT
ATOM      1  C1  BEN d   1      -1.834  14.088  16.401  0.00  0.00     0.007 A 
ATOM      2  C2  BEN d   1      -1.204  13.469  17.482  0.00  0.00    -0.069 A 
ATOM      3  C3  BEN d   1      -0.872  14.182  18.628  0.00  0.00    -0.082 A 
ATOM      4  C4  BEN d   1      -1.167  15.537  18.719  0.00  0.00    -0.083 A 
ATOM      5  C5  BEN d   1      -1.790  16.165  17.642  0.00  0.00    -0.082 A 
ATOM      6  C6  BEN d   1      -2.133  15.449  16.491  0.00  0.00    -0.069 A 
ATOM      7  H1  BEN d   1      -0.969  12.412  17.427  0.00  0.00     0.085 H 
ATOM      8  H2  BEN d   1      -0.381  13.679  19.454  0.00  0.00     0.083 H 
ATOM      9  H3  BEN d   1      -0.917  16.096  19.613  0.00  0.00     0.083 H 
ATOM     10  H4  BEN d   1      -2.012  17.225  17.698  0.00  0.00     0.083 H 
ATOM     11  H5  BEN d   1      -2.631  15.950  15.669  0.00  0.00     0.085 H 
ENDROOT
BRANCH   1  12
ATOM     12  C   BEN d   1      -2.174  13.363  15.237  0.00  0.00     0.102 C 
ATOM     13  N2  BEN d   1      -1.737  12.144  15.005  0.00  0.00    -0.385 N 
ATOM     14  H8  BEN d   1      -1.129  11.676  15.692  0.00  0.00     0.157 HD
ATOM     15  H9  BEN d   1      -2.003  11.658  14.137  0.00  0.00     0.157 HD
BRANCH  12  16
ATOM     16  N1  BEN d   1      -2.945  13.883  14.306  0.00  0.00    -0.385 N 
ATOM     17  H6  BEN d   1      -3.179  13.335  13.466  0.00  0.00     0.157 HD
ATOM     18  H7  BEN d   1      -3.314  14.838  14.417  0.00  0.00     0.157 HD
ENDBRANCH  12  16
ENDBRANCH   1  12
TORSDOF 2
