REMARK  15 active torsions:
REMARK  status: ('A' for Active; 'I' for Inactive)
REMARK    1  A    between atoms: O39_1  and  C40_2 
REMARK    2  A    between atoms: C2_3  and  O39_1 
REMARK    3  A    between atoms: S8_9  and  C5_6 
REMARK    4  A    between atoms: N11_12  and  S8_9 
REMARK    5  A    between atoms: N11_12  and  C12_13 
REMARK    6  A    between atoms: C16_20  and  N11_12 
REMARK    7  A    between atoms: C12_13  and  C13_14 
REMARK    8  A    between atoms: C17_21  and  C16_20 
REMARK    9  A    between atoms: C17_21  and  O18_22 
REMARK   10  A    between atoms: C19_23  and  C17_21 
REMARK   11  A    between atoms: C19_23  and  N20_24 
REMARK   12  A    between atoms: C32_36  and  C19_23 
REMARK       I    between atoms: N20_24  and  C21_25 
REMARK   13  A    between atoms: C21_25  and  O23_27 
REMARK   14  A    between atoms: O23_27  and  C25_29 
REMARK   15  A    between atoms: C38_42  and  C32_36 
ROOT
ATOM      1  C17 031 d   1      15.257  24.177  18.423  0.00  0.00     0.067 C 
ATOM      2  H18 031 d   1      15.090  24.269  17.340  0.00  0.00     0.088 H 
ENDROOT
BRANCH   1   3
ATOM      3  C16 031 d   1      14.474  22.935  18.785  0.00  0.00     0.019 C 
ATOM      4  H16 031 d   1      14.775  22.589  19.785  0.00  0.00     0.061 H 
ATOM      5  H17 031 d   1      13.399  23.166  18.786  0.00  0.00     0.061 H 
BRANCH   3   6
ATOM      6  N11 031 d   1      14.747  21.888  17.804  0.00  0.00    -0.202 NA
BRANCH   6   7
ATOM      7  S8  031 d   1      15.273  20.503  18.459  0.00  0.00     0.243 S 
ATOM      8  O9  031 d   1      16.172  20.856  19.606  0.00  0.00    -0.206 OA
ATOM      9  O10 031 d   1      16.039  19.715  17.448  0.00  0.00    -0.206 OA
BRANCH   7  10
ATOM     10  C5  031 d   1      13.946  19.516  19.038  0.00  0.00     0.074 A 
ATOM     11  C4  031 d   1      13.307  18.559  18.263  0.00  0.00    -0.058 A 
ATOM     12  C3  031 d   1      12.217  17.856  18.786  0.00  0.00    -0.049 A 
ATOM     13  H5  031 d   1      13.652  18.357  17.255  0.00  0.00     0.086 H 
ATOM     14  C2  031 d   1      11.769  18.079  20.077  0.00  0.00     0.068 A 
ATOM     15  H4  031 d   1      11.713  17.122  18.168  0.00  0.00     0.087 H 
ATOM     16  C7  031 d   1      12.442  18.993  20.882  0.00  0.00    -0.049 A 
ATOM     17  C6  031 d   1      13.485  19.703  20.325  0.00  0.00    -0.058 A 
ATOM     18  H7  031 d   1      12.155  19.143  21.916  0.00  0.00     0.087 H 
ATOM     19  H6  031 d   1      13.973  20.454  20.936  0.00  0.00     0.086 H 
BRANCH  14  20
ATOM     20  O39 031 d   1      10.787  17.330  20.637  0.00  0.00    -0.356 OA
BRANCH  20  21
ATOM     21  C40 031 d   1      10.033  16.701  19.606  0.00  0.00     0.010 C 
ATOM     22  H1  031 d   1       9.235  16.092  20.055  0.00  0.00     0.066 H 
ATOM     23  H2  031 d   1      10.695  16.056  19.009  0.00  0.00     0.066 H 
ATOM     24  H3  031 d   1       9.587  17.469  18.957  0.00  0.00     0.066 H 
ENDBRANCH  20  21
ENDBRANCH  14  20
ENDBRANCH   7  10
ENDBRANCH   6   7
BRANCH   6  25
ATOM     25  C12 031 d   1      13.728  21.728  16.789  0.00  0.00     0.012 C 
ATOM     26  H8  031 d   1      12.738  21.726  17.268  0.00  0.00     0.060 H 
ATOM     27  H9  031 d   1      13.885  20.773  16.267  0.00  0.00     0.060 H 
BRANCH  25  28
ATOM     28  C13 031 d   1      13.791  22.866  15.778  0.00  0.00     0.025 C 
ATOM     29  C14 031 d   1      15.219  23.147  15.295  0.00  0.00    -0.037 C 
ATOM     30  C47 031 d   1      15.334  22.311  14.023  0.00  0.00     0.011 C 
ATOM     31  H11 031 d   1      15.958  22.827  16.044  0.00  0.00     0.036 H 
ATOM     32  H12 031 d   1      15.357  24.216  15.077  0.00  0.00     0.036 H 
ATOM     33  C45 031 d   1      13.888  22.013  13.672  0.00  0.00     0.217 C 
ATOM     34  H14 031 d   1      15.894  21.383  14.210  0.00  0.00     0.047 H 
ATOM     35  H15 031 d   1      15.825  22.880  13.220  0.00  0.00     0.047 H 
ATOM     36  N15 031 d   1      13.060  22.530  14.552  0.00  0.00    -0.355 N 
ATOM     37  O46 031 d   1      13.522  21.376  12.702  0.00  0.00    -0.274 OA
ATOM     38  H13 031 d   1      12.081  22.672  14.408  0.00  0.00     0.162 HD
ATOM     39  H10 031 d   1      13.366  23.769  16.240  0.00  0.00     0.074 H 
ENDBRANCH  25  28
ENDBRANCH   6  25
ENDBRANCH   3   6
ENDBRANCH   1   3
BRANCH   1  40
ATOM     40  O18 031 d   1      14.788  25.402  18.935  0.00  0.00    -0.392 OA
ATOM     41  H19 031 d   1      14.788  25.368  19.884  0.00  0.00     0.210 HD
ENDBRANCH   1  40
BRANCH   1  42
ATOM     42  C19 031 d   1      16.762  24.045  18.552  0.00  0.00     0.044 C 
ATOM     43  H20 031 d   1      17.077  23.058  18.182  0.00  0.00     0.077 H 
BRANCH  42  44
ATOM     44  N20 031 d   1      17.383  25.091  17.746  0.00  0.00    -0.329 N 
ATOM     45  C21 031 d   1      18.266  24.967  16.770  0.00  0.00     0.361 C 
ATOM     46  O22 031 d   1      18.526  23.898  16.213  0.00  0.00    -0.238 OA
ATOM     47  H21 031 d   1      17.103  26.027  17.961  0.00  0.00     0.165 HD
BRANCH  45  48
ATOM     48  O23 031 d   1      18.898  26.112  16.399  0.00  0.00    -0.299 OA
BRANCH  48  49
ATOM     49  C25 031 d   1      19.757  25.941  15.272  0.00  0.00     0.052 C 
ATOM     50  C24 031 d   1      21.074  25.283  15.673  0.00  0.00    -0.034 C 
ATOM     51  C31 031 d   1      22.060  26.407  15.971  0.00  0.00    -0.025 C 
ATOM     52  H22 031 d   1      21.451  24.658  14.850  0.00  0.00     0.037 H 
ATOM     53  H23 031 d   1      20.928  24.661  16.568  0.00  0.00     0.037 H 
ATOM     54  C27 031 d   1      21.323  27.716  15.729  0.00  0.00     0.044 C 
ATOM     55  C30 031 d   1      22.435  26.463  17.451  0.00  0.00    -0.039 C 
ATOM     56  H32 031 d   1      22.956  26.312  15.339  0.00  0.00     0.044 H 
ATOM     57  C26 031 d   1      20.174  27.341  14.796  0.00  0.00    -0.016 C 
ATOM     58  O28 031 d   1      20.843  28.142  17.002  0.00  0.00    -0.385 OA
ATOM     59  H27 031 d   1      21.970  28.482  15.277  0.00  0.00     0.084 H 
ATOM     60  H25 031 d   1      19.341  28.053  14.895  0.00  0.00     0.040 H 
ATOM     61  H26 031 d   1      20.512  27.315  13.749  0.00  0.00     0.040 H 
ATOM     62  C29 031 d   1      21.878  27.807  17.931  0.00  0.00     0.021 C 
ATOM     63  H28 031 d   1      21.468  27.713  18.947  0.00  0.00     0.074 H 
ATOM     64  H29 031 d   1      22.666  28.575  17.923  0.00  0.00     0.074 H 
ATOM     65  H30 031 d   1      21.973  25.630  18.002  0.00  0.00     0.036 H 
ATOM     66  H31 031 d   1      23.527  26.426  17.578  0.00  0.00     0.036 H 
ATOM     67  H24 031 d   1      19.249  25.369  14.481  0.00  0.00     0.084 H 
ENDBRANCH  48  49
ENDBRANCH  45  48
ENDBRANCH  42  44
BRANCH  42  68
ATOM     68  C32 031 d   1      17.187  24.191  20.013  0.00  0.00    -0.020 C 
ATOM     69  H33 031 d   1      16.633  23.467  20.629  0.00  0.00     0.043 H 
ATOM     70  H34 031 d   1      16.966  25.212  20.358  0.00  0.00     0.043 H 
BRANCH  68  71
ATOM     71  C38 031 d   1      18.686  23.925  20.140  0.00  0.00    -0.056 C 
ATOM     72  C33 031 d   1      19.536  24.964  20.493  0.00  0.00    -0.077 C 
ATOM     73  C34 031 d   1      20.903  24.752  20.543  0.00  0.00    -0.082 C 
ATOM     74  H35 031 d   1      19.130  25.941  20.729  0.00  0.00     0.084 H 
ATOM     75  C35 031 d   1      21.382  23.464  20.394  0.00  0.00    -0.083 C 
ATOM     76  H36 031 d   1      21.585  25.581  20.696  0.00  0.00     0.083 H 
ATOM     77  C36 031 d   1      20.532  22.422  20.055  0.00  0.00    -0.082 C 
ATOM     78  H37 031 d   1      22.437  23.266  20.544  0.00  0.00     0.083 H 
ATOM     79  C37 031 d   1      19.165  22.637  19.930  0.00  0.00    -0.077 C 
ATOM     80  H38 031 d   1      20.938  21.431  19.886  0.00  0.00     0.083 H 
ATOM     81  H39 031 d   1      18.493  21.825  19.677  0.00  0.00     0.084 H 
ENDBRANCH  68  71
ENDBRANCH  42  68
ENDBRANCH   1  42
TORSDOF 15
