REMARK  25 active torsions:
REMARK  status: ('A' for Active; 'I' for Inactive)
REMARK    1  A    between atoms: C2_2  and  C1_1 
REMARK    2  A    between atoms: C1_1  and  C7_7 
REMARK       I    between atoms: N16_16  and  C2_2 
REMARK    3  A    between atoms: C4_4  and  C12_12 
REMARK    4  A    between atoms: C17_17  and  N16_16 
REMARK    5  A    between atoms: C17_17  and  C18_18 
REMARK    6  A    between atoms: C20_20  and  C17_17 
REMARK       I    between atoms: C18_18  and  N29_28 
REMARK    7  A    between atoms: C69_67  and  C20_20 
REMARK    8  A    between atoms: C22_21  and  C23_22 
REMARK    9  A    between atoms: C68_66  and  C22_21 
REMARK   10  A    between atoms: C28_27  and  C62_60 
REMARK   11  A    between atoms: N29_28  and  C30_29 
REMARK   12  A    between atoms: C30_29  and  C31_30 
REMARK   13  A    between atoms: C30_29  and  C38_37 
REMARK   14  A    between atoms: C31_30  and  C32_31 
REMARK   15  A    between atoms: C32_31  and  C33_32 
REMARK   16  A    between atoms: C33_32  and  N34_33 
REMARK       I    between atoms: N34_33  and  C35_34 
REMARK       I    between atoms: C35_34  and  N36_35 
REMARK       I    between atoms: C35_34  and  N37_36 
REMARK       I    between atoms: C38_37  and  N40_39 
REMARK   17  A    between atoms: N40_39  and  C41_40 
REMARK   18  A    between atoms: C41_40  and  C42_41 
REMARK   19  A    between atoms: C41_40  and  C44_43 
REMARK       I    between atoms: C42_41  and  N60_59 
REMARK   20  A    between atoms: C44_43  and  C45_44 
REMARK   21  A    between atoms: C58_57  and  C52_51 
REMARK   22  A    between atoms: C59_58  and  C58_57 
REMARK   23  A    between atoms: N60_59  and  C59_58 
REMARK       I    between atoms: N72_70  and  C68_66 
REMARK   24  A    between atoms: C71_69  and  C70_68 
REMARK   25  A    between atoms: C71_69  and  N72_70 
ROOT
ATOM      1  C17 NSX d   1      28.286  -5.960  -8.372  0.00  0.00     0.079 C 
ATOM      2  H21 NSX d   1      27.892  -5.345  -7.550  0.00  0.00     0.086 H 
ENDROOT
BRANCH   1   3
ATOM      3  N16 NSX d   1      29.239  -5.329  -9.171  0.00  0.00    -0.349 N 
ATOM      4  C2  NSX d   1      29.517  -3.894  -9.292  0.00  0.00     0.218 C 
ATOM      5  O3  NSX d   1      28.932  -3.016  -8.711  0.00  0.00    -0.274 OA
ATOM      6  H20 NSX d   1      29.805  -5.932  -9.733  0.00  0.00     0.163 HD
BRANCH   4   7
ATOM      7  C1  NSX d   1      30.547  -3.607 -10.164  0.00  0.00     0.015 C 
ATOM      8  H1  NSX d   1      31.372  -4.329 -10.070  0.00  0.00     0.048 H 
ATOM      9  H2  NSX d   1      30.933  -2.588 -10.015  0.00  0.00     0.048 H 
BRANCH   7  10
ATOM     10  C7  NSX d   1      29.829  -3.746 -11.495  0.00  0.00    -0.030 A 
ATOM     11  C6  NSX d   1      29.920  -2.520 -12.407  0.00  0.00    -0.102 A 
ATOM     12  C5  NSX d   1      29.285  -2.548 -13.707  0.00  0.00    -0.102 A 
ATOM     13  H5  NSX d   1      30.459  -1.632 -12.080  0.00  0.00     0.076 H 
ATOM     14  C4  NSX d   1      28.497  -3.807 -14.201  0.00  0.00    -0.031 A 
ATOM     15  H4  NSX d   1      29.357  -1.675 -14.355  0.00  0.00     0.077 H 
ATOM     16  C9  NSX d   1      28.390  -5.025 -13.281  0.00  0.00    -0.057 A 
ATOM     17  H3  NSX d   1      29.416  -4.223 -14.640  0.00  0.00     0.047 H 
ATOM     18  C8  NSX d   1      29.031  -5.055 -11.927  0.00  0.00    -0.058 A 
ATOM     19  H9  NSX d   1      28.813  -5.872 -13.841  0.00  0.00     0.034 H 
ATOM     20  H10 NSX d   1      27.316  -5.194 -13.117  0.00  0.00     0.034 H 
ATOM     21  H7  NSX d   1      28.238  -5.224 -11.184  0.00  0.00     0.034 H 
ATOM     22  H8  NSX d   1      29.736  -5.899 -11.909  0.00  0.00     0.034 H 
ATOM     23  H6  NSX d   1      30.736  -4.170 -11.950  0.00  0.00     0.046 H 
BRANCH  14  24
ATOM     24  C12 NSX d   1      27.870  -3.774 -15.549  0.00  0.00    -0.031 A 
ATOM     25  C11 NSX d   1      26.957  -4.892 -16.125  0.00  0.00    -0.058 A 
ATOM     26  C13 NSX d   1      26.445  -4.620 -17.552  0.00  0.00    -0.061 A 
ATOM     27  H13 NSX d   1      26.086  -5.002 -15.462  0.00  0.00     0.034 H 
ATOM     28  H14 NSX d   1      27.529  -5.832 -16.137  0.00  0.00     0.034 H 
ATOM     29  C10 NSX d   1      26.781  -3.381 -18.381  0.00  0.00    -0.050 A 
ATOM     30  H16 NSX d   1      26.784  -5.476 -18.154  0.00  0.00     0.033 H 
ATOM     31  H17 NSX d   1      25.348  -4.635 -17.478  0.00  0.00     0.033 H 
ATOM     32  C15 NSX d   1      27.694  -2.280 -17.776  0.00  0.00    -0.106 A 
ATOM     33  H11 NSX d   1      25.826  -2.899 -18.638  0.00  0.00     0.038 H 
ATOM     34  H12 NSX d   1      27.272  -3.734 -19.300  0.00  0.00     0.038 H 
ATOM     35  C14 NSX d   1      28.239  -2.442 -16.423  0.00  0.00    -0.102 A 
ATOM     36  H19 NSX d   1      27.930  -1.388 -18.355  0.00  0.00     0.076 H 
ATOM     37  H18 NSX d   1      28.888  -1.676 -16.002  0.00  0.00     0.076 H 
ATOM     38  H15 NSX d   1      26.977  -3.283 -15.134  0.00  0.00     0.047 H 
ENDBRANCH  14  24
ENDBRANCH   7  10
ENDBRANCH   4   7
ENDBRANCH   1   3
BRANCH   1  39
ATOM     39  C18 NSX d   1      29.165  -7.089  -7.931  0.00  0.00     0.175 C 
ATOM     40  O19 NSX d   1      30.206  -7.513  -8.626  0.00  0.00    -0.175 OA
ATOM     41  N29 NSX d   1      28.753  -7.632  -6.612  0.00  0.00    -0.357 N 
ATOM     42  H30 NSX d   1      27.950  -7.240  -6.164  0.00  0.00     0.162 HD
BRANCH  41  43
ATOM     43  C30 NSX d   1      29.449  -8.684  -5.957  0.00  0.00     0.088 C 
ATOM     44  H31 NSX d   1      30.496  -8.372  -5.827  0.00  0.00     0.087 H 
BRANCH  43  45
ATOM     45  C31 NSX d   1      29.368 -10.099  -6.816  0.00  0.00    -0.036 C 
ATOM     46  H32 NSX d   1      29.575 -10.905  -6.096  0.00  0.00     0.036 H 
ATOM     47  H33 NSX d   1      30.179 -10.052  -7.557  0.00  0.00     0.036 H 
BRANCH  45  48
ATOM     48  C32 NSX d   1      28.057 -10.549  -7.621  0.00  0.00    -0.048 C 
ATOM     49  H34 NSX d   1      28.194 -10.277  -8.678  0.00  0.00     0.035 H 
ATOM     50  H35 NSX d   1      27.198  -9.999  -7.210  0.00  0.00     0.035 H 
BRANCH  48  51
ATOM     51  C33 NSX d   1      27.737 -12.069  -7.551  0.00  0.00     0.009 C 
ATOM     52  H36 NSX d   1      27.624 -12.317  -6.485  0.00  0.00     0.064 H 
ATOM     53  H37 NSX d   1      28.614 -12.594  -7.959  0.00  0.00     0.064 H 
BRANCH  51  54
ATOM     54  N34 NSX d   1      26.549 -12.627  -8.244  0.00  0.00    -0.227 N 
ATOM     55  C35 NSX d   1      25.248 -12.834  -7.564  0.00  0.00     0.665 C 
ATOM     56  N36 NSX d   1      25.129 -13.108  -6.218  0.00  0.00    -0.235 N 
ATOM     57  N37 NSX d   1      24.032 -12.769  -8.217  0.00  0.00    -0.235 N 
ATOM     58  H39 NSX d   1      24.197 -13.242  -5.800  0.00  0.00     0.174 HD
ATOM     59  H40 NSX d   1      25.972 -13.178  -5.630  0.00  0.00     0.174 HD
ATOM     60  H41 NSX d   1      24.000 -12.570  -9.227  0.00  0.00     0.174 HD
ATOM     61  H42 NSX d   1      23.158 -12.920  -7.694  0.00  0.00     0.174 HD
ATOM     62  H38 NSX d   1      26.632 -12.881  -9.239  0.00  0.00     0.177 HD
ENDBRANCH  51  54
ENDBRANCH  48  51
ENDBRANCH  45  48
ENDBRANCH  43  45
BRANCH  43  63
ATOM     63  C38 NSX d   1      28.889  -9.067  -4.682  0.00  0.00     0.241 C 
ATOM     64  O39 NSX d   1      29.666  -9.508  -3.790  0.00  0.00    -0.271 OA
ATOM     65  N40 NSX d   1      27.572  -8.940  -4.582  0.00  0.00    -0.346 N 
ATOM     66  H43 NSX d   1      27.079  -8.565  -5.368  0.00  0.00     0.163 HD
BRANCH  65  67
ATOM     67  C41 NSX d   1      26.810  -9.301  -3.431  0.00  0.00     0.090 C 
ATOM     68  H44 NSX d   1      27.387  -9.113  -2.514  0.00  0.00     0.087 H 
BRANCH  67  69
ATOM     69  C42 NSX d   1      26.565 -10.838  -3.656  0.00  0.00     0.240 C 
ATOM     70  O43 NSX d   1      26.140 -11.259  -4.718  0.00  0.00    -0.271 OA
ATOM     71  N60 NSX d   1      26.878 -11.678  -2.482  0.00  0.00    -0.359 N 
ATOM     72  H69 NSX d   1      27.225 -11.277  -1.634  0.00  0.00     0.162 HD
BRANCH  71  73
ATOM     73  C59 NSX d   1      26.650 -13.195  -2.613  0.00  0.00    -0.004 C 
ATOM     74  H67 NSX d   1      26.341 -13.618  -1.646  0.00  0.00     0.064 H 
ATOM     75  H68 NSX d   1      25.875 -13.399  -3.366  0.00  0.00     0.064 H 
BRANCH  73  76
ATOM     76  C58 NSX d   1      27.917 -13.767  -3.029  0.00  0.00    -0.047 C 
ATOM     77  H65 NSX d   1      27.692 -14.803  -3.324  0.00  0.00     0.035 H 
ATOM     78  H66 NSX d   1      28.225 -13.192  -3.915  0.00  0.00     0.035 H 
BRANCH  76  79
ATOM     79  C52 NSX d   1      29.078 -13.847  -2.200  0.00  0.00    -0.053 A 
ATOM     80  C53 NSX d   1      29.010 -14.238  -0.625  0.00  0.00    -0.062 A 
ATOM     81  C54 NSX d   1      30.349 -14.283   0.135  0.00  0.00    -0.065 A 
ATOM     82  H55 NSX d   1      28.550 -15.234  -0.548  0.00  0.00     0.033 H 
ATOM     83  H56 NSX d   1      28.368 -13.498  -0.125  0.00  0.00     0.033 H 
ATOM     84  C55 NSX d   1      31.637 -13.973  -0.592  0.00  0.00    -0.065 A 
ATOM     85  H57 NSX d   1      30.450 -15.300   0.542  0.00  0.00     0.033 H 
ATOM     86  H58 NSX d   1      30.270 -13.563   0.963  0.00  0.00     0.033 H 
ATOM     87  C56 NSX d   1      31.657 -13.615  -2.059  0.00  0.00    -0.065 A 
ATOM     88  H59 NSX d   1      32.275 -14.862  -0.482  0.00  0.00     0.033 H 
ATOM     89  H60 NSX d   1      32.095 -13.125  -0.061  0.00  0.00     0.033 H 
ATOM     90  C57 NSX d   1      30.392 -13.546  -2.877  0.00  0.00    -0.062 A 
ATOM     91  H61 NSX d   1      32.302 -14.359  -2.550  0.00  0.00     0.033 H 
ATOM     92  H62 NSX d   1      32.124 -12.622  -2.128  0.00  0.00     0.033 H 
ATOM     93  H63 NSX d   1      30.322 -12.525  -3.281  0.00  0.00     0.033 H 
ATOM     94  H64 NSX d   1      30.502 -14.262  -3.705  0.00  0.00     0.033 H 
ATOM     95  H54 NSX d   1      28.963 -12.788  -1.926  0.00  0.00     0.040 H 
ENDBRANCH  76  79
ENDBRANCH  73  76
ENDBRANCH  71  73
ENDBRANCH  67  69
BRANCH  67  96
ATOM     96  C44 NSX d   1      25.425  -8.579  -3.325  0.00  0.00    -0.032 C 
ATOM     97  H45 NSX d   1      24.813  -8.807  -4.210  0.00  0.00     0.037 H 
ATOM     98  H46 NSX d   1      25.573  -7.491  -3.252  0.00  0.00     0.037 H 
BRANCH  96  99
ATOM     99  C45 NSX d   1      24.713  -9.114  -2.027  0.00  0.00    -0.035 A 
ATOM    100  C46 NSX d   1      25.076  -8.548  -0.663  0.00  0.00    -0.053 A 
ATOM    101  C48 NSX d   1      24.394  -9.094   0.570  0.00  0.00    -0.017 A 
ATOM    102  H48 NSX d   1      24.863  -7.469  -0.696  0.00  0.00     0.034 H 
ATOM    103  H49 NSX d   1      26.156  -8.704  -0.528  0.00  0.00     0.034 H 
ATOM    104  C50 NSX d   1      23.337 -10.222   0.428  0.00  0.00     0.084 A 
ATOM    105  H51 NSX d   1      23.892  -8.246   1.059  0.00  0.00     0.043 H 
ATOM    106  H52 NSX d   1      25.186  -9.480   1.228  0.00  0.00     0.043 H 
ATOM    107  C49 NSX d   1      22.966 -10.787  -0.914  0.00  0.00    -0.055 A 
ATOM    108  O51 NSX d   1      22.749 -10.700   1.499  0.00  0.00    -0.197 OA
ATOM    109  C47 NSX d   1      23.613 -10.278  -2.143  0.00  0.00    -0.097 A 
ATOM    110  H53 NSX d   1      22.217 -11.575  -0.982  0.00  0.00     0.086 H 
ATOM    111  H50 NSX d   1      23.346 -10.688  -3.116  0.00  0.00     0.077 H 
ATOM    112  H47 NSX d   1      23.927  -8.352  -2.139  0.00  0.00     0.046 H 
ENDBRANCH  96  99
ENDBRANCH  67  96
ENDBRANCH  65  67
ENDBRANCH  43  63
ENDBRANCH  41  43
ENDBRANCH   1  39
BRANCH   1 113
ATOM    113  C20 NSX d   1      27.210  -6.462  -9.252  0.00  0.00    -0.024 C 
ATOM    114  H22 NSX d   1      27.119  -7.529  -9.002  0.00  0.00     0.042 H 
ATOM    115  H23 NSX d   1      27.610  -6.356 -10.271  0.00  0.00     0.042 H 
BRANCH 113 116
ATOM    116  C69 NSX d   1      25.762  -5.957  -9.345  0.00  0.00    -0.103 C 
ATOM    117  C70 NSX d   1      24.962  -5.933 -10.359  0.00  0.00    -0.090 C 
ATOM    118  H78 NSX d   1      23.970  -5.516 -10.191  0.00  0.00     0.078 H 
ATOM    119  H77 NSX d   1      25.349  -5.561  -8.419  0.00  0.00     0.076 H 
BRANCH 117 120
ATOM    120  C71 NSX d   1      25.272  -6.436 -11.783  0.00  0.00     0.010 C 
ATOM    121  H79 NSX d   1      25.783  -7.404 -11.671  0.00  0.00     0.070 H 
ATOM    122  H80 NSX d   1      25.962  -5.707 -12.232  0.00  0.00     0.070 H 
BRANCH 120 123
ATOM    123  N72 NSX d   1      24.121  -6.654 -12.813  0.00  0.00    -0.357 N 
ATOM    124  C68 NSX d   1      24.463  -7.299 -13.883  0.00  0.00     0.222 C 
ATOM    125  O73 NSX d   1      25.466  -7.703 -14.131  0.00  0.00    -0.273 OA
ATOM    126  H81 NSX d   1      23.191  -6.321 -12.659  0.00  0.00     0.162 HD
BRANCH 124 127
ATOM    127  C22 NSX d   1      23.571  -7.607 -14.911  0.00  0.00     0.033 C 
ATOM    128  H24 NSX d   1      23.624  -8.700 -15.018  0.00  0.00     0.054 H 
ATOM    129  H25 NSX d   1      22.581  -7.324 -14.525  0.00  0.00     0.054 H 
BRANCH 127 130
ATOM    130  C23 NSX d   1      23.605  -7.134 -16.160  0.00  0.00    -0.049 A 
ATOM    131  C24 NSX d   1      23.299  -5.685 -16.475  0.00  0.00    -0.076 A 
ATOM    132  C26 NSX d   1      23.317  -5.098 -17.836  0.00  0.00    -0.076 A 
ATOM    133  H26 NSX d   1      23.049  -5.031 -15.647  0.00  0.00     0.084 H 
ATOM    134  C28 NSX d   1      23.605  -5.967 -19.029  0.00  0.00    -0.050 A 
ATOM    135  H28 NSX d   1      23.122  -4.040 -17.972  0.00  0.00     0.084 H 
ATOM    136  C27 NSX d   1      23.934  -7.493 -18.741  0.00  0.00    -0.076 A 
ATOM    137  C25 NSX d   1      23.917  -8.061 -17.340  0.00  0.00    -0.076 A 
ATOM    138  H29 NSX d   1      24.177  -8.146 -19.572  0.00  0.00     0.084 H 
ATOM    139  H27 NSX d   1      24.123  -9.112 -17.172  0.00  0.00     0.084 H 
BRANCH 134 140
ATOM    140  C62 NSX d   1      23.615  -5.355 -20.326  0.00  0.00    -0.009 A 
ATOM    141  C63 NSX d   1      23.327  -3.830 -20.512  0.00  0.00    -0.040 A 
ATOM    142  C65 NSX d   1      23.322  -3.183 -21.896  0.00  0.00    -0.102 A 
ATOM    143  H71 NSX d   1      24.087  -3.296 -19.922  0.00  0.00     0.040 H 
ATOM    144  H72 NSX d   1      22.332  -3.647 -20.080  0.00  0.00     0.040 H 
ATOM    145  C67 NSX d   1      23.586  -4.034 -23.089  0.00  0.00    -0.087 A 
ATOM    146  H74 NSX d   1      23.129  -2.117 -22.008  0.00  0.00     0.076 H 
ATOM    147  C66 NSX d   1      23.849  -5.489 -22.958  0.00  0.00    -0.086 A 
ATOM    148  H76 NSX d   1      23.586  -3.579 -24.078  0.00  0.00     0.083 H 
ATOM    149  C64 NSX d   1      23.864  -6.144 -21.625  0.00  0.00    -0.095 A 
ATOM    150  H75 NSX d   1      24.033  -6.084 -23.851  0.00  0.00     0.083 H 
ATOM    151  H73 NSX d   1      24.057  -7.214 -21.564  0.00  0.00     0.077 H 
ATOM    152  H70 NSX d   1      24.692  -5.161 -20.218  0.00  0.00     0.054 H 
ENDBRANCH 134 140
ENDBRANCH 127 130
ENDBRANCH 124 127
ENDBRANCH 120 123
ENDBRANCH 117 120
ENDBRANCH 113 116
ENDBRANCH   1 113
TORSDOF 25
