REMARK  24 active torsions:
REMARK  status: ('A' for Active; 'I' for Inactive)
REMARK    1  A    between atoms: C2_2  and  C1_1 
REMARK    2  A    between atoms: C1_1  and  C7_7 
REMARK       I    between atoms: N16_16  and  C2_2 
REMARK    3  A    between atoms: C4_4  and  C12_12 
REMARK    4  A    between atoms: C17_17  and  N16_16 
REMARK    5  A    between atoms: C17_17  and  C18_18 
REMARK    6  A    between atoms: C20_20  and  C17_17 
REMARK       I    between atoms: C18_18  and  N29_28 
REMARK    7  A    between atoms: C69_66  and  C20_20 
REMARK    8  A    between atoms: C22_21  and  C23_22 
REMARK    9  A    between atoms: C68_65  and  C22_21 
REMARK   10  A    between atoms: N29_28  and  C30_29 
REMARK   11  A    between atoms: C30_29  and  C31_30 
REMARK   12  A    between atoms: C30_29  and  C38_37 
REMARK   13  A    between atoms: C31_30  and  C32_31 
REMARK   14  A    between atoms: C32_31  and  C33_32 
REMARK   15  A    between atoms: C33_32  and  N34_33 
REMARK       I    between atoms: N34_33  and  C35_34 
REMARK       I    between atoms: C35_34  and  N36_35 
REMARK       I    between atoms: C35_34  and  N37_36 
REMARK       I    between atoms: C38_37  and  N40_39 
REMARK   16  A    between atoms: N40_39  and  C41_40 
REMARK   17  A    between atoms: C41_40  and  C42_41 
REMARK   18  A    between atoms: C41_40  and  C44_43 
REMARK       I    between atoms: C42_41  and  N60_58 
REMARK   19  A    between atoms: C44_43  and  C45_44 
REMARK   20  A    between atoms: C58_56  and  C52_50 
REMARK   21  A    between atoms: C59_57  and  C58_56 
REMARK   22  A    between atoms: N60_58  and  C59_57 
REMARK       I    between atoms: N72_69  and  C68_65 
REMARK   23  A    between atoms: C71_68  and  C70_67 
REMARK   24  A    between atoms: C71_68  and  N72_69 
ROOT
ATOM      1  C17 NSY d   1       0.269  -5.873   8.114  0.00  0.00     0.079 C 
ATOM      2  H23 NSY d   1       0.289  -5.219   8.998  0.00  0.00     0.086 H 
ENDROOT
BRANCH   1   3
ATOM      3  N16 NSY d   1       1.452  -5.741   7.324  0.00  0.00    -0.349 N 
ATOM      4  C2  NSY d   1       2.085  -4.547   6.718  0.00  0.00     0.218 C 
ATOM      5  O3  NSY d   1       1.651  -3.426   6.817  0.00  0.00    -0.274 OA
ATOM      6  H22 NSY d   1       1.934  -6.600   7.151  0.00  0.00     0.163 HD
BRANCH   4   7
ATOM      7  C1  NSY d   1       3.219  -4.843   6.095  0.00  0.00     0.015 C 
ATOM      8  H1  NSY d   1       3.749  -5.556   6.743  0.00  0.00     0.048 H 
ATOM      9  H2  NSY d   1       3.792  -3.906   6.036  0.00  0.00     0.048 H 
BRANCH   7  10
ATOM     10  C7  NSY d   1       3.237  -5.444   4.693  0.00  0.00    -0.030 A 
ATOM     11  C6  NSY d   1       4.667  -5.816   4.279  0.00  0.00    -0.102 A 
ATOM     12  C5  NSY d   1       4.960  -6.401   3.002  0.00  0.00    -0.102 A 
ATOM     13  H5  NSY d   1       5.484  -5.630   4.975  0.00  0.00     0.076 H 
ATOM     14  C4  NSY d   1       3.822  -6.669   1.945  0.00  0.00    -0.035 A 
ATOM     15  H4  NSY d   1       5.988  -6.665   2.759  0.00  0.00     0.077 H 
ATOM     16  C9  NSY d   1       2.364  -6.313   2.334  0.00  0.00    -0.058 A 
ATOM     17  H3  NSY d   1       3.952  -5.660   1.527  0.00  0.00     0.046 H 
ATOM     18  C8  NSY d   1       1.998  -5.704   3.684  0.00  0.00    -0.058 A 
ATOM     19  H9  NSY d   1       1.791  -7.248   2.256  0.00  0.00     0.034 H 
ATOM     20  H10 NSY d   1       2.010  -5.602   1.573  0.00  0.00     0.034 H 
ATOM     21  H7  NSY d   1       1.505  -4.739   3.497  0.00  0.00     0.034 H 
ATOM     22  H8  NSY d   1       1.293  -6.385   4.183  0.00  0.00     0.034 H 
ATOM     23  H6  NSY d   1       3.059  -6.444   5.116  0.00  0.00     0.046 H 
BRANCH  14  24
ATOM     24  C12 NSY d   1       4.205  -7.265   0.605  0.00  0.00    -0.048 A 
ATOM     25  C11 NSY d   1       3.214  -7.540  -0.565  0.00  0.00    -0.061 A 
ATOM     26  C13 NSY d   1       3.883  -8.163  -1.853  0.00  0.00    -0.065 A 
ATOM     27  H13 NSY d   1       2.743  -6.587  -0.849  0.00  0.00     0.033 H 
ATOM     28  H14 NSY d   1       2.443  -8.238  -0.206  0.00  0.00     0.033 H 
ATOM     29  C10 NSY d   1       5.381  -8.500  -2.026  0.00  0.00    -0.065 A 
ATOM     30  H16 NSY d   1       3.353  -9.111  -2.023  0.00  0.00     0.033 H 
ATOM     31  H17 NSY d   1       3.650  -7.461  -2.667  0.00  0.00     0.033 H 
ATOM     32  C15 NSY d   1       6.365  -8.221  -0.865  0.00  0.00    -0.065 A 
ATOM     33  H11 NSY d   1       5.739  -7.927  -2.894  0.00  0.00     0.033 H 
ATOM     34  H12 NSY d   1       5.443  -9.576  -2.246  0.00  0.00     0.033 H 
ATOM     35  C14 NSY d   1       5.829  -7.619   0.411  0.00  0.00    -0.061 A 
ATOM     36  H20 NSY d   1       7.133  -7.534  -1.250  0.00  0.00     0.033 H 
ATOM     37  H21 NSY d   1       6.832  -9.181  -0.599  0.00  0.00     0.033 H 
ATOM     38  H18 NSY d   1       6.091  -8.320   1.217  0.00  0.00     0.033 H 
ATOM     39  H19 NSY d   1       6.371  -6.673   0.558  0.00  0.00     0.033 H 
ATOM     40  H15 NSY d   1       4.006  -8.274   0.994  0.00  0.00     0.041 H 
ENDBRANCH  14  24
ENDBRANCH   7  10
ENDBRANCH   4   7
ENDBRANCH   1   3
BRANCH   1  41
ATOM     41  C18 NSY d   1       0.408  -7.309   8.467  0.00  0.00     0.175 C 
ATOM     42  O19 NSY d   1       1.087  -8.142   7.726  0.00  0.00    -0.175 OA
ATOM     43  N29 NSY d   1      -0.256  -7.653   9.756  0.00  0.00    -0.357 N 
ATOM     44  H32 NSY d   1      -0.775  -6.944  10.234  0.00  0.00     0.162 HD
BRANCH  43  45
ATOM     45  C30 NSY d   1      -0.180  -8.940  10.327  0.00  0.00     0.088 C 
ATOM     46  H33 NSY d   1       0.885  -9.052  10.579  0.00  0.00     0.087 H 
BRANCH  45  47
ATOM     47  C31 NSY d   1      -0.560 -10.278   9.393  0.00  0.00    -0.036 C 
ATOM     48  H34 NSY d   1      -0.601 -11.118  10.102  0.00  0.00     0.036 H 
ATOM     49  H35 NSY d   1       0.299 -10.409   8.719  0.00  0.00     0.036 H 
BRANCH  47  50
ATOM     50  C32 NSY d   1      -1.846 -10.458   8.463  0.00  0.00    -0.048 C 
ATOM     51  H36 NSY d   1      -1.749 -11.412   7.924  0.00  0.00     0.035 H 
ATOM     52  H37 NSY d   1      -1.866  -9.629   7.740  0.00  0.00     0.035 H 
BRANCH  50  53
ATOM     53  C33 NSY d   1      -3.190 -10.468   9.221  0.00  0.00     0.009 C 
ATOM     54  H38 NSY d   1      -3.245  -9.510   9.758  0.00  0.00     0.064 H 
ATOM     55  H39 NSY d   1      -3.125 -11.292   9.947  0.00  0.00     0.064 H 
BRANCH  53  56
ATOM     56  N34 NSY d   1      -4.490 -10.628   8.532  0.00  0.00    -0.227 N 
ATOM     57  C35 NSY d   1      -5.775 -10.407   9.231  0.00  0.00     0.665 C 
ATOM     58  N36 NSY d   1      -6.110 -11.018  10.423  0.00  0.00    -0.235 N 
ATOM     59  N37 NSY d   1      -6.757  -9.564   8.756  0.00  0.00    -0.235 N 
ATOM     60  H41 NSY d   1      -7.021 -10.824  10.863  0.00  0.00     0.174 HD
ATOM     61  H42 NSY d   1      -5.449 -11.667  10.873  0.00  0.00     0.174 HD
ATOM     62  H43 NSY d   1      -6.615  -9.054   7.872  0.00  0.00     0.174 HD
ATOM     63  H44 NSY d   1      -7.633  -9.444   9.285  0.00  0.00     0.174 HD
ATOM     64  H40 NSY d   1      -4.500 -10.901   7.539  0.00  0.00     0.177 HD
ENDBRANCH  53  56
ENDBRANCH  50  53
ENDBRANCH  47  50
ENDBRANCH  45  47
BRANCH  45  65
ATOM     65  C38 NSY d   1      -0.918  -9.104  11.578  0.00  0.00     0.241 C 
ATOM     66  O39 NSY d   1      -0.570 -10.030  12.316  0.00  0.00    -0.271 OA
ATOM     67  N40 NSY d   1      -1.902  -8.238  11.858  0.00  0.00    -0.346 N 
ATOM     68  H45 NSY d   1      -2.114  -7.518  11.197  0.00  0.00     0.163 HD
BRANCH  67  69
ATOM     69  C41 NSY d   1      -2.674  -8.311  13.095  0.00  0.00     0.090 C 
ATOM     70  H46 NSY d   1      -2.006  -8.526  13.942  0.00  0.00     0.087 H 
BRANCH  69  71
ATOM     71  C42 NSY d   1      -3.691  -9.491  12.832  0.00  0.00     0.240 C 
ATOM     72  O43 NSY d   1      -4.424  -9.471  11.886  0.00  0.00    -0.271 OA
ATOM     73  N60 NSY d   1      -3.663 -10.548  13.856  0.00  0.00    -0.359 N 
ATOM     74  H73 NSY d   1      -3.030 -10.521  14.630  0.00  0.00     0.162 HD
BRANCH  73  75
ATOM     75  C59 NSY d   1      -4.670 -11.699  13.661  0.00  0.00    -0.004 C 
ATOM     76  H71 NSY d   1      -4.980 -12.095  14.639  0.00  0.00     0.064 H 
ATOM     77  H72 NSY d   1      -5.554 -11.335  13.117  0.00  0.00     0.064 H 
BRANCH  75  78
ATOM     78  C58 NSY d   1      -4.010 -12.741  12.892  0.00  0.00    -0.047 C 
ATOM     79  H69 NSY d   1      -4.798 -13.453  12.605  0.00  0.00     0.035 H 
ATOM     80  H70 NSY d   1      -3.614 -12.249  11.991  0.00  0.00     0.035 H 
BRANCH  78  81
ATOM     81  C52 NSY d   1      -2.955 -13.516  13.407  0.00  0.00    -0.053 A 
ATOM     82  C53 NSY d   1      -2.904 -13.999  14.958  0.00  0.00    -0.062 A 
ATOM     83  C54 NSY d   1      -1.678 -14.839  15.372  0.00  0.00    -0.065 A 
ATOM     84  H59 NSY d   1      -3.804 -14.601  15.151  0.00  0.00     0.033 H 
ATOM     85  H60 NSY d   1      -2.923 -13.099  15.590  0.00  0.00     0.033 H 
ATOM     86  C55 NSY d   1      -0.613 -15.171  14.362  0.00  0.00    -0.065 A 
ATOM     87  H61 NSY d   1      -2.064 -15.796  15.752  0.00  0.00     0.033 H 
ATOM     88  H62 NSY d   1      -1.181 -14.294  16.188  0.00  0.00     0.033 H 
ATOM     89  C56 NSY d   1      -0.703 -14.705  12.931  0.00  0.00    -0.065 A 
ATOM     90  H63 NSY d   1      -0.552 -16.269  14.326  0.00  0.00     0.033 H 
ATOM     91  H64 NSY d   1       0.328 -14.765  14.761  0.00  0.00     0.033 H 
ATOM     92  C57 NSY d   1      -1.861 -13.876  12.434  0.00  0.00    -0.062 A 
ATOM     93  H65 NSY d   1      -0.684 -15.612  12.309  0.00  0.00     0.033 H 
ATOM     94  H66 NSY d   1       0.204 -14.112  12.742  0.00  0.00     0.033 H 
ATOM     95  H67 NSY d   1      -1.445 -12.933  12.050  0.00  0.00     0.033 H 
ATOM     96  H68 NSY d   1      -2.329 -14.433  11.609  0.00  0.00     0.033 H 
ATOM     97  H58 NSY d   1      -3.499 -14.438  13.153  0.00  0.00     0.040 H 
ENDBRANCH  78  81
ENDBRANCH  75  78
ENDBRANCH  73  75
ENDBRANCH  69  71
BRANCH  69  98
ATOM     98  C44 NSY d   1      -3.548  -7.046  13.425  0.00  0.00    -0.032 C 
ATOM     99  H47 NSY d   1      -4.282  -6.883  12.623  0.00  0.00     0.037 H 
ATOM    100  H48 NSY d   1      -2.901  -6.161  13.515  0.00  0.00     0.037 H 
BRANCH  98 101
ATOM    101  C45 NSY d   1      -4.300  -7.299  14.793  0.00  0.00    -0.036 A 
ATOM    102  C46 NSY d   1      -3.558  -7.093  16.112  0.00  0.00    -0.058 A 
ATOM    103  C48 NSY d   1      -4.274  -7.335  17.424  0.00  0.00    -0.061 A 
ATOM    104  H50 NSY d   1      -3.215  -6.048  16.125  0.00  0.00     0.034 H 
ATOM    105  H51 NSY d   1      -2.687  -7.765  16.096  0.00  0.00     0.034 H 
ATOM    106  C50 NSY d   1      -5.762  -7.790  17.409  0.00  0.00    -0.050 A 
ATOM    107  H53 NSY d   1      -4.233  -6.393  17.990  0.00  0.00     0.033 H 
ATOM    108  H54 NSY d   1      -3.707  -8.110  17.960  0.00  0.00     0.033 H 
ATOM    109  C49 NSY d   1      -6.501  -7.993  16.120  0.00  0.00    -0.106 A 
ATOM    110  H56 NSY d   1      -6.325  -7.033  17.975  0.00  0.00     0.038 H 
ATOM    111  H57 NSY d   1      -5.799  -8.750  17.944  0.00  0.00     0.038 H 
ATOM    112  C47 NSY d   1      -5.839  -7.769  14.812  0.00  0.00    -0.102 A 
ATOM    113  H55 NSY d   1      -7.542  -8.311  16.145  0.00  0.00     0.076 H 
ATOM    114  H52 NSY d   1      -6.384  -7.920  13.882  0.00  0.00     0.076 H 
ATOM    115  H49 NSY d   1      -3.980  -8.351  14.773  0.00  0.00     0.046 H 
ENDBRANCH  98 101
ENDBRANCH  69  98
ENDBRANCH  67  69
ENDBRANCH  45  65
ENDBRANCH  43  45
ENDBRANCH   1  41
BRANCH   1 116
ATOM    116  C20 NSY d   1      -0.940  -5.635   7.367  0.00  0.00    -0.024 C 
ATOM    117  H24 NSY d   1      -1.569  -6.526   7.511  0.00  0.00     0.042 H 
ATOM    118  H25 NSY d   1      -0.639  -5.566   6.311  0.00  0.00     0.042 H 
BRANCH 116 119
ATOM    119  C69 NSY d   1      -1.817  -4.465   7.623  0.00  0.00    -0.103 C 
ATOM    120  C70 NSY d   1      -2.533  -3.769   6.848  0.00  0.00    -0.090 C 
ATOM    121  H80 NSY d   1      -3.086  -2.945   7.296  0.00  0.00     0.078 H 
ATOM    122  H79 NSY d   1      -1.849  -4.150   8.665  0.00  0.00     0.076 H 
BRANCH 120 123
ATOM    123  C71 NSY d   1      -2.696  -3.972   5.350  0.00  0.00     0.010 C 
ATOM    124  H81 NSY d   1      -2.793  -5.055   5.184  0.00  0.00     0.070 H 
ATOM    125  H82 NSY d   1      -1.771  -3.611   4.877  0.00  0.00     0.070 H 
BRANCH 123 126
ATOM    126  N72 NSY d   1      -3.875  -3.296   4.604  0.00  0.00    -0.357 N 
ATOM    127  C68 NSY d   1      -4.283  -3.946   3.591  0.00  0.00     0.222 C 
ATOM    128  O73 NSY d   1      -3.872  -4.957   3.203  0.00  0.00    -0.273 OA
ATOM    129  H83 NSY d   1      -4.278  -2.428   4.894  0.00  0.00     0.162 HD
BRANCH 127 130
ATOM    130  C22 NSY d   1      -5.324  -3.467   2.776  0.00  0.00     0.033 C 
ATOM    131  H26 NSY d   1      -6.023  -4.309   2.662  0.00  0.00     0.054 H 
ATOM    132  H27 NSY d   1      -5.807  -2.665   3.353  0.00  0.00     0.054 H 
BRANCH 130 133
ATOM    133  C23 NSY d   1      -5.157  -2.989   1.586  0.00  0.00    -0.049 A 
ATOM    134  C24 NSY d   1      -4.362  -1.743   1.291  0.00  0.00    -0.076 A 
ATOM    135  C26 NSY d   1      -4.159  -1.238  -0.066  0.00  0.00    -0.072 A 
ATOM    136  H28 NSY d   1      -3.923  -1.199   2.119  0.00  0.00     0.084 H 
ATOM    137  C28 NSY d   1      -4.768  -1.930  -1.249  0.00  0.00    -0.026 A 
ATOM    138  H30 NSY d   1      -3.558  -0.349  -0.220  0.00  0.00     0.084 H 
ATOM    139  C27 NSY d   1      -5.591  -3.189  -0.958  0.00  0.00    -0.072 A 
ATOM    140  C62 NSY d   1      -4.505  -1.422  -2.538  0.00  0.00    -0.026 A 
ATOM    141  C25 NSY d   1      -5.784  -3.699   0.452  0.00  0.00    -0.076 A 
ATOM    142  H31 NSY d   1      -6.045  -3.727  -1.782  0.00  0.00     0.084 H 
ATOM    143  H29 NSY d   1      -6.382  -4.585   0.631  0.00  0.00     0.084 H 
ATOM    144  C63 NSY d   1      -3.611  -0.166  -2.730  0.00  0.00    -0.072 A 
ATOM    145  C64 NSY d   1      -5.085  -2.048  -3.813  0.00  0.00    -0.072 A 
ATOM    146  C65 NSY d   1      -3.329   0.375  -4.114  0.00  0.00    -0.082 A 
ATOM    147  H74 NSY d   1      -3.185   0.327  -1.864  0.00  0.00     0.084 H 
ATOM    148  C67 NSY d   1      -3.928  -0.287  -5.267  0.00  0.00    -0.083 A 
ATOM    149  H76 NSY d   1      -2.691   1.242  -4.247  0.00  0.00     0.083 H 
ATOM    150  C66 NSY d   1      -4.797  -1.491  -5.129  0.00  0.00    -0.082 A 
ATOM    151  H78 NSY d   1      -3.735   0.109  -6.257  0.00  0.00     0.083 H 
ATOM    152  H77 NSY d   1      -5.218  -1.955  -6.014  0.00  0.00     0.083 H 
ATOM    153  H75 NSY d   1      -5.722  -2.922  -3.734  0.00  0.00     0.084 H 
ENDBRANCH 130 133
ENDBRANCH 127 130
ENDBRANCH 123 126
ENDBRANCH 120 123
ENDBRANCH 116 119
ENDBRANCH   1 116
TORSDOF 24
