REMARK  6 active torsions:
REMARK  status: ('A' for Active; 'I' for Inactive)
REMARK       I    between atoms: C28_10  and  N30_1 
REMARK    1  A    between atoms: C14_6  and  C20_16 
REMARK    2  A    between atoms: C24_17  and  C28_10 
REMARK    3  A    between atoms: C21_20  and  C17_14 
REMARK    4  A    between atoms: C18_15  and  O19_30 
REMARK    5  A    between atoms: C22_25  and  C21_20 
REMARK    6  A    between atoms: C3_24  and  O4_28 
ROOT
ATOM      1  C9  E2B d   1      10.918   8.782 -11.523  0.00  0.00    -0.042 C 
ATOM      2  C10 E2B d   1      10.945  10.220 -11.059  0.00  0.00    -0.024 C 
ATOM      3  C15 E2B d   1      11.670   7.929 -10.480  0.00  0.00    -0.040 C 
ATOM      4  C8  E2B d   1      11.379   8.636 -12.992  0.00  0.00    -0.057 C 
ATOM      5  C14 E2B d   1      11.257   8.094  -8.995  0.00  0.00    -0.014 C 
ATOM      6  C11 E2B d   1      10.227  11.083 -12.044  0.00  0.00    -0.047 A 
ATOM      7  C13 E2B d   1      11.375   9.569  -8.580  0.00  0.00    -0.055 C 
ATOM      8  C16 E2B d   1      11.562   6.427 -10.642  0.00  0.00    -0.055 C 
ATOM      9  C6  E2B d   1       9.928  10.621 -13.448  0.00  0.00    -0.049 A 
ATOM     10  C12 E2B d   1      10.537  10.432  -9.548  0.00  0.00    -0.057 C 
ATOM     11  C17 E2B d   1      12.304   5.916  -9.415  0.00  0.00    -0.024 C 
ATOM     12  C18 E2B d   1      12.251   7.098  -8.418  0.00  0.00     0.046 C 
ATOM     13  C1  E2B d   1       9.843  12.375 -11.652  0.00  0.00    -0.073 A 
ATOM     14  C7  E2B d   1      10.321   9.208 -13.949  0.00  0.00    -0.040 C 
ATOM     15  C3  E2B d   1       8.920  12.846 -13.866  0.00  0.00     0.066 A 
ATOM     16  C5  E2B d   1       9.270  11.544 -14.306  0.00  0.00    -0.044 A 
ATOM     17  C2  E2B d   1       9.224  13.246 -12.547  0.00  0.00    -0.051 A 
ATOM     18  H3  E2B d   1       9.870   8.449 -11.504  0.00  0.00     0.041 H 
ATOM     19  H4  E2B d   1      11.999  10.530 -11.108  0.00  0.00     0.048 H 
ATOM     20  H5  E2B d   1      12.728   8.215 -10.577  0.00  0.00     0.042 H 
ATOM     21  H6  E2B d   1      11.533   7.571 -13.219  0.00  0.00     0.034 H 
ATOM     22  H7  E2B d   1      12.324   9.181 -13.130  0.00  0.00     0.034 H 
ATOM     23  H8  E2B d   1      12.429   9.882  -8.625  0.00  0.00     0.034 H 
ATOM     24  H9  E2B d   1      10.999   9.695  -7.554  0.00  0.00     0.034 H 
ATOM     25  H10 E2B d   1      12.047   6.090 -11.570  0.00  0.00     0.034 H 
ATOM     26  H11 E2B d   1      10.512   6.100 -10.638  0.00  0.00     0.034 H 
ATOM     27  H13 E2B d   1       9.476  10.166  -9.429  0.00  0.00     0.034 H 
ATOM     28  H14 E2B d   1      10.681  11.492  -9.290  0.00  0.00     0.034 H 
ATOM     29  H15 E2B d   1      13.349   5.681  -9.665  0.00  0.00     0.044 H 
ATOM     30  H16 E2B d   1      13.241   7.576  -8.394  0.00  0.00     0.084 H 
ATOM     31  H20 E2B d   1      10.031  12.701 -10.636  0.00  0.00     0.084 H 
ATOM     32  H26 E2B d   1       9.435   8.556 -13.957  0.00  0.00     0.040 H 
ATOM     33  H27 E2B d   1      10.736   9.275 -14.966  0.00  0.00     0.040 H 
ATOM     34  H28 E2B d   1       9.030  11.246 -15.320  0.00  0.00     0.088 H 
ATOM     35  H29 E2B d   1       8.971  14.249 -12.224  0.00  0.00     0.087 H 
ENDROOT
BRANCH  11  36
ATOM     36  C21 E2B d   1      11.631   4.662  -8.884  0.00  0.00    -0.035 C 
ATOM     37  H22 E2B d   1      10.558   4.896  -8.949  0.00  0.00     0.040 H 
ATOM     38  H23 E2B d   1      11.936   4.631  -7.828  0.00  0.00     0.040 H 
BRANCH  36  39
ATOM     39  C22 E2B d   1      11.710   3.188  -9.329  0.00  0.00    -0.057 A 
ATOM     40  C23 E2B d   1      12.569   2.360  -8.565  0.00  0.00    -0.062 A 
ATOM     41  C24 E2B d   1      12.687   0.969  -8.742  0.00  0.00     0.032 A 
ATOM     42  H24 E2B d   1      13.173   2.827  -7.796  0.00  0.00     0.085 H 
ATOM     43  C25 E2B d   1      11.840   0.436  -9.771  0.00  0.00    -0.068 A 
ATOM     44  C26 E2B d   1      10.913   1.208 -10.532  0.00  0.00    -0.082 A 
ATOM     45  H12 E2B d   1      11.909  -0.625  -9.984  0.00  0.00     0.085 H 
ATOM     46  C27 E2B d   1      10.856   2.586 -10.278  0.00  0.00    -0.077 A 
ATOM     47  H21 E2B d   1      10.277   0.747 -11.279  0.00  0.00     0.083 H 
ATOM     48  H25 E2B d   1      10.144   3.199 -10.819  0.00  0.00     0.084 H 
BRANCH  41  49
ATOM     49  C28 E2B d   1      13.686   0.175  -7.830  0.00  0.00     0.249 C 
ATOM     50  N30 E2B d   1      14.517  -0.784  -8.290  0.00  0.00    -0.366 N 
ATOM     51  H1  E2B d   1      15.133  -1.257  -7.660  0.00  0.00     0.159 HD
ATOM     52  H2  E2B d   1      14.517  -1.022  -9.261  0.00  0.00     0.159 HD
ATOM     53  O29 E2B d   1      13.708   0.405  -6.596  0.00  0.00    -0.268 OA
ENDBRANCH  41  49
ENDBRANCH  36  39
ENDBRANCH  11  36
BRANCH  12  54
ATOM     54  O19 E2B d   1      11.955   6.689  -7.076  0.00  0.00    -0.394 OA
ATOM     55  H31 E2B d   1      12.625   6.087  -6.774  0.00  0.00     0.210 HD
ENDBRANCH  12  54
BRANCH   5  56
ATOM     56  C20 E2B d   1       9.797   7.570  -8.741  0.00  0.00    -0.066 C 
ATOM     57  H17 E2B d   1       9.073   8.286  -9.156  0.00  0.00     0.028 H 
ATOM     58  H18 E2B d   1       9.629   7.464  -7.659  0.00  0.00     0.028 H 
ATOM     59  H19 E2B d   1       9.668   6.593  -9.230  0.00  0.00     0.028 H 
ENDBRANCH   5  56
BRANCH  15  60
ATOM     60  O4  E2B d   1       8.271  13.747 -14.718  0.00  0.00    -0.361 OA
ATOM     61  H30 E2B d   1       8.135  13.338 -15.565  0.00  0.00     0.217 HD
ENDBRANCH  15  60
TORSDOF 6
