REMARK  2 active torsions:
REMARK  status: ('A' for Active; 'I' for Inactive)
REMARK    1  A    between atoms: C4_5  and  C1_8 
REMARK    2  A    between atoms: C2_10  and  C3_13 
ROOT
ATOM      1  C3  S45 d   1      -2.432  13.517  31.376  0.00  0.00     0.035 C 
ATOM      2  C11 S45 d   1      -3.521  13.957  30.378  0.00  0.00    -0.052 C 
ATOM      3  C13 S45 d   1      -3.055  14.031  28.911  0.00  0.00    -0.042 C 
ATOM      4  C12 S45 d   1      -1.823  14.934  28.767  0.00  0.00     0.082 C 
ATOM      5  N3  S45 d   1      -1.235  15.234  30.071  0.00  0.00    -0.074 N 
ATOM      6  C8  S45 d   1      -1.081  14.168  31.055  0.00  0.00     0.092 C 
ATOM      7  H5  S45 d   1      -2.729  13.843  32.384  0.00  0.00     0.055 H 
ATOM      8  H6  S45 d   1      -3.876  14.954  30.676  0.00  0.00     0.034 H 
ATOM      9  H7  S45 d   1      -4.352  13.239  30.438  0.00  0.00     0.034 H 
ATOM     10  H8  S45 d   1      -3.871  14.436  28.295  0.00  0.00     0.035 H 
ATOM     11  H9  S45 d   1      -2.801  13.019  28.563  0.00  0.00     0.035 H 
ATOM     12  H10 S45 d   1      -2.122  15.875  28.283  0.00  0.00     0.075 H 
ATOM     13  H11 S45 d   1      -1.074  14.423  28.144  0.00  0.00     0.075 H 
ATOM     14  H12 S45 d   1      -1.812  15.943  30.496  0.00  0.00     0.277 HD
ATOM     15  H13 S45 d   1      -0.315  15.608  29.898  0.00  0.00     0.277 HD
ATOM     16  H14 S45 d   1      -0.400  13.403  30.653  0.00  0.00     0.076 H 
ATOM     17  H15 S45 d   1      -0.656  14.589  31.978  0.00  0.00     0.076 H 
ENDROOT
BRANCH   1  18
ATOM     18  C2  S45 d   1      -2.361  12.030  31.367  0.00  0.00     0.178 A 
ATOM     19  N1  S45 d   1      -3.152  11.090  30.826  0.00  0.00    -0.203 NA
ATOM     20  C1  S45 d   1      -2.660   9.847  31.104  0.00  0.00     0.189 A 
ATOM     21  N2  S45 d   1      -1.522   9.969  31.851  0.00  0.00    -0.106 NA
ATOM     22  O1  S45 d   1      -1.342  11.391  32.009  0.00  0.00    -0.195 OA
BRANCH  20  23
ATOM     23  C4  S45 d   1      -3.332   8.596  30.621  0.00  0.00     0.014 A 
ATOM     24  C6  S45 d   1      -4.697   8.424  30.842  0.00  0.00    -0.068 A 
ATOM     25  C10 S45 d   1      -5.358   7.279  30.388  0.00  0.00    -0.061 A 
ATOM     26  H2  S45 d   1      -5.253   9.188  31.373  0.00  0.00     0.085 H 
ATOM     27  C7  S45 d   1      -4.650   6.283  29.706  0.00  0.00     0.034 A 
ATOM     28  H1  S45 d   1      -6.421   7.162  30.565  0.00  0.00     0.086 H 
ATOM     29 CL1  S45 d   1      -5.498   4.817  29.104  0.00  0.00    -0.084 Cl
ATOM     30  C9  S45 d   1      -3.278   6.457  29.492  0.00  0.00    -0.061 A 
ATOM     31  C5  S45 d   1      -2.621   7.611  29.940  0.00  0.00    -0.068 A 
ATOM     32  H4  S45 d   1      -2.716   5.689  28.973  0.00  0.00     0.086 H 
ATOM     33  H3  S45 d   1      -1.560   7.737  29.757  0.00  0.00     0.085 H 
ENDBRANCH  20  23
ENDBRANCH   1  18
TORSDOF 2
