REMARK  6 active torsions:
REMARK  status: ('A' for Active; 'I' for Inactive)
REMARK    1  A    between atoms: C4_1  and  O5_17 
REMARK    2  A    between atoms: C10_5  and  C6_2 
REMARK       I    between atoms: N12_6  and  C10_5 
REMARK    3  A    between atoms: C17_9  and  C16_21 
REMARK    4  A    between atoms: C20_10  and  C21_11 
REMARK    5  A    between atoms: C21_11  and  N22_24 
REMARK    6  A    between atoms: C2_15  and  O1_14 
ROOT
ATOM      1  C17 BD0 d   1      15.741  -2.455  52.805  0.00  0.00    -0.035 A 
ATOM      2  C20 BD0 d   1      13.321  -2.078  54.304  0.00  0.00    -0.033 A 
ATOM      3  C18 BD0 d   1      14.687  -3.428  52.760  0.00  0.00    -0.074 A 
ATOM      4  C19 BD0 d   1      13.497  -3.242  53.499  0.00  0.00    -0.075 A 
ATOM      5  C29 BD0 d   1      14.354  -1.098  54.350  0.00  0.00    -0.075 A 
ATOM      6  C30 BD0 d   1      15.552  -1.281  53.610  0.00  0.00    -0.074 A 
ATOM      7  H18 BD0 d   1      14.805  -4.317  52.151  0.00  0.00     0.084 H 
ATOM      8  H19 BD0 d   1      12.713  -3.989  53.454  0.00  0.00     0.084 H 
ATOM      9  H23 BD0 d   1      14.225  -0.207  54.954  0.00  0.00     0.084 H 
ATOM     10  H24 BD0 d   1      16.331  -0.528  53.653  0.00  0.00     0.084 H 
ENDROOT
BRANCH   1  11
ATOM     11  C16 BD0 d   1      17.073  -2.625  52.054  0.00  0.00     0.040 C 
ATOM     12  N12 BD0 d   1      17.031  -3.332  50.739  0.00  0.00    -0.339 N 
ATOM     13  C10 BD0 d   1      16.714  -2.839  49.451  0.00  0.00     0.257 C 
ATOM     14  C13 BD0 d   1      17.624  -4.665  50.818  0.00  0.00    -0.001 C 
ATOM     15  O11 BD0 d   1      16.911  -3.459  48.408  0.00  0.00    -0.267 OA
ATOM     16  C14 BD0 d   1      17.845  -4.966  52.286  0.00  0.00    -0.048 C 
ATOM     17  H2  BD0 d   1      18.583  -4.684  50.280  0.00  0.00     0.064 H 
ATOM     18  H3  BD0 d   1      16.942  -5.408  50.379  0.00  0.00     0.064 H 
ATOM     19  C15 BD0 d   1      17.880  -3.597  52.956  0.00  0.00    -0.041 C 
ATOM     20  H15 BD0 d   1      18.797  -5.496  52.435  0.00  0.00     0.035 H 
ATOM     21  H16 BD0 d   1      17.020  -5.574  52.687  0.00  0.00     0.035 H 
ATOM     22  H4  BD0 d   1      18.919  -3.249  53.050  0.00  0.00     0.036 H 
ATOM     23  H5  BD0 d   1      17.421  -3.654  53.954  0.00  0.00     0.036 H 
ATOM     24  H17 BD0 d   1      17.563  -1.647  51.938  0.00  0.00     0.080 H 
BRANCH  13  25
ATOM     25  C6  BD0 d   1      16.142  -1.476  49.316  0.00  0.00     0.067 A 
ATOM     26  C4  BD0 d   1      16.969  -0.410  48.848  0.00  0.00     0.084 A 
ATOM     27  C3  BD0 d   1      16.425   0.898  48.730  0.00  0.00    -0.016 A 
ATOM     28  C2  BD0 d   1      15.062   1.123  49.081  0.00  0.00     0.090 A 
ATOM     29  H13 BD0 d   1      17.041   1.717  48.376  0.00  0.00     0.092 H 
ATOM     30  C8  BD0 d   1      14.241   0.059  49.540  0.00  0.00     0.068 A 
ATOM     31  C7  BD0 d   1      14.778  -1.244  49.658  0.00  0.00    -0.041 A 
ATOM     32 CL9  BD0 d   1      12.595   0.311  49.967  0.00  0.00    -0.081 Cl
ATOM     33  H1  BD0 d   1      14.156  -2.061  50.006  0.00  0.00     0.087 H 
BRANCH  26  34
ATOM     34  O5  BD0 d   1      18.287  -0.646  48.516  0.00  0.00    -0.360 OA
ATOM     35  H14 BD0 d   1      18.428  -0.421  47.604  0.00  0.00     0.217 HD
ENDBRANCH  26  34
BRANCH  28  36
ATOM     36  O1  BD0 d   1      14.587   2.395  48.958  0.00  0.00    -0.359 OA
ATOM     37  H12 BD0 d   1      15.280   2.961  48.639  0.00  0.00     0.217 HD
ENDBRANCH  28  36
ENDBRANCH  13  25
ENDBRANCH   1  11
BRANCH   2  38
ATOM     38  C21 BD0 d   1      12.060  -1.904  55.118  0.00  0.00     0.107 C 
ATOM     39  H6  BD0 d   1      12.348  -1.431  56.069  0.00  0.00     0.083 H 
ATOM     40  H7  BD0 d   1      11.657  -2.908  55.315  0.00  0.00     0.083 H 
BRANCH  38  41
ATOM     41  N22 BD0 d   1      10.975  -1.105  54.546  0.00  0.00    -0.061 N 
ATOM     42  C28 BD0 d   1       9.871  -1.044  55.491  0.00  0.00     0.143 C 
ATOM     43  C25 BD0 d   1       8.732  -0.569  54.653  0.00  0.00     0.269 C 
ATOM     44  H10 BD0 d   1      10.086  -0.334  56.303  0.00  0.00     0.085 H 
ATOM     45  H11 BD0 d   1       9.661  -2.036  55.917  0.00  0.00     0.085 H 
ATOM     46  C24 BD0 d   1       9.044  -0.936  53.216  0.00  0.00     0.020 C 
ATOM     47  F26 BD0 d   1       7.569  -1.117  55.070  0.00  0.00    -0.204 F 
ATOM     48  F27 BD0 d   1       8.617   0.766  54.772  0.00  0.00    -0.204 F 
ATOM     49  C23 BD0 d   1      10.399  -1.616  53.288  0.00  0.00     0.089 C 
ATOM     50  H8  BD0 d   1       8.284  -1.623  52.816  0.00  0.00     0.044 H 
ATOM     51  H9  BD0 d   1       9.093  -0.036  52.586  0.00  0.00     0.044 H 
ATOM     52  H21 BD0 d   1      11.025  -1.337  52.427  0.00  0.00     0.076 H 
ATOM     53  H22 BD0 d   1      10.289  -2.710  53.322  0.00  0.00     0.076 H 
ATOM     54  H20 BD0 d   1      11.332  -0.177  54.379  0.00  0.00     0.280 HD
ENDBRANCH  38  41
ENDBRANCH   2  38
TORSDOF 6
