REMARK  11 active torsions:
REMARK  status: ('A' for Active; 'I' for Inactive)
REMARK    1  A    between atoms: C36_2  and  C34_4 
REMARK    2  A    between atoms: C34_4  and  N35_5 
REMARK    3  A    between atoms: C34_4  and  C33_6 
REMARK    4  A    between atoms: C33_6  and  C30_7 
REMARK    5  A    between atoms: C27_12  and  C22_13 
REMARK    6  A    between atoms: C24_16  and  N26_17 
REMARK    7  A    between atoms: C20_19  and  O16_20 
REMARK    8  A    between atoms: O16_20  and  C14_21 
REMARK    9  A    between atoms: C14_21  and  C15_22 
REMARK   10  A    between atoms: C14_21  and  C11_26 
REMARK   11  A    between atoms: C8_31  and  C3_32 
ROOT
ATOM      1  C22 ML0 d   1       8.921   1.826  19.294  0.00  0.00     0.090 A 
ATOM      2  C21 ML0 d   1       8.321   1.734  20.550  0.00  0.00    -0.002 A 
ATOM      3  N23 ML0 d   1       8.459   1.046  18.282  0.00  0.00    -0.062 NA
ATOM      4  C24 ML0 d   1       7.446   0.167  18.482  0.00  0.00     0.723 A 
ATOM      5  N25 ML0 d   1       6.863   0.057  19.697  0.00  0.00    -0.039 NA
ATOM      6  C20 ML0 d   1       7.281   0.825  20.734  0.00  0.00     0.186 A 
ATOM      7  H11 ML0 d   1       8.658   2.359  21.369  0.00  0.00     0.093 H 
ENDROOT
BRANCH   6   8
ATOM      8  O16 ML0 d   1       6.691   0.718  21.970  0.00  0.00    -0.315 OA
BRANCH   8   9
ATOM      9  C14 ML0 d   1       5.792  -0.354  22.259  0.00  0.00     0.165 C 
ATOM     10  H14 ML0 d   1       5.933  -1.146  21.509  0.00  0.00     0.106 H 
BRANCH   9  11
ATOM     11  C15 ML0 d   1       6.129  -0.911  23.635  0.00  0.00     0.418 C 
ATOM     12  F19 ML0 d   1       7.421  -1.156  23.717  0.00  0.00    -0.168 F 
ATOM     13  F18 ML0 d   1       5.813  -0.030  24.564  0.00  0.00    -0.168 F 
ATOM     14  F17 ML0 d   1       5.454  -2.031  23.806  0.00  0.00    -0.168 F 
ENDBRANCH   9  11
BRANCH   9  15
ATOM     15  C11 ML0 d   1       4.375   0.096  22.205  0.00  0.00    -0.020 A 
ATOM     16  C10 ML0 d   1       4.026   1.427  22.446  0.00  0.00    -0.073 A 
ATOM     17  C9  ML0 d   1       2.688   1.823  22.394  0.00  0.00    -0.072 A 
ATOM     18  H15 ML0 d   1       4.796   2.155  22.674  0.00  0.00     0.084 H 
ATOM     19  C8  ML0 d   1       1.689   0.892  22.098  0.00  0.00    -0.026 A 
ATOM     20  H16 ML0 d   1       2.423   2.857  22.584  0.00  0.00     0.084 H 
ATOM     21  C13 ML0 d   1       2.043  -0.438  21.862  0.00  0.00    -0.072 A 
ATOM     22  C12 ML0 d   1       3.377  -0.834  21.913  0.00  0.00    -0.073 A 
ATOM     23  H18 ML0 d   1       1.274  -1.168  21.637  0.00  0.00     0.084 H 
ATOM     24  H17 ML0 d   1       3.641  -1.869  21.725  0.00  0.00     0.084 H 
BRANCH  19  25
ATOM     25  C3  ML0 d   1       0.252   1.299  22.037  0.00  0.00    -0.023 A 
ATOM     26  C2  ML0 d   1      -0.108   2.562  21.565  0.00  0.00    -0.072 A 
ATOM     27  C1  ML0 d   1      -1.448   2.944  21.505  0.00  0.00    -0.079 A 
ATOM     28  H19 ML0 d   1       0.662   3.253  21.242  0.00  0.00     0.084 H 
ATOM     29  C6  ML0 d   1      -2.442   2.062  21.923  0.00  0.00    -0.046 A 
ATOM     30  H22 ML0 d   1      -1.716   3.926  21.133  0.00  0.00     0.083 H 
ATOM     31  C5  ML0 d   1      -2.094   0.797  22.398  0.00  0.00     0.117 A 
ATOM     32  H21 ML0 d   1      -3.484   2.358  21.879  0.00  0.00     0.088 H 
ATOM     33  C4  ML0 d   1      -0.750   0.417  22.456  0.00  0.00    -0.035 A 
ATOM     34  F7  ML0 d   1      -3.053  -0.059  22.799  0.00  0.00    -0.206 F 
ATOM     35  H20 ML0 d   1      -0.483  -0.566  22.827  0.00  0.00     0.089 H 
ENDBRANCH  19  25
ENDBRANCH   9  15
ENDBRANCH   8   9
ENDBRANCH   6   8
BRANCH   1  36
ATOM     36  C27 ML0 d   1      10.019   2.806  19.048  0.00  0.00    -0.007 A 
ATOM     37  C28 ML0 d   1      10.094   3.947  19.843  0.00  0.00    -0.070 A 
ATOM     38  C29 ML0 d   1      11.090   4.895  19.628  0.00  0.00    -0.076 A 
ATOM     39  H8  ML0 d   1       9.370   4.098  20.636  0.00  0.00     0.084 H 
ATOM     40  C30 ML0 d   1      12.018   4.702  18.607  0.00  0.00    -0.056 A 
ATOM     41  H7  ML0 d   1      11.143   5.780  20.252  0.00  0.00     0.084 H 
ATOM     42  C31 ML0 d   1      11.945   3.567  17.797  0.00  0.00    -0.076 A 
ATOM     43  C32 ML0 d   1      10.946   2.619  18.018  0.00  0.00    -0.070 A 
ATOM     44  H9  ML0 d   1      12.663   3.423  16.998  0.00  0.00     0.084 H 
ATOM     45  H10 ML0 d   1      10.888   1.737  17.391  0.00  0.00     0.084 H 
BRANCH  40  46
ATOM     46  C33 ML0 d   1      13.077   5.758  18.392  0.00  0.00    -0.005 C 
ATOM     47  H5  ML0 d   1      13.041   6.079  17.340  0.00  0.00     0.044 H 
ATOM     48  H6  ML0 d   1      12.852   6.615  19.044  0.00  0.00     0.044 H 
BRANCH  46  49
ATOM     49  C34 ML0 d   1      14.486   5.275  18.700  0.00  0.00     0.186 C 
ATOM     50  H1  ML0 d   1      14.711   4.367  18.121  0.00  0.00     0.101 H 
BRANCH  49  51
ATOM     51  C36 ML0 d   1      15.402   6.388  18.274  0.00  0.00     0.204 C 
ATOM     52  O38 ML0 d   1      15.971   7.086  19.149  0.00  0.00    -0.646 OA
ATOM     53  O37 ML0 d   1      15.542   6.598  17.040  0.00  0.00    -0.646 OA
ENDBRANCH  49  51
BRANCH  49  54
ATOM     54  N35 ML0 d   1      14.609   4.972  20.119  0.00  0.00    -0.065 N 
ATOM     55  H2  ML0 d   1      13.979   4.223  20.358  0.00  0.00     0.275 HD
ATOM     56  H3  ML0 d   1      14.377   5.791  20.659  0.00  0.00     0.275 HD
ATOM     57  H4  ML0 d   1      15.556   4.692  20.322  0.00  0.00     0.275 HD
ENDBRANCH  49  54
ENDBRANCH  46  49
ENDBRANCH  40  46
ENDBRANCH   1  36
BRANCH   4  58
ATOM     58  N26 ML0 d   1       7.008  -0.608  17.465  0.00  0.00    -0.231 N 
ATOM     59  H12 ML0 d   1       7.445  -0.533  16.535  0.00  0.00     0.174 HD
ATOM     60  H13 ML0 d   1       6.238  -1.274  17.620  0.00  0.00     0.174 HD
ENDBRANCH   4  58
TORSDOF 11
