REMARK  10 active torsions:
REMARK  status: ('A' for Active; 'I' for Inactive)
REMARK    1  A    between atoms: C2_2  and  C4_4 
REMARK    2  A    between atoms: C4_4  and  N5_5 
REMARK    3  A    between atoms: C4_4  and  C6_6 
REMARK    4  A    between atoms: C6_6  and  C7_7 
REMARK    5  A    between atoms: C10_10  and  C13_13 
REMARK    6  A    between atoms: C16_16  and  N19_19 
REMARK    7  A    between atoms: N19_19  and  C20_20 
REMARK    8  A    between atoms: C20_20  and  C21_21 
REMARK    9  A    between atoms: C26_22  and  C27_27 
REMARK   10  A    between atoms: C28_32  and  C33_33 
ROOT
ATOM      1  C13 ML4 d   1       9.041   0.713  19.626  0.00  0.00     0.084 A 
ATOM      2  N18 ML4 d   1       8.831  -0.313  18.763  0.00  0.00    -0.255 NA
ATOM      3  C17 ML4 d   1       7.910  -1.253  19.005  0.00  0.00     0.047 A 
ATOM      4  C16 ML4 d   1       7.154  -1.184  20.167  0.00  0.00     0.141 A 
ATOM      5  N15 ML4 d   1       7.364  -0.165  21.031  0.00  0.00    -0.240 NA
ATOM      6  C14 ML4 d   1       8.284   0.778  20.789  0.00  0.00     0.033 A 
ATOM      7  H11 ML4 d   1       7.756  -2.062  18.300  0.00  0.00     0.120 H 
ATOM      8  H12 ML4 d   1       8.437   1.586  21.495  0.00  0.00     0.118 H 
ENDROOT
BRANCH   4   9
ATOM      9  N19 ML4 d   1       6.221  -2.126  20.442  0.00  0.00    -0.369 N 
ATOM     10  H13 ML4 d   1       5.762  -2.635  19.673  0.00  0.00     0.161 HD
BRANCH   9  11
ATOM     11  C20 ML4 d   1       5.865  -2.420  21.826  0.00  0.00     0.019 C 
ATOM     12  H14 ML4 d   1       5.194  -1.632  22.199  0.00  0.00     0.071 H 
ATOM     13  H15 ML4 d   1       6.780  -2.441  22.435  0.00  0.00     0.071 H 
BRANCH  11  14
ATOM     14  C21 ML4 d   1       5.165  -3.761  21.939  0.00  0.00    -0.029 A 
ATOM     15  C26 ML4 d   1       3.738  -3.855  22.381  0.00  0.00    -0.018 A 
ATOM     16  C25 ML4 d   1       3.137  -5.111  22.474  0.00  0.00    -0.072 A 
ATOM     17  C24 ML4 d   1       3.869  -6.255  22.160  0.00  0.00    -0.082 A 
ATOM     18  H16 ML4 d   1       2.103  -5.197  22.790  0.00  0.00     0.084 H 
ATOM     19  C23 ML4 d   1       5.199  -6.171  21.743  0.00  0.00    -0.082 A 
ATOM     20  H17 ML4 d   1       3.397  -7.228  22.241  0.00  0.00     0.083 H 
ATOM     21  C22 ML4 d   1       5.845  -4.940  21.636  0.00  0.00    -0.074 A 
ATOM     22  H18 ML4 d   1       5.739  -7.079  21.498  0.00  0.00     0.083 H 
ATOM     23  H19 ML4 d   1       6.880  -4.899  21.316  0.00  0.00     0.084 H 
BRANCH  15  24
ATOM     24  C27 ML4 d   1       2.957  -2.634  22.724  0.00  0.00    -0.019 A 
ATOM     25  C32 ML4 d   1       2.309  -1.923  21.717  0.00  0.00    -0.072 A 
ATOM     26  C31 ML4 d   1       1.576  -0.778  22.030  0.00  0.00    -0.082 A 
ATOM     27  H20 ML4 d   1       2.374  -2.260  20.689  0.00  0.00     0.084 H 
ATOM     28  C30 ML4 d   1       1.479  -0.329  23.347  0.00  0.00    -0.082 A 
ATOM     29  H21 ML4 d   1       1.075  -0.230  21.240  0.00  0.00     0.083 H 
ATOM     30  C29 ML4 d   1       2.111  -1.007  24.392  0.00  0.00    -0.076 A 
ATOM     31  H22 ML4 d   1       0.902   0.563  23.564  0.00  0.00     0.083 H 
ATOM     32  C28 ML4 d   1       2.856  -2.156  24.135  0.00  0.00    -0.051 A 
ATOM     33  H23 ML4 d   1       2.022  -0.638  25.407  0.00  0.00     0.084 H 
BRANCH  32  34
ATOM     34  C33 ML4 d   1       3.538  -2.886  25.273  0.00  0.00    -0.050 C 
ATOM     35  H24 ML4 d   1       4.074  -3.762  24.878  0.00  0.00     0.033 H 
ATOM     36  H25 ML4 d   1       2.783  -3.216  26.002  0.00  0.00     0.033 H 
ATOM     37  H26 ML4 d   1       4.253  -2.211  25.766  0.00  0.00     0.033 H 
ENDBRANCH  32  34
ENDBRANCH  15  24
ENDBRANCH  11  14
ENDBRANCH   9  11
ENDBRANCH   4   9
BRANCH   1  38
ATOM     38  C10 ML4 d   1      10.071   1.751  19.347  0.00  0.00    -0.006 A 
ATOM     39  C11 ML4 d   1      10.871   1.660  18.203  0.00  0.00    -0.070 A 
ATOM     40  C12 ML4 d   1      11.842   2.629  17.943  0.00  0.00    -0.076 A 
ATOM     41  H8  ML4 d   1      10.736   0.833  17.515  0.00  0.00     0.084 H 
ATOM     42  C7  ML4 d   1      12.022   3.687  18.830  0.00  0.00    -0.056 A 
ATOM     43  H7  ML4 d   1      12.455   2.558  17.052  0.00  0.00     0.084 H 
ATOM     44  C8  ML4 d   1      11.233   3.770  19.981  0.00  0.00    -0.076 A 
ATOM     45  C9  ML4 d   1      10.262   2.806  20.239  0.00  0.00    -0.070 A 
ATOM     46  H10 ML4 d   1      11.378   4.589  20.676  0.00  0.00     0.084 H 
ATOM     47  H9  ML4 d   1       9.654   2.876  21.134  0.00  0.00     0.084 H 
BRANCH  42  48
ATOM     48  C6  ML4 d   1      13.067   4.747  18.561  0.00  0.00    -0.005 C 
ATOM     49  H5  ML4 d   1      12.998   5.051  17.506  0.00  0.00     0.044 H 
ATOM     50  H6  ML4 d   1      12.864   5.614  19.206  0.00  0.00     0.044 H 
BRANCH  48  51
ATOM     51  C4  ML4 d   1      14.483   4.254  18.836  0.00  0.00     0.186 C 
ATOM     52  H1  ML4 d   1      14.655   3.322  18.277  0.00  0.00     0.101 H 
BRANCH  51  53
ATOM     53  C2  ML4 d   1      15.459   5.298  18.371  0.00  0.00     0.204 C 
ATOM     54  O3  ML4 d   1      16.063   5.986  19.223  0.00  0.00    -0.646 OA
ATOM     55  O1  ML4 d   1      15.640   5.449  17.148  0.00  0.00    -0.646 OA
ENDBRANCH  51  53
BRANCH  51  56
ATOM     56  N5  ML4 d   1      14.673   3.993  20.256  0.00  0.00    -0.065 N 
ATOM     57  H2  ML4 d   1      14.015   3.292  20.560  0.00  0.00     0.275 HD
ATOM     58  H3  ML4 d   1      14.523   4.843  20.777  0.00  0.00     0.275 HD
ATOM     59  H4  ML4 d   1      15.612   3.663  20.414  0.00  0.00     0.275 HD
ENDBRANCH  51  56
ENDBRANCH  48  51
ENDBRANCH  42  48
ENDBRANCH   1  38
TORSDOF 10
