REMARK  8 active torsions:
REMARK  status: ('A' for Active; 'I' for Inactive)
REMARK    1  A    between atoms: C1_1  and  N1_10 
REMARK    2  A    between atoms: C4_4  and  C7_7 
REMARK    3  A    between atoms: C7_7  and  NA_8 
REMARK    4  A    between atoms: N1_10  and  N_11 
REMARK    5  A    between atoms: N_11  and  N1'_12 
REMARK    6  A    between atoms: N1'_12  and  C1'_13 
REMARK    7  A    between atoms: C4'_16  and  C7'_19 
REMARK    8  A    between atoms: C7'_19  and  NA'_20 
ROOT
ATOM      1  N   BRN d   1     -28.809 -12.520  75.571  0.00  0.00    -0.068 NA
ENDROOT
BRANCH   1   2
ATOM      2  N1  BRN d   1     -28.499 -12.258  76.839  0.00  0.00    -0.133 NA
BRANCH   2   3
ATOM      3  C1  BRN d   1     -29.145 -11.328  77.584  0.00  0.00     0.080 A 
ATOM      4  C2  BRN d   1     -30.117 -10.488  77.035  0.00  0.00    -0.052 A 
ATOM      5  C3  BRN d   1     -30.717  -9.507  77.821  0.00  0.00    -0.067 A 
ATOM      6  H1  BRN d   1     -30.405 -10.600  75.996  0.00  0.00     0.087 H 
ATOM      7  C4  BRN d   1     -30.440  -9.427  79.183  0.00  0.00     0.007 A 
ATOM      8  H2  BRN d   1     -31.404  -8.801  77.369  0.00  0.00     0.085 H 
ATOM      9  C5  BRN d   1     -29.472 -10.265  79.743  0.00  0.00    -0.067 A 
ATOM     10  C6  BRN d   1     -28.827 -11.207  78.941  0.00  0.00    -0.052 A 
ATOM     11  H3  BRN d   1     -29.224 -10.184  80.795  0.00  0.00     0.085 H 
ATOM     12  H4  BRN d   1     -28.071 -11.852  79.374  0.00  0.00     0.087 H 
BRANCH   7  13
ATOM     13  C7  BRN d   1     -31.153  -8.408  80.018  0.00  0.00     0.102 C 
ATOM     14  NB  BRN d   1     -30.547  -7.804  81.028  0.00  0.00    -0.385 N 
ATOM     15  H7  BRN d   1     -29.596  -8.088  81.302  0.00  0.00     0.157 HD
ATOM     16  H8  BRN d   1     -31.027  -7.050  81.540  0.00  0.00     0.157 HD
BRANCH  13  17
ATOM     17  NA  BRN d   1     -32.313  -8.037  79.711  0.00  0.00    -0.385 N 
ATOM     18  H5  BRN d   1     -32.799  -7.336  80.288  0.00  0.00     0.157 HD
ATOM     19  H6  BRN d   1     -32.778  -8.434  78.882  0.00  0.00     0.157 HD
ENDBRANCH  13  17
ENDBRANCH   7  13
ENDBRANCH   2   3
ENDBRANCH   1   2
BRANCH   1  20
ATOM     20  N1' BRN d   1     -28.161 -13.386  74.930  0.00  0.00    -0.260 N 
ATOM     21  H9  BRN d   1     -27.394 -13.895  75.392  0.00  0.00     0.191 HD
BRANCH  20  22
ATOM     22  C1' BRN d   1     -28.473 -13.665  73.590  0.00  0.00     0.051 A 
ATOM     23  C2' BRN d   1     -29.816 -13.694  73.248  0.00  0.00    -0.055 A 
ATOM     24  C3' BRN d   1     -30.205 -13.980  71.955  0.00  0.00    -0.067 A 
ATOM     25  H10 BRN d   1     -30.567 -13.490  74.002  0.00  0.00     0.087 H 
ATOM     26  C4' BRN d   1     -29.272 -14.233  70.961  0.00  0.00     0.007 A 
ATOM     27  H11 BRN d   1     -31.261 -14.007  71.712  0.00  0.00     0.085 H 
ATOM     28  C5' BRN d   1     -27.918 -14.209  71.287  0.00  0.00    -0.067 A 
ATOM     29  C6' BRN d   1     -27.523 -13.935  72.605  0.00  0.00    -0.055 A 
ATOM     30  H12 BRN d   1     -27.172 -14.401  70.525  0.00  0.00     0.085 H 
ATOM     31  H13 BRN d   1     -26.470 -13.933  72.860  0.00  0.00     0.087 H 
BRANCH  26  32
ATOM     32  C7' BRN d   1     -29.805 -14.544  69.594  0.00  0.00     0.102 C 
ATOM     33  NB' BRN d   1     -29.125 -14.253  68.486  0.00  0.00    -0.385 N 
ATOM     34  H16 BRN d   1     -28.235 -13.737  68.548  0.00  0.00     0.157 HD
ATOM     35  H17 BRN d   1     -29.489 -14.544  67.567  0.00  0.00     0.157 HD
BRANCH  32  36
ATOM     36  NA' BRN d   1     -30.902 -15.179  69.527  0.00  0.00    -0.385 N 
ATOM     37  H14 BRN d   1     -31.306 -15.414  68.609  0.00  0.00     0.157 HD
ATOM     38  H15 BRN d   1     -31.389 -15.459  70.391  0.00  0.00     0.157 HD
ENDBRANCH  32  36
ENDBRANCH  26  32
ENDBRANCH  20  22
ENDBRANCH   1  20
TORSDOF 8
