REMARK  8 active torsions:
REMARK  status: ('A' for Active; 'I' for Inactive)
REMARK    1  A    between atoms: C2_2  and  C1_1 
REMARK    2  A    between atoms: C3_3  and  C2_2 
REMARK    3  A    between atoms: CS1_22  and  C3_3 
REMARK    4  A    between atoms: N8_7  and  C9_8 
REMARK       I    between atoms: N8_7  and  CS1_22 
REMARK    5  A    between atoms: C10_9  and  C14_13 
REMARK    6  A    between atoms: C12_11  and  C18_17 
REMARK    7  A    between atoms: C14_13  and  O15_14 
REMARK    8  A    between atoms: O15_14  and  C16_15 
ROOT
ATOM      1  C9  B64 d   1      12.956  19.352  -7.487  0.00  0.00     0.059 A 
ATOM      2  C10 B64 d   1      13.935  18.742  -8.387  0.00  0.00     0.107 A 
ATOM      3  S11 B64 d   1      13.961  19.659  -9.882  0.00  0.00    -0.081 SA
ATOM      4  C12 B64 d   1      12.622  20.675  -9.311  0.00  0.00     0.025 A 
ATOM      5  C13 B64 d   1      12.185  20.413  -8.003  0.00  0.00    -0.038 A 
ATOM      6  H6  B64 d   1      11.389  20.938  -7.478  0.00  0.00     0.089 H 
ENDROOT
BRANCH   1   7
ATOM      7  N8  B64 d   1      12.807  18.719  -6.289  0.00  0.00    -0.326 N 
ATOM      8  CS1 B64 d   1      12.034  19.187  -5.251  0.00  0.00     0.222 C 
ATOM      9  O7  B64 d   1      11.312  20.201  -5.340  0.00  0.00    -0.273 OA
ATOM     10  H5  B64 d   1      13.293  17.855  -6.155  0.00  0.00     0.169 HD
BRANCH   8  11
ATOM     11  C3  B64 d   1      11.965  18.115  -4.093  0.00  0.00     0.018 C 
ATOM     12  H3  B64 d   1      11.250  17.337  -4.399  0.00  0.00     0.048 H 
ATOM     13  H4  B64 d   1      12.966  17.672  -3.987  0.00  0.00     0.048 H 
BRANCH  11  14
ATOM     14  C2  B64 d   1      11.538  18.623  -2.728  0.00  0.00     0.024 C 
ATOM     15  H1  B64 d   1      11.355  17.756  -2.076  0.00  0.00     0.049 H 
ATOM     16  H2  B64 d   1      12.356  19.229  -2.311  0.00  0.00     0.049 H 
BRANCH  14  17
ATOM     17  C1  B64 d   1      10.287  19.468  -2.760  0.00  0.00     0.172 C 
ATOM     18  O1  B64 d   1      10.395  20.569  -2.200  0.00  0.00    -0.648 OA
ATOM     19  O2  B64 d   1       9.225  19.074  -3.322  0.00  0.00    -0.648 OA
ENDBRANCH  14  17
ENDBRANCH  11  14
ENDBRANCH   8  11
ENDBRANCH   1   7
BRANCH   2  20
ATOM     20  C14 B64 d   1      14.862  17.637  -8.127  0.00  0.00     0.302 C 
ATOM     21  O17 B64 d   1      14.924  17.103  -7.020  0.00  0.00    -0.259 OA
BRANCH  20  22
ATOM     22  O15 B64 d   1      15.754  17.244  -9.179  0.00  0.00    -0.322 OA
BRANCH  22  23
ATOM     23  C16 B64 d   1      16.657  16.179  -8.882  0.00  0.00     0.013 C 
ATOM     24  H7  B64 d   1      17.283  15.973  -9.763  0.00  0.00     0.067 H 
ATOM     25  H8  B64 d   1      16.086  15.277  -8.619  0.00  0.00     0.067 H 
ATOM     26  H9  B64 d   1      17.298  16.467  -8.036  0.00  0.00     0.067 H 
ENDBRANCH  22  23
ENDBRANCH  20  22
ENDBRANCH   2  20
BRANCH   4  27
ATOM     27  C18 B64 d   1      12.109  21.739 -10.214  0.00  0.00     0.022 A 
ATOM     28  C19 B64 d   1      11.158  22.711  -9.901  0.00  0.00    -0.065 A 
ATOM     29  C20 B64 d   1      10.947  23.553 -11.024  0.00  0.00    -0.075 A 
ATOM     30  H10 B64 d   1      10.654  22.809  -8.941  0.00  0.00     0.085 H 
ATOM     31  C21 B64 d   1      11.701  23.296 -12.191  0.00  0.00    -0.044 A 
ATOM     32  H11 B64 d   1      10.228  24.370 -10.987  0.00  0.00     0.084 H 
ATOM     33  S22 B64 d   1      12.666  21.829 -11.887  0.00  0.00    -0.101 SA
ATOM     34  H12 B64 d   1      11.694  23.885 -13.107  0.00  0.00     0.095 H 
ENDBRANCH   4  27
TORSDOF 8
