REMARK  27 active torsions:
REMARK  status: ('A' for Active; 'I' for Inactive)
REMARK    1  A    between atoms: C2_1  and  O2_36 
REMARK    2  A    between atoms: C3_2  and  O3_33 
REMARK    3  A    between atoms: C7_4  and  O4_3 
REMARK    4  A    between atoms: O4_3  and  C4_32 
REMARK    5  A    between atoms: O8_18  and  C8_5 
REMARK    6  A    between atoms: C9_6  and  O9_19 
REMARK    7  A    between atoms: C10_7  and  O10_23 
REMARK    8  A    between atoms: C11_8  and  C12_9 
REMARK    9  A    between atoms: C12_9  and  O12_27 
REMARK   10  A    between atoms: C14_11  and  C13_10 
REMARK   11  A    between atoms: O2_36  and  C14_11 
REMARK   12  A    between atoms: O3_33  and  C16_12 
REMARK   13  A    between atoms: C16_12  and  C17_34 
REMARK   14  A    between atoms: C5_13  and  C6_14 
REMARK   15  A    between atoms: C6_14  and  O6_44 
REMARK   16  A    between atoms: C23_16  and  C22_15 
REMARK   17  A    between atoms: C23_16  and  O8_18 
REMARK   18  A    between atoms: O9_19  and  C25_20 
REMARK   19  A    between atoms: C25_20  and  C26_21 
REMARK   20  A    between atoms: O10_23  and  C29_24 
REMARK   21  A    between atoms: C29_24  and  C28_25 
REMARK   22  A    between atoms: O12_27  and  C31_28 
REMARK   23  A    between atoms: C31_28  and  C32_29 
REMARK   24  A    between atoms: C1_38  and  SAI_39 
REMARK   25  A    between atoms: SAI_39  and  NAJ_42 
REMARK   26  A    between atoms: O6_44  and  C19_45 
REMARK   27  A    between atoms: C19_45  and  C20_46 
ROOT
ATOM      1  C7  MFS d   1      18.217   8.177  12.987  0.00  0.00     0.160 C 
ATOM      2  C8  MFS d   1      18.591   8.824  11.663  0.00  0.00     0.123 C 
ATOM      3  C9  MFS d   1      20.035   9.290  11.717  0.00  0.00     0.105 C 
ATOM      4  C10 MFS d   1      20.183  10.295  12.843  0.00  0.00     0.097 C 
ATOM      5  C11 MFS d   1      19.666   9.626  14.103  0.00  0.00     0.090 C 
ATOM      6  O11 MFS d   1      18.289   9.255  13.933  0.00  0.00    -0.348 OA
ATOM      7  H3  MFS d   1      18.916   7.370  13.253  0.00  0.00     0.133 H 
ATOM      8  H4  MFS d   1      17.928   9.684  11.489  0.00  0.00     0.096 H 
ATOM      9  H5  MFS d   1      20.673   8.420  11.933  0.00  0.00     0.092 H 
ATOM     10  H6  MFS d   1      21.242  10.563  12.967  0.00  0.00     0.091 H 
ATOM     11  H7  MFS d   1      20.250   8.713  14.287  0.00  0.00     0.090 H 
ENDROOT
BRANCH   1  12
ATOM     12  O4  MFS d   1      16.880   7.660  12.893  0.00  0.00    -0.348 OA
BRANCH  12  13
ATOM     13  C4  MFS d   1      16.587   6.517  13.715  0.00  0.00     0.096 C 
ATOM     14  C3  MFS d   1      16.756   5.200  12.979  0.00  0.00     0.104 C 
ATOM     15  C2  MFS d   1      16.114   4.146  13.867  0.00  0.00     0.116 C 
ATOM     16  H2  MFS d   1      17.823   4.971  12.839  0.00  0.00     0.092 H 
ATOM     17  C1  MFS d   1      16.791   4.031  15.224  0.00  0.00     0.181 C 
ATOM     18  H1  MFS d   1      15.098   4.512  14.073  0.00  0.00     0.094 H 
ATOM     19  O5  MFS d   1      16.773   5.332  15.832  0.00  0.00    -0.356 OA
ATOM     20  H32 MFS d   1      17.826   3.683  15.091  0.00  0.00     0.115 H 
ATOM     21  C5  MFS d   1      17.326   6.391  15.035  0.00  0.00     0.089 C 
ATOM     22  H13 MFS d   1      18.388   6.186  14.835  0.00  0.00     0.090 H 
ATOM     23  H28 MFS d   1      15.521   6.612  13.969  0.00  0.00     0.091 H 
BRANCH  14  24
ATOM     24  O3  MFS d   1      16.123   5.293  11.696  0.00  0.00    -0.311 OA
BRANCH  24  25
ATOM     25  C16 MFS d   1      16.990   4.901  10.723  0.00  0.00     0.255 C 
ATOM     26  O18 MFS d   1      16.669   5.016   9.542  0.00  0.00    -0.266 OA
BRANCH  25  27
ATOM     27  C17 MFS d   1      18.331   4.261  11.084  0.00  0.00     0.004 C 
ATOM     28  H29 MFS d   1      18.881   4.018  10.163  0.00  0.00     0.041 H 
ATOM     29  H30 MFS d   1      18.155   3.340  11.660  0.00  0.00     0.041 H 
ATOM     30  H31 MFS d   1      18.922   4.964  11.689  0.00  0.00     0.041 H 
ENDBRANCH  25  27
ENDBRANCH  24  25
ENDBRANCH  14  24
BRANCH  15  31
ATOM     31  O2  MFS d   1      15.940   2.877  13.213  0.00  0.00    -0.310 OA
BRANCH  31  32
ATOM     32  C14 MFS d   1      17.058   2.195  12.837  0.00  0.00     0.255 C 
ATOM     33  O15 MFS d   1      16.938   1.115  12.261  0.00  0.00    -0.266 OA
BRANCH  32  34
ATOM     34  C13 MFS d   1      18.455   2.742  13.130  0.00  0.00     0.004 C 
ATOM     35  H10 MFS d   1      19.211   2.042  12.745  0.00  0.00     0.041 H 
ATOM     36  H11 MFS d   1      18.583   2.859  14.216  0.00  0.00     0.041 H 
ATOM     37  H12 MFS d   1      18.577   3.719  12.639  0.00  0.00     0.041 H 
ENDBRANCH  32  34
ENDBRANCH  31  32
ENDBRANCH  15  31
BRANCH  17  38
ATOM     38  SAI MFS d   1      15.897   2.887  16.343  0.00  0.00     0.254 S 
ATOM     39  OAM MFS d   1      16.341   3.134  17.755  0.00  0.00    -0.203 OA
ATOM     40  OAE MFS d   1      14.419   3.127  16.254  0.00  0.00    -0.203 OA
BRANCH  38  41
ATOM     41  NAJ MFS d   1      16.225   1.340  15.948  0.00  0.00    -0.326 N 
ATOM     42  H33 MFS d   1      15.811   0.593  16.468  0.00  0.00     0.168 HD
ATOM     43  H34 MFS d   1      16.840   1.138  15.186  0.00  0.00     0.168 HD
ENDBRANCH  38  41
ENDBRANCH  17  38
BRANCH  21  44
ATOM     44  C6  MFS d   1      17.191   7.679  15.826  0.00  0.00     0.055 C 
ATOM     45  H14 MFS d   1      18.098   8.289  15.703  0.00  0.00     0.079 H 
ATOM     46  H15 MFS d   1      17.046   7.448  16.892  0.00  0.00     0.079 H 
BRANCH  44  47
ATOM     47  O6  MFS d   1      16.053   8.394  15.325  0.00  0.00    -0.319 OA
BRANCH  47  48
ATOM     48  C19 MFS d   1      14.854   7.922  15.763  0.00  0.00     0.254 C 
ATOM     49  O21 MFS d   1      13.831   8.467  15.354  0.00  0.00    -0.266 OA
BRANCH  48  50
ATOM     50  C20 MFS d   1      14.763   6.764  16.760  0.00  0.00     0.004 C 
ATOM     51  H35 MFS d   1      13.706   6.547  16.975  0.00  0.00     0.041 H 
ATOM     52  H36 MFS d   1      15.277   7.041  17.692  0.00  0.00     0.041 H 
ATOM     53  H37 MFS d   1      15.240   5.871  16.330  0.00  0.00     0.041 H 
ENDBRANCH  48  50
ENDBRANCH  47  48
ENDBRANCH  44  47
ENDBRANCH  21  44
ENDBRANCH  12  13
ENDBRANCH   1  12
BRANCH   2  54
ATOM     54  O8  MFS d   1      18.481   7.912  10.564  0.00  0.00    -0.308 OA
BRANCH  54  55
ATOM     55  C23 MFS d   1      19.300   6.834  10.680  0.00  0.00     0.255 C 
ATOM     56  O24 MFS d   1      19.366   6.060   9.726  0.00  0.00    -0.266 OA
BRANCH  55  57
ATOM     57  C22 MFS d   1      20.178   6.592  11.911  0.00  0.00     0.004 C 
ATOM     58  H16 MFS d   1      20.750   5.662  11.777  0.00  0.00     0.041 H 
ATOM     59  H17 MFS d   1      19.542   6.505  12.804  0.00  0.00     0.041 H 
ATOM     60  H18 MFS d   1      20.874   7.435  12.037  0.00  0.00     0.041 H 
ENDBRANCH  55  57
ENDBRANCH  54  55
ENDBRANCH   2  54
BRANCH   3  61
ATOM     61  O9  MFS d   1      20.468   9.862  10.474  0.00  0.00    -0.311 OA
BRANCH  61  62
ATOM     62  C25 MFS d   1      21.817   9.751  10.330  0.00  0.00     0.255 C 
ATOM     63  O27 MFS d   1      22.366  10.214   9.331  0.00  0.00    -0.266 OA
BRANCH  62  64
ATOM     64  C26 MFS d   1      22.660   9.031  11.385  0.00  0.00     0.004 C 
ATOM     65  H19 MFS d   1      23.718   9.050  11.085  0.00  0.00     0.041 H 
ATOM     66  H20 MFS d   1      22.323   7.988  11.474  0.00  0.00     0.041 H 
ATOM     67  H21 MFS d   1      22.545   9.537  12.355  0.00  0.00     0.041 H 
ENDBRANCH  62  64
ENDBRANCH  61  62
ENDBRANCH   3  61
BRANCH   5  68
ATOM     68  C12 MFS d   1      19.858  10.568  15.282  0.00  0.00     0.055 C 
ATOM     69  H8  MFS d   1      20.514  10.086  16.022  0.00  0.00     0.079 H 
ATOM     70  H9  MFS d   1      18.879  10.774  15.739  0.00  0.00     0.079 H 
BRANCH  68  71
ATOM     71  O12 MFS d   1      20.452  11.809  14.870  0.00  0.00    -0.319 OA
BRANCH  71  72
ATOM     72  C31 MFS d   1      21.784  11.866  15.153  0.00  0.00     0.254 C 
ATOM     73  O33 MFS d   1      22.448  12.854  14.839  0.00  0.00    -0.266 OA
BRANCH  72  74
ATOM     74  C32 MFS d   1      22.449  10.710  15.887  0.00  0.00     0.004 C 
ATOM     75  H25 MFS d   1      23.518  10.931  16.027  0.00  0.00     0.041 H 
ATOM     76  H26 MFS d   1      22.339   9.789  15.296  0.00  0.00     0.041 H 
ATOM     77  H27 MFS d   1      21.971  10.575  16.869  0.00  0.00     0.041 H 
ENDBRANCH  72  74
ENDBRANCH  71  72
ENDBRANCH  68  71
ENDBRANCH   5  68
BRANCH   4  78
ATOM     78  O10 MFS d   1      19.425  11.481  12.568  0.00  0.00    -0.338 OA
BRANCH  78  79
ATOM     79  C29 MFS d   1      20.280  12.503  12.034  0.00  0.00     0.253 C 
ATOM     80  O30 MFS d   1      20.979  12.298  10.804  0.00  0.00    -0.192 OA
BRANCH  79  81
ATOM     81  C28 MFS d   1      20.448  13.828  12.782  0.00  0.00    -0.017 C 
ATOM     82  H22 MFS d   1      21.136  14.480  12.223  0.00  0.00     0.035 H 
ATOM     83  H23 MFS d   1      20.859  13.634  13.784  0.00  0.00     0.035 H 
ATOM     84  H24 MFS d   1      19.470  14.322  12.877  0.00  0.00     0.035 H 
ENDBRANCH  79  81
ENDBRANCH  78  79
ENDBRANCH   4  78
TORSDOF 27
