REMARK  7 active torsions:
REMARK  status: ('A' for Active; 'I' for Inactive)
REMARK    1  A    between atoms: O2_1  and  C2_2 
REMARK    2  A    between atoms: C3_3  and  O3_4 
REMARK    3  A    between atoms: C4_5  and  O4_6 
REMARK    4  A    between atoms: C5_7  and  C6_8 
REMARK    5  A    between atoms: C6_8  and  O6_9 
REMARK    6  A    between atoms: C1_11  and  SAI_12 
REMARK    7  A    between atoms: SAI_12  and  NAJ_15 
ROOT
ATOM      1  C2  1SD d   1      16.560   3.477  14.036  0.00  0.00     0.102 C 
ATOM      2  C3  1SD d   1      17.254   4.443  13.075  0.00  0.00     0.091 C 
ATOM      3  C4  1SD d   1      16.840   5.877  13.407  0.00  0.00     0.089 C 
ATOM      4  C5  1SD d   1      17.113   6.161  14.885  0.00  0.00     0.087 C 
ATOM      5  O5  1SD d   1      16.362   5.237  15.688  0.00  0.00    -0.356 OA
ATOM      6  C1  1SD d   1      16.823   3.891  15.486  0.00  0.00     0.180 C 
ATOM      7  H2  1SD d   1      15.476   3.500  13.848  0.00  0.00     0.092 H 
ATOM      8  H3  1SD d   1      18.345   4.341  13.175  0.00  0.00     0.091 H 
ATOM      9  H5  1SD d   1      17.414   6.579  12.785  0.00  0.00     0.091 H 
ATOM     10  H7  1SD d   1      18.186   6.038  15.091  0.00  0.00     0.090 H 
ATOM     11  H11 1SD d   1      17.902   3.834  15.694  0.00  0.00     0.115 H 
ENDROOT
BRANCH   6  12
ATOM     12  SAI 1SD d   1      15.919   2.779  16.626  0.00  0.00     0.254 S 
ATOM     13  OAM 1SD d   1      16.367   3.043  18.033  0.00  0.00    -0.203 OA
ATOM     14  OAE 1SD d   1      14.445   3.035  16.523  0.00  0.00    -0.203 OA
BRANCH  12  15
ATOM     15  NAJ 1SD d   1      16.244   1.230  16.237  0.00  0.00    -0.326 N 
ATOM     16  H12 1SD d   1      15.830   0.485  16.761  0.00  0.00     0.168 HD
ATOM     17  H13 1SD d   1      16.857   1.024  15.474  0.00  0.00     0.168 HD
ENDBRANCH  12  15
ENDBRANCH   6  12
BRANCH   1  18
ATOM     18  O2  1SD d   1      17.046   2.150  13.814  0.00  0.00    -0.389 OA
ATOM     19  H1  1SD d   1      16.862   1.892  12.918  0.00  0.00     0.210 HD
ENDBRANCH   1  18
BRANCH   2  20
ATOM     20  O3  1SD d   1      16.865   4.141  11.732  0.00  0.00    -0.390 OA
ATOM     21  H4  1SD d   1      17.118   3.249  11.523  0.00  0.00     0.210 HD
ENDBRANCH   2  20
BRANCH   4  22
ATOM     22  C6  1SD d   1      16.693   7.594  15.218  0.00  0.00     0.043 C 
ATOM     23  H8  1SD d   1      17.265   8.298  14.596  0.00  0.00     0.078 H 
ATOM     24  H9  1SD d   1      16.893   7.797  16.280  0.00  0.00     0.078 H 
BRANCH  22  25
ATOM     25  O6  1SD d   1      15.297   7.754  14.957  0.00  0.00    -0.398 OA
ATOM     26  H10 1SD d   1      15.125   7.578  14.039  0.00  0.00     0.209 HD
ENDBRANCH  22  25
ENDBRANCH   4  22
BRANCH   3  27
ATOM     27  O4  1SD d   1      15.443   6.037  13.147  0.00  0.00    -0.390 OA
ATOM     28  H6  1SD d   1      15.184   6.928  13.353  0.00  0.00     0.210 HD
ENDBRANCH   3  27
TORSDOF 7
