REMARK  8 active torsions:
REMARK  status: ('A' for Active; 'I' for Inactive)
REMARK    1  A    between atoms: CAT_1  and  CAU_2 
REMARK    2  A    between atoms: CAU_2  and  CAV_3 
REMARK    3  A    between atoms: CAE_9  and  CAD_10 
REMARK    4  A    between atoms: CAE_9  and  CAJ_11 
REMARK    5  A    between atoms: CAL_16  and  CAM_17 
REMARK    6  A    between atoms: CAM_17  and  OAN_18 
REMARK    7  A    between atoms: OAN_18  and  SAO_19 
REMARK    8  A    between atoms: SAO_19  and  NAP_22 
ROOT
ATOM      1  CAU TOR d   1      16.408   6.622  13.694  0.00  0.00     0.161 C 
ATOM      2  OAR TOR d   1      17.361   5.675  14.305  0.00  0.00    -0.315 OA
ATOM      3  OAQ TOR d   1      15.965   6.027  12.475  0.00  0.00    -0.342 OA
ATOM      4  CAK TOR d   1      15.959   4.587  12.753  0.00  0.00     0.125 C 
ATOM      5  CAG TOR d   1      16.125   3.818  11.406  0.00  0.00     0.099 C 
ATOM      6  OAF TOR d   1      16.070   2.432  11.709  0.00  0.00    -0.345 OA
ATOM      7  CAE TOR d   1      16.859   1.765  10.710  0.00  0.00     0.158 C 
ATOM      8  OAA TOR d   1      17.956   2.664  10.422  0.00  0.00    -0.346 OA
ATOM      9  CAB TOR d   1      17.501   4.000  10.758  0.00  0.00     0.090 C 
ATOM     10  CAC TOR d   1      18.536   4.592  11.715  0.00  0.00     0.050 C 
ATOM     11  OAH TOR d   1      18.350   4.035  13.050  0.00  0.00    -0.348 OA
ATOM     12  CAL TOR d   1      17.157   4.416  13.719  0.00  0.00     0.219 C 
ATOM     13  H7  TOR d   1      15.024   4.273  13.240  0.00  0.00     0.096 H 
ATOM     14  H8  TOR d   1      15.330   4.115  10.707  0.00  0.00     0.091 H 
ATOM     15  H15 TOR d   1      17.416   4.632   9.861  0.00  0.00     0.090 H 
ATOM     16  H16 TOR d   1      18.414   5.684  11.755  0.00  0.00     0.078 H 
ATOM     17  H17 TOR d   1      19.547   4.349  11.356  0.00  0.00     0.078 H 
ENDROOT
BRANCH  12  18
ATOM     18  CAM TOR d   1      16.926   3.370  14.838  0.00  0.00     0.094 C 
ATOM     19  H18 TOR d   1      17.756   3.436  15.557  0.00  0.00     0.085 H 
ATOM     20  H19 TOR d   1      16.912   2.368  14.385  0.00  0.00     0.085 H 
BRANCH  18  21
ATOM     21  OAN TOR d   1      15.708   3.569  15.533  0.00  0.00    -0.254 OA
BRANCH  21  22
ATOM     22  SAO TOR d   1      15.343   2.760  16.737  0.00  0.00     0.355 S 
ATOM     23  OAS TOR d   1      16.192   3.256  17.852  0.00  0.00    -0.176 OA
ATOM     24  OAI TOR d   1      13.885   2.984  16.895  0.00  0.00    -0.176 OA
BRANCH  22  25
ATOM     25  NAP TOR d   1      15.701   1.237  16.404  0.00  0.00    -0.306 N 
ATOM     26  H20 TOR d   1      15.533   0.524  17.084  0.00  0.00     0.171 HD
ATOM     27  H21 TOR d   1      16.093   0.998  15.516  0.00  0.00     0.171 HD
ENDBRANCH  22  25
ENDBRANCH  21  22
ENDBRANCH  18  21
ENDBRANCH  12  18
BRANCH   1  28
ATOM     28  CAT TOR d   1      17.166   7.924  13.369  0.00  0.00    -0.025 C 
ATOM     29  H1  TOR d   1      17.512   8.390  14.303  0.00  0.00     0.035 H 
ATOM     30  H2  TOR d   1      16.495   8.617  12.840  0.00  0.00     0.035 H 
ATOM     31  H3  TOR d   1      18.032   7.694  12.732  0.00  0.00     0.035 H 
ENDBRANCH   1  28
BRANCH   1  32
ATOM     32  CAV TOR d   1      15.204   6.890  14.610  0.00  0.00    -0.025 C 
ATOM     33  H4  TOR d   1      14.687   5.943  14.822  0.00  0.00     0.035 H 
ATOM     34  H5  TOR d   1      14.511   7.583  14.111  0.00  0.00     0.035 H 
ATOM     35  H6  TOR d   1      15.553   7.336  15.553  0.00  0.00     0.035 H 
ENDBRANCH   1  32
BRANCH   7  36
ATOM     36  CAD TOR d   1      16.051   1.479   9.421  0.00  0.00    -0.025 C 
ATOM     37  H9  TOR d   1      15.221   0.795   9.653  0.00  0.00     0.035 H 
ATOM     38  H10 TOR d   1      16.709   1.016   8.671  0.00  0.00     0.035 H 
ATOM     39  H11 TOR d   1      15.649   2.422   9.023  0.00  0.00     0.035 H 
ENDBRANCH   7  36
BRANCH   7  40
ATOM     40  CAJ TOR d   1      17.425   0.479  11.318  0.00  0.00    -0.025 C 
ATOM     41  H12 TOR d   1      18.033  -0.045  10.566  0.00  0.00     0.035 H 
ATOM     42  H13 TOR d   1      16.597  -0.171  11.638  0.00  0.00     0.035 H 
ATOM     43  H14 TOR d   1      18.052   0.729  12.187  0.00  0.00     0.035 H 
ENDBRANCH   7  40
TORSDOF 8
