REMARK  11 active torsions:
REMARK  status: ('A' for Active; 'I' for Inactive)
REMARK    1  A    between atoms: C6_6  and  O29_16 
REMARK    2  A    between atoms: C8_7  and  C17_10 
REMARK    3  A    between atoms: C19_12  and  O23_25 
REMARK    4  A    between atoms: C14_38  and  C24_14 
REMARK    5  A    between atoms: C32_17  and  C34_18 
REMARK       I    between atoms: N7_29  and  C32_17 
REMARK    6  A    between atoms: C35_19  and  C40_22 
REMARK    7  A    between atoms: C37_20  and  C39_21 
REMARK    8  A    between atoms: O23_25  and  C22_26 
REMARK    9  A    between atoms: C22_26  and  C26_27 
REMARK   10  A    between atoms: C26_27  and  C28_28 
REMARK   11  A    between atoms: C14_38  and  C25_39 
ROOT
ATOM      1  C1  IX6 d   1      39.306   3.777 -19.020  0.00  0.00    -0.049 A 
ATOM      2  C2  IX6 d   1      38.941   3.762 -17.685  0.00  0.00    -0.078 A 
ATOM      3  C3  IX6 d   1      37.906   2.956 -17.253  0.00  0.00    -0.054 A 
ATOM      4  C4  IX6 d   1      37.221   2.130 -18.164  0.00  0.00     0.068 A 
ATOM      5  C5  IX6 d   1      37.570   2.201 -19.517  0.00  0.00     0.093 A 
ATOM      6  C6  IX6 d   1      38.628   2.995 -19.938  0.00  0.00     0.094 A 
ATOM      7  C8  IX6 d   1      34.828   1.554 -18.416  0.00  0.00     0.086 C 
ATOM      8  C15 IX6 d   1      35.670  -0.029 -21.941  0.00  0.00    -0.018 C 
ATOM      9  C32 IX6 d   1      36.317   0.521 -16.649  0.00  0.00     0.280 C 
ATOM     10  N7  IX6 d   1      36.106   1.347 -17.728  0.00  0.00    -0.296 N 
ATOM     11  O33 IX6 d   1      35.303   0.196 -16.050  0.00  0.00    -0.265 OA
ATOM     12  C9  IX6 d   1      34.808   0.746 -19.688  0.00  0.00     0.087 C 
ATOM     13  S12 IX6 d   1      33.408  -0.229 -19.818  0.00  0.00     0.176 S 
ATOM     14  O30 IX6 d   1      32.275   0.644 -19.774  0.00  0.00    -0.223 OA
ATOM     15  O31 IX6 d   1      33.378  -1.193 -18.742  0.00  0.00    -0.223 OA
ATOM     16  C13 IX6 d   1      33.510  -1.143 -21.365  0.00  0.00     0.040 C 
ATOM     17  C14 IX6 d   1      34.284  -0.406 -22.459  0.00  0.00    -0.029 C 
ATOM     18  C10 IX6 d   1      35.779   0.740 -20.627  0.00  0.00     0.030 C 
ATOM     19  N11 IX6 d   1      36.976   1.423 -20.528  0.00  0.00    -0.354 N 
ATOM     20  H1  IX6 d   1      40.127   4.404 -19.348  0.00  0.00     0.087 H 
ATOM     21  H2  IX6 d   1      39.471   4.386 -16.974  0.00  0.00     0.083 H 
ATOM     22  H3  IX6 d   1      37.620   2.959 -16.207  0.00  0.00     0.087 H 
ATOM     23  H4  IX6 d   1      34.021   1.185 -17.766  0.00  0.00     0.090 H 
ATOM     24  H5  IX6 d   1      36.149   0.587 -22.717  0.00  0.00     0.043 H 
ATOM     25  H6  IX6 d   1      36.234  -0.965 -21.816  0.00  0.00     0.043 H 
ATOM     26  H27 IX6 d   1      32.488  -1.330 -21.727  0.00  0.00     0.057 H 
ATOM     27  H28 IX6 d   1      34.011  -2.103 -21.170  0.00  0.00     0.057 H 
ATOM     28  H32 IX6 d   1      37.557   1.346 -21.375  0.00  0.00     0.166 HD
ENDROOT
BRANCH   7  29
ATOM     29  C17 IX6 d   1      34.581   3.056 -18.666  0.00  0.00     0.009 A 
ATOM     30  C16 IX6 d   1      34.435   3.633 -19.924  0.00  0.00    -0.069 A 
ATOM     31  C18 IX6 d   1      34.213   4.991 -20.053  0.00  0.00    -0.050 A 
ATOM     32  H7  IX6 d   1      34.496   3.012 -20.810  0.00  0.00     0.084 H 
ATOM     33  C19 IX6 d   1      34.160   5.814 -18.929  0.00  0.00     0.072 A 
ATOM     34  H8  IX6 d   1      34.079   5.421 -21.039  0.00  0.00     0.087 H 
ATOM     35  C20 IX6 d   1      34.315   5.242 -17.669  0.00  0.00    -0.013 A 
ATOM     36  C21 IX6 d   1      34.521   3.884 -17.545  0.00  0.00     0.127 A 
ATOM     37  H21 IX6 d   1      34.274   5.866 -16.783  0.00  0.00     0.092 H 
ATOM     38  F41 IX6 d   1      34.678   3.349 -16.347  0.00  0.00    -0.205 F 
BRANCH  33  39
ATOM     39  O23 IX6 d   1      33.950   7.165 -19.012  0.00  0.00    -0.347 OA
BRANCH  39  40
ATOM     40  C22 IX6 d   1      33.755   7.860 -20.240  0.00  0.00     0.045 C 
ATOM     41  H22 IX6 d   1      34.536   7.554 -20.952  0.00  0.00     0.082 H 
ATOM     42  H23 IX6 d   1      33.832   8.941 -20.054  0.00  0.00     0.082 H 
BRANCH  40  43
ATOM     43  C26 IX6 d   1      32.396   7.559 -20.841  0.00  0.00    -0.069 C 
ATOM     44  C27 IX6 d   1      31.351   7.329 -20.028  0.00  0.00    -0.117 C 
ATOM     45  H12 IX6 d   1      30.371   7.112 -20.450  0.00  0.00     0.067 H 
ATOM     46  H13 IX6 d   1      31.485   7.360 -18.948  0.00  0.00     0.067 H 
BRANCH  43  47
ATOM     47  C28 IX6 d   1      32.201   7.549 -22.344  0.00  0.00    -0.053 C 
ATOM     48  H24 IX6 d   1      31.152   7.311 -22.576  0.00  0.00     0.033 H 
ATOM     49  H25 IX6 d   1      32.857   6.790 -22.794  0.00  0.00     0.033 H 
ATOM     50  H26 IX6 d   1      32.452   8.539 -22.753  0.00  0.00     0.033 H 
ENDBRANCH  43  47
ENDBRANCH  40  43
ENDBRANCH  39  40
ENDBRANCH  33  39
ENDBRANCH   7  29
BRANCH   9  51
ATOM     51  C34 IX6 d   1      37.600  -0.021 -16.180  0.00  0.00     0.156 A 
ATOM     52  C35 IX6 d   1      38.552  -0.674 -16.917  0.00  0.00     0.085 A 
ATOM     53  O36 IX6 d   1      39.467  -0.995 -16.171  0.00  0.00    -0.298 OA
ATOM     54  C37 IX6 d   1      39.213  -0.596 -15.030  0.00  0.00     0.142 A 
ATOM     55  N38 IX6 d   1      38.036   0.036 -14.929  0.00  0.00    -0.221 NA
BRANCH  52  56
ATOM     56  C40 IX6 d   1      38.498  -0.983 -18.395  0.00  0.00    -0.029 C 
ATOM     57  H18 IX6 d   1      39.413  -1.517 -18.692  0.00  0.00     0.036 H 
ATOM     58  H19 IX6 d   1      38.421  -0.044 -18.963  0.00  0.00     0.036 H 
ATOM     59  H20 IX6 d   1      37.621  -1.613 -18.606  0.00  0.00     0.036 H 
ENDBRANCH  52  56
BRANCH  54  60
ATOM     60  C39 IX6 d   1      40.112  -0.799 -13.846  0.00  0.00    -0.015 C 
ATOM     61  H15 IX6 d   1      39.652  -0.348 -12.954  0.00  0.00     0.038 H 
ATOM     62  H16 IX6 d   1      41.084  -0.322 -14.038  0.00  0.00     0.038 H 
ATOM     63  H17 IX6 d   1      40.259  -1.876 -13.678  0.00  0.00     0.038 H 
ENDBRANCH  54  60
ENDBRANCH   9  51
BRANCH   6  64
ATOM     64  O29 IX6 d   1      38.960   3.002 -21.264  0.00  0.00    -0.358 OA
ATOM     65  H14 IX6 d   1      39.696   3.586 -21.402  0.00  0.00     0.217 HD
ENDBRANCH   6  64
BRANCH  17  66
ATOM     66  C24 IX6 d   1      33.526   0.856 -22.869  0.00  0.00    -0.068 C 
ATOM     67  H9  IX6 d   1      32.529   0.580 -23.241  0.00  0.00     0.028 H 
ATOM     68  H10 IX6 d   1      34.082   1.377 -23.662  0.00  0.00     0.028 H 
ATOM     69  H11 IX6 d   1      33.421   1.520 -21.998  0.00  0.00     0.028 H 
ENDBRANCH  17  66
BRANCH  17  70
ATOM     70  C25 IX6 d   1      34.402  -1.362 -23.651  0.00  0.00    -0.068 C 
ATOM     71  H29 IX6 d   1      34.955  -0.868 -24.464  0.00  0.00     0.028 H 
ATOM     72  H30 IX6 d   1      33.396  -1.634 -24.004  0.00  0.00     0.028 H 
ATOM     73  H31 IX6 d   1      34.940  -2.270 -23.341  0.00  0.00     0.028 H 
ENDBRANCH  17  70
TORSDOF 11
