REMARK  11 active torsions:
REMARK  status: ('A' for Active; 'I' for Inactive)
REMARK    1  A    between atoms: C6_6  and  O29_16 
REMARK    2  A    between atoms: C8_7  and  C17_10 
REMARK    3  A    between atoms: C19_12  and  O23_25 
REMARK    4  A    between atoms: C14_38  and  C24_14 
REMARK    5  A    between atoms: C32_17  and  C34_18 
REMARK       I    between atoms: N7_29  and  C32_17 
REMARK    6  A    between atoms: C35_19  and  C40_22 
REMARK    7  A    between atoms: C37_20  and  C39_21 
REMARK    8  A    between atoms: O23_25  and  C22_26 
REMARK    9  A    between atoms: C22_26  and  C26_27 
REMARK   10  A    between atoms: C26_27  and  C28_28 
REMARK   11  A    between atoms: C14_38  and  C25_39 
ROOT
ATOM      1  C1  IX6 d   1     -20.970  -6.889  30.011  0.00  0.00    -0.049 A 
ATOM      2  C2  IX6 d   1     -21.205  -7.902  29.137  0.00  0.00    -0.078 A 
ATOM      3  C3  IX6 d   1     -22.473  -8.058  28.618  0.00  0.00    -0.054 A 
ATOM      4  C4  IX6 d   1     -23.534  -7.180  28.951  0.00  0.00     0.068 A 
ATOM      5  C5  IX6 d   1     -23.288  -6.176  29.864  0.00  0.00     0.093 A 
ATOM      6  C6  IX6 d   1     -21.990  -6.032  30.352  0.00  0.00     0.094 A 
ATOM      7  C8  IX6 d   1     -25.905  -7.585  29.436  0.00  0.00     0.086 C 
ATOM      8  C15 IX6 d   1     -26.156  -3.879  30.851  0.00  0.00    -0.018 C 
ATOM      9  C32 IX6 d   1     -24.973  -7.402  27.059  0.00  0.00     0.280 C 
ATOM     10  N7  IX6 d   1     -24.831  -7.410  28.436  0.00  0.00    -0.296 N 
ATOM     11  O33 IX6 d   1     -25.956  -7.997  26.683  0.00  0.00    -0.265 OA
ATOM     12  C9  IX6 d   1     -26.358  -6.216  29.895  0.00  0.00     0.087 C 
ATOM     13  S12 IX6 d   1     -28.075  -5.975  29.777  0.00  0.00     0.176 S 
ATOM     14  O30 IX6 d   1     -28.658  -7.054  30.532  0.00  0.00    -0.223 OA
ATOM     15  O31 IX6 d   1     -28.357  -5.964  28.362  0.00  0.00    -0.223 OA
ATOM     16  C13 IX6 d   1     -28.547  -4.392  30.466  0.00  0.00     0.040 C 
ATOM     17  C14 IX6 d   1     -27.546  -3.860  31.506  0.00  0.00    -0.029 C 
ATOM     18  C10 IX6 d   1     -25.588  -5.189  30.315  0.00  0.00     0.030 C 
ATOM     19  N11 IX6 d   1     -24.199  -5.202  30.291  0.00  0.00    -0.354 N 
ATOM     20  H1  IX6 d   1     -19.982  -6.757  30.438  0.00  0.00     0.087 H 
ATOM     21  H2  IX6 d   1     -20.407  -8.578  28.852  0.00  0.00     0.083 H 
ATOM     22  H3  IX6 d   1     -22.664  -8.877  27.934  0.00  0.00     0.087 H 
ATOM     23  H4  IX6 d   1     -26.762  -8.068  28.945  0.00  0.00     0.090 H 
ATOM     24  H5  IX6 d   1     -25.445  -3.508  31.603  0.00  0.00     0.043 H 
ATOM     25  H6  IX6 d   1     -26.194  -3.178  30.004  0.00  0.00     0.043 H 
ATOM     26  H27 IX6 d   1     -29.529  -4.500  30.950  0.00  0.00     0.057 H 
ATOM     27  H28 IX6 d   1     -28.620  -3.662  29.646  0.00  0.00     0.057 H 
ATOM     28  H32 IX6 d   1     -23.761  -4.342  30.651  0.00  0.00     0.166 HD
ENDROOT
BRANCH   7  29
ATOM     29  C17 IX6 d   1     -25.436  -8.524  30.552  0.00  0.00     0.009 A 
ATOM     30  C16 IX6 d   1     -25.322  -8.138  31.882  0.00  0.00    -0.069 A 
ATOM     31  C18 IX6 d   1     -24.883  -9.021  32.836  0.00  0.00    -0.050 A 
ATOM     32  H7  IX6 d   1     -25.583  -7.126  32.170  0.00  0.00     0.084 H 
ATOM     33  C19 IX6 d   1     -24.536 -10.320  32.485  0.00  0.00     0.072 A 
ATOM     34  H8  IX6 d   1     -24.806  -8.703  33.870  0.00  0.00     0.087 H 
ATOM     35  C20 IX6 d   1     -24.612 -10.700  31.152  0.00  0.00    -0.013 A 
ATOM     36  C21 IX6 d   1     -25.063  -9.818  30.209  0.00  0.00     0.127 A 
ATOM     37  H21 IX6 d   1     -24.313 -11.699  30.857  0.00  0.00     0.092 H 
ATOM     38  F41 IX6 d   1     -25.145 -10.214  28.950  0.00  0.00    -0.205 F 
BRANCH  33  39
ATOM     39  O23 IX6 d   1     -24.091 -11.230  33.394  0.00  0.00    -0.347 OA
BRANCH  39  40
ATOM     40  C22 IX6 d   1     -24.031 -11.053  34.801  0.00  0.00     0.045 C 
ATOM     41  H22 IX6 d   1     -23.496 -10.117  35.018  0.00  0.00     0.082 H 
ATOM     42  H23 IX6 d   1     -23.483 -11.899  35.241  0.00  0.00     0.082 H 
BRANCH  40  43
ATOM     43  C26 IX6 d   1     -25.407 -10.984  35.429  0.00  0.00    -0.069 C 
ATOM     44  C27 IX6 d   1     -26.448 -11.660  34.911  0.00  0.00    -0.117 C 
ATOM     45  H12 IX6 d   1     -27.428 -11.594  35.381  0.00  0.00     0.067 H 
ATOM     46  H13 IX6 d   1     -26.311 -12.273  34.022  0.00  0.00     0.067 H 
BRANCH  43  47
ATOM     47  C28 IX6 d   1     -25.639 -10.168  36.665  0.00  0.00    -0.053 C 
ATOM     48  H24 IX6 d   1     -26.695 -10.246  36.963  0.00  0.00     0.033 H 
ATOM     49  H25 IX6 d   1     -25.392  -9.116  36.461  0.00  0.00     0.033 H 
ATOM     50  H26 IX6 d   1     -25.000 -10.544  37.478  0.00  0.00     0.033 H 
ENDBRANCH  43  47
ENDBRANCH  40  43
ENDBRANCH  39  40
ENDBRANCH  33  39
ENDBRANCH   7  29
BRANCH   9  51
ATOM     51  C34 IX6 d   1     -24.084  -6.828  26.035  0.00  0.00     0.156 A 
ATOM     52  C35 IX6 d   1     -23.624  -5.539  25.952  0.00  0.00     0.085 A 
ATOM     53  O36 IX6 d   1     -22.917  -5.446  24.961  0.00  0.00    -0.298 OA
ATOM     54  C37 IX6 d   1     -22.831  -6.535  24.397  0.00  0.00     0.142 A 
ATOM     55  N38 IX6 d   1     -23.549  -7.490  25.015  0.00  0.00    -0.221 NA
BRANCH  52  56
ATOM     56  C40 IX6 d   1     -23.946  -4.393  26.873  0.00  0.00    -0.029 C 
ATOM     57  H18 IX6 d   1     -23.417  -3.490  26.534  0.00  0.00     0.036 H 
ATOM     58  H19 IX6 d   1     -23.626  -4.643  27.895  0.00  0.00     0.036 H 
ATOM     59  H20 IX6 d   1     -25.030  -4.208  26.863  0.00  0.00     0.036 H 
ENDBRANCH  52  56
BRANCH  54  60
ATOM     60  C39 IX6 d   1     -22.015  -6.764  23.145  0.00  0.00    -0.015 C 
ATOM     61  H15 IX6 d   1     -22.101  -7.817  22.839  0.00  0.00     0.038 H 
ATOM     62  H16 IX6 d   1     -20.960  -6.525  23.346  0.00  0.00     0.038 H 
ATOM     63  H17 IX6 d   1     -22.391  -6.117  22.339  0.00  0.00     0.038 H 
ENDBRANCH  54  60
ENDBRANCH   9  51
BRANCH   6  64
ATOM     64  O29 IX6 d   1     -21.747  -5.043  31.217  0.00  0.00    -0.358 OA
ATOM     65  H14 IX6 d   1     -20.830  -5.060  31.466  0.00  0.00     0.217 HD
ENDBRANCH   6  64
BRANCH  17  66
ATOM     66  C24 IX6 d   1     -27.546  -4.718  32.769  0.00  0.00    -0.068 C 
ATOM     67  H9  IX6 d   1     -28.546  -4.696  33.227  0.00  0.00     0.028 H 
ATOM     68  H10 IX6 d   1     -26.807  -4.322  33.481  0.00  0.00     0.028 H 
ATOM     69  H11 IX6 d   1     -27.285  -5.754  32.508  0.00  0.00     0.028 H 
ENDBRANCH  17  66
BRANCH  17  70
ATOM     70  C25 IX6 d   1     -27.907  -2.412  31.831  0.00  0.00    -0.068 C 
ATOM     71  H29 IX6 d   1     -27.200  -2.016  32.575  0.00  0.00     0.028 H 
ATOM     72  H30 IX6 d   1     -28.928  -2.371  32.238  0.00  0.00     0.028 H 
ATOM     73  H31 IX6 d   1     -27.853  -1.806  30.915  0.00  0.00     0.028 H 
ENDBRANCH  17  70
TORSDOF 11
