REMARK  11 active torsions:
REMARK  status: ('A' for Active; 'I' for Inactive)
REMARK    1  A    between atoms: C5_2  and  C4_3 
REMARK       I    between atoms: C5_2  and  N3_17 
REMARK    2  A    between atoms: C4_3  and  C12_4 
REMARK    3  A    between atoms: C4_3  and  N2_10 
REMARK       I    between atoms: N2_10  and  C3_11 
REMARK    4  A    between atoms: C3_11  and  C2_13 
REMARK    5  A    between atoms: C2_13  and  C13_14 
REMARK    6  A    between atoms: C2_13  and  N1_15 
REMARK    7  A    between atoms: N1_15  and  C1_16 
REMARK    8  A    between atoms: C7_20  and  C28_21 
REMARK    9  A    between atoms: C6_22  and  C10_23 
REMARK       I    between atoms: C10_23  and  N4_25 
REMARK   10  A    between atoms: N4_25  and  C11_26 
REMARK   11  A    between atoms: C19_31  and  C20_32 
ROOT
ATOM      1  O3  9JZ d   1       9.784  12.460 -19.700  0.00  0.00    -0.271 OA
ATOM      2  C5  9JZ d   1       8.763  12.368 -20.372  0.00  0.00     0.243 C 
ATOM      3  N3  9JZ d   1       8.077  11.224 -20.518  0.00  0.00    -0.337 N 
ATOM      4  C9  9JZ d   1       6.845  11.030 -21.296  0.00  0.00    -0.001 C 
ATOM      5  C8  9JZ d   1       6.293   9.701 -20.805  0.00  0.00    -0.045 C 
ATOM      6  C7  9JZ d   1       7.531   8.934 -20.412  0.00  0.00    -0.028 C 
ATOM      7  C6  9JZ d   1       8.499   9.980 -19.864  0.00  0.00     0.095 C 
ATOM      8  H23 9JZ d   1       7.067  10.985 -22.372  0.00  0.00     0.064 H 
ATOM      9  H24 9JZ d   1       6.130  11.844 -21.103  0.00  0.00     0.064 H 
ATOM     10  H25 9JZ d   1       5.746   9.182 -21.606  0.00  0.00     0.036 H 
ATOM     11  H26 9JZ d   1       5.628   9.846 -19.941  0.00  0.00     0.036 H 
ATOM     12  H27 9JZ d   1       7.971   8.498 -21.321  0.00  0.00     0.043 H 
ATOM     13  H31 9JZ d   1       8.424  10.083 -18.771  0.00  0.00     0.088 H 
ENDROOT
BRANCH   2  14
ATOM     14  C4  9JZ d   1       8.241  13.579 -21.101  0.00  0.00     0.093 C 
ATOM     15  H1  9JZ d   1       7.142  13.540 -21.106  0.00  0.00     0.088 H 
BRANCH  14  16
ATOM     16  C12 9JZ d   1       8.757  13.556 -22.555  0.00  0.00    -0.026 C 
ATOM     17  C18 9JZ d   1      10.285  13.662 -22.699  0.00  0.00    -0.059 C 
ATOM     18  C17 9JZ d   1      10.728  13.519 -24.160  0.00  0.00    -0.065 C 
ATOM     19  H3  9JZ d   1      10.755  12.865 -22.104  0.00  0.00     0.033 H 
ATOM     20  H4  9JZ d   1      10.611  14.642 -22.322  0.00  0.00     0.033 H 
ATOM     21  C16 9JZ d   1       9.980  14.484 -25.084  0.00  0.00    -0.065 C 
ATOM     22  H5  9JZ d   1      10.533  12.488 -24.491  0.00  0.00     0.033 H 
ATOM     23  H6  9JZ d   1      11.806  13.728 -24.226  0.00  0.00     0.033 H 
ATOM     24  C15 9JZ d   1       8.463  14.359 -24.915  0.00  0.00    -0.065 C 
ATOM     25  H7  9JZ d   1      10.243  14.257 -26.128  0.00  0.00     0.033 H 
ATOM     26  H8  9JZ d   1      10.283  15.514 -24.846  0.00  0.00     0.033 H 
ATOM     27  C14 9JZ d   1       8.054  14.574 -23.459  0.00  0.00    -0.059 C 
ATOM     28  H9  9JZ d   1       8.147  13.354 -25.233  0.00  0.00     0.033 H 
ATOM     29  H10 9JZ d   1       7.968  15.114 -25.543  0.00  0.00     0.033 H 
ATOM     30  H11 9JZ d   1       8.336  15.591 -23.149  0.00  0.00     0.033 H 
ATOM     31  H12 9JZ d   1       6.965  14.451 -23.366  0.00  0.00     0.033 H 
ATOM     32  H2  9JZ d   1       8.487  12.563 -22.945  0.00  0.00     0.043 H 
ENDBRANCH  14  16
BRANCH  14  33
ATOM     33  N2  9JZ d   1       8.662  14.822 -20.461  0.00  0.00    -0.346 N 
ATOM     34  C3  9JZ d   1       7.850  15.868 -20.317  0.00  0.00     0.248 C 
ATOM     35  O2  9JZ d   1       6.696  15.900 -20.729  0.00  0.00    -0.271 OA
ATOM     36  H13 9JZ d   1       9.598  14.891 -20.117  0.00  0.00     0.163 HD
BRANCH  34  37
ATOM     37  C2  9JZ d   1       8.443  17.064 -19.633  0.00  0.00     0.174 C 
ATOM     38  H14 9JZ d   1       9.494  17.155 -19.944  0.00  0.00     0.098 H 
BRANCH  37  39
ATOM     39  C13 9JZ d   1       8.405  16.855 -18.122  0.00  0.00    -0.041 C 
ATOM     40  H15 9JZ d   1       8.840  17.732 -17.620  0.00  0.00     0.030 H 
ATOM     41  H16 9JZ d   1       8.985  15.958 -17.861  0.00  0.00     0.030 H 
ATOM     42  H17 9JZ d   1       7.362  16.725 -17.796  0.00  0.00     0.030 H 
ENDBRANCH  37  39
BRANCH  37  43
ATOM     43  N1  9JZ d   1       7.754  18.289 -20.014  0.00  0.00    -0.067 N 
ATOM     44  H18 9JZ d   1       8.063  19.010 -19.381  0.00  0.00     0.277 HD
ATOM     45  H19 9JZ d   1       6.768  18.126 -19.882  0.00  0.00     0.277 HD
BRANCH  43  46
ATOM     46  C1  9JZ d   1       7.922  18.807 -21.361  0.00  0.00     0.066 C 
ATOM     47  H20 9JZ d   1       7.335  19.730 -21.474  0.00  0.00     0.067 H 
ATOM     48  H21 9JZ d   1       7.572  18.059 -22.088  0.00  0.00     0.067 H 
ATOM     49  H22 9JZ d   1       8.985  19.024 -21.541  0.00  0.00     0.067 H 
ENDBRANCH  43  46
ENDBRANCH  37  43
ENDBRANCH  34  37
ENDBRANCH  14  33
ENDBRANCH   2  14
BRANCH   7  50
ATOM     50  C10 9JZ d   1       9.867   9.494 -20.235  0.00  0.00     0.245 C 
ATOM     51  O1  9JZ d   1      10.525   8.913 -19.387  0.00  0.00    -0.271 OA
ATOM     52  N4  9JZ d   1      10.288   9.719 -21.489  0.00  0.00    -0.324 N 
ATOM     53  H32 9JZ d   1       9.694  10.232 -22.109  0.00  0.00     0.169 HD
BRANCH  52  54
ATOM     54  C11 9JZ d   1      11.527   9.265 -21.968  0.00  0.00     0.049 A 
ATOM     55  C27 9JZ d   1      12.652   9.201 -21.137  0.00  0.00    -0.056 A 
ATOM     56  C26 9JZ d   1      13.862   8.714 -21.622  0.00  0.00    -0.081 A 
ATOM     57  H33 9JZ d   1      12.580   9.533 -20.108  0.00  0.00     0.086 H 
ATOM     58  C25 9JZ d   1      13.960   8.281 -22.942  0.00  0.00    -0.082 A 
ATOM     59  H34 9JZ d   1      14.729   8.672 -20.972  0.00  0.00     0.083 H 
ATOM     60  C24 9JZ d   1      12.842   8.328 -23.770  0.00  0.00    -0.067 A 
ATOM     61  H35 9JZ d   1      14.904   7.909 -23.323  0.00  0.00     0.083 H 
ATOM     62  C19 9JZ d   1      11.622   8.815 -23.289  0.00  0.00     0.038 A 
ATOM     63  H36 9JZ d   1      12.917   7.985 -24.795  0.00  0.00     0.085 H 
BRANCH  62  64
ATOM     64  C20 9JZ d   1      10.464   8.856 -24.231  0.00  0.00     0.161 A 
ATOM     65  N6  9JZ d   1      10.396   7.955 -25.247  0.00  0.00    -0.241 NA
ATOM     66  C23 9JZ d   1       9.376   7.975 -26.119  0.00  0.00     0.006 A 
ATOM     67  C22 9JZ d   1       8.379   8.938 -25.992  0.00  0.00    -0.049 A 
ATOM     68  H37 9JZ d   1       9.329   7.245 -26.919  0.00  0.00     0.114 H 
ATOM     69  C21 9JZ d   1       8.463   9.862 -24.952  0.00  0.00     0.006 A 
ATOM     70  H38 9JZ d   1       7.551   8.969 -26.691  0.00  0.00     0.087 H 
ATOM     71  N5  9JZ d   1       9.501   9.807 -24.100  0.00  0.00    -0.241 NA
ATOM     72  H39 9JZ d   1       7.697  10.619 -24.831  0.00  0.00     0.114 H 
ENDBRANCH  62  64
ENDBRANCH  52  54
ENDBRANCH   7  50
BRANCH   6  73
ATOM     73  C28 9JZ d   1       7.265   7.777 -19.456  0.00  0.00    -0.070 C 
ATOM     74  H28 9JZ d   1       8.213   7.271 -19.220  0.00  0.00     0.028 H 
ATOM     75  H29 9JZ d   1       6.576   7.062 -19.929  0.00  0.00     0.028 H 
ATOM     76  H30 9JZ d   1       6.814   8.163 -18.530  0.00  0.00     0.028 H 
ENDBRANCH   6  73
TORSDOF 11
