REMARK  4 active torsions:
REMARK  status: ('A' for Active; 'I' for Inactive)
REMARK    1  A    between atoms: C4_4  and  C8_8 
REMARK    2  A    between atoms: C5_5  and  C7_7 
REMARK       I    between atoms: N21_21  and  C25_25 
REMARK    3  A    between atoms: C25_25  and  C27_27 
REMARK    4  A    between atoms: C27_27  and  O28_28 
ROOT
ATOM      1  C1  I47 d   1      35.539  35.844  20.035  0.00  0.00     0.101 A 
ATOM      2  N2  I47 d   1      35.013  34.592  20.186  0.00  0.00    -0.173 NA
ATOM      3  N3  I47 d   1      34.358  34.420  21.348  0.00  0.00    -0.280 N 
ATOM      4  C4  I47 d   1      34.473  35.589  21.990  0.00  0.00     0.047 A 
ATOM      5  C5  I47 d   1      35.201  36.522  21.207  0.00  0.00     0.049 A 
ATOM      6  C6  I47 d   1      36.256  36.210  18.841  0.00  0.00    -0.005 A 
ATOM      7  C9  I47 d   1      35.738  35.939  17.593  0.00  0.00    -0.069 A 
ATOM      8  C10 I47 d   1      36.410  36.340  16.453  0.00  0.00    -0.061 A 
ATOM      9  C11 I47 d   1      37.608  37.009  16.541  0.00  0.00     0.034 A 
ATOM     10  C12 I47 d   1      38.138  37.258  17.790  0.00  0.00    -0.061 A 
ATOM     11  C13 I47 d   1      37.468  36.861  18.924  0.00  0.00    -0.069 A 
ATOM     12 CL24 I47 d   1      38.423  37.551  15.116  0.00  0.00    -0.084 Cl
ATOM     13  H1  I47 d   1      33.873  33.572  21.674  0.00  0.00     0.189 HD
ATOM     14  H3  I47 d   1      34.797  35.408  17.505  0.00  0.00     0.085 H 
ATOM     15  H4  I47 d   1      35.987  36.124  15.478  0.00  0.00     0.086 H 
ATOM     16  H5  I47 d   1      39.089  37.770  17.879  0.00  0.00     0.086 H 
ATOM     17  H6  I47 d   1      37.900  37.063  19.898  0.00  0.00     0.085 H 
ENDROOT
BRANCH   4  18
ATOM     18  C8  I47 d   1      33.899  35.796  23.355  0.00  0.00    -0.008 C 
ATOM     19  C19 I47 d   1      32.552  35.150  23.615  0.00  0.00    -0.042 C 
ATOM     20  C20 I47 d   1      32.063  35.408  25.039  0.00  0.00    -0.002 C 
ATOM     21  H10 I47 d   1      32.642  34.065  23.461  0.00  0.00     0.036 H 
ATOM     22  H11 I47 d   1      31.818  35.561  22.907  0.00  0.00     0.036 H 
ATOM     23  N21 I47 d   1      33.077  35.064  26.013  0.00  0.00    -0.350 N 
ATOM     24  H12 I47 d   1      31.166  34.800  25.226  0.00  0.00     0.064 H 
ATOM     25  H13 I47 d   1      31.812  36.474  25.144  0.00  0.00     0.064 H 
ATOM     26  C22 I47 d   1      34.418  35.574  25.820  0.00  0.00    -0.002 C 
ATOM     27  C25 I47 d   1      32.762  34.280  27.112  0.00  0.00     0.243 C 
ATOM     28  C23 I47 d   1      34.916  35.360  24.395  0.00  0.00    -0.042 C 
ATOM     29  H14 I47 d   1      35.097  35.057  26.514  0.00  0.00     0.064 H 
ATOM     30  H15 I47 d   1      34.422  36.652  26.038  0.00  0.00     0.064 H 
ATOM     31  H16 I47 d   1      35.839  35.941  24.252  0.00  0.00     0.036 H 
ATOM     32  H17 I47 d   1      35.131  34.291  24.253  0.00  0.00     0.036 H 
ATOM     33  O26 I47 d   1      32.005  33.314  27.089  0.00  0.00    -0.271 OA
ATOM     34  H2  I47 d   1      33.748  36.879  23.471  0.00  0.00     0.050 H 
BRANCH  27  35
ATOM     35  C27 I47 d   1      33.453  34.742  28.370  0.00  0.00     0.090 C 
ATOM     36  H18 I47 d   1      33.242  35.807  28.545  0.00  0.00     0.088 H 
ATOM     37  H19 I47 d   1      34.539  34.593  28.279  0.00  0.00     0.088 H 
BRANCH  35  38
ATOM     38  O28 I47 d   1      32.942  33.960  29.448  0.00  0.00    -0.392 OA
ATOM     39  H20 I47 d   1      33.124  33.042  29.286  0.00  0.00     0.210 HD
ENDBRANCH  35  38
ENDBRANCH  27  35
ENDBRANCH   4  18
BRANCH   5  40
ATOM     40  C7  I47 d   1      35.460  37.915  21.520  0.00  0.00     0.074 A 
ATOM     41  C14 I47 d   1      35.723  38.344  22.810  0.00  0.00    -0.037 A 
ATOM     42  C15 I47 d   1      35.882  39.700  22.966  0.00  0.00     0.006 A 
ATOM     43  H7  I47 d   1      35.799  37.655  23.643  0.00  0.00     0.089 H 
ATOM     44  N16 I47 d   1      35.782  40.597  21.974  0.00  0.00    -0.254 NA
ATOM     45  H8  I47 d   1      36.104  40.071  23.960  0.00  0.00     0.114 H 
ATOM     46  C17 I47 d   1      35.512  40.075  20.772  0.00  0.00     0.086 A 
ATOM     47  N18 I47 d   1      35.340  38.772  20.493  0.00  0.00    -0.241 NA
ATOM     48  H9  I47 d   1      35.424  40.770  19.944  0.00  0.00     0.146 H 
ENDBRANCH   5  40
TORSDOF 4
