REMARK  5 active torsions:
REMARK  status: ('A' for Active; 'I' for Inactive)
REMARK    1  A    between atoms: C1_10  and  N2_11 
REMARK    2  A    between atoms: C10_15  and  C11_17 
REMARK    3  A    between atoms: C11_17  and  C12_18 
REMARK    4  A    between atoms: C11_17  and  C13_19 
REMARK    5  A    between atoms: C11_17  and  C14_20 
ROOT
ATOM      1  N2  BBP d   1      35.421   2.329  57.660  0.00  0.00    -0.187 N 
ATOM      2  C8  BBP d   1      36.333   1.373  57.434  0.00  0.00     0.186 A 
ATOM      3  O1  BBP d   1      36.016   0.153  56.681  0.00  0.00    -0.175 OA
ATOM      4  N3  BBP d   1      36.010   3.365  58.433  0.00  0.00    -0.171 NA
ATOM      5  C10 BBP d   1      37.282   2.889  58.574  0.00  0.00     0.048 A 
ATOM      6  C9  BBP d   1      37.693   1.560  58.004  0.00  0.00     0.038 A 
ATOM      7  H4  BBP d   1      38.490   1.624  57.249  0.00  0.00     0.054 H 
ATOM      8  H5  BBP d   1      37.967   0.813  58.763  0.00  0.00     0.054 H 
ENDROOT
BRANCH   1   9
ATOM      9  C1  BBP d   1      34.133   2.343  57.233  0.00  0.00     0.197 A 
ATOM     10  S1  BBP d   1      33.418   1.081  56.274  0.00  0.00    -0.048 SA
ATOM     11  C6  BBP d   1      31.997   2.027  56.349  0.00  0.00     0.039 A 
ATOM     12  C5  BBP d   1      30.779   1.664  55.757  0.00  0.00    -0.043 A 
ATOM     13  C7  BBP d   1      32.097   3.233  57.041  0.00  0.00     0.077 A 
ATOM     14  C4  BBP d   1      29.691   2.531  55.860  0.00  0.00     0.035 A 
ATOM     15  H3  BBP d   1      30.684   0.723  55.227  0.00  0.00     0.088 H 
ATOM     16 CL1  BBP d   1      28.082   2.172  55.217  0.00  0.00    -0.084 Cl
ATOM     17  C3  BBP d   1      29.799   3.719  56.562  0.00  0.00    -0.060 A 
ATOM     18  C2  BBP d   1      31.001   4.073  57.141  0.00  0.00    -0.052 A 
ATOM     19  H1  BBP d   1      28.939   4.372  56.657  0.00  0.00     0.086 H 
ATOM     20  H2  BBP d   1      31.087   5.012  57.676  0.00  0.00     0.087 H 
ATOM     21  N1  BBP d   1      33.354   3.388  57.539  0.00  0.00    -0.222 NA
ENDBRANCH   1   9
BRANCH   5  22
ATOM     22  C11 BBP d   1      38.298   3.660  59.377  0.00  0.00    -0.008 C 
BRANCH  22  23
ATOM     23  C12 BBP d   1      37.857   5.100  59.581  0.00  0.00    -0.065 C 
ATOM     24  H6  BBP d   1      38.617   5.636  60.169  0.00  0.00     0.028 H 
ATOM     25  H7  BBP d   1      36.898   5.117  60.119  0.00  0.00     0.028 H 
ATOM     26  H8  BBP d   1      37.738   5.589  58.603  0.00  0.00     0.028 H 
ENDBRANCH  22  23
BRANCH  22  27
ATOM     27  C13 BBP d   1      38.355   2.979  60.740  0.00  0.00    -0.065 C 
ATOM     28  H9  BBP d   1      38.673   1.933  60.614  0.00  0.00     0.028 H 
ATOM     29  H10 BBP d   1      37.359   3.006  61.205  0.00  0.00     0.028 H 
ATOM     30  H11 BBP d   1      39.075   3.506  61.383  0.00  0.00     0.028 H 
ENDBRANCH  22  27
BRANCH  22  31
ATOM     31  C14 BBP d   1      39.686   3.598  58.758  0.00  0.00    -0.065 C 
ATOM     32  H12 BBP d   1      39.670   4.084  57.772  0.00  0.00     0.028 H 
ATOM     33  H13 BBP d   1      39.990   2.547  58.644  0.00  0.00     0.028 H 
ATOM     34  H14 BBP d   1      40.402   4.118  59.411  0.00  0.00     0.028 H 
ENDBRANCH  22  31
ENDBRANCH   5  22
TORSDOF 5
