REMARK  7 active torsions:
REMARK  status: ('A' for Active; 'I' for Inactive)
REMARK    1  A    between atoms: C25_2  and  N3_31 
REMARK    2  A    between atoms: C23_4  and  N4_34 
REMARK    3  A    between atoms: C22_5  and  O6_32 
REMARK    4  A    between atoms: C21_6  and  C26_7 
REMARK    5  A    between atoms: C21_6  and  N2_8 
REMARK    6  A    between atoms: O6_32  and  C27_33 
REMARK    7  A    between atoms: N4_34  and  C28_35 
ROOT
ATOM      1  O4  STU d   1     -37.999 -13.142 -11.283  0.00  0.00    -0.333 OA
ATOM      2  C25 STU d   1     -36.756 -13.027 -10.649  0.00  0.00     0.115 C 
ATOM      3  C24 STU d   1     -35.764 -12.090 -11.340  0.00  0.00     0.005 C 
ATOM      4  C23 STU d   1     -36.449 -11.471 -12.574  0.00  0.00     0.134 C 
ATOM      5  C22 STU d   1     -37.054 -12.574 -13.487  0.00  0.00     0.113 C 
ATOM      6  C21 STU d   1     -38.017 -13.441 -12.647  0.00  0.00     0.168 C 
ATOM      7  H1  STU d   1     -36.969 -12.521  -9.696  0.00  0.00     0.118 H 
ATOM      8  H2  STU d   1     -34.876 -12.658 -11.655  0.00  0.00     0.042 H 
ATOM      9  H3  STU d   1     -35.462 -11.293 -10.645  0.00  0.00     0.042 H 
ATOM     10  H4  STU d   1     -37.268 -10.827 -12.222  0.00  0.00     0.088 H 
ATOM     11  H5  STU d   1     -37.666 -12.073 -14.252  0.00  0.00     0.094 H 
ENDROOT
BRANCH   4  12
ATOM     12  N4  STU d   1     -35.510 -10.642 -13.346  0.00  0.00    -0.072 N 
ATOM     13  H23 STU d   1     -34.904 -11.274 -13.846  0.00  0.00     0.277 HD
ATOM     14  H24 STU d   1     -34.969 -10.114 -12.679  0.00  0.00     0.277 HD
BRANCH  12  15
ATOM     15  C28 STU d   1     -36.031  -9.683 -14.329  0.00  0.00     0.065 C 
ATOM     16  H25 STU d   1     -35.192  -9.155 -14.807  0.00  0.00     0.067 H 
ATOM     17  H26 STU d   1     -36.681  -8.955 -13.822  0.00  0.00     0.067 H 
ATOM     18  H27 STU d   1     -36.610 -10.220 -15.095  0.00  0.00     0.067 H 
ENDBRANCH  12  15
ENDBRANCH   4  12
BRANCH   5  19
ATOM     19  O6  STU d   1     -36.015 -13.292 -14.207  0.00  0.00    -0.384 OA
BRANCH  19  20
ATOM     20  C27 STU d   1     -35.168 -14.132 -13.417  0.00  0.00     0.005 C 
ATOM     21  H20 STU d   1     -34.426 -14.620 -14.067  0.00  0.00     0.066 H 
ATOM     22  H21 STU d   1     -35.777 -14.899 -12.916  0.00  0.00     0.066 H 
ATOM     23  H22 STU d   1     -34.650 -13.523 -12.661  0.00  0.00     0.066 H 
ENDBRANCH  19  20
ENDBRANCH   5  19
BRANCH   2  24
ATOM     24  N3  STU d   1     -36.265 -14.352 -10.261  0.00  0.00    -0.316 N 
ATOM     25  C19 STU d   1     -36.540 -15.527 -10.887  0.00  0.00     0.077 A 
ATOM     26  C18 STU d   1     -37.294 -15.770 -12.052  0.00  0.00     0.077 A 
ATOM     27  C6  STU d   1     -35.931 -16.589 -10.204  0.00  0.00     0.022 A 
ATOM     28  N2  STU d   1     -37.974 -14.892 -12.896  0.00  0.00    -0.308 N 
ATOM     29  C11 STU d   1     -37.427 -17.082 -12.534  0.00  0.00     0.015 A 
ATOM     30  C17 STU d   1     -38.558 -15.633 -13.920  0.00  0.00     0.049 A 
ATOM     31  C12 STU d   1     -38.243 -17.004 -13.732  0.00  0.00     0.004 A 
ATOM     32  C16 STU d   1     -39.345 -15.272 -15.024  0.00  0.00    -0.056 A 
ATOM     33  C13 STU d   1     -38.681 -18.011 -14.598  0.00  0.00    -0.070 A 
ATOM     34  C14 STU d   1     -39.455 -17.616 -15.676  0.00  0.00    -0.082 A 
ATOM     35  H12 STU d   1     -38.426 -19.052 -14.433  0.00  0.00     0.084 H 
ATOM     36  C15 STU d   1     -39.777 -16.283 -15.878  0.00  0.00    -0.081 A 
ATOM     37  H11 STU d   1     -39.816 -18.363 -16.374  0.00  0.00     0.083 H 
ATOM     38  H10 STU d   1     -40.388 -16.018 -16.733  0.00  0.00     0.083 H 
ATOM     39  H9  STU d   1     -39.609 -14.237 -15.207  0.00  0.00     0.087 H 
ATOM     40  C10 STU d   1     -36.830 -18.134 -11.869  0.00  0.00    -0.010 A 
ATOM     41  C7  STU d   1     -36.086 -17.911 -10.710  0.00  0.00     0.054 A 
ATOM     42  C9  STU d   1     -36.813 -19.612 -12.155  0.00  0.00     0.021 A 
ATOM     43  C8  STU d   1     -35.600 -19.217 -10.256  0.00  0.00     0.253 A 
ATOM     44  N1  STU d   1     -36.015 -20.196 -11.080  0.00  0.00    -0.353 N 
ATOM     45  O5  STU d   1     -34.914 -19.392  -9.277  0.00  0.00    -0.268 OA
ATOM     46  H15 STU d   1     -35.810 -21.169 -10.973  0.00  0.00     0.163 HD
ATOM     47  H13 STU d   1     -36.350 -19.811 -13.133  0.00  0.00     0.071 H 
ATOM     48  H14 STU d   1     -37.834 -20.020 -12.143  0.00  0.00     0.071 H 
ATOM     49  C5  STU d   1     -35.244 -15.979  -9.059  0.00  0.00     0.004 A 
ATOM     50  C20 STU d   1     -35.488 -14.581  -9.129  0.00  0.00     0.048 A 
ATOM     51  C4  STU d   1     -34.474 -16.513  -8.019  0.00  0.00    -0.070 A 
ATOM     52  C1  STU d   1     -34.968 -13.707  -8.169  0.00  0.00    -0.056 A 
ATOM     53  C2  STU d   1     -34.210 -14.262  -7.149  0.00  0.00    -0.081 A 
ATOM     54  H16 STU d   1     -35.150 -12.640  -8.220  0.00  0.00     0.087 H 
ATOM     55  C3  STU d   1     -33.969 -15.626  -7.078  0.00  0.00    -0.082 A 
ATOM     56  H17 STU d   1     -33.795 -13.613  -6.387  0.00  0.00     0.083 H 
ATOM     57  H18 STU d   1     -33.368 -16.011  -6.263  0.00  0.00     0.083 H 
ATOM     58  H19 STU d   1     -34.280 -17.577  -7.951  0.00  0.00     0.084 H 
ENDBRANCH   2  24
BRANCH   6  59
ATOM     59  C26 STU d   1     -39.421 -12.960 -13.021  0.00  0.00    -0.028 C 
ATOM     60  H6  STU d   1     -39.594 -13.131 -14.094  0.00  0.00     0.034 H 
ATOM     61  H7  STU d   1     -39.511 -11.886 -12.802  0.00  0.00     0.034 H 
ATOM     62  H8  STU d   1     -40.167 -13.517 -12.436  0.00  0.00     0.034 H 
ENDBRANCH   6  59
TORSDOF 7
