REMARK  3 active torsions:
REMARK  status: ('A' for Active; 'I' for Inactive)
REMARK    1  A    between atoms: CAP_3  and  CAH_4 
REMARK    2  A    between atoms: CAH_4  and  NAK_5 
REMARK    3  A    between atoms: NAK_5  and  C6_6 
ROOT
ATOM      1  C6  CX4 d   1     -35.153 -16.330 -10.148  0.00  0.00     0.137 A 
ATOM      2  C5  CX4 d   1     -35.962 -17.062 -11.025  0.00  0.00     0.038 A 
ATOM      3  CAD CX4 d   1     -36.203 -18.432 -10.858  0.00  0.00    -0.065 A 
ATOM      4  CAB CX4 d   1     -37.009 -19.119 -11.769  0.00  0.00    -0.061 A 
ATOM      5  CAL CX4 d   1     -37.578 -18.426 -12.841  0.00  0.00     0.036 A 
ATOM      6 CLAA CX4 d   1     -38.594 -19.223 -13.978  0.00  0.00    -0.084 Cl
ATOM      7  CAE CX4 d   1     -37.342 -17.063 -13.010  0.00  0.00    -0.033 A 
ATOM      8  C4  CX4 d   1     -36.534 -16.378 -12.107  0.00  0.00     0.073 A 
ATOM      9  N3  CX4 d   1     -36.304 -15.066 -12.278  0.00  0.00    -0.241 NA
ATOM     10  C2  CX4 d   1     -35.536 -14.413 -11.424  0.00  0.00     0.089 A 
ATOM     11  N1  CX4 d   1     -34.970 -15.017 -10.385  0.00  0.00    -0.224 NA
ATOM     12  H9  CX4 d   1     -35.763 -18.960 -10.020  0.00  0.00     0.085 H 
ATOM     13  H10 CX4 d   1     -37.191 -20.180 -11.646  0.00  0.00     0.086 H 
ATOM     14  H11 CX4 d   1     -37.788 -16.536 -13.845  0.00  0.00     0.089 H 
ATOM     15  H12 CX4 d   1     -35.363 -13.354 -11.575  0.00  0.00     0.146 H 
ENDROOT
BRANCH   1  16
ATOM     16  NAK CX4 d   1     -34.575 -16.900  -9.085  0.00  0.00    -0.374 N 
ATOM     17  H8  CX4 d   1     -34.702 -17.911  -8.932  0.00  0.00     0.161 HD
BRANCH  16  18
ATOM     18  CAH CX4 d   1     -33.766 -16.134  -8.128  0.00  0.00    -0.003 C 
ATOM     19  H6  CX4 d   1     -33.002 -16.789  -7.684  0.00  0.00     0.064 H 
ATOM     20  H7  CX4 d   1     -33.275 -15.298  -8.647  0.00  0.00     0.064 H 
BRANCH  18  21
ATOM     21  CAP CX4 d   1     -34.676 -15.589  -7.026  0.00  0.00    -0.039 A 
ATOM     22  CAF CX4 d   1     -33.998 -15.421  -5.665  0.00  0.00    -0.060 A 
ATOM     23  CAG CX4 d   1     -34.988 -16.570  -5.894  0.00  0.00    -0.060 A 
ATOM     24  H1  CX4 d   1     -32.924 -15.633  -5.555  0.00  0.00     0.033 H 
ATOM     25  H2  CX4 d   1     -34.274 -14.579  -5.013  0.00  0.00     0.033 H 
ATOM     26  H3  CX4 d   1     -35.974 -16.552  -5.407  0.00  0.00     0.033 H 
ATOM     27  H4  CX4 d   1     -34.625 -17.607  -5.949  0.00  0.00     0.033 H 
ATOM     28  H5  CX4 d   1     -35.420 -14.875  -7.409  0.00  0.00     0.042 H 
ENDBRANCH  18  21
ENDBRANCH  16  18
ENDBRANCH   1  16
TORSDOF 3
