REMARK  6 active torsions:
REMARK  status: ('A' for Active; 'I' for Inactive)
REMARK    1  A    between atoms: C23_2  and  C21_4 
REMARK    2  A    between atoms: C4_6  and  O1_7 
REMARK    3  A    between atoms: O1_7  and  C2_8 
REMARK    4  A    between atoms: C7_11  and  N1_12 
REMARK    5  A    between atoms: N1_12  and  C9_13 
REMARK    6  A    between atoms: C13_19  and  C14_20 
ROOT
ATOM      1  C21 CF1 d   1      34.636  -1.094  52.730  0.00  0.00     0.070 A 
ATOM      2  C5  CF1 d   1      34.231  -2.391  52.401  0.00  0.00    -0.032 A 
ATOM      3  C4  CF1 d   1      33.298  -3.059  53.200  0.00  0.00     0.069 A 
ATOM      4  C3  CF1 d   1      32.761  -2.430  54.322  0.00  0.00    -0.049 A 
ATOM      5  C8  CF1 d   1      33.162  -1.138  54.658  0.00  0.00    -0.053 A 
ATOM      6  C7  CF1 d   1      34.083  -0.460  53.854  0.00  0.00     0.050 A 
ATOM      7  H1  CF1 d   1      34.641  -2.880  51.525  0.00  0.00     0.089 H 
ATOM      8  H5  CF1 d   1      32.031  -2.946  54.934  0.00  0.00     0.087 H 
ATOM      9  H6  CF1 d   1      32.760  -0.659  55.543  0.00  0.00     0.087 H 
ENDROOT
BRANCH   6  10
ATOM     10  N1  CF1 d   1      34.433   0.824  54.125  0.00  0.00    -0.354 N 
ATOM     11  H7  CF1 d   1      35.430   1.058  54.017  0.00  0.00     0.166 HD
BRANCH  10  12
ATOM     12  C9  CF1 d   1      33.612   1.841  54.525  0.00  0.00     0.055 A 
ATOM     13  C10 CF1 d   1      34.220   3.037  54.873  0.00  0.00     0.060 A 
ATOM     14 CL1  CF1 d   1      35.987   3.157  54.783  0.00  0.00    -0.082 Cl
ATOM     15  C11 CF1 d   1      33.482   4.140  55.282  0.00  0.00    -0.059 A 
ATOM     16  C12 CF1 d   1      32.103   4.050  55.356  0.00  0.00    -0.067 A 
ATOM     17  H8  CF1 d   1      33.983   5.066  55.542  0.00  0.00     0.086 H 
ATOM     18  C13 CF1 d   1      31.467   2.855  55.001  0.00  0.00     0.050 A 
ATOM     19  H9  CF1 d   1      31.518   4.901  55.687  0.00  0.00     0.084 H 
ATOM     20  C15 CF1 d   1      32.216   1.747  54.584  0.00  0.00    -0.041 A 
ATOM     21  H10 CF1 d   1      31.719   0.824  54.309  0.00  0.00     0.088 H 
BRANCH  18  22
ATOM     22  C14 CF1 d   1      29.973   2.799  55.093  0.00  0.00     0.417 C 
ATOM     23  F1  CF1 d   1      29.620   3.156  56.307  0.00  0.00    -0.166 F 
ATOM     24  F3  CF1 d   1      29.461   3.641  54.225  0.00  0.00    -0.166 F 
ATOM     25  F2  CF1 d   1      29.511   1.588  54.833  0.00  0.00    -0.166 F 
ENDBRANCH  18  22
ENDBRANCH  10  12
ENDBRANCH   6  10
BRANCH   1  26
ATOM     26  C23 CF1 d   1      35.648  -0.381  51.860  0.00  0.00     0.211 C 
ATOM     27  O23 CF1 d   1      36.009   0.776  52.158  0.00  0.00    -0.644 OA
ATOM     28  O24 CF1 d   1      36.117  -0.950  50.852  0.00  0.00    -0.644 OA
ENDBRANCH   1  26
BRANCH   3  29
ATOM     29  O1  CF1 d   1      32.896  -4.336  52.880  0.00  0.00    -0.356 OA
BRANCH  29  30
ATOM     30  C2  CF1 d   1      33.780  -5.453  53.046  0.00  0.00     0.010 C 
ATOM     31  H2  CF1 d   1      33.268  -6.375  52.735  0.00  0.00     0.066 H 
ATOM     32  H3  CF1 d   1      34.073  -5.535  54.103  0.00  0.00     0.066 H 
ATOM     33  H4  CF1 d   1      34.678  -5.306  52.427  0.00  0.00     0.066 H 
ENDBRANCH  29  30
ENDBRANCH   3  29
TORSDOF 6
