REMARK  4 active torsions:
REMARK  status: ('A' for Active; 'I' for Inactive)
REMARK    1  A    between atoms: C1_1  and  S1_12 
REMARK    2  A    between atoms: N4_8  and  C2_2 
REMARK    3  A    between atoms: C3_3  and  C4_4 
REMARK       I    between atoms: C3_3  and  N4_8 
REMARK    4  A    between atoms: S1_12  and  N1_5 
ROOT
ATOM      1  C1  AZM d   1      -5.095   2.081  15.800  0.00  0.00     0.237 A 
ATOM      2  C2  AZM d   1      -4.692   3.959  14.342  0.00  0.00     0.197 A 
ATOM      3  N2  AZM d   1      -3.597   3.326  14.709  0.00  0.00    -0.122 NA
ATOM      4  N3  AZM d   1      -3.820   2.185  15.542  0.00  0.00    -0.126 NA
ATOM      5  S2  AZM d   1      -6.073   3.304  15.033  0.00  0.00    -0.015 SA
ENDROOT
BRANCH   2   6
ATOM      6  N4  AZM d   1      -4.685   5.076  13.508  0.00  0.00    -0.305 N 
ATOM      7  C3  AZM d   1      -5.842   5.662  13.147  0.00  0.00     0.219 C 
ATOM      8  O3  AZM d   1      -6.936   5.292  13.550  0.00  0.00    -0.274 OA
ATOM      9  H6  AZM d   1      -3.816   5.444  13.176  0.00  0.00     0.171 HD
BRANCH   7  10
ATOM     10  C4  AZM d   1      -5.697   6.765  12.120  0.00  0.00    -0.002 C 
ATOM     11  H1  AZM d   1      -6.688   7.182  11.888  0.00  0.00     0.040 H 
ATOM     12  H2  AZM d   1      -5.248   6.356  11.203  0.00  0.00     0.040 H 
ATOM     13  H3  AZM d   1      -5.050   7.558  12.523  0.00  0.00     0.040 H 
ENDBRANCH   7  10
ENDBRANCH   2   6
BRANCH   1  14
ATOM     14  S1  AZM d   1      -5.854   0.821  16.793  0.00  0.00     0.282 S 
ATOM     15  O1  AZM d   1      -5.327   1.056  18.082  0.00  0.00    -0.199 OA
ATOM     16  O2  AZM d   1      -7.246   1.049  16.567  0.00  0.00    -0.199 OA
BRANCH  14  17
ATOM     17  N1  AZM d   1      -5.424  -0.555  16.188  0.00  0.00    -0.323 N 
ATOM     18  H4  AZM d   1      -5.746  -1.406  16.603  0.00  0.00     0.169 HD
ATOM     19  H5  AZM d   1      -4.827  -0.584  15.386  0.00  0.00     0.169 HD
ENDBRANCH  14  17
ENDBRANCH   1  14
TORSDOF 4
