REMARK  11 active torsions:
REMARK  status: ('A' for Active; 'I' for Inactive)
REMARK    1  A    between atoms: PG_1  and  S3G_4 
REMARK    2  A    between atoms: O3B_8  and  PG_1 
REMARK    3  A    between atoms: PB_5  and  O3B_8 
REMARK    4  A    between atoms: O3A_12  and  PB_5 
REMARK    5  A    between atoms: PA_9  and  O3A_12 
REMARK    6  A    between atoms: PA_9  and  O5'_13 
REMARK    7  A    between atoms: O5'_13  and  C5'_14 
REMARK    8  A    between atoms: C5'_14  and  C4'_15 
REMARK    9  A    between atoms: C3'_17  and  O3'_18 
REMARK   10  A    between atoms: C2'_19  and  O2'_20 
REMARK   11  A    between atoms: C1'_21  and  N9_22 
ROOT
ATOM      1  C4' AGS d   1      19.569  45.001 -10.411  0.00  0.00     0.089 C 
ATOM      2  O4' AGS d   1      20.087  44.515 -11.666  0.00  0.00    -0.353 OA
ATOM      3  C3' AGS d   1      20.723  44.852  -9.430  0.00  0.00     0.091 C 
ATOM      4  C2' AGS d   1      21.453  43.630  -9.918  0.00  0.00     0.105 C 
ATOM      5  C1' AGS d   1      21.307  43.762 -11.444  0.00  0.00     0.139 C 
ATOM      6  H4  AGS d   1      18.711  44.394 -10.086  0.00  0.00     0.090 H 
ATOM      7  H5  AGS d   1      21.387  45.723  -9.534  0.00  0.00     0.091 H 
ATOM      8  H7  AGS d   1      22.502  43.596  -9.590  0.00  0.00     0.093 H 
ATOM      9  H9  AGS d   1      21.215  42.765 -11.900  0.00  0.00     0.122 H 
ENDROOT
BRANCH   1  10
ATOM     10  C5' AGS d   1      19.130  46.465 -10.546  0.00  0.00     0.058 C 
ATOM     11  H2  AGS d   1      18.481  46.581 -11.426  0.00  0.00     0.079 H 
ATOM     12  H3  AGS d   1      18.583  46.776  -9.644  0.00  0.00     0.079 H 
BRANCH  10  13
ATOM     13  O5' AGS d   1      20.307  47.264 -10.701  0.00  0.00    -0.287 OA
BRANCH  13  14
ATOM     14  PA  AGS d   1      20.481  48.732 -10.039  0.00  0.00     0.417 P 
ATOM     15  O1A AGS d   1      21.923  48.985  -9.722  0.00  0.00    -0.624 OA
ATOM     16  O2A AGS d   1      19.382  49.112  -9.083  0.00  0.00    -0.624 OA
BRANCH  14  17
ATOM     17  O3A AGS d   1      20.135  49.598 -11.348  0.00  0.00    -0.180 OA
BRANCH  17  18
ATOM     18  PB  AGS d   1      20.453  51.177 -11.506  0.00  0.00     0.426 P 
ATOM     19  O1B AGS d   1      20.546  51.793 -10.156  0.00  0.00    -0.624 OA
ATOM     20  O2B AGS d   1      21.450  51.323 -12.608  0.00  0.00    -0.624 OA
BRANCH  18  21
ATOM     21  O3B AGS d   1      18.996  51.567 -12.133  0.00  0.00    -0.195 OA
BRANCH  21  22
ATOM     22  PG  AGS d   1      18.160  52.945 -12.061  0.00  0.00     0.322 P 
ATOM     23  O1G AGS d   1      18.903  54.002 -12.875  0.00  0.00    -0.638 OA
ATOM     24  O2G AGS d   1      17.877  53.344 -10.630  0.00  0.00    -0.638 OA
BRANCH  22  25
ATOM     25  S3G AGS d   1      16.296  52.414 -12.818  0.00  0.00    -0.054 SA
ATOM     26  H1  AGS d   1      16.394  52.131 -13.780  0.00  0.00     0.114 HD
ENDBRANCH  22  25
ENDBRANCH  21  22
ENDBRANCH  18  21
ENDBRANCH  17  18
ENDBRANCH  14  17
ENDBRANCH  13  14
ENDBRANCH  10  13
ENDBRANCH   1  10
BRANCH   3  27
ATOM     27  O3' AGS d   1      20.331  44.799  -8.046  0.00  0.00    -0.390 OA
ATOM     28  H6  AGS d   1      19.875  45.600  -7.816  0.00  0.00     0.210 HD
ENDBRANCH   3  27
BRANCH   5  29
ATOM     29  N9  AGS d   1      22.490  44.445 -12.022  0.00  0.00    -0.294 N 
ATOM     30  C8  AGS d   1      22.457  45.645 -12.610  0.00  0.00     0.071 A 
ATOM     31  N7  AGS d   1      23.682  46.034 -13.034  0.00  0.00    -0.236 NA
ATOM     32  H10 AGS d   1      21.552  46.239 -12.733  0.00  0.00     0.144 H 
ATOM     33  C5  AGS d   1      24.554  45.063 -12.717  0.00  0.00     0.149 A 
ATOM     34  C6  AGS d   1      26.012  44.848 -12.882  0.00  0.00     0.155 A 
ATOM     35  C4  AGS d   1      23.779  44.013 -12.055  0.00  0.00     0.167 A 
ATOM     36  N6  AGS d   1      26.797  45.765 -13.503  0.00  0.00    -0.382 N 
ATOM     37  N1  AGS d   1      26.542  43.699 -12.407  0.00  0.00    -0.222 NA
ATOM     38  H11 AGS d   1      27.807  45.593 -13.605  0.00  0.00     0.157 HD
ATOM     39  H12 AGS d   1      26.382  46.633 -13.872  0.00  0.00     0.157 HD
ATOM     40  C2  AGS d   1      25.782  42.776 -11.799  0.00  0.00     0.091 A 
ATOM     41  N3  AGS d   1      24.461  42.912 -11.631  0.00  0.00    -0.222 NA
ATOM     42  H13 AGS d   1      26.260  41.877 -11.426  0.00  0.00     0.146 H 
ENDBRANCH   5  29
BRANCH   4  43
ATOM     43  O2' AGS d   1      20.726  42.471  -9.484  0.00  0.00    -0.388 OA
ATOM     44  H8  AGS d   1      21.173  41.688  -9.783  0.00  0.00     0.210 HD
ENDBRANCH   4  43
TORSDOF 11
