REMARK  10 active torsions:
REMARK  status: ('A' for Active; 'I' for Inactive)
REMARK    1  A    between atoms: CAC_1  and  NBG_2 
REMARK    2  A    between atoms: NBG_2  and  CAD_3 
REMARK       I    between atoms: NBG_2  and  CAV_4 
REMARK    3  A    between atoms: CAV_4  and  CAU_6 
REMARK    4  A    between atoms: CAU_6  and  CBB_8 
REMARK    5  A    between atoms: NBJ_12  and  CAE_13 
REMARK    6  A    between atoms: CBA_18  and  CAW_19 
REMARK       I    between atoms: CAW_19  and  NBI_21 
REMARK    7  A    between atoms: CBF_22  and  CAB_24 
REMARK    8  A    between atoms: CBE_26  and  CAA_27 
REMARK    9  A    between atoms: NBH_28  and  CAR_29 
REMARK   10  A    between atoms: CAR_29  and  CAZ_30 
ROOT
ATOM      1  CAW 469 d   1      19.633   1.890 -24.952  0.00  0.00     0.256 C 
ATOM      2  OAH 469 d   1      19.820   1.520 -26.097  0.00  0.00    -0.267 OA
ATOM      3  NBI 469 d   1      19.981   1.129 -23.883  0.00  0.00    -0.340 N 
ATOM      4  CBF 469 d   1      20.504  -0.238 -23.971  0.00  0.00     0.035 C 
ATOM      5  CAS 469 d   1      21.681  -0.288 -23.043  0.00  0.00     0.102 C 
ATOM      6  CAT 469 d   1      19.719   1.661 -22.487  0.00  0.00     0.025 C 
ATOM      7  CBE 469 d   1      20.887   1.535 -21.550  0.00  0.00     0.116 C 
ATOM      8  NBH 469 d   1      21.256   0.104 -21.676  0.00  0.00    -0.060 N 
ATOM      9  H13 469 d   1      20.797  -0.485 -25.002  0.00  0.00     0.074 H 
ATOM     10  H14 469 d   1      22.457   0.406 -23.398  0.00  0.00     0.079 H 
ATOM     11  H15 469 d   1      22.086  -1.310 -23.021  0.00  0.00     0.079 H 
ATOM     12  H19 469 d   1      18.872   1.105 -22.059  0.00  0.00     0.067 H 
ATOM     13  H20 469 d   1      19.455   2.726 -22.568  0.00  0.00     0.067 H 
ATOM     14  H21 469 d   1      20.621   1.772 -20.509  0.00  0.00     0.086 H 
ATOM     15  H25 469 d   1      20.422  -0.420 -21.461  0.00  0.00     0.280 HD
ENDROOT
BRANCH   1  16
ATOM     16  CBA 469 d   1      19.093   3.287 -24.636  0.00  0.00     0.054 A 
ATOM     17  CAP 469 d   1      19.840   4.368 -25.065  0.00  0.00    -0.053 A 
ATOM     18  CBC 469 d   1      19.406   5.650 -24.746  0.00  0.00     0.007 A 
ATOM     19  H7  469 d   1      20.747   4.219 -25.639  0.00  0.00     0.086 H 
ATOM     20  CBB 469 d   1      19.911   6.916 -24.988  0.00  0.00     0.048 A 
ATOM     21  CBD 469 d   1      18.215   5.856 -24.023  0.00  0.00     0.046 A 
ATOM     22  CAQ 469 d   1      19.051   7.834 -24.503  0.00  0.00    -0.006 A 
ATOM     23  NBJ 469 d   1      18.040   7.188 -23.904  0.00  0.00    -0.359 N 
ATOM     24  H8  469 d   1      19.159   8.915 -24.584  0.00  0.00     0.113 H 
ATOM     25  CAO 469 d   1      17.462   4.754 -23.611  0.00  0.00    -0.034 A 
ATOM     26  CAY 469 d   1      17.907   3.474 -23.905  0.00  0.00     0.051 A 
ATOM     27  H12 469 d   1      16.537   4.898 -23.065  0.00  0.00     0.089 H 
ATOM     28 CLA  469 d   1      16.903   2.158 -23.379  0.00  0.00    -0.083 Cl
BRANCH  20  29
ATOM     29  CAU 469 d   1      21.124   7.188 -25.885  0.00  0.00     0.251 C 
ATOM     30  OAF 469 d   1      21.521   6.257 -26.574  0.00  0.00    -0.281 OA
BRANCH  29  31
ATOM     31  CAV 469 d   1      21.749   8.585 -26.231  0.00  0.00     0.294 C 
ATOM     32  NBG 469 d   1      22.782   8.699 -27.148  0.00  0.00    -0.354 N 
ATOM     33  OAG 469 d   1      21.304   9.542 -25.595  0.00  0.00    -0.264 OA
BRANCH  32  34
ATOM     34  CAC 469 d   1      23.334   7.509 -27.914  0.00  0.00    -0.016 C 
ATOM     35  H1  469 d   1      24.144   7.844 -28.579  0.00  0.00     0.056 H 
ATOM     36  H2  469 d   1      22.532   7.055 -28.514  0.00  0.00     0.056 H 
ATOM     37  H3  469 d   1      23.726   6.766 -27.204  0.00  0.00     0.056 H 
ENDBRANCH  32  34
BRANCH  32  38
ATOM     38  CAD 469 d   1      23.385  10.028 -27.380  0.00  0.00    -0.016 C 
ATOM     39  H4  469 d   1      22.876  10.776 -26.754  0.00  0.00     0.056 H 
ATOM     40  H5  469 d   1      23.275  10.301 -28.440  0.00  0.00     0.056 H 
ATOM     41  H6  469 d   1      24.453   9.997 -27.119  0.00  0.00     0.056 H 
ENDBRANCH  32  38
ENDBRANCH  29  31
ENDBRANCH  20  29
BRANCH  23  42
ATOM     42  CAE 469 d   1      16.963   7.846 -23.196  0.00  0.00    -0.014 C 
ATOM     43  H9  469 d   1      17.086   8.936 -23.273  0.00  0.00     0.057 H 
ATOM     44  H10 469 d   1      16.985   7.548 -22.137  0.00  0.00     0.057 H 
ATOM     45  H11 469 d   1      16.000   7.553 -23.640  0.00  0.00     0.057 H 
ENDBRANCH  23  42
ENDBRANCH   1  16
BRANCH   4  46
ATOM     46  CAB 469 d   1      19.429  -1.235 -23.452  0.00  0.00    -0.056 C 
ATOM     47  H16 469 d   1      19.819  -2.261 -23.517  0.00  0.00     0.030 H 
ATOM     48  H17 469 d   1      18.521  -1.148 -24.067  0.00  0.00     0.030 H 
ATOM     49  H18 469 d   1      19.187  -1.001 -22.405  0.00  0.00     0.030 H 
ENDBRANCH   4  46
BRANCH   7  50
ATOM     50  CAA 469 d   1      21.930   2.543 -22.067  0.00  0.00    -0.048 C 
ATOM     51  H22 469 d   1      22.823   2.508 -21.425  0.00  0.00     0.030 H 
ATOM     52  H23 469 d   1      21.503   3.556 -22.046  0.00  0.00     0.030 H 
ATOM     53  H24 469 d   1      22.210   2.284 -23.099  0.00  0.00     0.030 H 
ENDBRANCH   7  50
BRANCH   8  54
ATOM     54  CAR 469 d   1      22.279  -0.319 -20.746  0.00  0.00     0.107 C 
ATOM     55  H26 469 d   1      21.875  -0.197 -19.730  0.00  0.00     0.083 H 
ATOM     56  H27 469 d   1      23.144   0.348 -20.879  0.00  0.00     0.083 H 
BRANCH  54  57
ATOM     57  CAZ 469 d   1      22.789  -1.777 -20.874  0.00  0.00    -0.032 A 
ATOM     58  CAM 469 d   1      24.091  -2.030 -21.383  0.00  0.00    -0.072 A 
ATOM     59  CAK 469 d   1      24.550  -3.355 -21.439  0.00  0.00    -0.045 A 
ATOM     60  H28 469 d   1      24.719  -1.214 -21.722  0.00  0.00     0.084 H 
ATOM     61  CAX 469 d   1      23.728  -4.415 -20.984  0.00  0.00     0.116 A 
ATOM     62  H29 469 d   1      25.538  -3.568 -21.832  0.00  0.00     0.088 H 
ATOM     63  FAI 469 d   1      24.168  -5.704 -21.034  0.00  0.00    -0.206 F 
ATOM     64  CAL 469 d   1      22.435  -4.158 -20.498  0.00  0.00    -0.045 A 
ATOM     65  CAN 469 d   1      21.967  -2.833 -20.428  0.00  0.00    -0.072 A 
ATOM     66  H30 469 d   1      21.801  -4.977 -20.178  0.00  0.00     0.088 H 
ATOM     67  H31 469 d   1      20.979  -2.625 -20.033  0.00  0.00     0.084 H 
ENDBRANCH  54  57
ENDBRANCH   8  54
TORSDOF 10
