REMARK  5 active torsions:
REMARK  status: ('A' for Active; 'I' for Inactive)
REMARK    1  A    between atoms: C2'_10  and  O2'_11 
REMARK    2  A    between atoms: C1'_12  and  N9_13 
REMARK    3  A    between atoms: C2_20  and  N2_21 
REMARK    4  A    between atoms: C2A_33  and  O2A_34 
REMARK    5  A    between atoms: C1A_35  and  N91_36 
ROOT
ATOM      1  P1  C2E d   1     -27.655  -1.458 -15.217  0.00  0.00     0.408 P 
ATOM      2  O2P C2E d   1     -28.573  -0.388 -14.465  0.00  0.00    -0.624 OA
ATOM      3  O1P C2E d   1     -27.983  -1.350 -16.653  0.00  0.00    -0.624 OA
ATOM      4  O5' C2E d   1     -26.093  -1.147 -15.160  0.00  0.00    -0.287 OA
ATOM      5  C5' C2E d   1     -25.575  -0.174 -16.088  0.00  0.00     0.058 C 
ATOM      6  C4' C2E d   1     -24.960  -0.796 -17.360  0.00  0.00     0.090 C 
ATOM      7  O4' C2E d   1     -24.410   0.268 -18.174  0.00  0.00    -0.353 OA
ATOM      8  C3' C2E d   1     -23.761  -1.606 -16.884  0.00  0.00     0.106 C 
ATOM      9  O3' C2E d   1     -23.636  -2.786 -17.692  0.00  0.00    -0.279 OA
ATOM     10  C2' C2E d   1     -22.562  -0.640 -17.034  0.00  0.00     0.106 C 
ATOM     11  C1' C2E d   1     -22.996   0.165 -18.259  0.00  0.00     0.139 C 
ATOM     12  P11 C2E d   1     -23.353  -4.170 -16.921  0.00  0.00     0.408 P 
ATOM     13  O21 C2E d   1     -23.180  -5.293 -18.010  0.00  0.00    -0.624 OA
ATOM     14  O11 C2E d   1     -22.231  -4.030 -15.971  0.00  0.00    -0.624 OA
ATOM     15  O5A C2E d   1     -24.660  -4.413 -16.056  0.00  0.00    -0.287 OA
ATOM     16  C5A C2E d   1     -25.914  -4.593 -16.728  0.00  0.00     0.058 C 
ATOM     17  C4A C2E d   1     -27.006  -4.978 -15.733  0.00  0.00     0.090 C 
ATOM     18  O4A C2E d   1     -26.653  -6.217 -15.100  0.00  0.00    -0.353 OA
ATOM     19  C3A C2E d   1     -27.199  -3.990 -14.581  0.00  0.00     0.106 C 
ATOM     20  O3A C2E d   1     -28.103  -2.940 -14.902  0.00  0.00    -0.279 OA
ATOM     21  C2A C2E d   1     -27.883  -4.889 -13.549  0.00  0.00     0.106 C 
ATOM     22  C1A C2E d   1     -27.173  -6.227 -13.786  0.00  0.00     0.139 C 
ATOM     23  H1  C2E d   1     -24.797   0.413 -15.578  0.00  0.00     0.079 H 
ATOM     24  H2  C2E d   1     -26.398   0.491 -16.390  0.00  0.00     0.079 H 
ATOM     25  H3  C2E d   1     -25.689  -1.405 -17.915  0.00  0.00     0.090 H 
ATOM     26  H4  C2E d   1     -23.880  -1.901 -15.831  0.00  0.00     0.092 H 
ATOM     27  H5  C2E d   1     -22.457  -0.001 -16.145  0.00  0.00     0.093 H 
ATOM     28  H7  C2E d   1     -22.710  -0.386 -19.167  0.00  0.00     0.122 H 
ATOM     29  H13 C2E d   1     -25.811  -5.391 -17.478  0.00  0.00     0.079 H 
ATOM     30  H14 C2E d   1     -26.195  -3.654 -17.227  0.00  0.00     0.079 H 
ATOM     31  H15 C2E d   1     -27.953  -5.085 -16.282  0.00  0.00     0.090 H 
ATOM     32  H16 C2E d   1     -26.241  -3.580 -14.227  0.00  0.00     0.092 H 
ATOM     33  H17 C2E d   1     -27.779  -4.511 -12.521  0.00  0.00     0.093 H 
ATOM     34  H19 C2E d   1     -27.875  -7.064 -13.656  0.00  0.00     0.122 H 
ENDROOT
BRANCH  11  35
ATOM     35  N9  C2E d   1     -22.435   1.505 -18.341  0.00  0.00    -0.295 N 
ATOM     36  C8  C2E d   1     -21.856   2.231 -17.327  0.00  0.00     0.071 A 
ATOM     37  N7  C2E d   1     -21.634   3.459 -17.737  0.00  0.00    -0.234 NA
ATOM     38  H8  C2E d   1     -21.618   1.847 -16.336  0.00  0.00     0.144 H 
ATOM     39  C5  C2E d   1     -22.041   3.565 -19.036  0.00  0.00     0.171 A 
ATOM     40  C6  C2E d   1     -22.038   4.621 -19.975  0.00  0.00     0.292 A 
ATOM     41  C4  C2E d   1     -22.532   2.320 -19.427  0.00  0.00     0.161 A 
ATOM     42  O6  C2E d   1     -21.655   5.760 -19.701  0.00  0.00    -0.265 OA
ATOM     43  N1  C2E d   1     -22.510   4.340 -21.198  0.00  0.00    -0.154 N 
ATOM     44  C2  C2E d   1     -22.969   3.103 -21.529  0.00  0.00     0.680 A 
ATOM     45  H9  C2E d   1     -22.525   5.063 -21.889  0.00  0.00     0.187 HD
ATOM     46  N3  C2E d   1     -22.978   2.113 -20.667  0.00  0.00    -0.174 N 
ATOM     47  H12 C2E d   1     -23.326   1.185 -20.946  0.00  0.00     0.186 HD
BRANCH  44  48
ATOM     48  N2  C2E d   1     -23.441   2.895 -22.799  0.00  0.00    -0.234 N 
ATOM     49  H10 C2E d   1     -23.794   1.966 -23.072  0.00  0.00     0.174 HD
ATOM     50  H11 C2E d   1     -23.443   3.667 -23.480  0.00  0.00     0.174 HD
ENDBRANCH  44  48
ENDBRANCH  11  35
BRANCH  10  51
ATOM     51  O2' C2E d   1     -21.332  -1.295 -17.281  0.00  0.00    -0.388 OA
ATOM     52  H6  C2E d   1     -21.396  -1.794 -18.087  0.00  0.00     0.210 HD
ENDBRANCH  10  51
BRANCH  21  53
ATOM     53  O2A C2E d   1     -29.261  -5.098 -13.904  0.00  0.00    -0.388 OA
ATOM     54  H18 C2E d   1     -29.710  -4.261 -13.933  0.00  0.00     0.210 HD
ENDBRANCH  21  53
BRANCH  22  55
ATOM     55  N91 C2E d   1     -26.067  -6.345 -12.844  0.00  0.00    -0.295 N 
ATOM     56  C81 C2E d   1     -24.772  -5.936 -12.991  0.00  0.00     0.071 A 
ATOM     57  N71 C2E d   1     -24.115  -6.241 -11.906  0.00  0.00    -0.234 NA
ATOM     58  H20 C2E d   1     -24.358  -5.439 -13.867  0.00  0.00     0.144 H 
ATOM     59  C51 C2E d   1     -24.932  -6.919 -11.045  0.00  0.00     0.171 A 
ATOM     60  C61 C2E d   1     -24.791  -7.519  -9.777  0.00  0.00     0.292 A 
ATOM     61  C41 C2E d   1     -26.187  -6.994 -11.666  0.00  0.00     0.161 A 
ATOM     62  O61 C2E d   1     -23.761  -7.432  -9.097  0.00  0.00    -0.265 OA
ATOM     63  N11 C2E d   1     -25.902  -8.123  -9.280  0.00  0.00    -0.154 N 
ATOM     64  C21 C2E d   1     -27.094  -8.167  -9.951  0.00  0.00     0.680 A 
ATOM     65  H21 C2E d   1     -25.846  -8.556  -8.380  0.00  0.00     0.187 HD
ATOM     66  N21 C2E d   1     -28.174  -8.758  -9.359  0.00  0.00    -0.234 N 
ATOM     67  N31 C2E d   1     -27.249  -7.593 -11.115  0.00  0.00    -0.174 N 
ATOM     68  H22 C2E d   1     -29.076  -8.797  -9.855  0.00  0.00     0.174 HD
ATOM     69  H23 C2E d   1     -28.086  -9.165  -8.417  0.00  0.00     0.174 HD
ATOM     70  H24 C2E d   1     -28.161  -7.601 -11.594  0.00  0.00     0.186 HD
ENDBRANCH  22  55
TORSDOF 5
