REMARK  13 active torsions:
REMARK  status: ('A' for Active; 'I' for Inactive)
REMARK    1  A    between atoms: C24_7  and  C22_8 
REMARK    2  A    between atoms: C33_11  and  O34_12 
REMARK    3  A    between atoms: C31_13  and  O32_14 
REMARK    4  A    between atoms: C20_15  and  C18_16 
REMARK       I    between atoms: C18_16  and  N17_18 
REMARK    5  A    between atoms: N17_18  and  C16_19 
REMARK    6  A    between atoms: C16_19  and  C15_20 
REMARK    7  A    between atoms: C14_21  and  C6_22 
REMARK    8  A    between atoms: C4_23  and  O5_24 
REMARK    9  A    between atoms: C2_25  and  O3_26 
REMARK   10  A    between atoms: C1_28  and  N10_29 
REMARK   11  A    between atoms: C35_35  and  N7_38 
REMARK   12  A    between atoms: N7_38  and  C36_39 
REMARK   13  A    between atoms: C36_39  and  C37_40 
ROOT
ATOM      1  C15 619 d   1      -2.647  18.127  13.934  0.00  0.00    -0.087 C 
ATOM      2  C14 619 d   1      -3.455  18.964  14.533  0.00  0.00    -0.075 C 
ATOM      3  H12 619 d   1      -1.699  18.506  13.554  0.00  0.00     0.079 H 
ATOM      4  H13 619 d   1      -4.404  18.596  14.920  0.00  0.00     0.080 H 
ENDROOT
BRANCH   2   5
ATOM      5  C6  619 d   1      -3.110  20.434  14.706  0.00  0.00     0.084 C 
ATOM      6  C4  619 d   1      -3.745  21.016  15.980  0.00  0.00     0.092 C 
ATOM      7  C2  619 d   1      -5.128  21.378  15.430  0.00  0.00     0.105 C 
ATOM      8  H15 619 d   1      -3.813  20.260  16.776  0.00  0.00     0.091 H 
ATOM      9  C1  619 d   1      -4.791  21.905  14.044  0.00  0.00     0.140 C 
ATOM     10  H17 619 d   1      -5.724  20.459  15.335  0.00  0.00     0.093 H 
ATOM     11  O13 619 d   1      -3.632  21.210  13.616  0.00  0.00    -0.352 OA
ATOM     12  H19 619 d   1      -4.574  22.981  14.120  0.00  0.00     0.123 H 
ATOM     13  H14 619 d   1      -2.016  20.540  14.753  0.00  0.00     0.093 H 
BRANCH   6  14
ATOM     14  O5  619 d   1      -3.057  22.129  16.471  0.00  0.00    -0.390 OA
ATOM     15  H16 619 d   1      -3.051  22.813  15.812  0.00  0.00     0.210 HD
ENDBRANCH   6  14
BRANCH   7  16
ATOM     16  O3  619 d   1      -5.891  22.275  16.212  0.00  0.00    -0.388 OA
ATOM     17  H18 619 d   1      -5.420  23.095  16.302  0.00  0.00     0.210 HD
ENDBRANCH   7  16
BRANCH   9  18
ATOM     18  N10 619 d   1      -5.836  21.722  13.061  0.00  0.00    -0.294 N 
ATOM     19  C9  619 d   1      -6.350  20.476  12.641  0.00  0.00     0.071 A 
ATOM     20  N8  619 d   1      -7.097  20.601  11.551  0.00  0.00    -0.236 NA
ATOM     21  H20 619 d   1      -6.158  19.531  13.148  0.00  0.00     0.144 H 
ATOM     22  C12 619 d   1      -7.001  21.922  11.161  0.00  0.00     0.149 A 
ATOM     23  C11 619 d   1      -6.213  22.634  12.097  0.00  0.00     0.167 A 
ATOM     24  C35 619 d   1      -7.500  22.703  10.120  0.00  0.00     0.157 A 
ATOM     25  N40 619 d   1      -5.918  23.944  12.038  0.00  0.00    -0.222 NA
ATOM     26  C39 619 d   1      -6.396  24.594  10.980  0.00  0.00     0.091 A 
ATOM     27  N38 619 d   1      -7.162  24.010  10.030  0.00  0.00    -0.222 NA
ATOM     28  H21 619 d   1      -6.159  25.646  10.874  0.00  0.00     0.146 H 
BRANCH  24  29
ATOM     29  N7  619 d   1      -8.284  22.247   9.109  0.00  0.00    -0.373 N 
ATOM     30  H22 619 d   1      -8.414  22.863   8.294  0.00  0.00     0.161 HD
BRANCH  29  31
ATOM     31  C36 619 d   1      -8.960  20.947   9.088  0.00  0.00    -0.009 C 
ATOM     32  H23 619 d   1      -8.268  20.179   9.464  0.00  0.00     0.063 H 
ATOM     33  H24 619 d   1      -9.244  20.709   8.052  0.00  0.00     0.063 H 
BRANCH  31  34
ATOM     34  C37 619 d   1     -10.191  20.952   9.941  0.00  0.00    -0.061 C 
ATOM     35  H25 619 d   1     -10.669  19.962   9.900  0.00  0.00     0.029 H 
ATOM     36  H26 619 d   1     -10.892  21.714   9.569  0.00  0.00     0.029 H 
ATOM     37  H27 619 d   1      -9.916  21.183  10.981  0.00  0.00     0.029 H 
ENDBRANCH  31  34
ENDBRANCH  29  31
ENDBRANCH  24  29
ENDBRANCH   9  18
ENDBRANCH   2   5
BRANCH   1  38
ATOM     38  C16 619 d   1      -2.962  16.664  13.743  0.00  0.00     0.010 C 
ATOM     39  H10 619 d   1      -3.653  16.326  14.529  0.00  0.00     0.070 H 
ATOM     40  H11 619 d   1      -3.423  16.508  12.757  0.00  0.00     0.070 H 
BRANCH  38  41
ATOM     41  N17 619 d   1      -1.710  15.916  13.829  0.00  0.00    -0.353 N 
ATOM     42  C18 619 d   1      -1.725  14.653  14.220  0.00  0.00     0.254 C 
ATOM     43  O19 619 d   1      -2.788  14.034  14.389  0.00  0.00    -0.268 OA
ATOM     44  H9  619 d   1      -0.845  16.358  13.593  0.00  0.00     0.163 HD
BRANCH  42  45
ATOM     45  C20 619 d   1      -0.402  13.978  14.421  0.00  0.00     0.068 A 
ATOM     46  C21 619 d   1      -0.433  12.765  15.137  0.00  0.00    -0.054 A 
ATOM     47  C22 619 d   1       0.740  12.088  15.414  0.00  0.00    -0.022 A 
ATOM     48  H5  619 d   1      -1.381  12.361  15.472  0.00  0.00     0.086 H 
ATOM     49  C23 619 d   1       1.961  12.628  14.949  0.00  0.00    -0.037 A 
ATOM     50  C33 619 d   1       1.989  13.843  14.263  0.00  0.00     0.100 A 
ATOM     51  H6  619 d   1       2.886  12.092  15.127  0.00  0.00     0.089 H 
ATOM     52  C31 619 d   1       0.785  14.521  13.954  0.00  0.00     0.114 A 
BRANCH  47  53
ATOM     53  C24 619 d   1       0.712  10.813  16.175  0.00  0.00    -0.026 A 
ATOM     54  C25 619 d   1      -0.211  10.625  17.202  0.00  0.00    -0.069 A 
ATOM     55  C26 619 d   1      -0.234   9.470  17.932  0.00  0.00    -0.045 A 
ATOM     56  H2  619 d   1      -0.924  11.410  17.426  0.00  0.00     0.085 H 
ATOM     57  C29 619 d   1       0.636   8.442  17.600  0.00  0.00     0.116 A 
ATOM     58  H1  619 d   1      -0.924   9.358  18.761  0.00  0.00     0.088 H 
ATOM     59  F30 619 d   1       0.632   7.275  18.298  0.00  0.00    -0.206 F 
ATOM     60  C28 619 d   1       1.566   8.567  16.568  0.00  0.00    -0.045 A 
ATOM     61  C27 619 d   1       1.573   9.758  15.850  0.00  0.00    -0.069 A 
ATOM     62  H3  619 d   1       2.258   7.766  16.334  0.00  0.00     0.088 H 
ATOM     63  H4  619 d   1       2.261   9.872  15.020  0.00  0.00     0.085 H 
ENDBRANCH  47  53
BRANCH  50  64
ATOM     64  O34 619 d   1       3.159  14.360  13.801  0.00  0.00    -0.358 OA
ATOM     65  H7  619 d   1       2.988  15.185  13.363  0.00  0.00     0.217 HD
ENDBRANCH  50  64
BRANCH  52  66
ATOM     66  O32 619 d   1       0.913  15.651  13.242  0.00  0.00    -0.357 OA
ATOM     67  H8  619 d   1       1.327  15.454  12.410  0.00  0.00     0.217 HD
ENDBRANCH  52  66
ENDBRANCH  42  45
ENDBRANCH  38  41
ENDBRANCH   1  38
TORSDOF 13
