REMARK  14 active torsions:
REMARK  status: ('A' for Active; 'I' for Inactive)
REMARK    1  A    between atoms: C24_7  and  C22_8 
REMARK    2  A    between atoms: C33_11  and  O34_12 
REMARK    3  A    between atoms: C31_13  and  O32_14 
REMARK    4  A    between atoms: C20_15  and  C18_16 
REMARK       I    between atoms: C18_16  and  N17_18 
REMARK    5  A    between atoms: N17_18  and  C16_19 
REMARK    6  A    between atoms: C16_19  and  C15_20 
REMARK    7  A    between atoms: C14_21  and  C6_22 
REMARK    8  A    between atoms: C4_23  and  O5_24 
REMARK    9  A    between atoms: C2_25  and  O3_26 
REMARK   10  A    between atoms: C1_28  and  N10_29 
REMARK   11  A    between atoms: C35_35  and  N7_38 
REMARK   12  A    between atoms: N7_38  and  C36_39 
REMARK   13  A    between atoms: C36_39  and  C37_40 
REMARK   14  A    between atoms: C37_40  and  C41_41 
ROOT
ATOM      1  C6  705 d   1     -17.009  11.837 -33.208  0.00  0.00     0.084 C 
ATOM      2  C4  705 d   1     -17.777  11.909 -34.535  0.00  0.00     0.092 C 
ATOM      3  C2  705 d   1     -18.553  13.232 -34.333  0.00  0.00     0.105 C 
ATOM      4  O13 705 d   1     -17.893  12.377 -32.225  0.00  0.00    -0.352 OA
ATOM      5  C1  705 d   1     -18.955  13.115 -32.889  0.00  0.00     0.140 C 
ATOM      6  H14 705 d   1     -16.710  10.806 -32.966  0.00  0.00     0.093 H 
ATOM      7  H15 705 d   1     -17.106  11.972 -35.404  0.00  0.00     0.091 H 
ATOM      8  H17 705 d   1     -17.929  14.115 -34.537  0.00  0.00     0.093 H 
ATOM      9  H19 705 d   1     -19.911  12.575 -32.830  0.00  0.00     0.123 H 
ENDROOT
BRANCH   1  10
ATOM     10  C14 705 d   1     -15.818  12.737 -33.304  0.00  0.00    -0.075 C 
ATOM     11  C15 705 d   1     -14.631  12.395 -32.780  0.00  0.00    -0.087 C 
ATOM     12  H12 705 d   1     -14.545  11.445 -32.254  0.00  0.00     0.079 H 
ATOM     13  H13 705 d   1     -15.917  13.695 -33.812  0.00  0.00     0.080 H 
BRANCH  11  14
ATOM     14  C16 705 d   1     -13.419  13.269 -32.891  0.00  0.00     0.010 C 
ATOM     15  H10 705 d   1     -13.431  13.825 -33.840  0.00  0.00     0.070 H 
ATOM     16  H11 705 d   1     -13.378  13.978 -32.051  0.00  0.00     0.070 H 
BRANCH  14  17
ATOM     17  N17 705 d   1     -12.263  12.346 -32.847  0.00  0.00    -0.353 N 
ATOM     18  C18 705 d   1     -11.043  12.715 -33.299  0.00  0.00     0.254 C 
ATOM     19  O19 705 d   1     -10.942  13.849 -33.798  0.00  0.00    -0.268 OA
ATOM     20  H9  705 d   1     -12.387  11.427 -32.474  0.00  0.00     0.163 HD
BRANCH  18  21
ATOM     21  C20 705 d   1      -9.936  11.751 -33.226  0.00  0.00     0.068 A 
ATOM     22  C21 705 d   1      -8.852  12.019 -34.052  0.00  0.00    -0.054 A 
ATOM     23  C22 705 d   1      -7.744  11.168 -34.081  0.00  0.00    -0.022 A 
ATOM     24  H5  705 d   1      -8.866  12.900 -34.683  0.00  0.00     0.086 H 
ATOM     25  C23 705 d   1      -7.734   9.982 -33.279  0.00  0.00    -0.037 A 
ATOM     26  C33 705 d   1      -8.844   9.704 -32.476  0.00  0.00     0.100 A 
ATOM     27  H6  705 d   1      -6.882   9.312 -33.294  0.00  0.00     0.089 H 
ATOM     28  C31 705 d   1      -9.939  10.577 -32.462  0.00  0.00     0.114 A 
BRANCH  23  29
ATOM     29  C24 705 d   1      -6.585  11.480 -34.912  0.00  0.00    -0.026 A 
ATOM     30  C25 705 d   1      -6.722  12.020 -36.206  0.00  0.00    -0.069 A 
ATOM     31  C26 705 d   1      -5.542  12.280 -36.954  0.00  0.00    -0.045 A 
ATOM     32  H2  705 d   1      -7.701  12.232 -36.620  0.00  0.00     0.085 H 
ATOM     33  C29 705 d   1      -4.289  11.967 -36.411  0.00  0.00     0.116 A 
ATOM     34  H1  705 d   1      -5.611  12.720 -37.943  0.00  0.00     0.088 H 
ATOM     35  F30 705 d   1      -3.193  12.216 -37.156  0.00  0.00    -0.206 F 
ATOM     36  C28 705 d   1      -4.120  11.412 -35.138  0.00  0.00    -0.045 A 
ATOM     37  C27 705 d   1      -5.280  11.182 -34.401  0.00  0.00    -0.069 A 
ATOM     38  H3  705 d   1      -3.138  11.173 -34.745  0.00  0.00     0.088 H 
ATOM     39  H4  705 d   1      -5.192  10.763 -33.405  0.00  0.00     0.085 H 
ENDBRANCH  23  29
BRANCH  26  40
ATOM     40  O34 705 d   1      -8.894   8.547 -31.709  0.00  0.00    -0.358 OA
ATOM     41  H7  705 d   1      -9.714   8.521 -31.230  0.00  0.00     0.217 HD
ENDBRANCH  26  40
BRANCH  28  42
ATOM     42  O32 705 d   1     -10.968  10.261 -31.637  0.00  0.00    -0.357 OA
ATOM     43  H8  705 d   1     -10.655  10.229 -30.741  0.00  0.00     0.217 HD
ENDBRANCH  28  42
ENDBRANCH  18  21
ENDBRANCH  14  17
ENDBRANCH  11  14
ENDBRANCH   1  10
BRANCH   2  44
ATOM     44  O5  705 d   1     -18.605  10.743 -34.653  0.00  0.00    -0.390 OA
ATOM     45  H16 705 d   1     -19.217  10.716 -33.927  0.00  0.00     0.210 HD
ENDBRANCH   2  44
BRANCH   3  46
ATOM     46  O3  705 d   1     -19.730  13.262 -35.095  0.00  0.00    -0.388 OA
ATOM     47  H18 705 d   1     -20.292  12.541 -34.836  0.00  0.00     0.210 HD
ENDBRANCH   3  46
BRANCH   5  48
ATOM     48  N10 705 d   1     -19.065  14.367 -32.138  0.00  0.00    -0.294 N 
ATOM     49  C9  705 d   1     -18.110  15.398 -32.064  0.00  0.00     0.071 A 
ATOM     50  N8  705 d   1     -18.496  16.333 -31.232  0.00  0.00    -0.236 NA
ATOM     51  H20 705 d   1     -17.176  15.416 -32.623  0.00  0.00     0.144 H 
ATOM     52  C12 705 d   1     -19.687  15.936 -30.707  0.00  0.00     0.149 A 
ATOM     53  C11 705 d   1     -20.058  14.734 -31.231  0.00  0.00     0.167 A 
ATOM     54  C35 705 d   1     -20.576  16.476 -29.742  0.00  0.00     0.157 A 
ATOM     55  N40 705 d   1     -21.192  14.057 -30.922  0.00  0.00    -0.222 NA
ATOM     56  C39 705 d   1     -21.982  14.642 -30.020  0.00  0.00     0.091 A 
ATOM     57  N38 705 d   1     -21.704  15.823 -29.432  0.00  0.00    -0.222 NA
ATOM     58  H21 705 d   1     -22.901  14.138 -29.744  0.00  0.00     0.146 H 
BRANCH  54  59
ATOM     59  N7  705 d   1     -20.408  17.687 -29.105  0.00  0.00    -0.373 N 
ATOM     60  H22 705 d   1     -21.059  17.964 -28.356  0.00  0.00     0.161 HD
BRANCH  59  61
ATOM     61  C36 705 d   1     -19.309  18.588 -29.483  0.00  0.00    -0.006 C 
ATOM     62  H23 705 d   1     -18.447  18.026 -29.872  0.00  0.00     0.064 H 
ATOM     63  H24 705 d   1     -18.989  19.207 -28.632  0.00  0.00     0.064 H 
BRANCH  61  64
ATOM     64  C37 705 d   1     -19.965  19.449 -30.589  0.00  0.00    -0.054 C 
ATOM     65  H25 705 d   1     -21.026  19.614 -30.349  0.00  0.00     0.034 H 
ATOM     66  H26 705 d   1     -19.884  18.932 -31.557  0.00  0.00     0.034 H 
BRANCH  64  67
ATOM     67  C41 705 d   1     -19.231  20.809 -30.663  0.00  0.00    -0.075 C 
ATOM     68  H27 705 d   1     -19.689  21.431 -31.447  0.00  0.00     0.027 H 
ATOM     69  H28 705 d   1     -18.170  20.641 -30.901  0.00  0.00     0.027 H 
ATOM     70  H29 705 d   1     -19.312  21.323 -29.694  0.00  0.00     0.027 H 
ENDBRANCH  64  67
ENDBRANCH  61  64
ENDBRANCH  59  61
ENDBRANCH  54  59
ENDBRANCH   5  48
TORSDOF 14
