REMARK  4 active torsions:
REMARK  status: ('A' for Active; 'I' for Inactive)
REMARK    1  A    between atoms: C1_1  and  C2_4 
REMARK    2  A    between atoms: C2_4  and  C3_6 
REMARK    3  A    between atoms: C3_6  and  C4_7 
REMARK    4  A    between atoms: C4_7  and  C5_8 
ROOT
ATOM      1  C3  AKG d   1     -42.795   2.690  12.959  0.00  0.00    -0.011 C 
ATOM      2  H1  AKG d   1     -42.268   3.352  13.662  0.00  0.00     0.039 H 
ATOM      3  H2  AKG d   1     -42.224   1.758  12.835  0.00  0.00     0.039 H 
ENDROOT
BRANCH   1   4
ATOM      4  C2  AKG d   1     -42.900   3.313  11.753  0.00  0.00     0.228 C 
ATOM      5  O5  AKG d   1     -42.934   4.417  12.452  0.00  0.00    -0.213 OA
BRANCH   4   6
ATOM      6  C1  AKG d   1     -42.777   3.006  10.400  0.00  0.00     0.216 C 
ATOM      7  O1  AKG d   1     -42.311   1.963   9.975  0.00  0.00    -0.646 OA
ATOM      8  O2  AKG d   1     -43.228   3.974   9.679  0.00  0.00    -0.646 OA
ENDBRANCH   4   6
ENDBRANCH   1   4
BRANCH   1   9
ATOM      9  C4  AKG d   1     -44.144   2.366  13.511  0.00  0.00     0.019 C 
ATOM     10  H3  AKG d   1     -44.747   1.811  12.777  0.00  0.00     0.049 H 
ATOM     11  H4  AKG d   1     -44.678   3.281  13.808  0.00  0.00     0.049 H 
BRANCH   9  12
ATOM     12  C5  AKG d   1     -43.834   1.514  14.705  0.00  0.00     0.172 C 
ATOM     13  O3  AKG d   1     -43.949   2.013  15.838  0.00  0.00    -0.648 OA
ATOM     14  O4  AKG d   1     -43.457   0.341  14.540  0.00  0.00    -0.648 OA
ENDBRANCH   9  12
ENDBRANCH   1   9
TORSDOF 4
