REMARK  18 active torsions:
REMARK  status: ('A' for Active; 'I' for Inactive)
REMARK    1  A    between atoms: C2_4  and  C1_1 
REMARK    2  A    between atoms: C2_4  and  O2_16 
REMARK    3  A    between atoms: O4_7  and  C4_6 
REMARK    4  A    between atoms: C2_23  and  O4_7 
REMARK    5  A    between atoms: C5_8  and  O5_9 
REMARK    6  A    between atoms: C6_10  and  C7_12 
REMARK    7  A    between atoms: C7_12  and  O7_13 
REMARK    8  A    between atoms: C7_12  and  C8_14 
REMARK    9  A    between atoms: C8_14  and  O8_15 
REMARK   10  A    between atoms: O2_16  and  C9_17 
REMARK   11  A    between atoms: C9_17  and  C10_18 
REMARK   12  A    between atoms: C1_20  and  C2_23 
REMARK   13  A    between atoms: C4_25  and  O4_26 
REMARK   14  A    between atoms: C5_27  and  O5_28 
REMARK   15  A    between atoms: C6_29  and  C7_31 
REMARK   16  A    between atoms: C7_31  and  O7_32 
REMARK   17  A    between atoms: C7_31  and  C8_33 
REMARK   18  A    between atoms: C8_33  and  O8_34 
ROOT
ATOM      1  C2  KDA d   1       7.811   0.035  -5.578  0.00  0.00     0.259 C 
ATOM      2  C3  KDA d   1       7.495  -0.186  -4.081  0.00  0.00     0.024 C 
ATOM      3  C4  KDA d   1       8.495   0.514  -3.146  0.00  0.00     0.075 C 
ATOM      4  C5  KDA d   1       9.903   0.026  -3.508  0.00  0.00     0.088 C 
ATOM      5  C6  KDA d   1      10.182   0.362  -4.965  0.00  0.00     0.096 C 
ATOM      6  O6  KDA d   1       9.195  -0.311  -5.807  0.00  0.00    -0.336 OA
ATOM      7  H1  KDA d   1       7.518  -1.266  -3.874  0.00  0.00     0.045 H 
ATOM      8  H2  KDA d   1       6.488   0.206  -3.874  0.00  0.00     0.045 H 
ATOM      9  H3  KDA d   1       8.453   1.600  -3.314  0.00  0.00     0.087 H 
ATOM     10  H4  KDA d   1      10.649   0.498  -2.852  0.00  0.00     0.091 H 
ATOM     11  H6  KDA d   1       9.938   1.431  -5.053  0.00  0.00     0.091 H 
ENDROOT
BRANCH   3  12
ATOM     12  O4  KDA d   1       8.105   0.254  -1.766  0.00  0.00    -0.338 OA
BRANCH  12  13
ATOM     13  C2  KDO d   1       8.999   0.694  -0.702  0.00  0.00     0.259 C 
ATOM     14  C3  KDO d   1       8.178   0.680   0.604  0.00  0.00     0.024 C 
ATOM     15  C4  KDO d   1       6.987   1.647   0.453  0.00  0.00     0.068 C 
ATOM     16  H17 KDA d   1       8.812   1.003   1.443  0.00  0.00     0.045 H 
ATOM     17  H18 KDA d   1       7.806  -0.337   0.796  0.00  0.00     0.045 H 
ATOM     18  C5  KDO d   1       7.586   3.023   0.190  0.00  0.00     0.088 C 
ATOM     19  H19 KDA d   1       6.337   1.333  -0.377  0.00  0.00     0.087 H 
ATOM     20  C6  KDO d   1       8.427   3.001  -1.088  0.00  0.00     0.096 C 
ATOM     21  H21 KDA d   1       6.774   3.756   0.076  0.00  0.00     0.091 H 
ATOM     22  O6  KDO d   1       9.472   2.033  -0.995  0.00  0.00    -0.336 OA
ATOM     23  H23 KDA d   1       7.762   2.725  -1.920  0.00  0.00     0.091 H 
BRANCH  13  24
ATOM     24  C1  KDO d   1      10.238  -0.188  -0.500  0.00  0.00     0.239 C 
ATOM     25  O1A KDO d   1      10.164  -1.384  -0.862  0.00  0.00    -0.644 OA
ATOM     26  O1B KDO d   1      11.233   0.365   0.025  0.00  0.00    -0.644 OA
ENDBRANCH  13  24
BRANCH  15  27
ATOM     27  O4  KDO d   1       6.234   1.719   1.673  0.00  0.00    -0.393 OA
ATOM     28  H20 KDA d   1       5.506   2.319   1.560  0.00  0.00     0.210 HD
ENDBRANCH  15  27
BRANCH  18  29
ATOM     29  O5  KDO d   1       8.405   3.392   1.286  0.00  0.00    -0.390 OA
ATOM     30  H22 KDA d   1       9.102   2.755   1.388  0.00  0.00     0.210 HD
ENDBRANCH  18  29
BRANCH  20  31
ATOM     31  C7  KDO d   1       9.075   4.354  -1.418  0.00  0.00     0.083 C 
ATOM     32  H24 KDA d   1       9.889   4.527  -0.698  0.00  0.00     0.090 H 
BRANCH  31  33
ATOM     33  O7  KDO d   1       8.162   5.444  -1.292  0.00  0.00    -0.391 OA
ATOM     34  H25 KDA d   1       7.433   5.316  -1.888  0.00  0.00     0.210 HD
ENDBRANCH  31  33
BRANCH  31  35
ATOM     35  C8  KDO d   1       9.696   4.258  -2.826  0.00  0.00     0.043 C 
ATOM     36  H26 KDA d   1       8.900   4.043  -3.554  0.00  0.00     0.078 H 
ATOM     37  H27 KDA d   1      10.433   3.441  -2.836  0.00  0.00     0.078 H 
BRANCH  35  38
ATOM     38  O8  KDO d   1      10.346   5.473  -3.197  0.00  0.00    -0.398 OA
ATOM     39  H28 KDA d   1      11.039   5.663  -2.575  0.00  0.00     0.209 HD
ENDBRANCH  35  38
ENDBRANCH  31  35
ENDBRANCH  20  31
ENDBRANCH  12  13
ENDBRANCH   3  12
BRANCH   4  40
ATOM     40  O5  KDA d   1       9.956  -1.394  -3.387  0.00  0.00    -0.390 OA
ATOM     41  H5  KDA d   1       9.753  -1.642  -2.493  0.00  0.00     0.210 HD
ENDBRANCH   4  40
BRANCH   1  42
ATOM     42  C1  KDA d   1       6.831  -0.874  -6.372  0.00  0.00     0.239 C 
ATOM     43  O1A KDA d   1       7.279  -1.959  -6.790  0.00  0.00    -0.644 OA
ATOM     44  O1B KDA d   1       5.633  -0.532  -6.474  0.00  0.00    -0.644 OA
ENDBRANCH   1  42
BRANCH   1  45
ATOM     45  O2  KDA d   1       7.758   1.467  -5.848  0.00  0.00    -0.343 OA
BRANCH  45  46
ATOM     46  C9  KDA d   1       6.412   1.907  -6.159  0.00  0.00     0.038 C 
ATOM     47  H12 KDA d   1       6.154   1.419  -7.111  0.00  0.00     0.080 H 
ATOM     48  H13 KDA d   1       6.484   2.994  -6.312  0.00  0.00     0.080 H 
BRANCH  46  49
ATOM     49  C10 KDA d   1       5.306   1.718  -5.330  0.00  0.00    -0.089 C 
ATOM     50  C11 KDA d   1       4.063   2.187  -5.740  0.00  0.00    -0.123 C 
ATOM     51  H15 KDA d   1       3.191   2.046  -5.103  0.00  0.00     0.066 H 
ATOM     52  H16 KDA d   1       3.962   2.695  -6.698  0.00  0.00     0.066 H 
ATOM     53  H14 KDA d   1       5.415   1.209  -4.373  0.00  0.00     0.078 H 
ENDBRANCH  46  49
ENDBRANCH  45  46
ENDBRANCH   1  45
BRANCH   5  54
ATOM     54  C7  KDA d   1      11.663   0.300  -5.434  0.00  0.00     0.083 C 
ATOM     55  H7  KDA d   1      11.886  -0.746  -5.689  0.00  0.00     0.090 H 
BRANCH  54  56
ATOM     56  O7  KDA d   1      12.584   0.698  -4.400  0.00  0.00    -0.391 OA
ATOM     57  H8  KDA d   1      13.473   0.644  -4.731  0.00  0.00     0.210 HD
ENDBRANCH  54  56
BRANCH  54  58
ATOM     58  C8  KDA d   1      11.862   1.144  -6.698  0.00  0.00     0.043 C 
ATOM     59  H9  KDA d   1      12.910   1.070  -7.023  0.00  0.00     0.078 H 
ATOM     60  H10 KDA d   1      11.620   2.194  -6.476  0.00  0.00     0.078 H 
BRANCH  58  61
ATOM     61  O8  KDA d   1      11.015   0.678  -7.739  0.00  0.00    -0.398 OA
ATOM     62  H11 KDA d   1      10.109   0.743  -7.461  0.00  0.00     0.209 HD
ENDBRANCH  58  61
ENDBRANCH  54  58
ENDBRANCH   5  54
TORSDOF 18
