REMARK  8 active torsions:
REMARK  status: ('A' for Active; 'I' for Inactive)
REMARK    1  A    between atoms: C1_1  and  C2_4 
REMARK    2  A    between atoms: C2_4  and  O2_5 
REMARK    3  A    between atoms: C4_7  and  O4_8 
REMARK    4  A    between atoms: C5_9  and  O5_10 
REMARK    5  A    between atoms: C6_11  and  C7_13 
REMARK    6  A    between atoms: C7_13  and  O7_14 
REMARK    7  A    between atoms: C7_13  and  C8_15 
REMARK    8  A    between atoms: C8_15  and  O8_16 
ROOT
ATOM      1  C2  KDO d   1      -8.248   1.438   0.767  0.00  0.00     0.256 C 
ATOM      2  C3  KDO d   1      -7.499   1.622  -0.571  0.00  0.00     0.024 C 
ATOM      3  C4  KDO d   1      -6.315   2.577  -0.365  0.00  0.00     0.068 C 
ATOM      4  C5  KDO d   1      -6.883   3.912   0.137  0.00  0.00     0.088 C 
ATOM      5  C6  KDO d   1      -7.667   3.642   1.419  0.00  0.00     0.096 C 
ATOM      6  O6  KDO d   1      -8.725   2.722   1.214  0.00  0.00    -0.336 OA
ATOM      7  H2  KDO d   1      -8.185   2.044  -1.321  0.00  0.00     0.045 H 
ATOM      8  H3  KDO d   1      -7.128   0.647  -0.921  0.00  0.00     0.045 H 
ATOM      9  H4  KDO d   1      -5.603   2.164   0.365  0.00  0.00     0.087 H 
ATOM     10  H6  KDO d   1      -6.074   4.634   0.321  0.00  0.00     0.091 H 
ATOM     11  H8  KDO d   1      -6.979   3.251   2.183  0.00  0.00     0.091 H 
ENDROOT
BRANCH   5  12
ATOM     12  C7  KDO d   1      -8.327   4.947   1.916  0.00  0.00     0.083 C 
ATOM     13  H9  KDO d   1      -9.050   5.298   1.165  0.00  0.00     0.090 H 
BRANCH  12  14
ATOM     14  O7  KDO d   1      -7.349   5.972   2.129  0.00  0.00    -0.391 OA
ATOM     15  H10 KDO d   1      -7.781   6.762   2.433  0.00  0.00     0.210 HD
ENDBRANCH  12  14
BRANCH  12  16
ATOM     16  C8  KDO d   1      -9.066   4.625   3.231  0.00  0.00     0.043 C 
ATOM     17  H11 KDO d   1      -8.331   4.323   3.991  0.00  0.00     0.078 H 
ATOM     18  H12 KDO d   1      -9.771   3.799   3.054  0.00  0.00     0.078 H 
BRANCH  16  19
ATOM     19  O8  KDO d   1      -9.798   5.773   3.714  0.00  0.00    -0.398 OA
ATOM     20  H13 KDO d   1     -10.438   6.036   3.063  0.00  0.00     0.209 HD
ENDBRANCH  16  19
ENDBRANCH  12  16
ENDBRANCH   5  12
BRANCH   4  21
ATOM     21  O5  KDO d   1      -7.783   4.409  -0.840  0.00  0.00    -0.390 OA
ATOM     22  H7  KDO d   1      -7.319   4.539  -1.659  0.00  0.00     0.210 HD
ENDBRANCH   4  21
BRANCH   3  23
ATOM     23  O4  KDO d   1      -5.668   2.772  -1.642  0.00  0.00    -0.393 OA
ATOM     24  H5  KDO d   1      -4.931   3.362  -1.535  0.00  0.00     0.210 HD
ENDBRANCH   3  23
BRANCH   1  25
ATOM     25  C1  KDO d   1      -9.451   0.505   0.585  0.00  0.00     0.238 C 
ATOM     26  O1A KDO d   1     -10.437   0.908  -0.092  0.00  0.00    -0.644 OA
ATOM     27  O1B KDO d   1      -9.406  -0.583   1.202  0.00  0.00    -0.644 OA
ENDBRANCH   1  25
BRANCH   1  28
ATOM     28  O2  KDO d   1      -7.410   0.908   1.817  0.00  0.00    -0.357 OA
ATOM     29  H1  KDO d   1      -7.921   0.818   2.613  0.00  0.00     0.213 HD
ENDBRANCH   1  28
TORSDOF 8
