REMARK  19 active torsions:
REMARK  status: ('A' for Active; 'I' for Inactive)
REMARK    1  A    between atoms: C2_4  and  C1_1 
REMARK    2  A    between atoms: C2_4  and  O2_16 
REMARK    3  A    between atoms: O4_7  and  C4_6 
REMARK    4  A    between atoms: C2_23  and  O4_7 
REMARK    5  A    between atoms: C5_8  and  O5_9 
REMARK    6  A    between atoms: C6_10  and  C7_12 
REMARK    7  A    between atoms: C7_12  and  O7_13 
REMARK    8  A    between atoms: C7_12  and  C8_14 
REMARK    9  A    between atoms: C8_14  and  O8_15 
REMARK   10  A    between atoms: O2_16  and  C9_17 
REMARK   11  A    between atoms: C9_17  and  C10_18 
REMARK   12  A    between atoms: C10_18  and  C11_19 
REMARK   13  A    between atoms: C1_20  and  C2_23 
REMARK   14  A    between atoms: C4_25  and  O4_26 
REMARK   15  A    between atoms: C5_27  and  O5_28 
REMARK   16  A    between atoms: C6_29  and  C7_31 
REMARK   17  A    between atoms: C7_31  and  O7_32 
REMARK   18  A    between atoms: C7_31  and  C8_33 
REMARK   19  A    between atoms: C8_33  and  O8_34 
ROOT
ATOM      1  C2  KDA d   1      -6.873   0.546   5.443  0.00  0.00     0.258 C 
ATOM      2  C3  KDA d   1      -6.746   0.257   3.952  0.00  0.00     0.024 C 
ATOM      3  C4  KDA d   1      -7.780   1.031   3.175  0.00  0.00     0.075 C 
ATOM      4  C5  KDA d   1      -9.183   0.651   3.690  0.00  0.00     0.088 C 
ATOM      5  C6  KDA d   1      -9.235   1.025   5.169  0.00  0.00     0.096 C 
ATOM      6  O6  KDA d   1      -8.218   0.300   5.881  0.00  0.00    -0.336 OA
ATOM      7  H1  KDA d   1      -6.893  -0.819   3.778  0.00  0.00     0.045 H 
ATOM      8  H2  KDA d   1      -5.742   0.550   3.611  0.00  0.00     0.045 H 
ATOM      9  H3  KDA d   1      -7.629   2.110   3.326  0.00  0.00     0.087 H 
ATOM     10  H4  KDA d   1      -9.947   1.212   3.132  0.00  0.00     0.091 H 
ATOM     11  H6  KDA d   1      -9.046   2.105   5.257  0.00  0.00     0.091 H 
ENDROOT
BRANCH   3  12
ATOM     12  O4  KDA d   1      -7.595   0.723   1.785  0.00  0.00    -0.338 OA
BRANCH  12  13
ATOM     13  C2  KDO d   1      -8.504   1.123   0.729  0.00  0.00     0.259 C 
ATOM     14  C3  KDO d   1      -7.714   1.053  -0.589  0.00  0.00     0.024 C 
ATOM     15  C4  KDO d   1      -6.524   2.029  -0.522  0.00  0.00     0.068 C 
ATOM     16  H19 KDA d   1      -8.371   1.331  -1.426  0.00  0.00     0.045 H 
ATOM     17  H20 KDA d   1      -7.341   0.029  -0.740  0.00  0.00     0.045 H 
ATOM     18  C5  KDO d   1      -7.158   3.407  -0.312  0.00  0.00     0.088 C 
ATOM     19  H21 KDA d   1      -5.849   1.773   0.308  0.00  0.00     0.087 H 
ATOM     20  C6  KDO d   1      -7.970   3.426   0.974  0.00  0.00     0.096 C 
ATOM     21  H23 KDA d   1      -6.354   4.153  -0.231  0.00  0.00     0.091 H 
ATOM     22  O6  KDO d   1      -8.995   2.444   0.939  0.00  0.00    -0.336 OA
ATOM     23  H25 KDA d   1      -7.295   3.214   1.817  0.00  0.00     0.091 H 
BRANCH  13  24
ATOM     24  C1  KDO d   1      -9.736   0.230   0.598  0.00  0.00     0.239 C 
ATOM     25  O1A KDO d   1     -10.768   0.797   0.182  0.00  0.00    -0.644 OA
ATOM     26  O1B KDO d   1      -9.621  -0.979   0.888  0.00  0.00    -0.644 OA
ENDBRANCH  13  24
BRANCH  15  27
ATOM     27  O4  KDO d   1      -5.812   2.012  -1.755  0.00  0.00    -0.393 OA
ATOM     28  H22 KDA d   1      -5.080   2.616  -1.705  0.00  0.00     0.210 HD
ENDBRANCH  15  27
BRANCH  18  29
ATOM     29  O5  KDO d   1      -7.994   3.755  -1.426  0.00  0.00    -0.390 OA
ATOM     30  H24 KDA d   1      -8.685   3.109  -1.516  0.00  0.00     0.210 HD
ENDBRANCH  18  29
BRANCH  20  31
ATOM     31  C7  KDO d   1      -8.631   4.789   1.192  0.00  0.00     0.083 C 
ATOM     32  H26 KDA d   1      -9.375   4.929   0.394  0.00  0.00     0.090 H 
BRANCH  31  33
ATOM     33  O7  KDO d   1      -7.684   5.857   1.090  0.00  0.00    -0.391 OA
ATOM     34  H27 KDA d   1      -7.008   5.743   1.747  0.00  0.00     0.210 HD
ENDBRANCH  31  33
BRANCH  31  35
ATOM     35  C8  KDO d   1      -9.377   4.827   2.536  0.00  0.00     0.043 C 
ATOM     36  H28 KDA d   1      -8.658   4.826   3.368  0.00  0.00     0.078 H 
ATOM     37  H29 KDA d   1     -10.041   3.955   2.625  0.00  0.00     0.078 H 
BRANCH  35  38
ATOM     38  O8  KDO d   1     -10.143   6.030   2.551  0.00  0.00    -0.398 OA
ATOM     39  H30 KDA d   1      -9.561   6.776   2.468  0.00  0.00     0.209 HD
ENDBRANCH  35  38
ENDBRANCH  31  35
ENDBRANCH  20  31
ENDBRANCH  12  13
ENDBRANCH   3  12
BRANCH   4  40
ATOM     40  O5  KDA d   1      -9.430  -0.762   3.543  0.00  0.00    -0.390 OA
ATOM     41  H5  KDA d   1      -9.370  -0.999   2.625  0.00  0.00     0.210 HD
ENDBRANCH   4  40
BRANCH   1  42
ATOM     42  C1  KDA d   1      -5.898  -0.364   6.196  0.00  0.00     0.239 C 
ATOM     43  O1A KDA d   1      -6.344  -1.466   6.593  0.00  0.00    -0.644 OA
ATOM     44  O1B KDA d   1      -4.732   0.040   6.334  0.00  0.00    -0.644 OA
ENDBRANCH   1  42
BRANCH   1  45
ATOM     45  O2  KDA d   1      -6.656   1.980   5.636  0.00  0.00    -0.346 OA
BRANCH  45  46
ATOM     46  C9  KDA d   1      -6.957   2.555   6.942  0.00  0.00     0.023 C 
ATOM     47  H12 KDA d   1      -8.045   2.519   7.097  0.00  0.00     0.074 H 
ATOM     48  H13 KDA d   1      -6.620   3.602   6.949  0.00  0.00     0.074 H 
BRANCH  46  49
ATOM     49  C10 KDA d   1      -6.278   1.820   8.097  0.00  0.00    -0.048 C 
ATOM     50  H14 KDA d   1      -5.232   2.157   8.150  0.00  0.00     0.035 H 
ATOM     51  H15 KDA d   1      -6.306   0.742   7.881  0.00  0.00     0.035 H 
BRANCH  49  52
ATOM     52  C11 KDA d   1      -6.924   2.049   9.470  0.00  0.00    -0.075 C 
ATOM     53  H16 KDA d   1      -6.371   1.484  10.234  0.00  0.00     0.027 H 
ATOM     54  H17 KDA d   1      -7.969   1.706   9.445  0.00  0.00     0.027 H 
ATOM     55  H18 KDA d   1      -6.895   3.121   9.714  0.00  0.00     0.027 H 
ENDBRANCH  49  52
ENDBRANCH  46  49
ENDBRANCH  45  46
ENDBRANCH   1  45
BRANCH   5  56
ATOM     56  C7  KDA d   1     -10.572   0.708   5.837  0.00  0.00     0.083 C 
ATOM     57  H7  KDA d   1     -10.748  -0.377   5.805  0.00  0.00     0.090 H 
BRANCH  56  58
ATOM     58  O7  KDA d   1     -11.659   1.374   5.190  0.00  0.00    -0.391 OA
ATOM     59  H8  KDA d   1     -12.471   1.154   5.631  0.00  0.00     0.210 HD
ENDBRANCH  56  58
BRANCH  56  60
ATOM     60  C8  KDA d   1     -10.475   1.178   7.295  0.00  0.00     0.043 C 
ATOM     61  H9  KDA d   1     -10.274   2.259   7.314  0.00  0.00     0.078 H 
ATOM     62  H10 KDA d   1      -9.653   0.644   7.794  0.00  0.00     0.078 H 
BRANCH  60  63
ATOM     63  O8  KDA d   1     -11.698   0.914   7.990  0.00  0.00    -0.398 OA
ATOM     64  H11 KDA d   1     -12.410   1.376   7.563  0.00  0.00     0.209 HD
ENDBRANCH  60  63
ENDBRANCH  56  60
ENDBRANCH   5  56
TORSDOF 19
