REMARK  30 active torsions:
REMARK  status: ('A' for Active; 'I' for Inactive)
REMARK       I    between atoms: C37_2  and  N5_3 
REMARK    1  A    between atoms: C37_2  and  C36_12 
REMARK    2  A    between atoms: N5_3  and  C38_4 
REMARK    3  A    between atoms: C38_4  and  C40_5 
REMARK    4  A    between atoms: C38_4  and  C39_11 
REMARK    5  A    between atoms: C31_14  and  N4_15 
REMARK    6  A    between atoms: N4_15  and  S_16 
REMARK    7  A    between atoms: N4_15  and  C32_20 
REMARK    8  A    between atoms: S_16  and  C33_18 
REMARK    9  A    between atoms: C29_23  and  C28_24 
REMARK       I    between atoms: C28_24  and  N3_26 
REMARK   10  A    between atoms: N3_26  and  C20_27 
REMARK   11  A    between atoms: C20_27  and  C21_28 
REMARK   12  A    between atoms: C20_27  and  C19_38 
REMARK   13  A    between atoms: C21_28  and  O6_29 
REMARK   14  A    between atoms: O6_29  and  C22_30 
REMARK   15  A    between atoms: C19_38  and  O5_39 
REMARK   16  A    between atoms: C19_38  and  C18_40 
REMARK   17  A    between atoms: C18_40  and  C14_41 
REMARK   18  A    between atoms: C14_41  and  O3_42 
REMARK   19  A    between atoms: C14_41  and  C13_47 
REMARK   20  A    between atoms: O3_42  and  C15_43 
REMARK   21  A    between atoms: C15_43  and  C16_44 
REMARK   22  A    between atoms: C16_44  and  O4_45 
REMARK   23  A    between atoms: O4_45  and  C17_46 
REMARK       I    between atoms: C13_47  and  N2_49 
REMARK   24  A    between atoms: N2_49  and  C9_50 
REMARK   25  A    between atoms: C9_50  and  C10_51 
REMARK   26  A    between atoms: C9_50  and  C1_54 
REMARK   27  A    between atoms: C10_51  and  C12_52 
REMARK   28  A    between atoms: C10_51  and  C11_53 
REMARK       I    between atoms: C1_54  and  N1_56 
REMARK   29  A    between atoms: N1_56  and  C2_57 
REMARK   30  A    between atoms: C2_57  and  C3_58 
ROOT
ATOM      1  C20 MV7 d   1      -2.386  17.420  34.016  0.00  0.00     0.058 C 
ATOM      2  H21 MV7 d   1      -2.106  18.019  34.895  0.00  0.00     0.079 H 
ENDROOT
BRANCH   1   3
ATOM      3  N3  MV7 d   1      -1.305  17.381  33.033  0.00  0.00    -0.348 N 
ATOM      4  C28 MV7 d   1      -0.019  17.577  33.297  0.00  0.00     0.252 C 
ATOM      5  O7  MV7 d   1       0.403  17.781  34.423  0.00  0.00    -0.268 OA
ATOM      6  H20 MV7 d   1      -1.555  17.191  32.084  0.00  0.00     0.163 HD
BRANCH   4   7
ATOM      7  C29 MV7 d   1       0.940  17.588  32.158  0.00  0.00     0.035 A 
ATOM      8  C30 MV7 d   1       2.173  16.939  32.218  0.00  0.00    -0.041 A 
ATOM      9  C31 MV7 d   1       3.066  16.971  31.138  0.00  0.00     0.046 A 
ATOM     10  H18 MV7 d   1       2.446  16.399  33.117  0.00  0.00     0.088 H 
ATOM     11  C34 MV7 d   1       2.716  17.742  30.025  0.00  0.00    -0.041 A 
ATOM     12  C36 MV7 d   1       1.492  18.393  29.988  0.00  0.00     0.035 A 
ATOM     13  H11 MV7 d   1       3.402  17.831  29.190  0.00  0.00     0.088 H 
ATOM     14  C35 MV7 d   1       0.597  18.346  31.050  0.00  0.00    -0.052 A 
ATOM     15  H19 MV7 d   1      -0.342  18.887  31.013  0.00  0.00     0.086 H 
BRANCH   9  16
ATOM     16  N4  MV7 d   1       4.293  16.273  31.240  0.00  0.00    -0.281 N 
BRANCH  16  17
ATOM     17  S   MV7 d   1       5.078  15.617  30.029  0.00  0.00     0.228 S 
ATOM     18  O9  MV7 d   1       5.833  14.530  30.476  0.00  0.00    -0.206 OA
ATOM     19  O8  MV7 d   1       4.205  15.309  28.969  0.00  0.00    -0.206 OA
BRANCH  17  20
ATOM     20  C33 MV7 d   1       6.280  16.689  29.570  0.00  0.00     0.033 C 
ATOM     21  H12 MV7 d   1       6.848  16.265  28.728  0.00  0.00     0.051 H 
ATOM     22  H13 MV7 d   1       6.958  16.864  30.418  0.00  0.00     0.051 H 
ATOM     23  H14 MV7 d   1       5.824  17.641  29.262  0.00  0.00     0.051 H 
ENDBRANCH  17  20
ENDBRANCH  16  17
BRANCH  16  24
ATOM     24  C32 MV7 d   1       4.918  16.195  32.587  0.00  0.00    -0.004 C 
ATOM     25  H15 MV7 d   1       4.266  16.688  33.323  0.00  0.00     0.058 H 
ATOM     26  H16 MV7 d   1       5.896  16.699  32.568  0.00  0.00     0.058 H 
ATOM     27  H17 MV7 d   1       5.055  15.140  32.867  0.00  0.00     0.058 H 
ENDBRANCH  16  24
ENDBRANCH   9  16
BRANCH  12  28
ATOM     28  C37 MV7 d   1       1.105  19.148  28.764  0.00  0.00     0.252 C 
ATOM     29  O10 MV7 d   1       1.964  19.666  28.117  0.00  0.00    -0.268 OA
ATOM     30  N5  MV7 d   1      -0.170  19.188  28.405  0.00  0.00    -0.349 N 
ATOM     31  H1  MV7 d   1      -0.835  18.741  29.004  0.00  0.00     0.163 HD
BRANCH  30  32
ATOM     32  C38 MV7 d   1      -0.673  19.834  27.204  0.00  0.00     0.034 C 
ATOM     33  H2  MV7 d   1       0.073  20.544  26.818  0.00  0.00     0.079 H 
BRANCH  32  34
ATOM     34  C40 MV7 d   1      -0.930  18.771  26.154  0.00  0.00    -0.036 A 
ATOM     35  C43 MV7 d   1      -0.257  18.816  24.922  0.00  0.00    -0.075 A 
ATOM     36  C44 MV7 d   1      -0.466  17.855  23.906  0.00  0.00    -0.082 A 
ATOM     37  H3  MV7 d   1       0.450  19.618  24.743  0.00  0.00     0.084 H 
ATOM     38  C45 MV7 d   1      -1.342  16.800  24.148  0.00  0.00    -0.083 A 
ATOM     39  H4  MV7 d   1       0.047  17.938  22.955  0.00  0.00     0.083 H 
ATOM     40  C42 MV7 d   1      -2.000  16.716  25.386  0.00  0.00    -0.082 A 
ATOM     41  H5  MV7 d   1      -1.515  16.049  23.386  0.00  0.00     0.083 H 
ATOM     42  C41 MV7 d   1      -1.784  17.679  26.376  0.00  0.00    -0.075 A 
ATOM     43  H6  MV7 d   1      -2.683  15.896  25.576  0.00  0.00     0.083 H 
ATOM     44  H7  MV7 d   1      -2.285  17.581  27.332  0.00  0.00     0.084 H 
ENDBRANCH  32  34
BRANCH  32  45
ATOM     45  C39 MV7 d   1      -1.941  20.598  27.596  0.00  0.00    -0.053 C 
ATOM     46  H8  MV7 d   1      -2.353  21.103  26.710  0.00  0.00     0.030 H 
ATOM     47  H9  MV7 d   1      -1.695  21.347  28.363  0.00  0.00     0.030 H 
ATOM     48  H10 MV7 d   1      -2.685  19.893  27.996  0.00  0.00     0.030 H 
ENDBRANCH  32  45
ENDBRANCH  30  32
ENDBRANCH  12  28
ENDBRANCH   4   7
ENDBRANCH   1   3
BRANCH   1  49
ATOM     49  C21 MV7 d   1      -3.549  18.053  33.228  0.00  0.00     0.047 C 
ATOM     50  H22 MV7 d   1      -4.301  18.377  33.962  0.00  0.00     0.078 H 
ATOM     51  H23 MV7 d   1      -3.976  17.266  32.589  0.00  0.00     0.078 H 
BRANCH  49  52
ATOM     52  O6  MV7 d   1      -3.269  19.166  32.394  0.00  0.00    -0.349 OA
BRANCH  52  53
ATOM     53  C22 MV7 d   1      -2.418  20.224  32.650  0.00  0.00     0.074 A 
ATOM     54  C27 MV7 d   1      -1.985  20.961  31.556  0.00  0.00    -0.013 A 
ATOM     55  C26 MV7 d   1      -1.119  22.027  31.750  0.00  0.00     0.121 A 
ATOM     56  H24 MV7 d   1      -2.321  20.705  30.558  0.00  0.00     0.092 H 
ATOM     57  F2  MV7 d   1      -0.727  22.709  30.683  0.00  0.00    -0.206 F 
ATOM     58  C25 MV7 d   1      -0.653  22.390  33.020  0.00  0.00    -0.008 A 
ATOM     59  C24 MV7 d   1      -1.092  21.664  34.102  0.00  0.00     0.121 A 
ATOM     60  H25 MV7 d   1       0.034  23.219  33.146  0.00  0.00     0.092 H 
ATOM     61  F1  MV7 d   1      -0.659  21.985  35.326  0.00  0.00    -0.206 F 
ATOM     62  C23 MV7 d   1      -1.984  20.592  33.936  0.00  0.00    -0.013 A 
ATOM     63  H26 MV7 d   1      -2.339  20.046  34.803  0.00  0.00     0.092 H 
ENDBRANCH  52  53
ENDBRANCH  49  52
ENDBRANCH   1  49
BRANCH   1  64
ATOM     64  C19 MV7 d   1      -2.815  16.014  34.445  0.00  0.00     0.060 C 
ATOM     65  H27 MV7 d   1      -3.610  16.085  35.202  0.00  0.00     0.086 H 
BRANCH  64  66
ATOM     66  O5  MV7 d   1      -3.292  15.279  33.312  0.00  0.00    -0.393 OA
ATOM     67  H28 MV7 d   1      -3.555  14.409  33.588  0.00  0.00     0.210 HD
ENDBRANCH  64  66
BRANCH  64  68
ATOM     68  C18 MV7 d   1      -1.623  15.293  35.019  0.00  0.00    -0.007 C 
ATOM     69  H29 MV7 d   1      -0.910  16.031  35.416  0.00  0.00     0.041 H 
ATOM     70  H30 MV7 d   1      -1.139  14.705  34.225  0.00  0.00     0.041 H 
BRANCH  68  71
ATOM     71  C14 MV7 d   1      -2.050  14.369  36.130  0.00  0.00     0.117 C 
ATOM     72  H31 MV7 d   1      -3.000  13.866  35.899  0.00  0.00     0.098 H 
BRANCH  71  73
ATOM     73  O3  MV7 d   1      -0.958  13.460  36.187  0.00  0.00    -0.374 OA
BRANCH  73  74
ATOM     74  C15 MV7 d   1      -1.274  12.226  36.818  0.00  0.00     0.040 C 
ATOM     75  H32 MV7 d   1      -2.090  11.715  36.286  0.00  0.00     0.077 H 
ATOM     76  H33 MV7 d   1      -1.566  12.389  37.866  0.00  0.00     0.077 H 
BRANCH  74  77
ATOM     77  C16 MV7 d   1       0.013  11.412  36.738  0.00  0.00     0.039 C 
ATOM     78  H34 MV7 d   1       0.828  12.036  36.343  0.00  0.00     0.077 H 
ATOM     79  H35 MV7 d   1      -0.134  10.541  36.082  0.00  0.00     0.077 H 
BRANCH  77  80
ATOM     80  O4  MV7 d   1       0.325  10.984  38.043  0.00  0.00    -0.394 OA
BRANCH  80  81
ATOM     81  C17 MV7 d   1       0.704  12.056  38.940  0.00  0.00     0.004 C 
ATOM     82  H36 MV7 d   1       0.931  11.640  39.933  0.00  0.00     0.066 H 
ATOM     83  H37 MV7 d   1      -0.125  12.774  39.024  0.00  0.00     0.066 H 
ATOM     84  H38 MV7 d   1       1.594  12.567  38.545  0.00  0.00     0.066 H 
ENDBRANCH  80  81
ENDBRANCH  77  80
ENDBRANCH  74  77
ENDBRANCH  73  74
ENDBRANCH  71  73
BRANCH  71  85
ATOM     85  C13 MV7 d   1      -2.149  15.096  37.449  0.00  0.00     0.247 C 
ATOM     86  O2  MV7 d   1      -1.178  15.696  37.840  0.00  0.00    -0.271 OA
ATOM     87  N2  MV7 d   1      -3.293  15.050  38.127  0.00  0.00    -0.345 N 
ATOM     88  H39 MV7 d   1      -4.093  14.583  37.751  0.00  0.00     0.163 HD
BRANCH  87  89
ATOM     89  C9  MV7 d   1      -3.351  15.693  39.423  0.00  0.00     0.092 C 
ATOM     90  H40 MV7 d   1      -3.099  16.758  39.311  0.00  0.00     0.088 H 
BRANCH  89  91
ATOM     91  C10 MV7 d   1      -4.660  15.505  40.217  0.00  0.00    -0.033 C 
ATOM     92  H41 MV7 d   1      -4.283  15.220  41.210  0.00  0.00     0.042 H 
BRANCH  91  93
ATOM     93  C12 MV7 d   1      -5.354  16.833  40.488  0.00  0.00    -0.071 C 
ATOM     94  H42 MV7 d   1      -6.280  16.654  41.054  0.00  0.00     0.028 H 
ATOM     95  H43 MV7 d   1      -5.597  17.321  39.533  0.00  0.00     0.028 H 
ATOM     96  H44 MV7 d   1      -4.686  17.483  41.073  0.00  0.00     0.028 H 
ENDBRANCH  91  93
BRANCH  91  97
ATOM     97  C11 MV7 d   1      -5.584  14.333  39.903  0.00  0.00    -0.071 C 
ATOM     98  H45 MV7 d   1      -4.982  13.429  39.725  0.00  0.00     0.028 H 
ATOM     99  H46 MV7 d   1      -6.175  14.563  39.004  0.00  0.00     0.028 H 
ATOM    100  H47 MV7 d   1      -6.261  14.161  40.753  0.00  0.00     0.028 H 
ENDBRANCH  91  97
ENDBRANCH  89  91
BRANCH  89 101
ATOM    101  C1  MV7 d   1      -2.435  14.971  40.368  0.00  0.00     0.241 C 
ATOM    102  O1  MV7 d   1      -2.300  13.748  40.292  0.00  0.00    -0.271 OA
ATOM    103  N1  MV7 d   1      -1.832  15.711  41.293  0.00  0.00    -0.355 N 
ATOM    104  H48 MV7 d   1      -2.010  16.695  41.274  0.00  0.00     0.162 HD
BRANCH 103 105
ATOM    105  C2  MV7 d   1      -0.933  15.219  42.335  0.00  0.00     0.019 C 
ATOM    106  H49 MV7 d   1      -0.755  14.142  42.197  0.00  0.00     0.071 H 
ATOM    107  H50 MV7 d   1      -1.378  15.393  43.326  0.00  0.00     0.071 H 
BRANCH 105 108
ATOM    108  C3  MV7 d   1       0.355  15.966  42.218  0.00  0.00    -0.041 A 
ATOM    109  C4  MV7 d   1       1.196  15.703  41.149  0.00  0.00    -0.075 A 
ATOM    110  C5  MV7 d   1       2.396  16.393  41.046  0.00  0.00    -0.082 A 
ATOM    111  H51 MV7 d   1       0.920  14.967  40.402  0.00  0.00     0.084 H 
ATOM    112  C6  MV7 d   1       2.733  17.352  42.016  0.00  0.00    -0.083 A 
ATOM    113  H52 MV7 d   1       3.070  16.193  40.221  0.00  0.00     0.083 H 
ATOM    114  C7  MV7 d   1       1.890  17.623  43.098  0.00  0.00    -0.082 A 
ATOM    115  H55 MV7 d   1       3.667  17.894  41.923  0.00  0.00     0.083 H 
ATOM    116  C8  MV7 d   1       0.695  16.915  43.197  0.00  0.00    -0.075 A 
ATOM    117  H54 MV7 d   1       2.160  18.365  43.841  0.00  0.00     0.083 H 
ATOM    118  H53 MV7 d   1       0.026  17.096  44.031  0.00  0.00     0.084 H 
ENDBRANCH 105 108
ENDBRANCH 103 105
ENDBRANCH  89 101
ENDBRANCH  87  89
ENDBRANCH  71  85
ENDBRANCH  68  71
ENDBRANCH  64  68
ENDBRANCH   1  64
TORSDOF 30
