REMARK  9 active torsions:
REMARK  status: ('A' for Active; 'I' for Inactive)
REMARK    1  A    between atoms: C1_1  and  C2_2 
REMARK    2  A    between atoms: C5_5  and  N6_6 
REMARK    3  A    between atoms: N6_6  and  C7_7 
REMARK    4  A    between atoms: C14_14  and  C15_15 
REMARK    5  A    between atoms: C19_18  and  C21_20 
REMARK       I    between atoms: C21_20  and  N23_22 
REMARK    6  A    between atoms: N23_22  and  C24_23 
REMARK    7  A    between atoms: C24_23  and  C26_24 
REMARK    8  A    between atoms: C24_23  and  C28_26 
REMARK    9  A    between atoms: C26_24  and  O27_25 
ROOT
ATOM      1  C15 Z48 d   1      37.890  35.151  54.288  0.00  0.00     0.012 A 
ATOM      2  C16 Z48 d   1      37.465  36.235  54.950  0.00  0.00    -0.010 A 
ATOM      3  N17 Z48 d   1      36.676  35.823  55.902  0.00  0.00    -0.361 N 
ATOM      4  C19 Z48 d   1      36.547  34.477  55.899  0.00  0.00     0.101 A 
ATOM      5  C20 Z48 d   1      37.298  34.035  54.875  0.00  0.00    -0.038 A 
ATOM      6  H11 Z48 d   1      37.730  37.269  54.733  0.00  0.00     0.112 H 
ATOM      7  H12 Z48 d   1      36.208  36.447  56.575  0.00  0.00     0.165 HD
ATOM      8  H13 Z48 d   1      37.420  32.999  54.563  0.00  0.00     0.088 H 
ENDROOT
BRANCH   1   9
ATOM      9  C14 Z48 d   1      38.744  35.302  53.121  0.00  0.00     0.095 A 
ATOM     10  C2  Z48 d   1      38.958  34.378  52.094  0.00  0.00    -0.013 A 
ATOM     11  C3  Z48 d   1      39.746  34.777  51.068  0.00  0.00     0.029 A 
ATOM     12  N4  Z48 d   1      40.229  35.972  51.076  0.00  0.00    -0.074 NA
ATOM     13  H4  Z48 d   1      39.968  34.100  50.251  0.00  0.00     0.116 H 
ATOM     14  C5  Z48 d   1      40.002  36.811  52.032  0.00  0.00     0.727 A 
ATOM     15  N13 Z48 d   1      39.265  36.481  53.039  0.00  0.00    -0.061 NA
BRANCH  10  16
ATOM     16  C1  Z48 d   1      38.400  33.003  52.049  0.00  0.00    -0.048 C 
ATOM     17  H1  Z48 d   1      38.732  32.503  51.127  0.00  0.00     0.033 H 
ATOM     18  H2  Z48 d   1      37.301  33.053  52.064  0.00  0.00     0.033 H 
ATOM     19  H3  Z48 d   1      38.754  32.435  52.922  0.00  0.00     0.033 H 
ENDBRANCH  10  16
BRANCH  14  20
ATOM     20  N6  Z48 d   1      40.606  38.022  51.894  0.00  0.00    -0.188 N 
ATOM     21  H5  Z48 d   1      41.074  38.145  50.985  0.00  0.00     0.184 HD
BRANCH  20  22
ATOM     22  C7  Z48 d   1      40.721  39.125  52.726  0.00  0.00     0.049 A 
ATOM     23  C8  Z48 d   1      41.195  40.283  52.149  0.00  0.00    -0.057 A 
ATOM     24  C9  Z48 d   1      41.360  41.422  52.879  0.00  0.00    -0.081 A 
ATOM     25  H6  Z48 d   1      41.442  40.288  51.093  0.00  0.00     0.086 H 
ATOM     26  C10 Z48 d   1      41.054  41.416  54.208  0.00  0.00    -0.083 A 
ATOM     27  H7  Z48 d   1      41.731  42.325  52.407  0.00  0.00     0.083 H 
ATOM     28  C11 Z48 d   1      40.580  40.271  54.796  0.00  0.00    -0.081 A 
ATOM     29  H8  Z48 d   1      41.185  42.315  54.799  0.00  0.00     0.083 H 
ATOM     30  C12 Z48 d   1      40.416  39.132  54.064  0.00  0.00    -0.057 A 
ATOM     31  H9  Z48 d   1      40.334  40.271  55.852  0.00  0.00     0.083 H 
ATOM     32  H10 Z48 d   1      40.044  38.231  54.539  0.00  0.00     0.086 H 
ENDBRANCH  20  22
ENDBRANCH  14  20
ENDBRANCH   1   9
BRANCH   4  33
ATOM     33  C21 Z48 d   1      35.741  33.705  56.863  0.00  0.00     0.268 C 
ATOM     34  O22 Z48 d   1      35.291  32.646  56.618  0.00  0.00    -0.266 OA
ATOM     35  N23 Z48 d   1      35.518  34.226  58.059  0.00  0.00    -0.345 N 
ATOM     36  H14 Z48 d   1      35.936  35.118  58.232  0.00  0.00     0.163 HD
BRANCH  35  37
ATOM     37  C24 Z48 d   1      34.749  33.671  59.142  0.00  0.00     0.058 C 
ATOM     38  H15 Z48 d   1      33.876  33.133  58.745  0.00  0.00     0.083 H 
BRANCH  37  39
ATOM     39  C26 Z48 d   1      34.346  34.870  59.952  0.00  0.00     0.039 C 
ATOM     40  H16 Z48 d   1      35.221  35.506  60.151  0.00  0.00     0.077 H 
ATOM     41  H17 Z48 d   1      33.900  34.552  60.906  0.00  0.00     0.077 H 
BRANCH  39  42
ATOM     42  O27 Z48 d   1      33.418  35.559  59.198  0.00  0.00    -0.399 OA
ATOM     43  H18 Z48 d   1      32.671  34.998  59.027  0.00  0.00     0.209 HD
ENDBRANCH  39  42
ENDBRANCH  37  39
BRANCH  37  44
ATOM     44  C28 Z48 d   1      35.500  32.784  60.065  0.00  0.00    -0.033 A 
ATOM     45  C29 Z48 d   1      34.795  31.922  60.843  0.00  0.00    -0.075 A 
ATOM     46  C30 Z48 d   1      35.421  31.105  61.708  0.00  0.00    -0.082 A 
ATOM     47  H19 Z48 d   1      33.714  31.892  60.765  0.00  0.00     0.084 H 
ATOM     48  C31 Z48 d   1      36.776  31.154  61.785  0.00  0.00    -0.083 A 
ATOM     49  H20 Z48 d   1      34.856  30.421  62.331  0.00  0.00     0.083 H 
ATOM     50  C32 Z48 d   1      37.484  32.018  61.010  0.00  0.00    -0.082 A 
ATOM     51  H21 Z48 d   1      37.298  30.497  62.471  0.00  0.00     0.083 H 
ATOM     52  C33 Z48 d   1      36.843  32.840  60.142  0.00  0.00    -0.075 A 
ATOM     53  H22 Z48 d   1      38.565  32.050  61.086  0.00  0.00     0.083 H 
ATOM     54  H23 Z48 d   1      37.403  33.530  59.521  0.00  0.00     0.084 H 
ENDBRANCH  37  44
ENDBRANCH  35  37
ENDBRANCH   4  33
TORSDOF 9
