REMARK  9 active torsions:
REMARK  status: ('A' for Active; 'I' for Inactive)
REMARK    1  A    between atoms: C1_1  and  C2_2 
REMARK    2  A    between atoms: C5_5  and  N6_6 
REMARK    3  A    between atoms: N6_6  and  C7_7 
REMARK    4  A    between atoms: C14_14  and  C15_15 
REMARK    5  A    between atoms: C19_18  and  C21_20 
REMARK       I    between atoms: C21_20  and  N23_22 
REMARK    6  A    between atoms: N23_22  and  C24_23 
REMARK    7  A    between atoms: C24_23  and  C26_24 
REMARK    8  A    between atoms: C24_23  and  C28_26 
REMARK    9  A    between atoms: C26_24  and  O27_25 
ROOT
ATOM      1  C15 Z48 d   1       8.009  -2.235  45.282  0.00  0.00     0.012 A 
ATOM      2  C16 Z48 d   1       8.243  -2.630  43.989  0.00  0.00    -0.010 A 
ATOM      3  N17 Z48 d   1       9.518  -3.028  43.869  0.00  0.00    -0.361 N 
ATOM      4  C19 Z48 d   1      10.139  -2.905  45.085  0.00  0.00     0.101 A 
ATOM      5  C20 Z48 d   1       9.232  -2.400  45.979  0.00  0.00    -0.038 A 
ATOM      6  H11 Z48 d   1       7.508  -2.622  43.185  0.00  0.00     0.112 H 
ATOM      7  H12 Z48 d   1       9.959  -3.370  43.004  0.00  0.00     0.165 HD
ATOM      8  H13 Z48 d   1       9.416  -2.169  47.027  0.00  0.00     0.088 H 
ENDROOT
BRANCH   1   9
ATOM      9  C14 Z48 d   1       6.693  -1.705  45.742  0.00  0.00     0.095 A 
ATOM     10  C2  Z48 d   1       6.497  -0.934  46.914  0.00  0.00    -0.013 A 
ATOM     11  C3  Z48 d   1       5.217  -0.483  47.183  0.00  0.00     0.029 A 
ATOM     12  N4  Z48 d   1       4.229  -0.778  46.351  0.00  0.00    -0.074 NA
ATOM     13  H4  Z48 d   1       5.023   0.109  48.070  0.00  0.00     0.116 H 
ATOM     14  C5  Z48 d   1       4.424  -1.512  45.262  0.00  0.00     0.727 A 
ATOM     15  N13 Z48 d   1       5.633  -1.950  44.965  0.00  0.00    -0.061 NA
BRANCH  10  16
ATOM     16  C1  Z48 d   1       7.600  -0.566  47.871  0.00  0.00    -0.048 C 
ATOM     17  H1  Z48 d   1       7.186   0.033  48.695  0.00  0.00     0.033 H 
ATOM     18  H2  Z48 d   1       8.366   0.019  47.341  0.00  0.00     0.033 H 
ATOM     19  H3  Z48 d   1       8.055  -1.482  48.276  0.00  0.00     0.033 H 
ENDBRANCH  10  16
BRANCH  14  20
ATOM     20  N6  Z48 d   1       3.325  -1.781  44.445  0.00  0.00    -0.188 N 
ATOM     21  H5  Z48 d   1       2.450  -1.300  44.696  0.00  0.00     0.184 HD
BRANCH  20  22
ATOM     22  C7  Z48 d   1       3.260  -2.625  43.323  0.00  0.00     0.049 A 
ATOM     23  C8  Z48 d   1       4.302  -2.729  42.398  0.00  0.00    -0.057 A 
ATOM     24  C9  Z48 d   1       4.191  -3.572  41.300  0.00  0.00    -0.081 A 
ATOM     25  H6  Z48 d   1       5.205  -2.146  42.539  0.00  0.00     0.086 H 
ATOM     26  C10 Z48 d   1       3.025  -4.315  41.127  0.00  0.00    -0.083 A 
ATOM     27  H7  Z48 d   1       5.002  -3.651  40.586  0.00  0.00     0.083 H 
ATOM     28  C11 Z48 d   1       1.981  -4.220  42.040  0.00  0.00    -0.081 A 
ATOM     29  H8  Z48 d   1       2.931  -4.974  40.272  0.00  0.00     0.083 H 
ATOM     30  C12 Z48 d   1       2.101  -3.373  43.130  0.00  0.00    -0.057 A 
ATOM     31  H9  Z48 d   1       1.079  -4.805  41.900  0.00  0.00     0.083 H 
ATOM     32  H10 Z48 d   1       1.285  -3.292  43.839  0.00  0.00     0.086 H 
ENDBRANCH  20  22
ENDBRANCH  14  20
ENDBRANCH   1   9
BRANCH   4  33
ATOM     33  C21 Z48 d   1      11.559  -3.239  45.278  0.00  0.00     0.268 C 
ATOM     34  O22 Z48 d   1      12.220  -2.684  46.148  0.00  0.00    -0.266 OA
ATOM     35  N23 Z48 d   1      12.093  -4.148  44.426  0.00  0.00    -0.345 N 
ATOM     36  H14 Z48 d   1      11.486  -4.568  43.752  0.00  0.00     0.163 HD
BRANCH  35  37
ATOM     37  C24 Z48 d   1      13.508  -4.558  44.427  0.00  0.00     0.058 C 
ATOM     38  H15 Z48 d   1      14.121  -3.692  44.719  0.00  0.00     0.083 H 
BRANCH  37  39
ATOM     39  C26 Z48 d   1      13.861  -4.956  42.981  0.00  0.00     0.039 C 
ATOM     40  H16 Z48 d   1      13.330  -5.882  42.717  0.00  0.00     0.077 H 
ATOM     41  H17 Z48 d   1      14.946  -5.120  42.902  0.00  0.00     0.077 H 
BRANCH  39  42
ATOM     42  O27 Z48 d   1      13.468  -3.903  42.076  0.00  0.00    -0.399 OA
ATOM     43  H18 Z48 d   1      12.531  -3.762  42.144  0.00  0.00     0.209 HD
ENDBRANCH  39  42
ENDBRANCH  37  39
BRANCH  37  44
ATOM     44  C28 Z48 d   1      13.815  -5.682  45.389  0.00  0.00    -0.033 A 
ATOM     45  C29 Z48 d   1      12.801  -6.490  45.901  0.00  0.00    -0.075 A 
ATOM     46  C30 Z48 d   1      13.114  -7.517  46.774  0.00  0.00    -0.082 A 
ATOM     47  H19 Z48 d   1      11.770  -6.314  45.616  0.00  0.00     0.084 H 
ATOM     48  C31 Z48 d   1      14.432  -7.738  47.145  0.00  0.00    -0.083 A 
ATOM     49  H20 Z48 d   1      12.328  -8.150  47.169  0.00  0.00     0.083 H 
ATOM     50  C32 Z48 d   1      15.439  -6.935  46.638  0.00  0.00    -0.082 A 
ATOM     51  H21 Z48 d   1      14.674  -8.540  47.833  0.00  0.00     0.083 H 
ATOM     52  C33 Z48 d   1      15.135  -5.904  45.760  0.00  0.00    -0.075 A 
ATOM     53  H22 Z48 d   1      16.468  -7.112  46.928  0.00  0.00     0.083 H 
ATOM     54  H23 Z48 d   1      15.925  -5.275  45.365  0.00  0.00     0.084 H 
ENDBRANCH  37  44
ENDBRANCH  35  37
ENDBRANCH   4  33
TORSDOF 9
