REMARK  8 active torsions:
REMARK  status: ('A' for Active; 'I' for Inactive)
REMARK    1  A    between atoms: O3A_8  and  PB_1 
REMARK    2  A    between atoms: PA_5  and  O3A_8 
REMARK    3  A    between atoms: PA_5  and  O5'_9 
REMARK    4  A    between atoms: O5'_9  and  C5'_10 
REMARK    5  A    between atoms: C5'_10  and  C4'_11 
REMARK    6  A    between atoms: C3'_13  and  O3'_14 
REMARK    7  A    between atoms: C2'_15  and  O2'_16 
REMARK    8  A    between atoms: C1'_17  and  N9_18 
ROOT
ATOM      1  C4' ADP d   1     -45.265  10.467   2.174  0.00  0.00     0.089 C 
ATOM      2  O4' ADP d   1     -46.612  10.647   1.666  0.00  0.00    -0.353 OA
ATOM      3  C3' ADP d   1     -45.247  11.264   3.470  0.00  0.00     0.091 C 
ATOM      4  C2' ADP d   1     -46.354  12.264   3.268  0.00  0.00     0.105 C 
ATOM      5  C1' ADP d   1     -46.896  12.033   1.889  0.00  0.00     0.139 C 
ATOM      6  H3  ADP d   1     -44.584  10.979   1.478  0.00  0.00     0.090 H 
ATOM      7  H4  ADP d   1     -45.417  10.622   4.347  0.00  0.00     0.091 H 
ATOM      8  H6  ADP d   1     -47.072  12.242   4.101  0.00  0.00     0.093 H 
ATOM      9  H8  ADP d   1     -46.457  12.652   1.093  0.00  0.00     0.122 H 
ENDROOT
BRANCH   5  10
ATOM     10  N9  ADP d   1     -48.256  12.441   2.209  0.00  0.00    -0.294 N 
ATOM     11  C8  ADP d   1     -49.435  12.146   1.674  0.00  0.00     0.071 A 
ATOM     12  N7  ADP d   1     -50.432  12.764   2.333  0.00  0.00    -0.236 NA
ATOM     13  H9  ADP d   1     -49.576  11.491   0.816  0.00  0.00     0.144 H 
ATOM     14  C5  ADP d   1     -49.871  13.464   3.311  0.00  0.00     0.149 A 
ATOM     15  C6  ADP d   1     -50.325  14.338   4.384  0.00  0.00     0.155 A 
ATOM     16  C4  ADP d   1     -48.428  13.248   3.225  0.00  0.00     0.167 A 
ATOM     17  N6  ADP d   1     -51.628  14.569   4.510  0.00  0.00    -0.382 N 
ATOM     18  N1  ADP d   1     -49.398  14.883   5.204  0.00  0.00    -0.222 NA
ATOM     19  H10 ADP d   1     -51.972  15.184   5.261  0.00  0.00     0.157 HD
ATOM     20  H11 ADP d   1     -52.294  14.133   3.856  0.00  0.00     0.157 HD
ATOM     21  C2  ADP d   1     -48.082  14.650   5.049  0.00  0.00     0.091 A 
ATOM     22  N3  ADP d   1     -47.582  13.852   4.097  0.00  0.00    -0.222 NA
ATOM     23  H12 ADP d   1     -47.391  15.133   5.730  0.00  0.00     0.146 H 
ENDBRANCH   5  10
BRANCH   4  24
ATOM     24  O2' ADP d   1     -45.971  13.561   2.846  0.00  0.00    -0.388 OA
ATOM     25  H7  ADP d   1     -46.745  14.104   2.752  0.00  0.00     0.210 HD
ENDBRANCH   4  24
BRANCH   1  26
ATOM     26  C5' ADP d   1     -44.753   9.013   2.217  0.00  0.00     0.058 C 
ATOM     27  H1  ADP d   1     -44.831   8.634   3.247  0.00  0.00     0.079 H 
ATOM     28  H2  ADP d   1     -45.371   8.394   1.550  0.00  0.00     0.079 H 
BRANCH  26  29
ATOM     29  O5' ADP d   1     -43.380   8.940   1.791  0.00  0.00    -0.287 OA
BRANCH  29  30
ATOM     30  PA  ADP d   1     -42.670   7.611   1.153  0.00  0.00     0.418 P 
ATOM     31  O1A ADP d   1     -42.686   6.474   2.145  0.00  0.00    -0.624 OA
ATOM     32  O2A ADP d   1     -43.230   7.377  -0.228  0.00  0.00    -0.624 OA
BRANCH  30  33
ATOM     33  O3A ADP d   1     -41.119   8.000   0.958  0.00  0.00    -0.173 OA
BRANCH  33  34
ATOM     34  PB  ADP d   1     -40.194   6.943   0.173  0.00  0.00     0.431 P 
ATOM     35  O1B ADP d   1     -39.054   6.640   1.121  0.00  0.00    -0.616 OA
ATOM     36  O2B ADP d   1     -39.735   7.659  -1.074  0.00  0.00    -0.616 OA
ATOM     37  O3B ADP d   1     -41.142   5.791  -0.079  0.00  0.00    -0.616 OA
ENDBRANCH  33  34
ENDBRANCH  30  33
ENDBRANCH  29  30
ENDBRANCH  26  29
ENDBRANCH   1  26
BRANCH   3  38
ATOM     38  O3' ADP d   1     -44.040  11.976   3.597  0.00  0.00    -0.390 OA
ATOM     39  H5  ADP d   1     -43.949  12.575   2.865  0.00  0.00     0.210 HD
ENDBRANCH   3  38
TORSDOF 8
