REMARK  17 active torsions:
REMARK  status: ('A' for Active; 'I' for Inactive)
REMARK    1  A    between atoms: C5_8  and  O4_9 
REMARK    2  A    between atoms: O4_9  and  C4_10 
REMARK       I    between atoms: C4_10  and  N1_12 
REMARK    3  A    between atoms: N1_12  and  C6_13 
REMARK    4  A    between atoms: C6_13  and  C8_14 
REMARK    5  A    between atoms: C6_13  and  C7_21 
REMARK    6  A    between atoms: C8_14  and  C9_15 
REMARK    7  A    between atoms: C7_21  and  O6_22 
REMARK    8  A    between atoms: C7_21  and  C15_23 
REMARK    9  A    between atoms: C15_23  and  N2_24 
REMARK   10  A    between atoms: N2_24  and  S_25 
REMARK   11  A    between atoms: N2_24  and  C16_36 
REMARK   12  A    between atoms: S_25  and  C18_28 
REMARK   13  A    between atoms: C21_31  and  O1_32 
REMARK   14  A    between atoms: O1_32  and  C26_33 
REMARK   15  A    between atoms: C16_36  and  C17_37 
REMARK   16  A    between atoms: C17_37  and  C25_38 
REMARK   17  A    between atoms: C17_37  and  C24_39 
ROOT
ATOM      1  C7  DJR d   1       5.300  -0.435  16.055  0.00  0.00     0.071 C 
ATOM      2  H19 DJR d   1       4.232  -0.698  16.067  0.00  0.00     0.088 H 
ENDROOT
BRANCH   1   3
ATOM      3  C6  DJR d   1       5.684  -0.104  14.570  0.00  0.00     0.044 C 
ATOM      4  H11 DJR d   1       5.741  -1.046  14.006  0.00  0.00     0.077 H 
BRANCH   3   5
ATOM      5  N1  DJR d   1       4.594   0.735  14.029  0.00  0.00    -0.329 N 
ATOM      6  C4  DJR d   1       3.742   0.323  13.097  0.00  0.00     0.361 C 
ATOM      7  O5  DJR d   1       3.762  -0.787  12.542  0.00  0.00    -0.238 OA
ATOM      8  H10 DJR d   1       4.492   1.664  14.384  0.00  0.00     0.165 HD
BRANCH   6   9
ATOM      9  O4  DJR d   1       2.843   1.339  12.844  0.00  0.00    -0.296 OA
BRANCH   9  10
ATOM     10  C5  DJR d   1       1.898   1.246  11.735  0.00  0.00     0.078 C 
ATOM     11  C   DJR d   1       2.295   2.171  10.565  0.00  0.00     0.023 C 
ATOM     12  C27 DJR d   1       1.627   3.482  10.856  0.00  0.00     0.137 C 
ATOM     13  C1  DJR d   1       3.763   2.514  10.300  0.00  0.00    -0.035 C 
ATOM     14  H1  DJR d   1       1.890   1.727   9.643  0.00  0.00     0.051 H 
ATOM     15  O   DJR d   1       0.682   3.260  11.923  0.00  0.00    -0.358 OA
ATOM     16  O9  DJR d   1       2.671   4.386  11.271  0.00  0.00    -0.361 OA
ATOM     17  H2  DJR d   1       1.112   3.872   9.966  0.00  0.00     0.129 H 
ATOM     18  C3  DJR d   1       0.555   1.845  12.148  0.00  0.00     0.048 C 
ATOM     19  H7  DJR d   1      -0.257   1.429  11.534  0.00  0.00     0.078 H 
ATOM     20  H8  DJR d   1       0.353   1.641  13.210  0.00  0.00     0.078 H 
ATOM     21  C2  DJR d   1       3.971   3.797  11.103  0.00  0.00     0.023 C 
ATOM     22  H3  DJR d   1       4.413   3.565  12.083  0.00  0.00     0.074 H 
ATOM     23  H4  DJR d   1       4.633   4.485  10.556  0.00  0.00     0.074 H 
ATOM     24  H5  DJR d   1       3.941   2.686   9.228  0.00  0.00     0.037 H 
ATOM     25  H6  DJR d   1       4.426   1.713  10.658  0.00  0.00     0.037 H 
ATOM     26  H9  DJR d   1       1.802   0.200  11.410  0.00  0.00     0.088 H 
ENDBRANCH   9  10
ENDBRANCH   6   9
ENDBRANCH   3   5
BRANCH   3  27
ATOM     27  C8  DJR d   1       7.042   0.648  14.395  0.00  0.00    -0.020 C 
ATOM     28  H12 DJR d   1       7.847  -0.005  14.763  0.00  0.00     0.043 H 
ATOM     29  H13 DJR d   1       7.008   1.565  15.001  0.00  0.00     0.043 H 
BRANCH  27  30
ATOM     30  C9  DJR d   1       7.366   1.041  12.947  0.00  0.00    -0.056 A 
ATOM     31  C11 DJR d   1       7.799   0.054  12.016  0.00  0.00    -0.077 A 
ATOM     32  C13 DJR d   1       8.089   0.415  10.680  0.00  0.00    -0.082 A 
ATOM     33  H14 DJR d   1       7.907  -0.977  12.333  0.00  0.00     0.084 H 
ATOM     34  C14 DJR d   1       7.952   1.769  10.260  0.00  0.00    -0.083 A 
ATOM     35  H15 DJR d   1       8.416  -0.340   9.974  0.00  0.00     0.083 H 
ATOM     36  C12 DJR d   1       7.523   2.757  11.174  0.00  0.00    -0.082 A 
ATOM     37  H16 DJR d   1       8.178   2.042   9.236  0.00  0.00     0.083 H 
ATOM     38  C10 DJR d   1       7.227   2.398  12.518  0.00  0.00    -0.077 A 
ATOM     39  H17 DJR d   1       7.420   3.787  10.852  0.00  0.00     0.083 H 
ATOM     40  H18 DJR d   1       6.895   3.155  13.219  0.00  0.00     0.084 H 
ENDBRANCH  27  30
ENDBRANCH   3  27
ENDBRANCH   1   3
BRANCH   1  41
ATOM     41  O6  DJR d   1       5.490   0.716  16.891  0.00  0.00    -0.392 OA
ATOM     42  H20 DJR d   1       5.253   0.499  17.785  0.00  0.00     0.210 HD
ENDBRANCH   1  41
BRANCH   1  43
ATOM     43  C15 DJR d   1       6.083  -1.629  16.649  0.00  0.00     0.031 C 
ATOM     44  H21 DJR d   1       5.755  -1.786  17.687  0.00  0.00     0.069 H 
ATOM     45  H22 DJR d   1       7.156  -1.389  16.636  0.00  0.00     0.069 H 
BRANCH  43  46
ATOM     46  N2  DJR d   1       5.866  -2.884  15.886  0.00  0.00    -0.304 N 
BRANCH  46  47
ATOM     47  S   DJR d   1       7.199  -3.563  14.983  0.00  0.00     0.260 S 
ATOM     48  O8  DJR d   1       6.492  -4.443  13.883  0.00  0.00    -0.200 OA
ATOM     49  O7  DJR d   1       8.021  -2.394  14.321  0.00  0.00    -0.200 OA
BRANCH  47  50
ATOM     50  C18 DJR d   1       8.194  -4.528  16.065  0.00  0.00     0.079 A 
ATOM     51  C23 DJR d   1       9.275  -3.934  16.776  0.00  0.00    -0.058 A 
ATOM     52  C22 DJR d   1      10.045  -4.733  17.657  0.00  0.00    -0.049 A 
ATOM     53  H23 DJR d   1       9.506  -2.883  16.645  0.00  0.00     0.086 H 
ATOM     54  C21 DJR d   1       9.740  -6.120  17.832  0.00  0.00     0.068 A 
ATOM     55  H24 DJR d   1      10.871  -4.290  18.202  0.00  0.00     0.087 H 
ATOM     56  C20 DJR d   1       8.651  -6.681  17.106  0.00  0.00    -0.049 A 
ATOM     57  C19 DJR d   1       7.880  -5.892  16.228  0.00  0.00    -0.058 A 
ATOM     58  H28 DJR d   1       8.411  -7.731  17.230  0.00  0.00     0.087 H 
ATOM     59  H29 DJR d   1       7.052  -6.331  15.683  0.00  0.00     0.086 H 
BRANCH  54  60
ATOM     60  O1  DJR d   1      10.564  -6.812  18.722  0.00  0.00    -0.356 OA
BRANCH  60  61
ATOM     61  C26 DJR d   1      10.433  -8.223  19.039  0.00  0.00     0.010 C 
ATOM     62  H25 DJR d   1      11.208  -8.509  19.766  0.00  0.00     0.066 H 
ATOM     63  H26 DJR d   1      10.554  -8.818  18.122  0.00  0.00     0.066 H 
ATOM     64  H27 DJR d   1       9.439  -8.411  19.470  0.00  0.00     0.066 H 
ENDBRANCH  60  61
ENDBRANCH  54  60
ENDBRANCH  47  50
ENDBRANCH  46  47
BRANCH  46  65
ATOM     65  C16 DJR d   1       4.524  -3.565  15.883  0.00  0.00     0.008 C 
ATOM     66  H30 DJR d   1       4.649  -4.544  15.398  0.00  0.00     0.066 H 
ATOM     67  H31 DJR d   1       3.838  -2.945  15.287  0.00  0.00     0.066 H 
BRANCH  65  68
ATOM     68  C17 DJR d   1       3.857  -3.808  17.269  0.00  0.00    -0.045 C 
ATOM     69  H32 DJR d   1       4.005  -2.904  17.877  0.00  0.00     0.041 H 
BRANCH  68  70
ATOM     70  C25 DJR d   1       2.351  -4.096  17.184  0.00  0.00    -0.072 C 
ATOM     71  H33 DJR d   1       1.951  -4.256  18.196  0.00  0.00     0.028 H 
ATOM     72  H34 DJR d   1       2.184  -4.998  16.576  0.00  0.00     0.028 H 
ATOM     73  H35 DJR d   1       1.840  -3.240  16.719  0.00  0.00     0.028 H 
ENDBRANCH  68  70
BRANCH  68  74
ATOM     74  C24 DJR d   1       4.508  -5.003  17.979  0.00  0.00    -0.072 C 
ATOM     75  H36 DJR d   1       5.592  -4.835  18.060  0.00  0.00     0.028 H 
ATOM     76  H37 DJR d   1       4.321  -5.920  17.400  0.00  0.00     0.028 H 
ATOM     77  H38 DJR d   1       4.077  -5.111  18.985  0.00  0.00     0.028 H 
ENDBRANCH  68  74
ENDBRANCH  65  68
ENDBRANCH  46  65
ENDBRANCH  43  46
ENDBRANCH   1  43
TORSDOF 17
