REMARK  17 active torsions:
REMARK  status: ('A' for Active; 'I' for Inactive)
REMARK    1  A    between atoms: PA_1  and  O3A_8 
REMARK    2  A    between atoms: O01_9  and  PA_1 
REMARK    3  A    between atoms: O3A_8  and  PB_5 
REMARK    4  A    between atoms: C01_10  and  O01_9 
REMARK    5  A    between atoms: C05_11  and  C01_10 
REMARK    6  A    between atoms: C04_12  and  C05_11 
REMARK    7  A    between atoms: C03_13  and  CM4_14 
REMARK    8  A    between atoms: C7_32  and  C02_16 
REMARK    9  A    between atoms: N3_17  and  C18_18 
REMARK   10  A    between atoms: C18_18  and  C19_19 
REMARK   11  A    between atoms: C21_21  and  N22_22 
REMARK   12  A    between atoms: C24_24  and  CM2_26 
REMARK   13  A    between atoms: P8_28  and  O9_30 
REMARK   14  A    between atoms: P8_28  and  C7_32 
REMARK   15  A    between atoms: O9_30  and  C10_31 
REMARK   16  A    between atoms: C7_32  and  O7_33 
REMARK   17  A    between atoms: C7_32  and  C2_34 
ROOT
ATOM      1  C04 D7K d   1       0.021 -46.096 -28.172  0.00  0.00     0.022 A 
ATOM      2  C03 D7K d   1       1.535 -45.934 -28.553  0.00  0.00     0.114 A 
ATOM      3  S1  D7K d   1      -0.243 -45.512 -26.644  0.00  0.00    -0.125 SA
ATOM      4  C02 D7K d   1       1.400 -45.021 -26.240  0.00  0.00     0.190 A 
ATOM      5  N3  D7K d   1       2.346 -45.276 -27.401  0.00  0.00    -0.046 N 
ATOM      6  H5  D7K d   1       0.203 -47.108 -27.780  0.00  0.00     0.060 H 
ATOM      7  H6  D7K d   1       1.331 -44.951 -29.003  0.00  0.00     0.086 H 
ATOM      8  H10 D7K d   1       1.667 -45.954 -25.722  0.00  0.00     0.107 H 
ATOM      9  H11 D7K d   1       2.183 -44.350 -27.765  0.00  0.00     0.282 HD
ENDROOT
BRANCH   4  10
ATOM     10  C7  D7K d   1       1.653 -44.168 -24.964  0.00  0.00     0.204 C 
BRANCH  10  11
ATOM     11  P8  D7K d   1       1.662 -42.330 -25.385  0.00  0.00     0.288 P 
ATOM     12  O12 D7K d   1       2.827 -42.212 -26.524  0.00  0.00    -0.644 OA
ATOM     13  O11 D7K d   1       0.365 -41.858 -25.919  0.00  0.00    -0.644 OA
BRANCH  11  14
ATOM     14  O9  D7K d   1       2.031 -41.484 -23.972  0.00  0.00    -0.315 OA
BRANCH  14  15
ATOM     15  C10 D7K d   1       1.033 -40.881 -23.180  0.00  0.00     0.014 C 
ATOM     16  H26 D7K d   1       1.500 -40.388 -22.314  0.00  0.00     0.067 H 
ATOM     17  H27 D7K d   1       0.329 -41.650 -22.829  0.00  0.00     0.067 H 
ATOM     18  H28 D7K d   1       0.491 -40.134 -23.779  0.00  0.00     0.067 H 
ENDBRANCH  14  15
ENDBRANCH  11  14
ENDBRANCH  10  11
BRANCH  10  19
ATOM     19  O7  D7K d   1       2.962 -44.434 -24.467  0.00  0.00    -0.374 OA
ATOM     20  H29 D7K d   1       3.602 -44.229 -25.138  0.00  0.00     0.211 HD
ENDBRANCH  10  19
BRANCH  10  21
ATOM     21  C2  D7K d   1       0.530 -44.512 -23.919  0.00  0.00    -0.009 A 
ATOM     22  C3  D7K d   1       0.756 -45.613 -22.837  0.00  0.00    -0.058 A 
ATOM     23  C4  D7K d   1      -0.319 -45.957 -21.804  0.00  0.00    -0.065 A 
ATOM     24  H31 D7K d   1       1.647 -45.309 -22.267  0.00  0.00     0.033 H 
ATOM     25  H32 D7K d   1       0.970 -46.544 -23.383  0.00  0.00     0.033 H 
ATOM     26  C5  D7K d   1      -1.682 -45.216 -21.823  0.00  0.00    -0.065 A 
ATOM     27  H33 D7K d   1       0.125 -45.779 -20.813  0.00  0.00     0.033 H 
ATOM     28  H34 D7K d   1      -0.539 -47.029 -21.920  0.00  0.00     0.033 H 
ATOM     29  C6  D7K d   1      -1.928 -44.124 -22.878  0.00  0.00    -0.065 A 
ATOM     30  H35 D7K d   1      -1.805 -44.744 -20.837  0.00  0.00     0.033 H 
ATOM     31  H36 D7K d   1      -2.461 -45.980 -21.963  0.00  0.00     0.033 H 
ATOM     32  C1  D7K d   1      -0.834 -43.781 -23.922  0.00  0.00    -0.058 A 
ATOM     33  H37 D7K d   1      -2.141 -43.196 -22.328  0.00  0.00     0.033 H 
ATOM     34  H38 D7K d   1      -2.821 -44.428 -23.445  0.00  0.00     0.033 H 
ATOM     35  H39 D7K d   1      -1.281 -43.957 -24.912  0.00  0.00     0.033 H 
ATOM     36  H40 D7K d   1      -0.615 -42.710 -23.804  0.00  0.00     0.033 H 
ATOM     37  H30 D7K d   1       0.941 -43.750 -23.240  0.00  0.00     0.045 H 
ENDBRANCH  10  21
ENDBRANCH   4  10
BRANCH   5  38
ATOM     38  C18 D7K d   1       3.781 -45.001 -27.472  0.00  0.00     0.110 C 
ATOM     39  H12 D7K d   1       4.067 -44.378 -26.612  0.00  0.00     0.083 H 
ATOM     40  H13 D7K d   1       3.994 -44.458 -28.405  0.00  0.00     0.083 H 
BRANCH  38  41
ATOM     41  C19 D7K d   1       4.609 -46.288 -27.448  0.00  0.00     0.018 A 
ATOM     42  C20 D7K d   1       5.510 -46.618 -28.584  0.00  0.00    -0.018 A 
ATOM     43  N25 D7K d   1       6.307 -47.845 -28.485  0.00  0.00    -0.372 N 
ATOM     44  H14 D7K d   1       5.576 -45.972 -29.458  0.00  0.00     0.111 H 
ATOM     45  C24 D7K d   1       6.251 -48.746 -27.281  0.00  0.00     0.165 A 
ATOM     46  H22 D7K d   1       6.927 -48.099 -29.267  0.00  0.00     0.161 HD
ATOM     47  N23 D7K d   1       5.349 -48.390 -26.175  0.00  0.00    -0.022 N 
ATOM     48  H21 D7K d   1       7.076 -48.186 -26.817  0.00  0.00     0.117 H 
ATOM     49  C21 D7K d   1       4.556 -47.193 -26.247  0.00  0.00     0.277 A 
ATOM     50  H19 D7K d   1       4.706 -49.158 -26.066  0.00  0.00     0.282 HD
ATOM     51  H20 D7K d   1       5.920 -48.310 -25.348  0.00  0.00     0.282 HD
ATOM     52  H15 D7K d   1       5.372 -46.614 -25.790  0.00  0.00     0.138 H 
BRANCH  45  53
ATOM     53  CM2 D7K d   1       7.056 -50.031 -27.181  0.00  0.00    -0.034 C 
ATOM     54  H23 D7K d   1       7.675 -50.147 -28.083  0.00  0.00     0.032 H 
ATOM     55  H24 D7K d   1       6.371 -50.887 -27.093  0.00  0.00     0.032 H 
ATOM     56  H25 D7K d   1       7.705 -49.989 -26.294  0.00  0.00     0.032 H 
ENDBRANCH  45  53
BRANCH  49  57
ATOM     57  N22 D7K d   1       3.720 -46.917 -25.124  0.00  0.00    -0.046 N 
ATOM     58  H16 D7K d   1       3.834 -47.643 -24.434  0.00  0.00     0.277 HD
ATOM     59  H17 D7K d   1       2.757 -46.884 -25.422  0.00  0.00     0.277 HD
ATOM     60  H18 D7K d   1       3.978 -46.029 -24.723  0.00  0.00     0.277 HD
ENDBRANCH  49  57
ENDBRANCH  38  41
ENDBRANCH   5  38
BRANCH   1  61
ATOM     61  C05 D7K d   1      -1.056 -46.694 -29.085  0.00  0.00    -0.031 C 
ATOM     62  H3  D7K d   1      -1.984 -46.117 -28.959  0.00  0.00     0.037 H 
ATOM     63  H4  D7K d   1      -0.715 -46.616 -30.128  0.00  0.00     0.037 H 
BRANCH  61  64
ATOM     64  C01 D7K d   1      -1.348 -48.159 -28.776  0.00  0.00     0.033 C 
ATOM     65  H1  D7K d   1      -0.417 -48.743 -28.727  0.00  0.00     0.075 H 
ATOM     66  H2  D7K d   1      -1.894 -48.258 -27.826  0.00  0.00     0.075 H 
BRANCH  64  67
ATOM     67  O01 D7K d   1      -2.140 -48.573 -29.852  0.00  0.00    -0.289 OA
BRANCH  67  68
ATOM     68  PA  D7K d   1      -2.935 -50.003 -29.790  0.00  0.00     0.418 P 
ATOM     69  O1A D7K d   1      -3.469 -50.392 -31.299  0.00  0.00    -0.624 OA
ATOM     70  O2A D7K d   1      -2.151 -51.196 -29.377  0.00  0.00    -0.624 OA
BRANCH  68  71
ATOM     71  O3A D7K d   1      -4.087 -49.816 -28.644  0.00  0.00    -0.173 OA
BRANCH  71  72
ATOM     72  PB  D7K d   1      -5.228 -48.622 -28.719  0.00  0.00     0.431 P 
ATOM     73  O1B D7K d   1      -6.532 -49.379 -28.037  0.00  0.00    -0.616 OA
ATOM     74  O2B D7K d   1      -5.371 -48.181 -30.311  0.00  0.00    -0.616 OA
ATOM     75  O3B D7K d   1      -4.788 -47.428 -27.944  0.00  0.00    -0.616 OA
ENDBRANCH  71  72
ENDBRANCH  68  71
ENDBRANCH  67  68
ENDBRANCH  64  67
ENDBRANCH  61  64
ENDBRANCH   1  61
BRANCH   2  76
ATOM     76  CM4 D7K d   1       2.169 -46.363 -29.881  0.00  0.00    -0.048 C 
ATOM     77  H7  D7K d   1       3.243 -46.127 -29.867  0.00  0.00     0.030 H 
ATOM     78  H8  D7K d   1       1.686 -45.824 -30.709  0.00  0.00     0.030 H 
ATOM     79  H9  D7K d   1       2.033 -47.446 -30.020  0.00  0.00     0.030 H 
ENDBRANCH   2  76
TORSDOF 17
