REMARK  10 active torsions:
REMARK  status: ('A' for Active; 'I' for Inactive)
REMARK    1  A    between atoms: C1_1  and  C2_5 
REMARK    2  A    between atoms: O3_8  and  C1_1 
REMARK    3  A    between atoms: S1_4  and  N1_2 
REMARK    4  A    between atoms: S1_4  and  O3_8 
REMARK    5  A    between atoms: C2_5  and  C3_7 
REMARK    6  A    between atoms: C3_7  and  C4_9 
REMARK    7  A    between atoms: C4_9  and  C5_10 
REMARK    8  A    between atoms: C5_10  and  C6_11 
REMARK    9  A    between atoms: C6_11  and  C7_12 
REMARK   10  A    between atoms: C7_12  and  C8_13 
ROOT
ATOM      1  C3  BOW d   1      -4.803   4.494  14.415  0.00  0.00    -0.063 C 
ATOM      2  H7  BOW d   1      -4.405   4.370  15.433  0.00  0.00     0.033 H 
ATOM      3  H8  BOW d   1      -5.604   5.248  14.423  0.00  0.00     0.033 H 
ENDROOT
BRANCH   1   4
ATOM      4  C2  BOW d   1      -5.398   3.177  13.977  0.00  0.00    -0.044 C 
ATOM      5  H5  BOW d   1      -6.436   3.131  14.339  0.00  0.00     0.036 H 
ATOM      6  H6  BOW d   1      -5.392   3.145  12.877  0.00  0.00     0.036 H 
BRANCH   4   7
ATOM      7  C1  BOW d   1      -4.658   1.951  14.493  0.00  0.00     0.039 C 
ATOM      8  H1  BOW d   1      -3.596   2.007  14.211  0.00  0.00     0.076 H 
ATOM      9  H2  BOW d   1      -5.102   1.038  14.069  0.00  0.00     0.076 H 
BRANCH   7  10
ATOM     10  O3  BOW d   1      -4.789   1.939  15.959  0.00  0.00    -0.260 OA
BRANCH  10  11
ATOM     11  S1  BOW d   1      -5.706   0.847  16.652  0.00  0.00     0.355 S 
ATOM     12  O1  BOW d   1      -7.046   1.117  16.282  0.00  0.00    -0.176 OA
ATOM     13  O2  BOW d   1      -5.365   0.883  18.028  0.00  0.00    -0.176 OA
BRANCH  11  14
ATOM     14  N1  BOW d   1      -5.271  -0.554  16.061  0.00  0.00    -0.306 N 
ATOM     15  H3  BOW d   1      -5.728  -1.389  16.367  0.00  0.00     0.171 HD
ATOM     16  H4  BOW d   1      -4.539  -0.605  15.382  0.00  0.00     0.171 HD
ENDBRANCH  11  14
ENDBRANCH  10  11
ENDBRANCH   7  10
ENDBRANCH   4   7
ENDBRANCH   1   4
BRANCH   1  17
ATOM     17  C4  BOW d   1      -3.688   4.999  13.530  0.00  0.00    -0.065 C 
ATOM     18  H9  BOW d   1      -4.128   5.377  12.596  0.00  0.00     0.033 H 
ATOM     19  H10 BOW d   1      -3.014   4.159  13.305  0.00  0.00     0.033 H 
BRANCH  17  20
ATOM     20  C5  BOW d   1      -2.881   6.103  14.158  0.00  0.00    -0.065 C 
ATOM     21  H11 BOW d   1      -2.121   5.648  14.810  0.00  0.00     0.033 H 
ATOM     22  H12 BOW d   1      -3.558   6.725  14.763  0.00  0.00     0.033 H 
BRANCH  20  23
ATOM     23  C6  BOW d   1      -2.179   6.996  13.163  0.00  0.00    -0.065 C 
ATOM     24  H13 BOW d   1      -2.931   7.652  12.700  0.00  0.00     0.033 H 
ATOM     25  H14 BOW d   1      -1.724   6.358  12.391  0.00  0.00     0.033 H 
BRANCH  23  26
ATOM     26  C7  BOW d   1      -1.089   7.871  13.756  0.00  0.00    -0.069 C 
ATOM     27  H15 BOW d   1      -0.631   8.446  12.938  0.00  0.00     0.032 H 
ATOM     28  H16 BOW d   1      -0.333   7.213  14.210  0.00  0.00     0.032 H 
BRANCH  26  29
ATOM     29  C8  BOW d   1      -1.553   8.846  14.809  0.00  0.00    -0.077 C 
ATOM     30  H17 BOW d   1      -0.694   9.429  15.173  0.00  0.00     0.027 H 
ATOM     31  H18 BOW d   1      -2.003   8.294  15.647  0.00  0.00     0.027 H 
ATOM     32  H19 BOW d   1      -2.300   9.527  14.375  0.00  0.00     0.027 H 
ENDBRANCH  26  29
ENDBRANCH  23  26
ENDBRANCH  20  23
ENDBRANCH  17  20
ENDBRANCH   1  17
TORSDOF 10
