REMARK  13 active torsions:
REMARK  status: ('A' for Active; 'I' for Inactive)
REMARK    1  A    between atoms: C2_5  and  C1_1 
REMARK    2  A    between atoms: C1_1  and  O3_10 
REMARK    3  A    between atoms: S1_4  and  N1_2 
REMARK    4  A    between atoms: O3_10  and  S1_4 
REMARK    5  A    between atoms: C3_9  and  C2_5 
REMARK    6  A    between atoms: S2_8  and  N2_6 
REMARK    7  A    between atoms: O4_12  and  S2_8 
REMARK    8  A    between atoms: C4_11  and  C3_9 
REMARK    9  A    between atoms: C5_13  and  C4_11 
REMARK   10  A    between atoms: C8_18  and  O4_12 
REMARK   11  A    between atoms: C6_15  and  C5_13 
REMARK   12  A    between atoms: C7_17  and  C6_15 
REMARK   13  A    between atoms: C7_17  and  C8_18 
ROOT
ATOM      1  C4  O59 d   1      -4.370   5.621  13.521  0.00  0.00    -0.065 C 
ATOM      2  H11 O59 d   1      -5.153   6.387  13.418  0.00  0.00     0.033 H 
ATOM      3  H12 O59 d   1      -3.994   5.344  12.525  0.00  0.00     0.033 H 
ENDROOT
BRANCH   1   4
ATOM      4  C3  O59 d   1      -4.988   4.397  14.149  0.00  0.00    -0.063 C 
ATOM      5  H9  O59 d   1      -5.228   4.630  15.197  0.00  0.00     0.033 H 
ATOM      6  H10 O59 d   1      -5.914   4.160  13.605  0.00  0.00     0.033 H 
BRANCH   4   7
ATOM      7  C2  O59 d   1      -4.101   3.180  14.126  0.00  0.00    -0.044 C 
ATOM      8  H5  O59 d   1      -3.758   3.022  13.093  0.00  0.00     0.036 H 
ATOM      9  H6  O59 d   1      -3.234   3.373  14.775  0.00  0.00     0.036 H 
BRANCH   7  10
ATOM     10  C1  O59 d   1      -4.771   1.923  14.597  0.00  0.00     0.039 C 
ATOM     11  H1  O59 d   1      -4.118   1.058  14.413  0.00  0.00     0.076 H 
ATOM     12  H2  O59 d   1      -5.723   1.783  14.065  0.00  0.00     0.076 H 
BRANCH  10  13
ATOM     13  O3  O59 d   1      -5.020   2.069  16.050  0.00  0.00    -0.260 OA
BRANCH  13  14
ATOM     14  S1  O59 d   1      -5.835   0.930  16.769  0.00  0.00     0.355 S 
ATOM     15  O1  O59 d   1      -7.192   1.155  16.395  0.00  0.00    -0.176 OA
ATOM     16  O2  O59 d   1      -5.450   1.031  18.145  0.00  0.00    -0.176 OA
BRANCH  14  17
ATOM     17  N1  O59 d   1      -5.370  -0.466  16.223  0.00  0.00    -0.306 N 
ATOM     18  H3  O59 d   1      -5.787  -1.304  16.574  0.00  0.00     0.171 HD
ATOM     19  H4  O59 d   1      -4.657  -0.517  15.524  0.00  0.00     0.171 HD
ENDBRANCH  14  17
ENDBRANCH  13  14
ENDBRANCH  10  13
ENDBRANCH   7  10
ENDBRANCH   4   7
ENDBRANCH   1   4
BRANCH   1  20
ATOM     20  C5  O59 d   1      -3.231   6.215  14.305  0.00  0.00    -0.065 C 
ATOM     21  H13 O59 d   1      -2.553   5.401  14.601  0.00  0.00     0.033 H 
ATOM     22  H14 O59 d   1      -3.644   6.694  15.205  0.00  0.00     0.033 H 
BRANCH  20  23
ATOM     23  C6  O59 d   1      -2.436   7.238  13.551  0.00  0.00    -0.063 C 
ATOM     24  H15 O59 d   1      -3.135   7.935  13.066  0.00  0.00     0.033 H 
ATOM     25  H16 O59 d   1      -1.842   6.721  12.783  0.00  0.00     0.033 H 
BRANCH  23  26
ATOM     26  C7  O59 d   1      -1.501   8.030  14.423  0.00  0.00    -0.044 C 
ATOM     27  H17 O59 d   1      -0.655   7.383  14.700  0.00  0.00     0.036 H 
ATOM     28  H18 O59 d   1      -2.046   8.330  15.330  0.00  0.00     0.036 H 
BRANCH  26  29
ATOM     29  C8  O59 d   1      -0.955   9.267  13.769  0.00  0.00     0.039 C 
ATOM     30  H19 O59 d   1      -0.028   9.581  14.271  0.00  0.00     0.076 H 
ATOM     31  H20 O59 d   1      -0.749   9.072  12.706  0.00  0.00     0.076 H 
BRANCH  29  32
ATOM     32  O4  O59 d   1      -1.985  10.321  13.901  0.00  0.00    -0.260 OA
BRANCH  32  33
ATOM     33  S2  O59 d   1      -1.633  11.778  13.405  0.00  0.00     0.355 S 
ATOM     34  O5  O59 d   1      -0.681  12.273  14.352  0.00  0.00    -0.176 OA
ATOM     35  O6  O59 d   1      -2.900  12.420  13.253  0.00  0.00    -0.176 OA
BRANCH  33  36
ATOM     36  N2  O59 d   1      -0.946  11.696  11.991  0.00  0.00    -0.306 N 
ATOM     37  H7  O59 d   1      -0.656  12.533  11.527  0.00  0.00     0.171 HD
ATOM     38  H8  O59 d   1      -0.800  10.807  11.557  0.00  0.00     0.171 HD
ENDBRANCH  33  36
ENDBRANCH  32  33
ENDBRANCH  29  32
ENDBRANCH  26  29
ENDBRANCH  23  26
ENDBRANCH  20  23
ENDBRANCH   1  20
TORSDOF 13
