REMARK  15 active torsions:
REMARK  status: ('A' for Active; 'I' for Inactive)
REMARK    1  A    between atoms: C2_5  and  C1_1 
REMARK    2  A    between atoms: C1_1  and  O3_10 
REMARK    3  A    between atoms: S1_4  and  N1_2 
REMARK    4  A    between atoms: O3_10  and  S1_4 
REMARK    5  A    between atoms: C3_9  and  C2_5 
REMARK    6  A    between atoms: S2_8  and  N2_6 
REMARK    7  A    between atoms: O4_12  and  S2_8 
REMARK    8  A    between atoms: C4_11  and  C3_9 
REMARK    9  A    between atoms: C5_13  and  C4_11 
REMARK   10  A    between atoms: C10_20  and  O4_12 
REMARK   11  A    between atoms: C6_15  and  C5_13 
REMARK   12  A    between atoms: C7_17  and  C6_15 
REMARK   13  A    between atoms: C8_18  and  C7_17 
REMARK   14  A    between atoms: C9_19  and  C8_18 
REMARK   15  A    between atoms: C9_19  and  C10_20 
ROOT
ATOM      1  C5  O60 d   1      -3.160   5.879  14.179  0.00  0.00    -0.065 C 
ATOM      2  H13 O60 d   1      -2.480   5.019  14.097  0.00  0.00     0.033 H 
ATOM      3  H14 O60 d   1      -3.330   6.112  15.241  0.00  0.00     0.033 H 
ENDROOT
BRANCH   1   4
ATOM      4  C4  O60 d   1      -4.474   5.507  13.558  0.00  0.00    -0.065 C 
ATOM      5  H11 O60 d   1      -5.168   6.351  13.687  0.00  0.00     0.033 H 
ATOM      6  H12 O60 d   1      -4.311   5.327  12.485  0.00  0.00     0.033 H 
BRANCH   4   7
ATOM      7  C3  O60 d   1      -5.107   4.279  14.152  0.00  0.00    -0.063 C 
ATOM      8  H9  O60 d   1      -5.206   4.428  15.237  0.00  0.00     0.033 H 
ATOM      9  H10 O60 d   1      -6.105   4.151  13.707  0.00  0.00     0.033 H 
BRANCH   7  10
ATOM     10  C2  O60 d   1      -4.315   3.027  13.913  0.00  0.00    -0.044 C 
ATOM     11  H5  O60 d   1      -4.192   2.897  12.828  0.00  0.00     0.036 H 
ATOM     12  H6  O60 d   1      -3.328   3.147  14.383  0.00  0.00     0.036 H 
BRANCH  10  13
ATOM     13  C1  O60 d   1      -4.946   1.805  14.460  0.00  0.00     0.039 C 
ATOM     14  H1  O60 d   1      -4.348   0.921  14.193  0.00  0.00     0.076 H 
ATOM     15  H2  O60 d   1      -5.963   1.695  14.056  0.00  0.00     0.076 H 
BRANCH  13  16
ATOM     16  O3  O60 d   1      -4.999   1.951  15.913  0.00  0.00    -0.260 OA
BRANCH  16  17
ATOM     17  S1  O60 d   1      -5.762   0.838  16.708  0.00  0.00     0.355 S 
ATOM     18  O1  O60 d   1      -7.137   1.047  16.442  0.00  0.00    -0.176 OA
ATOM     19  O2  O60 d   1      -5.289   0.899  18.046  0.00  0.00    -0.176 OA
BRANCH  17  20
ATOM     20  N1  O60 d   1      -5.318  -0.546  16.085  0.00  0.00    -0.306 N 
ATOM     21  H3  O60 d   1      -5.690  -1.400  16.448  0.00  0.00     0.171 HD
ATOM     22  H4  O60 d   1      -4.665  -0.567  15.328  0.00  0.00     0.171 HD
ENDBRANCH  17  20
ENDBRANCH  16  17
ENDBRANCH  13  16
ENDBRANCH  10  13
ENDBRANCH   7  10
ENDBRANCH   4   7
ENDBRANCH   1   4
BRANCH   1  23
ATOM     23  C6  O60 d   1      -2.519   7.042  13.544  0.00  0.00    -0.065 C 
ATOM     24  H15 O60 d   1      -3.244   7.869  13.519  0.00  0.00     0.033 H 
ATOM     25  H16 O60 d   1      -2.240   6.768  12.516  0.00  0.00     0.033 H 
BRANCH  23  26
ATOM     26  C7  O60 d   1      -1.288   7.511  14.261  0.00  0.00    -0.065 C 
ATOM     27  H17 O60 d   1      -0.521   6.726  14.183  0.00  0.00     0.033 H 
ATOM     28  H18 O60 d   1      -1.543   7.670  15.319  0.00  0.00     0.033 H 
BRANCH  26  29
ATOM     29  C8  O60 d   1      -0.714   8.790  13.714  0.00  0.00    -0.063 C 
ATOM     30  H19 O60 d   1      -0.527   8.656  12.638  0.00  0.00     0.033 H 
ATOM     31  H20 O60 d   1       0.236   8.994  14.229  0.00  0.00     0.033 H 
BRANCH  29  32
ATOM     32  C9  O60 d   1      -1.616   9.972  13.896  0.00  0.00    -0.044 C 
ATOM     33  H21 O60 d   1      -1.551  10.302  14.943  0.00  0.00     0.036 H 
ATOM     34  H22 O60 d   1      -2.647   9.661  13.672  0.00  0.00     0.036 H 
BRANCH  32  35
ATOM     35  C10 O60 d   1      -1.273  11.107  13.028  0.00  0.00     0.039 C 
ATOM     36  H23 O60 d   1      -0.417  11.660  13.442  0.00  0.00     0.076 H 
ATOM     37  H24 O60 d   1      -1.026  10.754  12.016  0.00  0.00     0.076 H 
BRANCH  35  38
ATOM     38  O4  O60 d   1      -2.455  11.955  12.993  0.00  0.00    -0.260 OA
BRANCH  38  39
ATOM     39  S2  O60 d   1      -2.470  13.147  11.969  0.00  0.00     0.355 S 
ATOM     40  O5  O60 d   1      -1.445  14.045  12.387  0.00  0.00    -0.176 OA
ATOM     41  O6  O60 d   1      -3.821  13.598  11.907  0.00  0.00    -0.176 OA
BRANCH  39  42
ATOM     42  N2  O60 d   1      -2.074  12.543  10.555  0.00  0.00    -0.306 N 
ATOM     43  H7  O60 d   1      -2.023  13.139   9.753  0.00  0.00     0.171 HD
ATOM     44  H8  O60 d   1      -1.875  11.567  10.466  0.00  0.00     0.171 HD
ENDBRANCH  39  42
ENDBRANCH  38  39
ENDBRANCH  35  38
ENDBRANCH  32  35
ENDBRANCH  29  32
ENDBRANCH  26  29
ENDBRANCH  23  26
ENDBRANCH   1  23
TORSDOF 15
