REMARK  12 active torsions:
REMARK  status: ('A' for Active; 'I' for Inactive)
REMARK    1  A    between atoms: C1_1  and  C2_5 
REMARK    2  A    between atoms: O3_8  and  C1_1 
REMARK    3  A    between atoms: S1_4  and  N1_2 
REMARK    4  A    between atoms: S1_4  and  O3_8 
REMARK    5  A    between atoms: C2_5  and  C3_7 
REMARK    6  A    between atoms: C3_7  and  C4_9 
REMARK    7  A    between atoms: C4_9  and  C5_10 
REMARK    8  A    between atoms: C5_10  and  C6_11 
REMARK    9  A    between atoms: C6_11  and  C7_12 
REMARK   10  A    between atoms: C7_12  and  C8_13 
REMARK   11  A    between atoms: C8_13  and  C9_14 
REMARK   12  A    between atoms: C9_14  and  C10_15 
ROOT
ATOM      1  C4  O48 d   1      -3.839   4.964  13.783  0.00  0.00    -0.065 C 
ATOM      2  H9  O48 d   1      -3.913   4.979  12.686  0.00  0.00     0.033 H 
ATOM      3  H10 O48 d   1      -3.014   4.302  14.085  0.00  0.00     0.033 H 
ENDROOT
BRANCH   1   4
ATOM      4  C3  O48 d   1      -5.130   4.416  14.347  0.00  0.00    -0.063 C 
ATOM      5  H7  O48 d   1      -5.054   4.428  15.444  0.00  0.00     0.033 H 
ATOM      6  H8  O48 d   1      -5.948   5.079  14.029  0.00  0.00     0.033 H 
BRANCH   4   7
ATOM      7  C2  O48 d   1      -5.478   2.997  13.915  0.00  0.00    -0.044 C 
ATOM      8  H5  O48 d   1      -6.540   2.823  14.142  0.00  0.00     0.036 H 
ATOM      9  H6  O48 d   1      -5.318   2.922  12.829  0.00  0.00     0.036 H 
BRANCH   7  10
ATOM     10  C1  O48 d   1      -4.668   1.902  14.586  0.00  0.00     0.039 C 
ATOM     11  H1  O48 d   1      -3.600   2.038  14.361  0.00  0.00     0.076 H 
ATOM     12  H2  O48 d   1      -4.997   0.918  14.222  0.00  0.00     0.076 H 
BRANCH  10  13
ATOM     13  O3  O48 d   1      -4.887   1.995  16.029  0.00  0.00    -0.260 OA
BRANCH  13  14
ATOM     14  S1  O48 d   1      -5.802   0.937  16.763  0.00  0.00     0.355 S 
ATOM     15  O1  O48 d   1      -7.144   1.223  16.402  0.00  0.00    -0.176 OA
ATOM     16  O2  O48 d   1      -5.429   1.041  18.129  0.00  0.00    -0.176 OA
BRANCH  14  17
ATOM     17  N1  O48 d   1      -5.398  -0.497  16.245  0.00  0.00    -0.306 N 
ATOM     18  H3  O48 d   1      -5.869  -1.306  16.596  0.00  0.00     0.171 HD
ATOM     19  H4  O48 d   1      -4.671  -0.597  15.566  0.00  0.00     0.171 HD
ENDBRANCH  14  17
ENDBRANCH  13  14
ENDBRANCH  10  13
ENDBRANCH   7  10
ENDBRANCH   4   7
ENDBRANCH   1   4
BRANCH   1  20
ATOM     20  C5  O48 d   1      -3.537   6.360  14.265  0.00  0.00    -0.065 C 
ATOM     21  H11 O48 d   1      -3.528   6.350  15.365  0.00  0.00     0.033 H 
ATOM     22  H12 O48 d   1      -4.336   7.027  13.911  0.00  0.00     0.033 H 
BRANCH  20  23
ATOM     23  C6  O48 d   1      -2.224   6.906  13.789  0.00  0.00    -0.065 C 
ATOM     24  H13 O48 d   1      -2.250   6.967  12.691  0.00  0.00     0.033 H 
ATOM     25  H14 O48 d   1      -1.427   6.215  14.099  0.00  0.00     0.033 H 
BRANCH  23  26
ATOM     26  C7  O48 d   1      -1.907   8.276  14.335  0.00  0.00    -0.065 C 
ATOM     27  H15 O48 d   1      -2.046   8.258  15.426  0.00  0.00     0.033 H 
ATOM     28  H16 O48 d   1      -2.604   9.000  13.888  0.00  0.00     0.033 H 
BRANCH  26  29
ATOM     29  C8  O48 d   1      -0.501   8.721  14.040  0.00  0.00    -0.065 C 
ATOM     30  H17 O48 d   1      -0.264   8.444  13.002  0.00  0.00     0.033 H 
ATOM     31  H18 O48 d   1       0.178   8.192  14.725  0.00  0.00     0.033 H 
BRANCH  29  32
ATOM     32  C9  O48 d   1      -0.268  10.204  14.197  0.00  0.00    -0.069 C 
ATOM     33  H19 O48 d   1      -1.206  10.726  13.958  0.00  0.00     0.032 H 
ATOM     34  H20 O48 d   1       0.512  10.506  13.482  0.00  0.00     0.032 H 
BRANCH  32  35
ATOM     35  C10 O48 d   1       0.165  10.627  15.567  0.00  0.00    -0.077 C 
ATOM     36  H21 O48 d   1       0.309  11.717  15.585  0.00  0.00     0.027 H 
ATOM     37  H22 O48 d   1       1.111  10.127  15.823  0.00  0.00     0.027 H 
ATOM     38  H23 O48 d   1      -0.607  10.347  16.299  0.00  0.00     0.027 H 
ENDBRANCH  32  35
ENDBRANCH  29  32
ENDBRANCH  26  29
ENDBRANCH  23  26
ENDBRANCH  20  23
ENDBRANCH   1  20
TORSDOF 12
