REMARK  12 active torsions:
REMARK  status: ('A' for Active; 'I' for Inactive)
REMARK    1  A    between atoms: P_1  and  O2P_22 
REMARK    2  A    between atoms: O5'_43  and  P_1 
REMARK    3  A    between atoms: C6_7  and  N6_8 
REMARK    4  A    between atoms: C1'_12  and  N9_11 
REMARK    5  A    between atoms: C2'_14  and  O2'_15 
REMARK    6  A    between atoms: C24_16  and  C26_18 
REMARK    7  A    between atoms: O2P_22  and  C24_16 
REMARK    8  A    between atoms: C3'_23  and  O3'_24 
REMARK    9  A    between atoms: C30_25  and  C32_27 
REMARK   10  A    between atoms: C35_30  and  C37_32 
REMARK   11  A    between atoms: C5'_42  and  C4'_36 
REMARK   12  A    between atoms: C5'_42  and  O5'_43 
ROOT
ATOM      1  P   M24 d   1     -29.949  11.676  -8.256  0.00  0.00     0.416 P 
ATOM      2  O1P M24 d   1     -28.500  12.111  -8.091  0.00  0.00    -0.624 OA
ATOM      3  O3P M24 d   1     -31.003  12.106  -7.290  0.00  0.00    -0.624 OA
ENDROOT
BRANCH   1   4
ATOM      4  O2P M24 d   1     -30.029  10.078  -8.006  0.00  0.00    -0.209 OA
BRANCH   4   5
ATOM      5  C24 M24 d   1     -29.311   9.071  -8.726  0.00  0.00     0.302 C 
ATOM      6  O25 M24 d   1     -28.716   9.380  -9.744  0.00  0.00    -0.259 OA
BRANCH   5   7
ATOM      7  C26 M24 d   1     -29.349   7.675  -8.135  0.00  0.00     0.041 A 
ATOM      8  C27 M24 d   1     -29.830   7.537  -6.832  0.00  0.00    -0.067 A 
ATOM      9  C28 M24 d   1     -29.908   6.297  -6.221  0.00  0.00    -0.081 A 
ATOM     10  H8  M24 d   1     -30.149   8.418  -6.287  0.00  0.00     0.085 H 
ATOM     11  C29 M24 d   1     -29.478   5.174  -6.895  0.00  0.00    -0.069 A 
ATOM     12  H9  M24 d   1     -30.306   6.210  -5.216  0.00  0.00     0.083 H 
ATOM     13  C30 M24 d   1     -29.016   5.303  -8.184  0.00  0.00     0.015 A 
ATOM     14  H10 M24 d   1     -29.504   4.202  -6.415  0.00  0.00     0.085 H 
ATOM     15  C31 M24 d   1     -28.931   6.550  -8.814  0.00  0.00    -0.053 A 
ATOM     16  H13 M24 d   1     -28.542   6.630  -9.822  0.00  0.00     0.086 H 
BRANCH  13  17
ATOM     17  C32 M24 d   1     -28.577   4.072  -8.874  0.00  0.00     0.189 A 
ATOM     18  N33 M24 d   1     -28.166   4.082 -10.137  0.00  0.00    -0.105 NA
ATOM     19  O34 M24 d   1     -27.838   2.819 -10.422  0.00  0.00    -0.190 OA
ATOM     20  C35 M24 d   1     -28.030   2.015  -9.378  0.00  0.00     0.209 A 
ATOM     21  N36 M24 d   1     -28.491   2.799  -8.374  0.00  0.00    -0.199 NA
BRANCH  20  22
ATOM     22  C37 M24 d   1     -27.807   0.573  -9.406  0.00  0.00     0.058 A 
ATOM     23  C38 M24 d   1     -27.286  -0.049 -10.517  0.00  0.00    -0.066 A 
ATOM     24  C39 M24 d   1     -27.123  -1.429 -10.487  0.00  0.00    -0.082 A 
ATOM     25  H14 M24 d   1     -27.009   0.523 -11.395  0.00  0.00     0.085 H 
ATOM     26  C40 M24 d   1     -27.514  -2.145  -9.360  0.00  0.00    -0.080 A 
ATOM     27  H15 M24 d   1     -26.693  -1.945 -11.338  0.00  0.00     0.083 H 
ATOM     28  C41 M24 d   1     -28.077  -1.494  -8.269  0.00  0.00    -0.045 A 
ATOM     29  H17 M24 d   1     -27.378  -3.220  -9.333  0.00  0.00     0.083 H 
ATOM     30  C42 M24 d   1     -28.219  -0.124  -8.300  0.00  0.00     0.131 A 
ATOM     31  H18 M24 d   1     -28.401  -2.058  -7.402  0.00  0.00     0.088 H 
ATOM     32  F43 M24 d   1     -28.741   0.588  -7.292  0.00  0.00    -0.205 F 
ENDBRANCH  20  22
ENDBRANCH  13  17
ENDBRANCH   5   7
ENDBRANCH   4   5
ENDBRANCH   1   4
BRANCH   1  33
ATOM     33  O5' M24 d   1     -30.370  11.818  -9.803  0.00  0.00    -0.287 OA
BRANCH  33  34
ATOM     34  C5' M24 d   1     -31.605  11.275 -10.286  0.00  0.00     0.058 C 
ATOM     35  H19 M24 d   1     -31.600  10.180 -10.187  0.00  0.00     0.079 H 
ATOM     36  H20 M24 d   1     -32.449  11.691  -9.715  0.00  0.00     0.079 H 
BRANCH  34  37
ATOM     37  C4' M24 d   1     -31.724  11.665 -11.751  0.00  0.00     0.089 C 
ATOM     38  C3' M24 d   1     -32.983  11.100 -12.398  0.00  0.00     0.091 C 
ATOM     39  C2' M24 d   1     -32.570  10.911 -13.836  0.00  0.00     0.105 C 
ATOM     40  H11 M24 d   1     -33.255  10.139 -11.937  0.00  0.00     0.091 H 
ATOM     41  C1' M24 d   1     -31.076  10.627 -13.764  0.00  0.00     0.139 C 
ATOM     42  H6  M24 d   1     -33.133  10.107 -14.333  0.00  0.00     0.093 H 
ATOM     43  O4' M24 d   1     -30.618  11.119 -12.505  0.00  0.00    -0.353 OA
ATOM     44  H5  M24 d   1     -30.561  11.146 -14.586  0.00  0.00     0.122 H 
ATOM     45  H16 M24 d   1     -31.729  12.762 -11.827  0.00  0.00     0.090 H 
BRANCH  38  46
ATOM     46  O3' M24 d   1     -34.104  11.996 -12.311  0.00  0.00    -0.390 OA
ATOM     47  H12 M24 d   1     -34.835  11.635 -12.798  0.00  0.00     0.210 HD
ENDBRANCH  38  46
BRANCH  39  48
ATOM     48  O2' M24 d   1     -32.717  12.155 -14.504  0.00  0.00    -0.388 OA
ATOM     49  H7  M24 d   1     -33.640  12.370 -14.570  0.00  0.00     0.210 HD
ENDBRANCH  39  48
BRANCH  41  50
ATOM     50  N9  M24 d   1     -30.791   9.184 -13.845  0.00  0.00    -0.294 N 
ATOM     51  C4  M24 d   1     -30.760   8.478 -14.970  0.00  0.00     0.167 A 
ATOM     52  N3  M24 d   1     -30.968   8.808 -16.272  0.00  0.00    -0.222 NA
ATOM     53  C5  M24 d   1     -30.432   7.189 -14.630  0.00  0.00     0.149 A 
ATOM     54  C2  M24 d   1     -30.885   7.881 -17.236  0.00  0.00     0.091 A 
ATOM     55  N1  M24 d   1     -30.571   6.598 -16.979  0.00  0.00    -0.222 NA
ATOM     56  H1  M24 d   1     -31.078   8.176 -18.261  0.00  0.00     0.146 H 
ATOM     57  C6  M24 d   1     -30.323   6.197 -15.714  0.00  0.00     0.155 A 
ATOM     58  N7  M24 d   1     -30.280   7.135 -13.278  0.00  0.00    -0.236 NA
ATOM     59  C8  M24 d   1     -30.486   8.388 -12.820  0.00  0.00     0.071 A 
ATOM     60  H4  M24 d   1     -30.414   8.699 -11.779  0.00  0.00     0.144 H 
BRANCH  57  61
ATOM     61  N6  M24 d   1     -30.015   4.896 -15.433  0.00  0.00    -0.382 N 
ATOM     62  H2  M24 d   1     -29.829   4.609 -14.461  0.00  0.00     0.157 HD
ATOM     63  H3  M24 d   1     -29.969   4.202 -16.193  0.00  0.00     0.157 HD
ENDBRANCH  57  61
ENDBRANCH  41  50
ENDBRANCH  34  37
ENDBRANCH  33  34
ENDBRANCH   1  33
TORSDOF 12
