REMARK  6 active torsions:
REMARK  status: ('A' for Active; 'I' for Inactive)
REMARK    1  A    between atoms: OAK_10  and  CAA_1 
REMARK    2  A    between atoms: OAL_11  and  CAB_2 
REMARK    3  A    between atoms: SAS_18  and  NAD_3 
REMARK    4  A    between atoms: CAN_13  and  OAK_10 
REMARK    5  A    between atoms: CAO_14  and  OAL_11 
REMARK    6  A    between atoms: NAR_17  and  SAS_18 
ROOT
ATOM      1  CAG DT7 d   1      -4.703   5.521  13.272  0.00  0.00    -0.041 A 
ATOM      2  CAH DT7 d   1      -2.569   3.894  13.989  0.00  0.00    -0.040 A 
ATOM      3  CAI DT7 d   1      -6.329   4.008  14.281  0.00  0.00    -0.025 C 
ATOM      4  CAJ DT7 d   1      -6.440   3.221  15.569  0.00  0.00     0.011 C 
ATOM      5  CAM DT7 d   1      -4.913   4.329  13.969  0.00  0.00    -0.046 A 
ATOM      6  CAN DT7 d   1      -3.410   5.897  12.932  0.00  0.00     0.102 A 
ATOM      7  CAO DT7 d   1      -2.346   5.082  13.296  0.00  0.00     0.102 A 
ATOM      8  CAP DT7 d   1      -3.847   3.511  14.332  0.00  0.00    -0.030 A 
ATOM      9  CAQ DT7 d   1      -4.105   2.175  15.078  0.00  0.00     0.031 C 
ATOM     10  NAR DT7 d   1      -5.308   2.314  15.932  0.00  0.00    -0.290 N 
ATOM     11  H9  DT7 d   1      -5.543   6.148  12.998  0.00  0.00     0.088 H 
ATOM     12  H10 DT7 d   1      -1.729   3.265  14.261  0.00  0.00     0.088 H 
ATOM     13  H11 DT7 d   1      -6.895   4.945  14.383  0.00  0.00     0.042 H 
ATOM     14  H12 DT7 d   1      -6.752   3.412  13.459  0.00  0.00     0.042 H 
ATOM     15  H13 DT7 d   1      -7.346   2.602  15.498  0.00  0.00     0.066 H 
ATOM     16  H14 DT7 d   1      -6.554   3.946  16.388  0.00  0.00     0.066 H 
ATOM     17  H15 DT7 d   1      -3.235   1.931  15.706  0.00  0.00     0.072 H 
ATOM     18  H16 DT7 d   1      -4.266   1.370  14.345  0.00  0.00     0.072 H 
ENDROOT
BRANCH  10  19
ATOM     19  SAS DT7 d   1      -5.852   0.962  16.765  0.00  0.00     0.315 S 
ATOM     20  OAE DT7 d   1      -5.236   1.214  18.071  0.00  0.00    -0.183 OA
ATOM     21  OAF DT7 d   1      -7.345   0.948  16.703  0.00  0.00    -0.183 OA
BRANCH  19  22
ATOM     22  NAD DT7 d   1      -5.291  -0.401  16.181  0.00  0.00    -0.311 N 
ATOM     23  H7  DT7 d   1      -4.305  -0.562  16.146  0.00  0.00     0.170 HD
ATOM     24  H8  DT7 d   1      -5.923  -1.100  15.847  0.00  0.00     0.170 HD
ENDBRANCH  19  22
ENDBRANCH  10  19
BRANCH   7  25
ATOM     25  OAL DT7 d   1      -1.076   5.460  12.963  0.00  0.00    -0.353 OA
BRANCH  25  26
ATOM     26  CAB DT7 d   1      -0.262   4.357  12.533  0.00  0.00     0.010 C 
ATOM     27  H4  DT7 d   1       0.745   4.721  12.280  0.00  0.00     0.066 H 
ATOM     28  H5  DT7 d   1      -0.717   3.889  11.647  0.00  0.00     0.066 H 
ATOM     29  H6  DT7 d   1      -0.191   3.616  13.343  0.00  0.00     0.066 H 
ENDBRANCH  25  26
ENDBRANCH   7  25
BRANCH   6  30
ATOM     30  OAK DT7 d   1      -3.171   7.070  12.254  0.00  0.00    -0.353 OA
BRANCH  30  31
ATOM     31  CAA DT7 d   1      -4.061   7.234  11.124  0.00  0.00     0.010 C 
ATOM     32  H1  DT7 d   1      -3.835   8.182  10.614  0.00  0.00     0.066 H 
ATOM     33  H2  DT7 d   1      -5.103   7.247  11.477  0.00  0.00     0.066 H 
ATOM     34  H3  DT7 d   1      -3.922   6.398  10.423  0.00  0.00     0.066 H 
ENDBRANCH  30  31
ENDBRANCH   6  30
TORSDOF 6
