REMARK  12 active torsions:
REMARK  status: ('A' for Active; 'I' for Inactive)
REMARK    1  A    between atoms: C2_3  and  C1_1 
REMARK    2  A    between atoms: O2_16  and  C2_3 
REMARK    3  A    between atoms: C6_5  and  C7_6 
REMARK    4  A    between atoms: C7_6  and  C8_7 
REMARK    5  A    between atoms: C7_6  and  O7_9 
REMARK    6  A    between atoms: C8_7  and  O8_8 
REMARK    7  A    between atoms: C5_10  and  O5_11 
REMARK    8  A    between atoms: C4_12  and  O4_13 
REMARK    9  A    between atoms: C3_14  and  O3_15 
REMARK   10  A    between atoms: C9_19  and  O2_16 
REMARK   11  A    between atoms: C10_18  and  C11_17 
REMARK   12  A    between atoms: C10_18  and  C9_19 
ROOT
ATOM      1  C2  KO2 d   1      -9.274  -0.500  -1.258  0.00  0.00     0.285 C 
ATOM      2  O6  KO2 d   1     -10.445  -0.643  -2.096  0.00  0.00    -0.334 OA
ATOM      3  C6  KO2 d   1     -10.277  -1.550  -3.207  0.00  0.00     0.096 C 
ATOM      4  C5  KO2 d   1     -10.022  -2.964  -2.657  0.00  0.00     0.090 C 
ATOM      5  C4  KO2 d   1      -8.749  -2.882  -1.835  0.00  0.00     0.093 C 
ATOM      6  C3  KO2 d   1      -8.929  -1.874  -0.685  0.00  0.00     0.127 C 
ATOM      7  H1  KO2 d   1      -9.433  -1.223  -3.832  0.00  0.00     0.091 H 
ATOM      8  H7  KO2 d   1      -9.875  -3.668  -3.489  0.00  0.00     0.091 H 
ATOM      9  H9  KO2 d   1      -7.910  -2.577  -2.477  0.00  0.00     0.091 H 
ATOM     10  H11 KO2 d   1      -7.967  -1.790  -0.158  0.00  0.00     0.096 H 
ENDROOT
BRANCH   1  11
ATOM     11  C1  KO2 d   1      -9.638   0.407  -0.082  0.00  0.00     0.241 C 
ATOM     12  O1B KO2 d   1      -8.721   0.767   0.695  0.00  0.00    -0.644 OA
ATOM     13  O1A KO2 d   1     -10.858   0.661   0.052  0.00  0.00    -0.644 OA
ENDBRANCH   1  11
BRANCH   1  14
ATOM     14  O2  KO2 d   1      -8.277   0.016  -2.124  0.00  0.00    -0.344 OA
BRANCH  14  15
ATOM     15  C9  KO2 d   1      -6.954   0.249  -1.681  0.00  0.00     0.023 C 
ATOM     16  H18 KO2 d   1      -6.442  -0.681  -1.392  0.00  0.00     0.074 H 
ATOM     17  H19 KO2 d   1      -6.915   0.964  -0.846  0.00  0.00     0.074 H 
BRANCH  15  18
ATOM     18  C10 KO2 d   1      -6.390   0.842  -2.979  0.00  0.00    -0.048 C 
ATOM     19  H16 KO2 d   1      -6.491   0.099  -3.784  0.00  0.00     0.035 H 
ATOM     20  H17 KO2 d   1      -6.963   1.744  -3.238  0.00  0.00     0.035 H 
BRANCH  18  21
ATOM     21  C11 KO2 d   1      -4.922   1.215  -2.832  0.00  0.00    -0.075 C 
ATOM     22  H13 KO2 d   1      -4.554   1.635  -3.780  0.00  0.00     0.027 H 
ATOM     23  H14 KO2 d   1      -4.339   0.317  -2.578  0.00  0.00     0.027 H 
ATOM     24  H15 KO2 d   1      -4.812   1.962  -2.032  0.00  0.00     0.027 H 
ENDBRANCH  18  21
ENDBRANCH  15  18
ENDBRANCH  14  15
ENDBRANCH   1  14
BRANCH   6  25
ATOM     25  O3  KO2 d   1      -9.898  -2.303   0.265  0.00  0.00    -0.387 OA
ATOM     26  H12 KO2 d   1     -10.738  -2.410  -0.167  0.00  0.00     0.210 HD
ENDBRANCH   6  25
BRANCH   3  27
ATOM     27  C7  KO2 d   1     -11.559  -1.608  -4.040  0.00  0.00     0.083 C 
ATOM     28  H2  KO2 d   1     -12.398  -1.911  -3.396  0.00  0.00     0.090 H 
BRANCH  27  29
ATOM     29  C8  KO2 d   1     -11.836  -0.211  -4.614  0.00  0.00     0.043 C 
ATOM     30  H3  KO2 d   1     -10.986   0.099  -5.240  0.00  0.00     0.078 H 
ATOM     31  H4  KO2 d   1     -11.962   0.503  -3.787  0.00  0.00     0.078 H 
BRANCH  29  32
ATOM     32  O8  KO2 d   1     -13.023  -0.228  -5.406  0.00  0.00    -0.398 OA
ATOM     33  H5  KO2 d   1     -12.916  -0.843  -6.122  0.00  0.00     0.209 HD
ENDBRANCH  29  32
ENDBRANCH  27  29
BRANCH  27  34
ATOM     34  O7  KO2 d   1     -11.419  -2.555  -5.100  0.00  0.00    -0.391 OA
ATOM     35  H6  KO2 d   1     -12.221  -2.580  -5.609  0.00  0.00     0.210 HD
ENDBRANCH  27  34
ENDBRANCH   3  27
BRANCH   5  36
ATOM     36  O4  KO2 d   1      -8.488  -4.160  -1.250  0.00  0.00    -0.390 OA
ATOM     37  H10 KO2 d   1      -8.384  -4.807  -1.938  0.00  0.00     0.210 HD
ENDBRANCH   5  36
BRANCH   4  38
ATOM     38  O5  KO2 d   1     -11.146  -3.399  -1.879  0.00  0.00    -0.390 OA
ATOM     39  H8  KO2 d   1     -11.278  -2.800  -1.153  0.00  0.00     0.210 HD
ENDBRANCH   4  38
TORSDOF 12
