REMARK  7 active torsions:
REMARK  status: ('A' for Active; 'I' for Inactive)
REMARK    1  A    between atoms: N1_2  and  C8_16 
REMARK       I    between atoms: C17_25  and  N1_2 
REMARK    2  A    between atoms: O3_8  and  P1_4 
REMARK    3  A    between atoms: C18_26  and  O3_8 
REMARK    4  A    between atoms: C7_15  and  C6_14 
REMARK    5  A    between atoms: C8_16  and  C7_15 
REMARK    6  A    between atoms: C8_16  and  C18_26 
REMARK    7  A    between atoms: C16_24  and  C17_25 
ROOT
ATOM      1  C8  J9Z d   1      14.483   3.332   1.668  0.00  0.00     0.037 C 
ATOM      2  H9  J9Z d   1      14.356   3.335   2.761  0.00  0.00     0.076 H 
ENDROOT
BRANCH   1   3
ATOM      3  N1  J9Z d   1      13.132   3.469   1.055  0.00  0.00    -0.349 N 
ATOM      4  C17 J9Z d   1      12.156   4.042   1.763  0.00  0.00     0.259 C 
ATOM      5  O1  J9Z d   1      12.377   4.322   2.950  0.00  0.00    -0.267 OA
ATOM      6  H2  J9Z d   1      12.959   3.137   0.128  0.00  0.00     0.163 HD
BRANCH   4   7
ATOM      7  C16 J9Z d   1      10.882   4.223   1.235  0.00  0.00     0.074 A 
ATOM      8  S3  J9Z d   1       9.640   5.220   1.758  0.00  0.00    -0.084 SA
ATOM      9  C13 J9Z d   1       8.664   4.871   0.374  0.00  0.00     0.016 A 
ATOM     10  C12 J9Z d   1       7.383   5.329   0.007  0.00  0.00    -0.066 A 
ATOM     11  C14 J9Z d   1       9.331   3.942  -0.484  0.00  0.00    -0.018 A 
ATOM     12  C11 J9Z d   1       6.753   4.910  -1.178  0.00  0.00    -0.082 A 
ATOM     13  H13 J9Z d   1       6.867   6.026   0.658  0.00  0.00     0.085 H 
ATOM     14  C10 J9Z d   1       7.409   4.002  -2.000  0.00  0.00    -0.082 A 
ATOM     15  H12 J9Z d   1       5.773   5.288  -1.446  0.00  0.00     0.083 H 
ATOM     16  C9  J9Z d   1       8.696   3.529  -1.661  0.00  0.00    -0.072 A 
ATOM     17  H11 J9Z d   1       6.930   3.654  -2.908  0.00  0.00     0.083 H 
ATOM     18  H10 J9Z d   1       9.200   2.835  -2.323  0.00  0.00     0.084 H 
ATOM     19  C15 J9Z d   1      10.604   3.567   0.011  0.00  0.00    -0.050 A 
ATOM     20  H14 J9Z d   1      11.278   2.869  -0.483  0.00  0.00     0.087 H 
ENDBRANCH   4   7
ENDBRANCH   1   3
BRANCH   1  21
ATOM     21  C7  J9Z d   1      15.371   4.552   1.288  0.00  0.00    -0.020 C 
ATOM     22  H7  J9Z d   1      16.379   4.365   1.686  0.00  0.00     0.043 H 
ATOM     23  H8  J9Z d   1      15.414   4.602   0.190  0.00  0.00     0.043 H 
BRANCH  21  24
ATOM     24  C6  J9Z d   1      14.935   5.883   1.780  0.00  0.00    -0.056 A 
ATOM     25  C1  J9Z d   1      13.883   6.574   1.167  0.00  0.00    -0.077 A 
ATOM     26  C2  J9Z d   1      13.523   7.854   1.584  0.00  0.00    -0.082 A 
ATOM     27  H1  J9Z d   1      13.339   6.106   0.354  0.00  0.00     0.084 H 
ATOM     28  C3  J9Z d   1      14.217   8.466   2.626  0.00  0.00    -0.083 A 
ATOM     29  H3  J9Z d   1      12.704   8.373   1.099  0.00  0.00     0.083 H 
ATOM     30  C4  J9Z d   1      15.262   7.773   3.244  0.00  0.00    -0.082 A 
ATOM     31  H4  J9Z d   1      13.950   9.465   2.953  0.00  0.00     0.083 H 
ATOM     32  C5  J9Z d   1      15.621   6.492   2.828  0.00  0.00    -0.077 A 
ATOM     33  H5  J9Z d   1      15.802   8.239   4.060  0.00  0.00     0.083 H 
ATOM     34  H6  J9Z d   1      16.434   5.970   3.320  0.00  0.00     0.084 H 
ENDBRANCH  21  24
ENDBRANCH   1  21
BRANCH   1  35
ATOM     35  C18 J9Z d   1      15.172   1.987   1.282  0.00  0.00     0.051 C 
ATOM     36  H15 J9Z d   1      14.544   1.130   1.568  0.00  0.00     0.078 H 
ATOM     37  H16 J9Z d   1      15.375   1.948   0.202  0.00  0.00     0.078 H 
BRANCH  35  38
ATOM     38  O3  J9Z d   1      16.414   1.994   2.041  0.00  0.00    -0.281 OA
BRANCH  38  39
ATOM     39  P1  J9Z d   1      16.803   0.769   2.992  0.00  0.00     0.422 P 
ATOM     40  O2  J9Z d   1      15.776   0.762   4.140  0.00  0.00    -0.617 OA
ATOM     41  O4  J9Z d   1      18.090   1.214   3.615  0.00  0.00    -0.617 OA
ATOM     42  O5  J9Z d   1      16.712  -0.500   2.280  0.00  0.00    -0.617 OA
ENDBRANCH  38  39
ENDBRANCH  35  38
ENDBRANCH   1  35
TORSDOF 7
