REMARK  8 active torsions:
REMARK  status: ('A' for Active; 'I' for Inactive)
REMARK    1  A    between atoms: N1_1  and  C2_2 
REMARK       I    between atoms: N1_1  and  C5_5 
REMARK    2  A    between atoms: C2_2  and  C3_3 
REMARK    3  A    between atoms: C2_2  and  C20_20 
REMARK    4  A    between atoms: C3_3  and  O4_4 
REMARK    5  A    between atoms: O4_4  and  P7_7 
REMARK    6  A    between atoms: C5_5  and  C11_11 
REMARK    7  A    between atoms: C20_20  and  C22_22 
REMARK    8  A    between atoms: C24_24  and  C27_27 
ROOT
ATOM      1  C2  J8Z d   1      14.655   2.829   1.991  0.00  0.00     0.037 C 
ATOM      2  H2  J8Z d   1      14.497   2.951   3.073  0.00  0.00     0.076 H 
ENDROOT
BRANCH   1   3
ATOM      3  N1  J8Z d   1      13.403   2.904   1.250  0.00  0.00    -0.349 N 
ATOM      4  C5  J8Z d   1      12.271   3.314   1.862  0.00  0.00     0.259 C 
ATOM      5  O6  J8Z d   1      12.251   3.651   3.029  0.00  0.00    -0.267 OA
ATOM      6  H1  J8Z d   1      13.382   2.651   0.283  0.00  0.00     0.163 HD
BRANCH   4   7
ATOM      7  C11 J8Z d   1      11.111   3.541   0.999  0.00  0.00     0.074 A 
ATOM      8  C12 J8Z d   1      10.753   2.972  -0.171  0.00  0.00    -0.050 A 
ATOM      9  C13 J8Z d   1       9.558   3.377  -0.790  0.00  0.00    -0.018 A 
ATOM     10  H5  J8Z d   1      11.381   2.210  -0.629  0.00  0.00     0.087 H 
ATOM     11  C14 J8Z d   1       8.824   4.385  -0.111  0.00  0.00     0.016 A 
ATOM     12  C16 J8Z d   1       9.009   2.903  -1.996  0.00  0.00    -0.072 A 
ATOM     13  S15 J8Z d   1       9.802   4.712   1.324  0.00  0.00    -0.084 SA
ATOM     14  C19 J8Z d   1       7.660   4.925  -0.613  0.00  0.00    -0.066 A 
ATOM     15  C18 J8Z d   1       7.162   4.440  -1.799  0.00  0.00    -0.082 A 
ATOM     16  H9  J8Z d   1       7.146   5.718  -0.082  0.00  0.00     0.085 H 
ATOM     17  C17 J8Z d   1       7.861   3.446  -2.487  0.00  0.00    -0.082 A 
ATOM     18  H8  J8Z d   1       6.231   4.827  -2.198  0.00  0.00     0.083 H 
ATOM     19  H7  J8Z d   1       7.479   3.097  -3.439  0.00  0.00     0.083 H 
ATOM     20  H6  J8Z d   1       9.502   2.103  -2.536  0.00  0.00     0.084 H 
ENDBRANCH   4   7
ENDBRANCH   1   3
BRANCH   1  21
ATOM     21  C3  J8Z d   1      15.362   1.497   1.670  0.00  0.00     0.051 C 
ATOM     22  H3  J8Z d   1      15.230   1.253   0.606  0.00  0.00     0.078 H 
ATOM     23  H4  J8Z d   1      14.936   0.692   2.286  0.00  0.00     0.078 H 
BRANCH  21  24
ATOM     24  O4  J8Z d   1      16.755   1.647   1.964  0.00  0.00    -0.281 OA
BRANCH  24  25
ATOM     25  P7  J8Z d   1      17.104   0.551   3.120  0.00  0.00     0.422 P 
ATOM     26  O8  J8Z d   1      17.257  -0.763   2.466  0.00  0.00    -0.617 OA
ATOM     27  O9  J8Z d   1      18.494   0.964   3.820  0.00  0.00    -0.617 OA
ATOM     28  O10 J8Z d   1      15.933   0.561   4.206  0.00  0.00    -0.617 OA
ENDBRANCH  24  25
ENDBRANCH  21  24
ENDBRANCH   1  21
BRANCH   1  29
ATOM     29  C20 J8Z d   1      15.544   3.952   1.393  0.00  0.00    -0.020 C 
ATOM     30  H10 J8Z d   1      15.559   3.839   0.299  0.00  0.00     0.043 H 
ATOM     31  H11 J8Z d   1      16.564   3.836   1.788  0.00  0.00     0.043 H 
BRANCH  29  32
ATOM     32  C22 J8Z d   1      15.054   5.363   1.727  0.00  0.00    -0.056 A 
ATOM     33  C21 J8Z d   1      14.010   5.976   1.000  0.00  0.00    -0.077 A 
ATOM     34  C26 J8Z d   1      13.565   7.267   1.329  0.00  0.00    -0.082 A 
ATOM     35  H12 J8Z d   1      13.546   5.444   0.178  0.00  0.00     0.084 H 
ATOM     36  C25 J8Z d   1      14.172   7.974   2.371  0.00  0.00    -0.077 A 
ATOM     37  H15 J8Z d   1      12.749   7.716   0.774  0.00  0.00     0.083 H 
ATOM     38  C24 J8Z d   1      15.201   7.360   3.105  0.00  0.00    -0.061 A 
ATOM     39  H14 J8Z d   1      13.853   8.982   2.610  0.00  0.00     0.084 H 
ATOM     40  C23 J8Z d   1      15.637   6.069   2.783  0.00  0.00    -0.071 A 
ATOM     41  H13 J8Z d   1      16.434   5.613   3.358  0.00  0.00     0.085 H 
BRANCH  38  42
ATOM     42  C27 J8Z d   1      15.891   8.144   4.225  0.00  0.00    -0.051 C 
ATOM     43  H16 J8Z d   1      16.665   7.515   4.689  0.00  0.00     0.033 H 
ATOM     44  H17 J8Z d   1      15.148   8.431   4.984  0.00  0.00     0.033 H 
ATOM     45  H18 J8Z d   1      16.356   9.049   3.807  0.00  0.00     0.033 H 
ENDBRANCH  38  42
ENDBRANCH  29  32
ENDBRANCH   1  29
TORSDOF 8
