REMARK  1 active torsions:
REMARK  status: ('A' for Active; 'I' for Inactive)
REMARK    1  A    between atoms: CAI_9  and  CAJ_10 
ROOT
ATOM      1  CAC BZ2 d   1      13.844   9.169   8.710  0.00  0.00    -0.082 A 
ATOM      2  CAD BZ2 d   1      13.977   7.968   8.018  0.00  0.00    -0.080 A 
ATOM      3  CAE BZ2 d   1      14.062  10.345   8.022  0.00  0.00    -0.070 A 
ATOM      4  CAF BZ2 d   1      14.320   7.939   6.670  0.00  0.00    -0.049 A 
ATOM      5  CAG BZ2 d   1      14.679  11.302   5.810  0.00  0.00    -0.031 A 
ATOM      6  OAH BZ2 d   1      14.891   9.421   4.655  0.00  0.00    -0.303 OA
ATOM      7  CAJ BZ2 d   1      14.956  10.794   4.614  0.00  0.00     0.153 A 
ATOM      8  CAK BZ2 d   1      14.408  10.321   6.668  0.00  0.00     0.001 A 
ATOM      9  CAL BZ2 d   1      14.540   9.122   5.971  0.00  0.00     0.086 A 
ATOM     10  H1  BZ2 d   1      13.576   9.180   9.760  0.00  0.00     0.083 H 
ATOM     11  H2  BZ2 d   1      13.809   7.034   8.542  0.00  0.00     0.083 H 
ATOM     12  H3  BZ2 d   1      13.964  11.295   8.536  0.00  0.00     0.084 H 
ATOM     13  H4  BZ2 d   1      14.417   6.987   6.160  0.00  0.00     0.087 H 
ATOM     14  H5  BZ2 d   1      14.674  12.364   6.053  0.00  0.00     0.089 H 
ENDROOT
BRANCH   7  15
ATOM     15  CAI BZ2 d   1      15.355  11.663   3.424  0.00  0.00     0.234 C 
ATOM     16  OAA BZ2 d   1      15.339  12.919   3.530  0.00  0.00    -0.642 OA
ATOM     17  OAB BZ2 d   1      15.768  11.045   2.429  0.00  0.00    -0.642 OA
ENDBRANCH   7  15
TORSDOF 1
