REMARK  6 active torsions:
REMARK  status: ('A' for Active; 'I' for Inactive)
REMARK    1  A    between atoms: C6_6  and  N6_7 
REMARK    2  A    between atoms: CAR_19  and  N9_10 
REMARK    3  A    between atoms: CAO_16  and  OAB_11 
REMARK    4  A    between atoms: CAP_17  and  OAC_12 
REMARK    5  A    between atoms: CAG_14  and  SAD_13 
REMARK    6  A    between atoms: CAQ_18  and  CAG_14 
ROOT
ATOM      1  OAK A4D d   1      13.573  10.740   0.697  0.00  0.00    -0.355 OA
ATOM      2  CAO A4D d   1      13.791   8.730   2.024  0.00  0.00     0.090 C 
ATOM      3  CAP A4D d   1      14.520   8.584   0.689  0.00  0.00     0.105 C 
ATOM      4  CAQ A4D d   1      13.571  10.256   2.097  0.00  0.00     0.076 C 
ATOM      5  CAR A4D d   1      13.706   9.572  -0.164  0.00  0.00     0.139 C 
ATOM      6  H10 A4D d   1      14.376   8.342   2.870  0.00  0.00     0.091 H 
ATOM      7  H11 A4D d   1      15.577   8.879   0.770  0.00  0.00     0.093 H 
ATOM      8  H12 A4D d   1      12.600  10.466   2.570  0.00  0.00     0.088 H 
ATOM      9  H13 A4D d   1      12.721   9.162  -0.430  0.00  0.00     0.122 H 
ENDROOT
BRANCH   5  10
ATOM     10  N9  A4D d   1      14.464   9.885  -1.375  0.00  0.00    -0.294 N 
ATOM     11  C4  A4D d   1      14.030   9.743  -2.634  0.00  0.00     0.167 A 
ATOM     12  N3  A4D d   1      12.864   9.320  -3.185  0.00  0.00    -0.222 NA
ATOM     13  C5  A4D d   1      15.070  10.158  -3.459  0.00  0.00     0.149 A 
ATOM     14  C2  A4D d   1      12.715   9.291  -4.513  0.00  0.00     0.091 A 
ATOM     15  N1  A4D d   1      13.703   9.681  -5.328  0.00  0.00    -0.222 NA
ATOM     16  H1  A4D d   1      11.779   8.946  -4.937  0.00  0.00     0.146 H 
ATOM     17  C6  A4D d   1      14.885  10.111  -4.833  0.00  0.00     0.155 A 
ATOM     18  N7  A4D d   1      16.090  10.525  -2.683  0.00  0.00    -0.236 NA
ATOM     19  C8  A4D d   1      15.710  10.360  -1.412  0.00  0.00     0.071 A 
ATOM     20  H4  A4D d   1      16.324  10.580  -0.540  0.00  0.00     0.144 H 
BRANCH  17  21
ATOM     21  N6  A4D d   1      15.875  10.485  -5.631  0.00  0.00    -0.382 N 
ATOM     22  H2  A4D d   1      16.766  10.809  -5.229  0.00  0.00     0.157 HD
ATOM     23  H3  A4D d   1      15.753  10.452  -6.653  0.00  0.00     0.157 HD
ENDBRANCH  17  21
ENDBRANCH   5  10
BRANCH   3  24
ATOM     24  OAC A4D d   1      14.430   7.247   0.140  0.00  0.00    -0.388 OA
ATOM     25  H6  A4D d   1      13.517   7.025  -0.003  0.00  0.00     0.210 HD
ENDBRANCH   3  24
BRANCH   4  26
ATOM     26  CAG A4D d   1      14.688  10.982   2.896  0.00  0.00     0.001 C 
ATOM     27  H8  A4D d   1      15.657  10.773   2.420  0.00  0.00     0.052 H 
ATOM     28  H9  A4D d   1      14.494  12.064   2.873  0.00  0.00     0.052 H 
BRANCH  26  29
ATOM     29  SAD A4D d   1      14.758  10.433   4.639  0.00  0.00    -0.180 SA
ATOM     30  H7  A4D d   1      15.494  10.929   5.117  0.00  0.00     0.101 HD
ENDBRANCH  26  29
ENDBRANCH   4  26
BRANCH   2  31
ATOM     31  OAB A4D d   1      12.516   8.095   1.941  0.00  0.00    -0.390 OA
ATOM     32  H5  A4D d   1      12.063   8.186   2.771  0.00  0.00     0.210 HD
ENDBRANCH   2  31
TORSDOF 6
