REMARK  10 active torsions:
REMARK  status: ('A' for Active; 'I' for Inactive)
REMARK    1  A    between atoms: C6_6  and  N6_7 
REMARK    2  A    between atoms: CBB_29  and  N9_10 
REMARK    3  A    between atoms: CAY_26  and  OAC_12 
REMARK    4  A    between atoms: CAZ_27  and  OAD_13 
REMARK    5  A    between atoms: SAR_22  and  CAL_19 
REMARK    6  A    between atoms: CAL_19  and  CAT_24 
REMARK    7  A    between atoms: CAM_20  and  SAS_23 
REMARK    8  A    between atoms: CBA_28  and  CAM_20 
REMARK    9  A    between atoms: SAS_23  and  SAR_22 
REMARK   10  A    between atoms: CAV_25  and  NBD_30 
ROOT
ATOM      1  OAQ A6D d   1      13.552  10.867   0.693  0.00  0.00    -0.355 OA
ATOM      2  CAY A6D d   1      13.698   8.813   1.937  0.00  0.00     0.090 C 
ATOM      3  CAZ A6D d   1      14.423   8.694   0.606  0.00  0.00     0.105 C 
ATOM      4  CBA A6D d   1      13.623  10.344   2.075  0.00  0.00     0.077 C 
ATOM      5  CBB A6D d   1      13.616   9.718  -0.205  0.00  0.00     0.139 C 
ATOM      6  H15 A6D d   1      14.243   8.337   2.766  0.00  0.00     0.091 H 
ATOM      7  H16 A6D d   1      15.481   8.983   0.689  0.00  0.00     0.093 H 
ATOM      8  H17 A6D d   1      12.732  10.636   2.650  0.00  0.00     0.088 H 
ATOM      9  H18 A6D d   1      12.610   9.351  -0.455  0.00  0.00     0.122 H 
ENDROOT
BRANCH   4  10
ATOM     10  CAM A6D d   1      14.904  10.897   2.767  0.00  0.00     0.013 C 
ATOM     11  H13 A6D d   1      15.743  10.224   2.535  0.00  0.00     0.054 H 
ATOM     12  H14 A6D d   1      15.114  11.898   2.362  0.00  0.00     0.054 H 
BRANCH  10  13
ATOM     13  SAS A6D d   1      14.752  11.028   4.588  0.00  0.00    -0.095 SA
BRANCH  13  14
ATOM     14  SAR A6D d   1      13.293   9.678   5.076  0.00  0.00    -0.093 SA
BRANCH  14  15
ATOM     15  CAL A6D d   1      14.127   8.269   5.843  0.00  0.00     0.010 C 
ATOM     16  H11 A6D d   1      14.976   7.949   5.221  0.00  0.00     0.057 H 
ATOM     17  H12 A6D d   1      13.422   7.432   5.960  0.00  0.00     0.057 H 
BRANCH  15  18
ATOM     18  CAT A6D d   1      14.618   8.721   7.191  0.00  0.00    -0.046 A 
ATOM     19  CAG A6D d   1      15.798   8.181   7.662  0.00  0.00    -0.076 A 
ATOM     20  CAF A6D d   1      16.232   8.621   8.900  0.00  0.00    -0.080 A 
ATOM     21  H8  A6D d   1      16.357   7.449   7.090  0.00  0.00     0.084 H 
ATOM     22  CAH A6D d   1      15.543   9.572   9.653  0.00  0.00    -0.051 A 
ATOM     23  H7  A6D d   1      17.149   8.208   9.303  0.00  0.00     0.083 H 
ATOM     24  CAV A6D d   1      14.371  10.108   9.164  0.00  0.00     0.103 A 
ATOM     25  H9  A6D d   1      15.927   9.887  10.617  0.00  0.00     0.087 H 
ATOM     26  CAK A6D d   1      13.908   9.681   7.921  0.00  0.00    -0.044 A 
ATOM     27  H10 A6D d   1      12.992  10.095   7.517  0.00  0.00     0.088 H 
BRANCH  24  28
ATOM     28  NBD A6D d   1      13.714  11.011   9.896  0.00  0.00    -0.116 N 
ATOM     29  OAB A6D d   1      12.366  11.307   9.593  0.00  0.00    -0.532 OA
ATOM     30  OAE A6D d   1      14.348  11.669  10.975  0.00  0.00    -0.532 OA
ENDBRANCH  24  28
ENDBRANCH  15  18
ENDBRANCH  14  15
ENDBRANCH  13  14
ENDBRANCH  10  13
ENDBRANCH   4  10
BRANCH   2  31
ATOM     31  OAC A6D d   1      12.378   8.268   1.809  0.00  0.00    -0.390 OA
ATOM     32  H5  A6D d   1      11.924   8.342   2.640  0.00  0.00     0.210 HD
ENDBRANCH   2  31
BRANCH   5  33
ATOM     33  N9  A6D d   1      14.369  10.006  -1.426  0.00  0.00    -0.294 N 
ATOM     34  C4  A6D d   1      13.950   9.810  -2.676  0.00  0.00     0.167 A 
ATOM     35  N3  A6D d   1      12.801   9.345  -3.212  0.00  0.00    -0.222 NA
ATOM     36  C5  A6D d   1      14.989  10.195  -3.511  0.00  0.00     0.149 A 
ATOM     37  C2  A6D d   1      12.652   9.261  -4.534  0.00  0.00     0.091 A 
ATOM     38  N1  A6D d   1      13.631   9.627  -5.363  0.00  0.00    -0.222 NA
ATOM     39  H1  A6D d   1      11.719   8.889  -4.942  0.00  0.00     0.146 H 
ATOM     40  C6  A6D d   1      14.811  10.089  -4.888  0.00  0.00     0.155 A 
ATOM     41  N7  A6D d   1      15.990  10.601  -2.738  0.00  0.00    -0.236 NA
ATOM     42  C8  A6D d   1      15.604  10.484  -1.469  0.00  0.00     0.071 A 
ATOM     43  H4  A6D d   1      16.209  10.741  -0.601  0.00  0.00     0.144 H 
BRANCH  40  44
ATOM     44  N6  A6D d   1      15.793  10.442  -5.717  0.00  0.00    -0.382 N 
ATOM     45  H2  A6D d   1      16.685  10.792  -5.339  0.00  0.00     0.157 HD
ATOM     46  H3  A6D d   1      15.660  10.365  -6.736  0.00  0.00     0.157 HD
ENDBRANCH  40  44
ENDBRANCH   5  33
BRANCH   3  47
ATOM     47  OAD A6D d   1      14.336   7.364   0.059  0.00  0.00    -0.388 OA
ATOM     48  H6  A6D d   1      13.424   7.139  -0.079  0.00  0.00     0.210 HD
ENDBRANCH   3  47
TORSDOF 10
