REMARK  12 active torsions:
REMARK  status: ('A' for Active; 'I' for Inactive)
REMARK    1  A    between atoms: C6_6  and  N6_7 
REMARK    2  A    between atoms: CAX_25  and  N9_10 
REMARK    3  A    between atoms: CAH_15  and  OAB_11 
REMARK    4  A    between atoms: CAT_21  and  OAC_12 
REMARK    5  A    between atoms: CAU_22  and  OAD_13 
REMARK    6  A    between atoms: CAV_23  and  OAE_14 
REMARK    7  A    between atoms: CAT_21  and  CAH_15 
REMARK    8  A    between atoms: CAI_16  and  CAJ_17 
REMARK    9  A    between atoms: SAP_20  and  CAI_16 
REMARK   10  A    between atoms: CAJ_17  and  CAT_21 
REMARK   11  A    between atoms: CAK_18  and  SAP_20 
REMARK   12  A    between atoms: CAW_24  and  CAK_18 
ROOT
ATOM      1  OAO A7D d   1      13.810  10.721   0.729  0.00  0.00    -0.355 OA
ATOM      2  CAU A7D d   1      13.880   8.610   1.919  0.00  0.00     0.090 C 
ATOM      3  CAV A7D d   1      14.589   8.524   0.562  0.00  0.00     0.105 C 
ATOM      4  CAW A7D d   1      13.880  10.134   2.089  0.00  0.00     0.076 C 
ATOM      5  CAX A7D d   1      13.825   9.621  -0.206  0.00  0.00     0.139 C 
ATOM      6  H18 A7D d   1      14.416   8.076   2.718  0.00  0.00     0.091 H 
ATOM      7  H19 A7D d   1      15.652   8.789   0.663  0.00  0.00     0.093 H 
ATOM      8  H20 A7D d   1      13.021  10.461   2.694  0.00  0.00     0.088 H 
ATOM      9  H21 A7D d   1      12.803   9.312  -0.469  0.00  0.00     0.122 H 
ENDROOT
BRANCH   4  10
ATOM     10  CAK A7D d   1      15.210  10.542   2.779  0.00  0.00     0.003 C 
ATOM     11  H15 A7D d   1      15.926   9.712   2.689  0.00  0.00     0.052 H 
ATOM     12  H16 A7D d   1      15.614  11.431   2.273  0.00  0.00     0.052 H 
BRANCH  10  13
ATOM     13  SAP A7D d   1      14.976  10.926   4.541  0.00  0.00    -0.166 SA
BRANCH  13  14
ATOM     14  CAI A7D d   1      14.751   9.262   5.317  0.00  0.00    -0.021 C 
ATOM     15  H11 A7D d   1      13.918   8.743   4.820  0.00  0.00     0.049 H 
ATOM     16  H12 A7D d   1      15.675   8.678   5.191  0.00  0.00     0.049 H 
BRANCH  14  17
ATOM     17  CAJ A7D d   1      14.437   9.394   6.828  0.00  0.00    -0.031 C 
ATOM     18  H13 A7D d   1      13.347   9.471   6.950  0.00  0.00     0.037 H 
ATOM     19  H14 A7D d   1      14.914  10.312   7.202  0.00  0.00     0.037 H 
BRANCH  17  20
ATOM     20  CAT A7D d   1      14.938   8.206   7.674  0.00  0.00     0.056 C 
ATOM     21  H17 A7D d   1      14.345   7.323   7.393  0.00  0.00     0.086 H 
BRANCH  20  22
ATOM     22  OAC A7D d   1      16.363   7.870   7.421  0.00  0.00    -0.393 OA
ATOM     23  H6  A7D d   1      16.486   7.695   6.495  0.00  0.00     0.210 HD
ENDBRANCH  20  22
BRANCH  20  24
ATOM     24  CAH A7D d   1      14.663   8.506   9.175  0.00  0.00     0.041 C 
ATOM     25  H9  A7D d   1      13.621   8.236   9.401  0.00  0.00     0.077 H 
ATOM     26  H10 A7D d   1      15.342   7.892   9.785  0.00  0.00     0.077 H 
BRANCH  24  27
ATOM     27  OAB A7D d   1      14.864   9.898   9.521  0.00  0.00    -0.398 OA
ATOM     28  H5  A7D d   1      14.683  10.023  10.445  0.00  0.00     0.209 HD
ENDBRANCH  24  27
ENDBRANCH  20  24
ENDBRANCH  17  20
ENDBRANCH  14  17
ENDBRANCH  13  14
ENDBRANCH  10  13
ENDBRANCH   4  10
BRANCH   2  29
ATOM     29  OAD A7D d   1      12.524   8.173   1.827  0.00  0.00    -0.390 OA
ATOM     30  H7  A7D d   1      12.113   8.238   2.681  0.00  0.00     0.210 HD
ENDBRANCH   2  29
BRANCH   5  31
ATOM     31  N9  A7D d   1      14.586   9.903  -1.400  0.00  0.00    -0.294 N 
ATOM     32  C4  A7D d   1      14.132   9.720  -2.643  0.00  0.00     0.167 A 
ATOM     33  N3  A7D d   1      12.944   9.286  -3.157  0.00  0.00    -0.222 NA
ATOM     34  C5  A7D d   1      15.175  10.086  -3.493  0.00  0.00     0.149 A 
ATOM     35  C2  A7D d   1      12.757   9.208  -4.475  0.00  0.00     0.091 A 
ATOM     36  N1  A7D d   1      13.744   9.557  -5.312  0.00  0.00    -0.222 NA
ATOM     37  H1  A7D d   1      11.808   8.863  -4.869  0.00  0.00     0.146 H 
ATOM     38  C6  A7D d   1      14.951   9.991  -4.864  0.00  0.00     0.155 A 
ATOM     39  N7  A7D d   1      16.205  10.475  -2.744  0.00  0.00    -0.236 NA
ATOM     40  C8  A7D d   1      15.843  10.358  -1.463  0.00  0.00     0.071 A 
ATOM     41  H4  A7D d   1      16.471  10.595  -0.606  0.00  0.00     0.144 H 
BRANCH  38  42
ATOM     42  N6  A7D d   1      15.925  10.326  -5.713  0.00  0.00    -0.382 N 
ATOM     43  H2  A7D d   1      16.833  10.653  -5.352  0.00  0.00     0.157 HD
ATOM     44  H3  A7D d   1      15.769  10.258  -6.729  0.00  0.00     0.157 HD
ENDBRANCH  38  42
ENDBRANCH   5  31
BRANCH   3  45
ATOM     45  OAE A7D d   1      14.512   7.226  -0.060  0.00  0.00    -0.388 OA
ATOM     46  H8  A7D d   1      14.914   6.580   0.508  0.00  0.00     0.210 HD
ENDBRANCH   3  45
TORSDOF 12
