REMARK  11 active torsions:
REMARK  status: ('A' for Active; 'I' for Inactive)
REMARK    1  A    between atoms: P1_3  and  C1_1 
REMARK    2  A    between atoms: P1_3  and  O21_13 
REMARK    3  A    between atoms: O22_14  and  P1_3 
REMARK    4  A    between atoms: C7_10  and  S1_4 
REMARK    5  A    between atoms: C2_5  and  C7_10 
REMARK    6  A    between atoms: C81_15  and  C101_11 
REMARK    7  A    between atoms: C82_16  and  C102_12 
REMARK    8  A    between atoms: O21_13  and  C82_16 
REMARK    9  A    between atoms: O22_14  and  C81_15 
REMARK   10  A    between atoms: C81_15  and  C91_17 
REMARK   11  A    between atoms: C82_16  and  C92_18 
ROOT
ATOM      1  O1  IFS d   1       5.161  50.802  47.722  0.00  0.00    -0.253 OA
ATOM      2  P1  IFS d   1       5.151  49.288  48.201  0.00  0.00     0.363 P 
ENDROOT
BRANCH   2   3
ATOM      3  C1  IFS d   1       3.591  48.781  48.759  0.00  0.00     0.063 A 
ATOM      4  C2  IFS d   1       3.208  47.331  48.872  0.00  0.00    -0.031 A 
ATOM      5  C3  IFS d   1       1.925  47.081  49.354  0.00  0.00    -0.075 A 
ATOM      6  C4  IFS d   1       1.052  48.117  49.712  0.00  0.00    -0.082 A 
ATOM      7  H2  IFS d   1       1.592  46.054  49.455  0.00  0.00     0.084 H 
ATOM      8  C5  IFS d   1       1.429  49.449  49.598  0.00  0.00    -0.082 A 
ATOM      9  H3  IFS d   1       0.064  47.874  50.085  0.00  0.00     0.083 H 
ATOM     10  C6  IFS d   1       2.695  49.778  49.120  0.00  0.00    -0.065 A 
ATOM     11  H4  IFS d   1       0.737  50.234  49.882  0.00  0.00     0.083 H 
ATOM     12  H5  IFS d   1       2.983  50.819  49.029  0.00  0.00     0.085 H 
BRANCH   4  13
ATOM     13  C7  IFS d   1       4.070  46.118  48.474  0.00  0.00    -0.001 C 
ATOM     14  H6  IFS d   1       5.120  46.440  48.406  0.00  0.00     0.055 H 
ATOM     15  H7  IFS d   1       3.973  45.347  49.253  0.00  0.00     0.055 H 
BRANCH  13  16
ATOM     16  S1  IFS d   1       3.575  45.388  46.861  0.00  0.00    -0.178 SA
ATOM     17  H1  IFS d   1       3.668  46.083  46.137  0.00  0.00     0.101 HD
ENDBRANCH  13  16
ENDBRANCH   4  13
ENDBRANCH   2   3
BRANCH   2  18
ATOM     18  O21 IFS d   1       5.742  48.274  47.110  0.00  0.00    -0.306 OA
BRANCH  18  19
ATOM     19  C82 IFS d   1       7.147  48.117  46.851  0.00  0.00     0.041 C 
ATOM     20  H15 IFS d   1       7.736  48.574  47.660  0.00  0.00     0.082 H 
BRANCH  19  21
ATOM     21  C10 IFS d   1       7.476  46.631  46.774  0.00  0.00    -0.052 C 
ATOM     22  H11 IFS d   1       8.550  46.503  46.576  0.00  0.00     0.030 H 
ATOM     23  H12 IFS d   1       6.896  46.169  45.962  0.00  0.00     0.030 H 
ATOM     24  H13 IFS d   1       7.219  46.149  47.729  0.00  0.00     0.030 H 
ENDBRANCH  19  21
BRANCH  19  25
ATOM     25  C92 IFS d   1       7.431  48.837  45.549  0.00  0.00    -0.052 C 
ATOM     26  H19 IFS d   1       7.178  49.902  45.656  0.00  0.00     0.030 H 
ATOM     27  H20 IFS d   1       6.824  48.395  44.745  0.00  0.00     0.030 H 
ATOM     28  H21 IFS d   1       8.498  48.737  45.300  0.00  0.00     0.030 H 
ENDBRANCH  19  25
ENDBRANCH  18  19
ENDBRANCH   2  18
BRANCH   2  29
ATOM     29  O22 IFS d   1       6.136  49.191  49.450  0.00  0.00    -0.306 OA
BRANCH  29  30
ATOM     30  C81 IFS d   1       5.919  50.124  50.519  0.00  0.00     0.041 C 
ATOM     31  H14 IFS d   1       4.893  50.516  50.451  0.00  0.00     0.082 H 
BRANCH  30  32
ATOM     32  C10 IFS d   1       6.887  51.301  50.366  0.00  0.00    -0.052 C 
ATOM     33  H8  IFS d   1       6.724  52.019  51.184  0.00  0.00     0.030 H 
ATOM     34  H9  IFS d   1       6.710  51.798  49.401  0.00  0.00     0.030 H 
ATOM     35  H10 IFS d   1       7.922  50.931  50.404  0.00  0.00     0.030 H 
ENDBRANCH  30  32
BRANCH  30  36
ATOM     36  C91 IFS d   1       6.058  49.383  51.845  0.00  0.00    -0.052 C 
ATOM     37  H16 IFS d   1       5.334  48.556  51.880  0.00  0.00     0.030 H 
ATOM     38  H17 IFS d   1       5.862  50.077  52.675  0.00  0.00     0.030 H 
ATOM     39  H18 IFS d   1       7.078  48.981  51.935  0.00  0.00     0.030 H 
ENDBRANCH  30  36
ENDBRANCH  29  30
ENDBRANCH   2  29
TORSDOF 11
