REMARK  3 active torsions:
REMARK  status: ('A' for Active; 'I' for Inactive)
REMARK    1  A    between atoms: N_1  and  CA_2 
REMARK    2  A    between atoms: CA_2  and  C_3 
REMARK    3  A    between atoms: CA_2  and  CB_5 
ROOT
ATOM      1  CA  ALA d   1     -24.087  17.420  13.548  0.00  0.00     0.179 C 
ATOM      2  H4  ALA d   1     -25.161  17.490  13.319  0.00  0.00     0.100 H 
ENDROOT
BRANCH   1   3
ATOM      3  N   ALA d   1     -23.706  16.011  13.548  0.00  0.00    -0.066 N 
ATOM      4  H1  ALA d   1     -24.219  15.524  14.266  0.00  0.00     0.275 HD
ATOM      5  H2  ALA d   1     -22.718  15.930  13.728  0.00  0.00     0.275 HD
ATOM      6  H3  ALA d   1     -23.919  15.605  12.650  0.00  0.00     0.275 HD
ENDBRANCH   1   3
BRANCH   1   7
ATOM      7  C   ALA d   1     -23.322  18.162  12.472  0.00  0.00     0.204 C 
ATOM      8  O   ALA d   1     -23.484  19.379  12.305  0.00  0.00    -0.646 OA
ATOM      9  OXT ALA d   1     -22.538  17.530  11.748  0.00  0.00    -0.646 OA
ENDBRANCH   1   7
BRANCH   1  10
ATOM     10  CB  ALA d   1     -23.852  18.040  14.917  0.00  0.00    -0.040 C 
ATOM     11  H5  ALA d   1     -24.145  19.100  14.895  0.00  0.00     0.030 H 
ATOM     12  H6  ALA d   1     -22.786  17.960  15.178  0.00  0.00     0.030 H 
ATOM     13  H7  ALA d   1     -24.454  17.509  15.668  0.00  0.00     0.030 H 
ENDBRANCH   1  10
TORSDOF 3
