REMARK  1 active torsions:
REMARK  status: ('A' for Active; 'I' for Inactive)
REMARK    1  A    between atoms: CA_2  and  C_3 
ROOT
ATOM      1  N   PRO d   1      23.198  18.788  16.777  0.00  0.00    -0.061 N 
ATOM      2  CA  PRO d   1      23.453  18.560  18.199  0.00  0.00     0.184 C 
ATOM      3  CB  PRO d   1      22.624  19.673  18.850  0.00  0.00    -0.027 C 
ATOM      4  CG  PRO d   1      22.748  20.855  17.827  0.00  0.00    -0.040 C 
ATOM      5  CD  PRO d   1      23.220  20.236  16.492  0.00  0.00     0.083 C 
ATOM      6  H1  PRO d   1      22.294  18.413  16.535  0.00  0.00     0.278 HD
ATOM      7  H2  PRO d   1      23.910  18.329  16.231  0.00  0.00     0.278 HD
ATOM      8  H3  PRO d   1      24.522  18.689  18.423  0.00  0.00     0.101 H 
ATOM      9  H4  PRO d   1      23.039  19.953  19.829  0.00  0.00     0.036 H 
ATOM     10  H5  PRO d   1      21.575  19.364  18.971  0.00  0.00     0.036 H 
ATOM     11  H6  PRO d   1      23.483  21.591  18.185  0.00  0.00     0.035 H 
ATOM     12  H7  PRO d   1      21.773  21.346  17.694  0.00  0.00     0.035 H 
ATOM     13  H8  PRO d   1      22.531  20.489  15.673  0.00  0.00     0.075 H 
ATOM     14  H9  PRO d   1      24.235  20.574  16.235  0.00  0.00     0.075 H 
ENDROOT
BRANCH   2  15
ATOM     15  C   PRO d   1      23.021  17.173  18.678  0.00  0.00     0.204 C 
ATOM     16  O   PRO d   1      23.129  16.882  19.878  0.00  0.00    -0.646 OA
ATOM     17  OXT PRO d   1      22.573  16.338  17.871  0.00  0.00    -0.646 OA
ENDBRANCH   2  15
TORSDOF 1
