REMARK  2 active torsions:
REMARK  status: ('A' for Active; 'I' for Inactive)
REMARK    1  A    between atoms: C6_6  and  C7_7 
REMARK    2  A    between atoms: C7_7  and  P8_8 
ROOT
ATOM      1  C1  B85 d   1       1.481  15.761  19.469  0.00  0.00    -0.076 A 
ATOM      2  C2  B85 d   1       2.060  17.060  19.420  0.00  0.00    -0.082 A 
ATOM      3  C3  B85 d   1       2.397  17.615  18.207  0.00  0.00    -0.083 A 
ATOM      4  C4  B85 d   1       2.192  16.867  16.948  0.00  0.00    -0.082 A 
ATOM      5  C5  B85 d   1       1.641  15.599  16.990  0.00  0.00    -0.076 A 
ATOM      6  C6  B85 d   1       1.286  15.037  18.258  0.00  0.00    -0.045 A 
ATOM      7  H1  B85 d   1       1.191  15.327  20.419  0.00  0.00     0.084 H 
ATOM      8  H2  B85 d   1       2.235  17.611  20.337  0.00  0.00     0.083 H 
ATOM      9  H3  B85 d   1       2.818  18.613  18.174  0.00  0.00     0.083 H 
ATOM     10  H4  B85 d   1       2.472  17.309  15.999  0.00  0.00     0.083 H 
ATOM     11  H5  B85 d   1       1.480  15.039  16.076  0.00  0.00     0.084 H 
ENDROOT
BRANCH   6  12
ATOM     12  C7  B85 d   1       0.767  13.620  18.443  0.00  0.00     0.063 C 
ATOM     13  H6  B85 d   1      -0.159  13.689  19.032  0.00  0.00     0.061 H 
ATOM     14  H7  B85 d   1       1.527  13.069  19.017  0.00  0.00     0.061 H 
BRANCH  12  15
ATOM     15  P8  B85 d   1       0.385  12.618  16.952  0.00  0.00     0.263 P 
ATOM     16  O9  B85 d   1       1.667  12.368  16.044  0.00  0.00    -0.639 OA
ATOM     17  O10 B85 d   1      -0.305  11.225  17.373  0.00  0.00    -0.639 OA
ATOM     18  O11 B85 d   1      -0.631  13.377  16.171  0.00  0.00    -0.639 OA
ENDBRANCH  12  15
ENDBRANCH   6  12
TORSDOF 2
