REMARK  7 active torsions:
REMARK  status: ('A' for Active; 'I' for Inactive)
REMARK    1  A    between atoms: C1_1  and  C2_2 
REMARK    2  A    between atoms: C4_4  and  C9_9 
REMARK    3  A    between atoms: C7_7  and  C12_12 
REMARK       I    between atoms: C12_12  and  N15_15 
REMARK    4  A    between atoms: C14_14  and  C17_17 
REMARK    5  A    between atoms: N15_15  and  C18_18 
REMARK       I    between atoms: C17_17  and  N19_19 
REMARK    6  A    between atoms: N19_19  and  C23_23 
REMARK    7  A    between atoms: C23_23  and  C24_24 
ROOT
ATOM      1  C1  G11 d   1      40.739  31.224  32.562  0.00  0.00    -0.001 A 
ATOM      2  C3  G11 d   1      40.602  30.375  33.656  0.00  0.00    -0.055 A 
ATOM      3  C4  G11 d   1      39.739  31.289  31.601  0.00  0.00    -0.049 A 
ATOM      4  C7  G11 d   1      39.500  29.537  33.849  0.00  0.00     0.032 A 
ATOM      5  C8  G11 d   1      38.631  30.463  31.776  0.00  0.00    -0.075 A 
ATOM      6  C13 G11 d   1      38.507  29.598  32.875  0.00  0.00    -0.067 A 
ATOM      7  H1  G11 d   1      41.392  30.363  34.398  0.00  0.00     0.086 H 
ATOM      8  H3  G11 d   1      37.837  30.489  31.038  0.00  0.00     0.084 H 
ATOM      9  H9  G11 d   1      37.628  28.970  32.966  0.00  0.00     0.085 H 
ENDROOT
BRANCH   1  10
ATOM     10  C2  G11 d   1      41.972  32.037  32.513  0.00  0.00     0.067 A 
ATOM     11  C5  G11 d   1      42.080  33.191  33.262  0.00  0.00    -0.053 A 
ATOM     12  C11 G11 d   1      43.238  33.953  33.241  0.00  0.00    -0.064 A 
ATOM     13  H2  G11 d   1      41.245  33.507  33.877  0.00  0.00     0.087 H 
ATOM     14  C14 G11 d   1      44.315  33.533  32.473  0.00  0.00     0.049 A 
ATOM     15  H8  G11 d   1      43.302  34.868  33.819  0.00  0.00     0.085 H 
ATOM     16  C10 G11 d   1      44.148  32.357  31.736  0.00  0.00     0.018 A 
ATOM     17  N6  G11 d   1      43.027  31.621  31.765  0.00  0.00    -0.259 NA
ATOM     18  H7  G11 d   1      44.967  32.023  31.109  0.00  0.00     0.116 H 
BRANCH  14  19
ATOM     19  C17 G11 d   1      45.542  34.358  32.433  0.00  0.00     0.253 C 
ATOM     20  N19 G11 d   1      46.454  33.938  31.510  0.00  0.00    -0.356 N 
ATOM     21  H12 G11 d   1      46.224  33.121  30.981  0.00  0.00     0.162 HD
ATOM     22  O20 G11 d   1      45.699  35.380  33.097  0.00  0.00    -0.268 OA
BRANCH  20  23
ATOM     23  C23 G11 d   1      47.735  34.576  31.227  0.00  0.00     0.005 C 
ATOM     24  H17 G11 d   1      47.765  35.580  31.675  0.00  0.00     0.065 H 
ATOM     25  H18 G11 d   1      47.888  34.654  30.140  0.00  0.00     0.065 H 
BRANCH  23  26
ATOM     26  C24 G11 d   1      48.806  33.697  31.843  0.00  0.00    -0.006 A 
ATOM     27  C25 G11 d   1      49.022  33.982  33.277  0.00  0.00    -0.097 A 
ATOM     28  C26 G11 d   1      50.052  34.363  32.275  0.00  0.00    -0.097 A 
ATOM     29  H20 G11 d   1      48.679  33.942  34.310  0.00  0.00     0.077 H 
ATOM     30  H21 G11 d   1      51.017  34.807  32.035  0.00  0.00     0.077 H 
ATOM     31  H19 G11 d   1      48.809  32.679  31.425  0.00  0.00     0.054 H 
ENDBRANCH  23  26
ENDBRANCH  20  23
ENDBRANCH  14  19
ENDBRANCH   1  10
BRANCH   3  32
ATOM     32  C9  G11 d   1      39.833  32.206  30.386  0.00  0.00    -0.050 C 
ATOM     33  H4  G11 d   1      40.774  32.774  30.427  0.00  0.00     0.033 H 
ATOM     34  H5  G11 d   1      38.983  32.904  30.387  0.00  0.00     0.033 H 
ATOM     35  H6  G11 d   1      39.809  31.601  29.468  0.00  0.00     0.033 H 
ENDBRANCH   3  32
BRANCH   4  36
ATOM     36  C12 G11 d   1      39.509  28.677  35.081  0.00  0.00     0.252 C 
ATOM     37  N15 G11 d   1      38.613  27.640  35.197  0.00  0.00    -0.352 N 
ATOM     38  H10 G11 d   1      37.929  27.528  34.476  0.00  0.00     0.163 HD
ATOM     39  O16 G11 d   1      40.321  28.923  35.989  0.00  0.00    -0.268 OA
BRANCH  37  40
ATOM     40  C18 G11 d   1      38.600  26.711  36.287  0.00  0.00     0.012 A 
ATOM     41  C21 G11 d   1      38.278  27.479  37.520  0.00  0.00    -0.044 A 
ATOM     42  C22 G11 d   1      37.212  26.686  36.816  0.00  0.00    -0.044 A 
ATOM     43  H13 G11 d   1      38.255  28.578  37.494  0.00  0.00     0.036 H 
ATOM     44  H14 G11 d   1      38.662  27.143  38.495  0.00  0.00     0.036 H 
ATOM     45  H15 G11 d   1      36.814  25.769  37.275  0.00  0.00     0.036 H 
ATOM     46  H16 G11 d   1      36.407  27.204  36.275  0.00  0.00     0.036 H 
ATOM     47  H11 G11 d   1      39.284  25.852  36.222  0.00  0.00     0.072 H 
ENDBRANCH  37  40
ENDBRANCH   4  36
TORSDOF 7
