REMARK  14 active torsions:
REMARK  status: ('A' for Active; 'I' for Inactive)
REMARK    1  A    between atoms: C35_2  and  C34_4 
REMARK    2  A    between atoms: C34_4  and  C32_5 
REMARK    3  A    between atoms: C28_9  and  O27_10 
REMARK    4  A    between atoms: O27_10  and  C26_11 
REMARK    5  A    between atoms: C26_11  and  C25_12 
REMARK    6  A    between atoms: C25_12  and  C17_13 
REMARK    7  A    between atoms: C17_13  and  N09_14 
REMARK    8  A    between atoms: N09_14  and  C16_15 
REMARK    9  A    between atoms: N09_14  and  C08_27 
REMARK   10  A    between atoms: C16_15  and  C18_16 
REMARK   11  A    between atoms: C20_20  and  C39_23 
REMARK   12  A    between atoms: C08_27  and  C07_28 
REMARK   13  A    between atoms: C07_28  and  C01_29 
REMARK   14  A    between atoms: C07_28  and  C10_35 
ROOT
ATOM      1  N09 965 d   1      40.500  14.946  -6.138  0.00  0.00    -0.066 N 
ATOM      2  H12 965 d   1      40.812  15.741  -5.602  0.00  0.00     0.280 HD
ENDROOT
BRANCH   1   3
ATOM      3  C17 965 d   1      41.815  14.724  -6.721  0.00  0.00     0.086 C 
ATOM      4  H10 965 d   1      41.714  13.949  -7.495  0.00  0.00     0.076 H 
ATOM      5  H11 965 d   1      42.141  15.666  -7.185  0.00  0.00     0.076 H 
BRANCH   3   6
ATOM      6  C25 965 d   1      42.902  14.279  -5.756  0.00  0.00    -0.022 C 
ATOM      7  H8  965 d   1      42.489  13.505  -5.092  0.00  0.00     0.038 H 
ATOM      8  H9  965 d   1      43.736  13.857  -6.336  0.00  0.00     0.038 H 
BRANCH   6   9
ATOM      9  C26 965 d   1      43.428  15.416  -4.906  0.00  0.00     0.028 C 
ATOM     10  H6  965 d   1      43.426  16.344  -5.497  0.00  0.00     0.075 H 
ATOM     11  H7  965 d   1      42.782  15.541  -4.024  0.00  0.00     0.075 H 
BRANCH   9  12
ATOM     12  O27 965 d   1      44.758  15.130  -4.481  0.00  0.00    -0.351 OA
BRANCH  12  13
ATOM     13  C28 965 d   1      45.720  16.044  -4.166  0.00  0.00     0.069 A 
ATOM     14  C29 965 d   1      45.464  17.432  -4.096  0.00  0.00    -0.051 A 
ATOM     15  C30 965 d   1      46.503  18.295  -3.766  0.00  0.00    -0.080 A 
ATOM     16  H5  965 d   1      44.471  17.819  -4.297  0.00  0.00     0.087 H 
ATOM     17  C31 965 d   1      47.765  17.806  -3.451  0.00  0.00    -0.076 A 
ATOM     18  H4  965 d   1      46.326  19.364  -3.754  0.00  0.00     0.083 H 
ATOM     19  C32 965 d   1      47.999  16.434  -3.508  0.00  0.00    -0.046 A 
ATOM     20  H3  965 d   1      48.559  18.485  -3.164  0.00  0.00     0.084 H 
ATOM     21  C33 965 d   1      46.969  15.560  -3.844  0.00  0.00    -0.044 A 
ATOM     22  H31 965 d   1      47.151  14.491  -3.852  0.00  0.00     0.088 H 
BRANCH  19  23
ATOM     23  C34 965 d   1      49.357  15.896  -3.169  0.00  0.00     0.040 C 
ATOM     24  H1  965 d   1      49.650  16.268  -2.176  0.00  0.00     0.056 H 
ATOM     25  H2  965 d   1      49.310  14.797  -3.149  0.00  0.00     0.056 H 
BRANCH  23  26
ATOM     26  C35 965 d   1      50.401  16.325  -4.182  0.00  0.00     0.176 C 
ATOM     27  O37 965 d   1      50.160  16.409  -5.403  0.00  0.00    -0.648 OA
ATOM     28  O36 965 d   1      51.511  16.576  -3.734  0.00  0.00    -0.648 OA
ENDBRANCH  23  26
ENDBRANCH  19  23
ENDBRANCH  12  13
ENDBRANCH   9  12
ENDBRANCH   6   9
ENDBRANCH   3   6
ENDBRANCH   1   3
BRANCH   1  29
ATOM     29  C16 965 d   1      40.089  14.217  -4.924  0.00  0.00     0.109 C 
ATOM     30  H13 965 d   1      40.977  14.115  -4.282  0.00  0.00     0.083 H 
ATOM     31  H14 965 d   1      39.746  13.220  -5.237  0.00  0.00     0.083 H 
BRANCH  29  32
ATOM     32  C18 965 d   1      38.991  14.835  -4.088  0.00  0.00    -0.010 A 
ATOM     33  C23 965 d   1      39.284  16.021  -3.439  0.00  0.00    -0.074 A 
ATOM     34  C22 965 d   1      38.320  16.618  -2.663  0.00  0.00    -0.082 A 
ATOM     35  H15 965 d   1      40.263  16.474  -3.542  0.00  0.00     0.084 H 
ATOM     36  C21 965 d   1      37.072  16.034  -2.512  0.00  0.00    -0.067 A 
ATOM     37  H16 965 d   1      38.538  17.555  -2.164  0.00  0.00     0.083 H 
ATOM     38  C20 965 d   1      36.755  14.845  -3.162  0.00  0.00     0.070 A 
ATOM     39  H17 965 d   1      36.332  16.510  -1.879  0.00  0.00     0.084 H 
ATOM     40  C19 965 d   1      37.736  14.241  -3.946  0.00  0.00     0.057 A 
ATOM     41 CL4  965 d   1      37.380  12.677  -4.771  0.00  0.00    -0.083 Cl
BRANCH  38  42
ATOM     42  C39 965 d   1      35.379  14.217  -2.994  0.00  0.00     0.419 C 
ATOM     43  F41 965 d   1      35.598  12.967  -2.613  0.00  0.00    -0.166 F 
ATOM     44  F40 965 d   1      34.647  14.824  -2.066  0.00  0.00    -0.166 F 
ATOM     45  F42 965 d   1      34.680  14.258  -4.138  0.00  0.00    -0.166 F 
ENDBRANCH  38  42
ENDBRANCH  29  32
ENDBRANCH   1  29
BRANCH   1  46
ATOM     46  C08 965 d   1      39.543  15.754  -6.917  0.00  0.00     0.095 C 
ATOM     47  H18 965 d   1      38.647  15.925  -6.302  0.00  0.00     0.077 H 
ATOM     48  H19 965 d   1      39.265  15.192  -7.821  0.00  0.00     0.077 H 
BRANCH  46  49
ATOM     49  C07 965 d   1      40.119  17.134  -7.349  0.00  0.00     0.020 C 
ATOM     50  H20 965 d   1      41.184  16.994  -7.587  0.00  0.00     0.057 H 
BRANCH  49  51
ATOM     51  C01 965 d   1      40.010  18.106  -6.223  0.00  0.00    -0.048 A 
ATOM     52  C02 965 d   1      41.172  18.615  -5.667  0.00  0.00    -0.076 A 
ATOM     53  C03 965 d   1      41.081  19.520  -4.616  0.00  0.00    -0.082 A 
ATOM     54  H21 965 d   1      42.141  18.311  -6.047  0.00  0.00     0.084 H 
ATOM     55  C04 965 d   1      39.851  19.913  -4.114  0.00  0.00    -0.083 A 
ATOM     56  H22 965 d   1      41.988  19.925  -4.182  0.00  0.00     0.083 H 
ATOM     57  C05 965 d   1      38.690  19.413  -4.665  0.00  0.00    -0.082 A 
ATOM     58  H23 965 d   1      39.801  20.613  -3.288  0.00  0.00     0.083 H 
ATOM     59  C06 965 d   1      38.773  18.511  -5.730  0.00  0.00    -0.076 A 
ATOM     60  H24 965 d   1      37.724  19.716  -4.277  0.00  0.00     0.083 H 
ATOM     61  H25 965 d   1      37.864  18.123  -6.176  0.00  0.00     0.084 H 
ENDBRANCH  49  51
BRANCH  49  62
ATOM     62  C10 965 d   1      39.452  17.690  -8.553  0.00  0.00    -0.048 A 
ATOM     63  C15 965 d   1      40.210  18.484  -9.410  0.00  0.00    -0.076 A 
ATOM     64  C14 965 d   1      39.651  19.003 -10.562  0.00  0.00    -0.082 A 
ATOM     65  H26 965 d   1      41.246  18.696  -9.172  0.00  0.00     0.084 H 
ATOM     66  C13 965 d   1      38.316  18.766 -10.860  0.00  0.00    -0.083 A 
ATOM     67  H27 965 d   1      40.257  19.598 -11.236  0.00  0.00     0.083 H 
ATOM     68  C12 965 d   1      37.551  17.992 -10.004  0.00  0.00    -0.082 A 
ATOM     69  H28 965 d   1      37.875  19.184 -11.758  0.00  0.00     0.083 H 
ATOM     70  C11 965 d   1      38.123  17.439  -8.856  0.00  0.00    -0.076 A 
ATOM     71  H29 965 d   1      36.505  17.815 -10.226  0.00  0.00     0.083 H 
ATOM     72  H30 965 d   1      37.527  16.813  -8.202  0.00  0.00     0.084 H 
ENDBRANCH  49  62
ENDBRANCH  46  49
ENDBRANCH   1  46
TORSDOF 14
