REMARK  12 active torsions:
REMARK  status: ('A' for Active; 'I' for Inactive)
REMARK    1  A    between atoms: O11_11  and  C2_2 
REMARK    2  A    between atoms: C3_3  and  C12_12 
REMARK    3  A    between atoms: C9_9  and  C14_14 
REMARK    4  A    between atoms: C15_15  and  O11_11 
REMARK    5  A    between atoms: C12_12  and  C17_17 
REMARK    6  A    between atoms: C26_25  and  C15_15 
REMARK    7  A    between atoms: C16_16  and  C32_28 
REMARK    8  A    between atoms: C17_17  and  C20_20 
REMARK    9  A    between atoms: N21_21  and  C22_22 
REMARK       I    between atoms: N21_21  and  C23_23 
REMARK   10  A    between atoms: C29_26  and  N21_21 
REMARK       I    between atoms: C23_23  and  N24_24 
REMARK   11  A    between atoms: N24_24  and  C42_34 
REMARK   12  A    between atoms: C26_25  and  C29_26 
ROOT
ATOM      1  C15 O40 d   1      21.241 -15.358  18.320  0.00  0.00     0.028 C 
ATOM      2  H7  O40 d   1      21.625 -14.913  17.390  0.00  0.00     0.075 H 
ATOM      3  H8  O40 d   1      21.090 -14.568  19.070  0.00  0.00     0.075 H 
ENDROOT
BRANCH   1   4
ATOM      4  O11 O40 d   1      22.156 -16.350  18.815  0.00  0.00    -0.350 OA
BRANCH   4   5
ATOM      5  C2  O40 d   1      23.470 -16.032  19.138  0.00  0.00     0.077 A 
ATOM      6  C1  O40 d   1      23.886 -14.688  19.150  0.00  0.00    -0.049 A 
ATOM      7  C6  O40 d   1      25.192 -14.350  19.471  0.00  0.00    -0.065 A 
ATOM      8  H1  O40 d   1      23.176 -13.906  18.905  0.00  0.00     0.087 H 
ATOM      9  C5  O40 d   1      26.038 -15.403  19.763  0.00  0.00     0.036 A 
ATOM     10  H2  O40 d   1      25.530 -13.320  19.492  0.00  0.00     0.085 H 
ATOM     11  C4  O40 d   1      25.674 -16.731  19.758  0.00  0.00     0.122 A 
ATOM     12  C9  O40 d   1      27.466 -15.533  20.134  0.00  0.00     0.180 A 
ATOM     13  C3  O40 d   1      24.360 -17.088  19.440  0.00  0.00     0.012 A 
ATOM     14  O7  O40 d   1      26.715 -17.599  20.095  0.00  0.00    -0.211 OA
ATOM     15  N8  O40 d   1      27.847 -16.744  20.340  0.00  0.00    -0.122 NA
BRANCH  13  16
ATOM     16  C12 O40 d   1      23.935 -18.561  19.428  0.00  0.00    -0.036 C 
ATOM     17  H4  O40 d   1      22.853 -18.623  19.618  0.00  0.00     0.040 H 
ATOM     18  H5  O40 d   1      24.478 -19.097  20.221  0.00  0.00     0.040 H 
BRANCH  16  19
ATOM     19  C17 O40 d   1      24.248 -19.230  18.058  0.00  0.00    -0.065 C 
ATOM     20  H9  O40 d   1      23.993 -20.298  18.123  0.00  0.00     0.032 H 
ATOM     21  H10 O40 d   1      25.323 -19.122  17.852  0.00  0.00     0.032 H 
BRANCH  19  22
ATOM     22  C20 O40 d   1      23.455 -18.603  16.884  0.00  0.00    -0.076 C 
ATOM     23  H13 O40 d   1      23.719 -19.117  15.948  0.00  0.00     0.027 H 
ATOM     24  H14 O40 d   1      23.707 -17.535  16.800  0.00  0.00     0.027 H 
ATOM     25  H15 O40 d   1      22.376 -18.712  17.070  0.00  0.00     0.027 H 
ENDBRANCH  19  22
ENDBRANCH  16  19
ENDBRANCH  13  16
BRANCH  12  26
ATOM     26  C14 O40 d   1      28.291 -14.295  20.305  0.00  0.00     0.437 C 
ATOM     27  F38 O40 d   1      29.553 -14.682  20.692  0.00  0.00    -0.164 F 
ATOM     28  F39 O40 d   1      27.656 -13.602  21.292  0.00  0.00    -0.164 F 
ATOM     29  F40 O40 d   1      28.306 -13.475  19.209  0.00  0.00    -0.164 F 
ENDBRANCH  12  26
ENDBRANCH   4   5
ENDBRANCH   1   4
BRANCH   1  30
ATOM     30  C26 O40 d   1      19.916 -16.104  18.052  0.00  0.00    -0.030 C 
ATOM     31  H20 O40 d   1      20.111 -16.960  17.389  0.00  0.00     0.038 H 
ATOM     32  H21 O40 d   1      19.207 -15.418  17.566  0.00  0.00     0.038 H 
BRANCH  30  33
ATOM     33  C29 O40 d   1      19.300 -16.617  19.378  0.00  0.00     0.001 C 
ATOM     34  H22 O40 d   1      20.025 -17.282  19.869  0.00  0.00     0.064 H 
ATOM     35  H23 O40 d   1      19.095 -15.754  20.029  0.00  0.00     0.064 H 
BRANCH  33  36
ATOM     36  N21 O40 d   1      18.038 -17.363  19.166  0.00  0.00    -0.338 N 
ATOM     37  C23 O40 d   1      16.856 -16.698  18.941  0.00  0.00     0.322 C 
ATOM     38  N24 O40 d   1      15.701 -17.306  18.777  0.00  0.00    -0.309 N 
ATOM     39  O33 O40 d   1      16.876 -15.486  18.883  0.00  0.00    -0.247 OA
ATOM     40  H19 O40 d   1      15.712 -18.302  18.866  0.00  0.00     0.170 HD
BRANCH  36  41
ATOM     41  C22 O40 d   1      18.053 -18.826  19.241  0.00  0.00    -0.015 C 
ATOM     42  H16 O40 d   1      19.080 -19.173  19.425  0.00  0.00     0.056 H 
ATOM     43  H17 O40 d   1      17.689 -19.246  18.292  0.00  0.00     0.056 H 
ATOM     44  H18 O40 d   1      17.401 -19.158  20.063  0.00  0.00     0.056 H 
ENDBRANCH  36  41
BRANCH  38  45
ATOM     45  C42 O40 d   1      14.484 -16.738  18.499  0.00  0.00     0.036 A 
ATOM     46  C10 O40 d   1      14.369 -15.588  17.699  0.00  0.00    -0.056 A 
ATOM     47  C13 O40 d   1      13.117 -15.033  17.419  0.00  0.00    -0.064 A 
ATOM     48  H3  O40 d   1      15.262 -15.126  17.294  0.00  0.00     0.086 H 
ATOM     49  C16 O40 d   1      11.949 -15.616  17.925  0.00  0.00     0.041 A 
ATOM     50  H6  O40 d   1      13.050 -14.143  16.804  0.00  0.00     0.085 H 
ATOM     51  C18 O40 d   1      12.051 -16.768  18.710  0.00  0.00    -0.064 A 
ATOM     52  C19 O40 d   1      13.299 -17.311  18.996  0.00  0.00    -0.056 A 
ATOM     53  H11 O40 d   1      11.155 -17.239  19.097  0.00  0.00     0.085 H 
ATOM     54  H12 O40 d   1      13.360 -18.197  19.617  0.00  0.00     0.086 H 
BRANCH  49  55
ATOM     55  C32 O40 d   1      10.594 -15.014  17.607  0.00  0.00     0.209 C 
ATOM     56  O30 O40 d   1      10.557 -13.830  16.965  0.00  0.00    -0.644 OA
ATOM     57  O34 O40 d   1       9.568 -15.621  17.925  0.00  0.00    -0.644 OA
ENDBRANCH  49  55
ENDBRANCH  38  45
ENDBRANCH  33  36
ENDBRANCH  30  33
ENDBRANCH   1  30
TORSDOF 12
