REMARK  30 active torsions:
REMARK  status: ('A' for Active; 'I' for Inactive)
REMARK    1  A    between atoms: N_1  and  CA_2 
REMARK    2  A    between atoms: CA_2  and  C_3 
REMARK    3  A    between atoms: CA_2  and  CB_5 
REMARK       I    between atoms: C_3  and  N_10 
REMARK    4  A    between atoms: CB_5  and  CG_6 
REMARK    5  A    between atoms: CG_6  and  CD_7 
REMARK       I    between atoms: CD_7  and  NE2_9 
REMARK    6  A    between atoms: N_10  and  CA_11 
REMARK    7  A    between atoms: CA_11  and  C_12 
REMARK    8  A    between atoms: CA_11  and  CB_14 
REMARK       I    between atoms: C_12  and  N_21 
REMARK    9  A    between atoms: CB_14  and  CG_15 
REMARK   10  A    between atoms: CG_15  and  CD_16 
REMARK   11  A    between atoms: CD_16  and  NE_17 
REMARK       I    between atoms: NE_17  and  CZ_18 
REMARK       I    between atoms: CZ_18  and  NH1_19 
REMARK   12  A    between atoms: N_21  and  CA_22 
REMARK   13  A    between atoms: CA_22  and  C_23 
REMARK   14  A    between atoms: CA_22  and  CB_25 
REMARK       I    between atoms: C_23  and  N_27 
REMARK   15  A    between atoms: CB_25  and  OG_26 
REMARK   16  A    between atoms: N_27  and  CA_28 
REMARK   17  A    between atoms: CA_28  and  C_29 
REMARK   18  A    between atoms: CA_28  and  CB_31 
REMARK       I    between atoms: C_29  and  N_34 
REMARK   19  A    between atoms: CB_31  and  OG1_32 
REMARK   20  A    between atoms: CB_31  and  CG2_33 
REMARK   21  A    between atoms: N_34  and  CA_35 
REMARK   22  A    between atoms: CA_35  and  CB_36 
REMARK   23  A    between atoms: CA_35  and  C_38 
REMARK   24  A    between atoms: CB_36  and  OG_37 
REMARK   25  A    between atoms: OG_37  and  P_40 
REMARK       I    between atoms: C_38  and  N_44 
REMARK   26  A    between atoms: N_44  and  CA_45 
REMARK   27  A    between atoms: CA_45  and  C_46 
REMARK   28  A    between atoms: CA_45  and  CB_48 
REMARK   29  A    between atoms: CB_48  and  OG1_49 
REMARK   30  A    between atoms: CB_48  and  CG2_50 
ROOT
ATOM      1  CA  SER d   1     -13.176 -12.763  14.558  0.00  0.00     0.109 C 
ATOM      2  H25 SER d   1     -12.129 -13.091  14.641  0.00  0.00     0.090 H 
ENDROOT
BRANCH   1   3
ATOM      3  N   SER d   1     -13.269 -11.389  14.961  0.00  0.00    -0.344 N 
ATOM      4  C   ARG d   1     -12.533 -10.436  14.371  0.00  0.00     0.241 C 
ATOM      5  O   ARG d   1     -11.616 -10.721  13.575  0.00  0.00    -0.271 OA
ATOM      6  H24 SER d   1     -13.896 -11.137  15.698  0.00  0.00     0.163 HD
BRANCH   4   7
ATOM      7  CA  ARG d   1     -12.876  -9.004  14.714  0.00  0.00     0.089 C 
ATOM      8  H12 ARG d   1     -13.008  -8.927  15.803  0.00  0.00     0.087 H 
BRANCH   7   9
ATOM      9  N   ARG d   1     -11.732  -8.154  14.320  0.00  0.00    -0.346 N 
ATOM     10  C   GLN d   1     -10.758  -7.888  15.196  0.00  0.00     0.249 C 
ATOM     11  O   GLN d   1     -10.804  -8.276  16.406  0.00  0.00    -0.271 OA
ATOM     12  H11 ARG d   1     -11.687  -7.777  13.395  0.00  0.00     0.163 HD
BRANCH  10  13
ATOM     13  CA  GLN d   1      -9.580  -7.064  14.680  0.00  0.00     0.176 C 
ATOM     14  H4  GLN d   1      -9.815  -6.699  13.669  0.00  0.00     0.099 H 
BRANCH  13  15
ATOM     15  N   GLN d   1      -9.384  -5.901  15.566  0.00  0.00    -0.066 N 
ATOM     16  H1  GLN d   1      -8.608  -5.351  15.232  0.00  0.00     0.275 HD
ATOM     17  H2  GLN d   1      -9.191  -6.221  16.502  0.00  0.00     0.275 HD
ATOM     18  H3  GLN d   1     -10.219  -5.336  15.569  0.00  0.00     0.275 HD
ENDBRANCH  13  15
BRANCH  13  19
ATOM     19  CB  GLN d   1      -8.312  -7.941  14.598  0.00  0.00    -0.022 C 
ATOM     20  H5  GLN d   1      -8.116  -8.378  15.588  0.00  0.00     0.037 H 
ATOM     21  H6  GLN d   1      -7.461  -7.311  14.300  0.00  0.00     0.037 H 
BRANCH  19  22
ATOM     22  CG  GLN d   1      -8.474  -9.093  13.561  0.00  0.00     0.011 C 
ATOM     23  H7  GLN d   1      -8.667  -8.651  12.572  0.00  0.00     0.047 H 
ATOM     24  H8  GLN d   1      -9.331  -9.715  13.858  0.00  0.00     0.047 H 
BRANCH  22  25
ATOM     25  CD  GLN d   1      -7.236  -9.981  13.466  0.00  0.00     0.215 C 
ATOM     26  OE1 GLN d   1      -6.128  -9.509  13.923  0.00  0.00    -0.274 OA
ATOM     27  NE2 GLN d   1      -7.357 -11.296  12.892  0.00  0.00    -0.370 N 
ATOM     28  H9  GLN d   1      -6.554 -11.888  12.824  0.00  0.00     0.159 HD
ATOM     29  H10 GLN d   1      -8.244 -11.618  12.562  0.00  0.00     0.159 HD
ENDBRANCH  22  25
ENDBRANCH  19  22
ENDBRANCH  13  19
ENDBRANCH  10  13
ENDBRANCH   7   9
BRANCH   7  30
ATOM     30  CB  ARG d   1     -14.202  -8.555  14.046  0.00  0.00    -0.036 C 
ATOM     31  H13 ARG d   1     -14.883  -9.419  14.048  0.00  0.00     0.036 H 
ATOM     32  H14 ARG d   1     -13.971  -8.273  13.008  0.00  0.00     0.036 H 
BRANCH  30  33
ATOM     33  CG  ARG d   1     -14.961  -7.355  14.703  0.00  0.00    -0.048 C 
ATOM     34  H15 ARG d   1     -14.260  -6.511  14.776  0.00  0.00     0.035 H 
ATOM     35  H16 ARG d   1     -15.270  -7.663  15.713  0.00  0.00     0.035 H 
BRANCH  33  36
ATOM     36  CD  ARG d   1     -16.217  -6.865  13.951  0.00  0.00     0.009 C 
ATOM     37  H17 ARG d   1     -15.916  -6.480  12.966  0.00  0.00     0.064 H 
ATOM     38  H18 ARG d   1     -16.689  -6.059  14.531  0.00  0.00     0.064 H 
BRANCH  36  39
ATOM     39  NE  ARG d   1     -17.197  -7.959  13.761  0.00  0.00    -0.227 N 
ATOM     40  CZ  ARG d   1     -18.097  -8.350  14.637  0.00  0.00     0.665 C 
ATOM     41  NH1 ARG d   1     -18.194  -7.778  15.808  0.00  0.00    -0.235 N 
ATOM     42  NH2 ARG d   1     -18.881  -9.381  14.331  0.00  0.00    -0.235 N 
ATOM     43  H20 ARG d   1     -18.905  -8.098  16.480  0.00  0.00     0.174 HD
ATOM     44  H21 ARG d   1     -17.559  -7.007  16.059  0.00  0.00     0.174 HD
ATOM     45  H22 ARG d   1     -18.803  -9.831  13.408  0.00  0.00     0.174 HD
ATOM     46  H23 ARG d   1     -19.565  -9.729  15.018  0.00  0.00     0.174 HD
ATOM     47  H19 ARG d   1     -17.172  -8.459  12.861  0.00  0.00     0.177 HD
ENDBRANCH  36  39
ENDBRANCH  33  36
ENDBRANCH  30  33
ENDBRANCH   7  30
ENDBRANCH   4   7
ENDBRANCH   1   3
BRANCH   1  48
ATOM     48  C   SER d   1     -13.632 -12.890  13.103  0.00  0.00     0.243 C 
ATOM     49  O   SER d   1     -14.554 -12.200  12.694  0.00  0.00    -0.271 OA
ATOM     50  N   THR d   1     -12.958 -13.772  12.349  0.00  0.00    -0.344 N 
ATOM     51  H29 THR d   1     -12.214 -14.294  12.766  0.00  0.00     0.163 HD
BRANCH  50  52
ATOM     52  CA  THR d   1     -13.270 -13.994  10.953  0.00  0.00     0.113 C 
ATOM     53  H30 THR d   1     -13.707 -13.076  10.532  0.00  0.00     0.091 H 
BRANCH  52  54
ATOM     54  C   THR d   1     -14.246 -15.126  10.786  0.00  0.00     0.243 C 
ATOM     55  O   THR d   1     -14.032 -16.205  11.307  0.00  0.00    -0.271 OA
ATOM     56  N   SEP d   1     -15.278 -14.867  10.004  0.00  0.00    -0.344 N 
ATOM     57  H36 SEP d   1     -15.403 -13.929   9.681  0.00  0.00     0.163 HD
BRANCH  56  58
ATOM     58  CA  SEP d   1     -16.239 -15.870   9.588  0.00  0.00     0.110 C 
ATOM     59  H37 SEP d   1     -15.921 -16.841   9.996  0.00  0.00     0.090 H 
BRANCH  58  60
ATOM     60  CB  SEP d   1     -17.614 -15.582  10.108  0.00  0.00     0.059 C 
ATOM     61  H38 SEP d   1     -17.602 -15.543  11.207  0.00  0.00     0.079 H 
ATOM     62  H39 SEP d   1     -18.314 -16.363   9.777  0.00  0.00     0.079 H 
BRANCH  60  63
ATOM     63  OG  SEP d   1     -18.010 -14.297   9.569  0.00  0.00    -0.280 OA
BRANCH  63  64
ATOM     64  P   SEP d   1     -19.427 -13.679   9.990  0.00  0.00     0.422 P 
ATOM     65  O1P SEP d   1     -19.391 -13.351  11.465  0.00  0.00    -0.617 OA
ATOM     66  O2P SEP d   1     -20.470 -14.707   9.676  0.00  0.00    -0.617 OA
ATOM     67  O3P SEP d   1     -19.522 -12.434   9.142  0.00  0.00    -0.617 OA
ENDBRANCH  63  64
ENDBRANCH  60  63
ENDBRANCH  58  60
BRANCH  58  68
ATOM     68  C   SEP d   1     -16.240 -15.965   8.064  0.00  0.00     0.243 C 
ATOM     69  O   SEP d   1     -15.614 -15.129   7.412  0.00  0.00    -0.271 OA
ATOM     70  N   THR d   1     -16.921 -16.947   7.516  0.00  0.00    -0.342 N 
ATOM     71  H40 THR d   1     -17.402 -17.600   8.101  0.00  0.00     0.163 HD
BRANCH  70  72
ATOM     72  CA  THR d   1     -16.983 -17.093   6.095  0.00  0.00     0.120 C 
ATOM     73  H41 THR d   1     -16.720 -16.123   5.648  0.00  0.00     0.093 H 
BRANCH  72  74
ATOM     74  C   THR d   1     -18.417 -17.481   5.631  0.00  0.00     0.199 C 
ATOM     75  O   THR d   1     -19.161 -18.081   6.303  0.00  0.00    -0.646 OA
ATOM     76  OXT THR d   1     -18.726 -17.202   4.460  0.00  0.00    -0.646 OA
ENDBRANCH  72  74
BRANCH  72  77
ATOM     77  CB  THR d   1     -16.035 -18.119   5.578  0.00  0.00     0.061 C 
ATOM     78  H42 THR d   1     -15.063 -18.008   6.081  0.00  0.00     0.086 H 
BRANCH  77  79
ATOM     79  OG1 THR d   1     -15.826 -17.931   4.164  0.00  0.00    -0.393 OA
ATOM     80  H43 THR d   1     -15.465 -17.066   4.011  0.00  0.00     0.210 HD
ENDBRANCH  77  79
BRANCH  77  81
ATOM     81  CG2 THR d   1     -16.670 -19.570   5.983  0.00  0.00    -0.050 C 
ATOM     82  H44 THR d   1     -16.009 -20.373   5.625  0.00  0.00     0.031 H 
ATOM     83  H45 THR d   1     -17.662 -19.678   5.520  0.00  0.00     0.031 H 
ATOM     84  H46 THR d   1     -16.767 -19.636   7.077  0.00  0.00     0.031 H 
ENDBRANCH  77  81
ENDBRANCH  72  77
ENDBRANCH  70  72
ENDBRANCH  58  68
ENDBRANCH  56  58
ENDBRANCH  52  54
BRANCH  52  85
ATOM     85  CB  THR d   1     -11.963 -14.346  10.190  0.00  0.00     0.060 C 
ATOM     86  H31 THR d   1     -11.544 -15.268  10.619  0.00  0.00     0.086 H 
BRANCH  85  87
ATOM     87  OG1 THR d   1     -11.008 -13.309  10.333  0.00  0.00    -0.393 OA
ATOM     88  H32 THR d   1     -10.217 -13.541   9.861  0.00  0.00     0.210 HD
ENDBRANCH  85  87
BRANCH  85  89
ATOM     89  CG2 THR d   1     -12.258 -14.581   8.761  0.00  0.00    -0.050 C 
ATOM     90  H33 THR d   1     -11.327 -14.829   8.230  0.00  0.00     0.031 H 
ATOM     91  H34 THR d   1     -12.698 -13.673   8.323  0.00  0.00     0.031 H 
ATOM     92  H35 THR d   1     -12.968 -15.416   8.666  0.00  0.00     0.031 H 
ENDBRANCH  85  89
ENDBRANCH  52  85
ENDBRANCH  50  52
ENDBRANCH   1  48
BRANCH   1  93
ATOM     93  CB  SER d   1     -14.025 -13.632  15.423  0.00  0.00     0.044 C 
ATOM     94  H26 SER d   1     -14.023 -14.652  15.012  0.00  0.00     0.077 H 
ATOM     95  H27 SER d   1     -15.052 -13.238  15.423  0.00  0.00     0.077 H 
BRANCH  93  96
ATOM     96  OG  SER d   1     -13.542 -13.677  16.787  0.00  0.00    -0.398 OA
ATOM     97  H28 SER d   1     -13.546 -12.800  17.152  0.00  0.00     0.209 HD
ENDBRANCH  93  96
ENDBRANCH   1  93
TORSDOF 30
