REMARK  5 active torsions:
REMARK  status: ('A' for Active; 'I' for Inactive)
REMARK    1  A    between atoms: OAL_12  and  CAA_1 
REMARK    2  A    between atoms: SAR_18  and  CAB_2 
REMARK       I    between atoms: CAM_13  and  NAJ_10 
REMARK    3  A    between atoms: NAJ_10  and  SAR_18 
REMARK    4  A    between atoms: CAN_14  and  OAL_12 
REMARK    5  A    between atoms: CAM_13  and  CAO_15 
ROOT
ATOM      1  CAF A8D d   1      14.686  10.160  -4.768  0.00  0.00    -0.049 A 
ATOM      2  CAG A8D d   1      15.685  10.458  -3.823  0.00  0.00    -0.054 A 
ATOM      3  CAH A8D d   1      13.097   9.972  -2.952  0.00  0.00    -0.039 A 
ATOM      4  CAI A8D d   1      14.139  10.401  -0.728  0.00  0.00    -0.040 A 
ATOM      5  NAK A8D d   1      16.171  10.782  -1.472  0.00  0.00    -0.351 N 
ATOM      6  CAN A8D d   1      13.371   9.915  -4.352  0.00  0.00     0.069 A 
ATOM      7  CAO A8D d   1      15.397  10.717  -0.358  0.00  0.00     0.103 A 
ATOM      8  CAP A8D d   1      14.115  10.249  -2.070  0.00  0.00    -0.004 A 
ATOM      9  CAQ A8D d   1      15.383  10.502  -2.525  0.00  0.00     0.043 A 
ATOM     10  H7  A8D d   1      14.935  10.120  -5.822  0.00  0.00     0.087 H 
ATOM     11  H8  A8D d   1      16.700  10.652  -4.150  0.00  0.00     0.087 H 
ATOM     12  H9  A8D d   1      12.092   9.798  -2.586  0.00  0.00     0.089 H 
ATOM     13  H10 A8D d   1      13.287  10.288  -0.059  0.00  0.00     0.088 H 
ATOM     14  H12 A8D d   1      17.176  11.005  -1.504  0.00  0.00     0.166 HD
ENDROOT
BRANCH   7  15
ATOM     15  CAM A8D d   1      15.873  10.974   0.911  0.00  0.00     0.281 C 
ATOM     16  OAC A8D d   1      17.038  11.377   1.080  0.00  0.00    -0.265 OA
ATOM     17  NAJ A8D d   1      14.993  10.807   1.947  0.00  0.00    -0.249 N 
ATOM     18  H11 A8D d   1      14.066  10.475   1.772  0.00  0.00     0.182 HD
BRANCH  17  19
ATOM     19  SAR A8D d   1      15.506  11.182   3.593  0.00  0.00     0.229 S 
ATOM     20  OAD A8D d   1      16.801  10.492   3.829  0.00  0.00    -0.206 OA
ATOM     21  OAE A8D d   1      15.736  12.705   3.640  0.00  0.00    -0.206 OA
BRANCH  19  22
ATOM     22  CAB A8D d   1      14.282  10.541   4.706  0.00  0.00     0.033 C 
ATOM     23  H4  A8D d   1      14.208   9.451   4.581  0.00  0.00     0.051 H 
ATOM     24  H5  A8D d   1      13.308  11.002   4.485  0.00  0.00     0.051 H 
ATOM     25  H6  A8D d   1      14.571  10.773   5.742  0.00  0.00     0.051 H 
ENDBRANCH  19  22
ENDBRANCH  17  19
ENDBRANCH   7  15
BRANCH   6  26
ATOM     26  OAL A8D d   1      12.486   9.588  -5.344  0.00  0.00    -0.356 OA
BRANCH  26  27
ATOM     27  CAA A8D d   1      11.040   9.566  -5.206  0.00  0.00     0.010 C 
ATOM     28  H1  A8D d   1      10.585   9.268  -6.162  0.00  0.00     0.066 H 
ATOM     29  H2  A8D d   1      10.683  10.568  -4.927  0.00  0.00     0.066 H 
ATOM     30  H3  A8D d   1      10.757   8.845  -4.425  0.00  0.00     0.066 H 
ENDBRANCH  26  27
ENDBRANCH   6  26
TORSDOF 5
