REMARK  6 active torsions:
REMARK  status: ('A' for Active; 'I' for Inactive)
REMARK    1  A    between atoms: OAP_16  and  CAA_1 
REMARK    2  A    between atoms: CAR_18  and  CAB_2 
REMARK       I    between atoms: NAN_14  and  CAQ_17 
REMARK    3  A    between atoms: SAX_24  and  NAN_14 
REMARK    4  A    between atoms: CAS_19  and  OAP_16 
REMARK    5  A    between atoms: CAQ_17  and  CAU_21 
REMARK    6  A    between atoms: CAT_20  and  SAX_24 
ROOT
ATOM      1  OAC FG2 d   1      16.680  11.227   0.969  0.00  0.00    -0.265 OA
ATOM      2  NAN FG2 d   1      14.689  10.634   1.833  0.00  0.00    -0.243 N 
ATOM      3  CAQ FG2 d   1      15.522  10.847   0.799  0.00  0.00     0.281 C 
ATOM      4  H14 FG2 d   1      13.755  10.312   1.677  0.00  0.00     0.182 HD
ENDROOT
BRANCH   3   5
ATOM      5  CAU FG2 d   1      15.048  10.608  -0.449  0.00  0.00     0.103 A 
ATOM      6  CAL FG2 d   1      13.779  10.429  -0.857  0.00  0.00    -0.040 A 
ATOM      7  CAV FG2 d   1      13.827  10.225  -2.191  0.00  0.00    -0.004 A 
ATOM      8  H13 FG2 d   1      12.887  10.445  -0.233  0.00  0.00     0.088 H 
ATOM      9  CAK FG2 d   1      12.856   9.991  -3.100  0.00  0.00    -0.039 A 
ATOM     10  CAW FG2 d   1      15.122  10.268  -2.581  0.00  0.00     0.043 A 
ATOM     11  CAS FG2 d   1      13.190   9.799  -4.460  0.00  0.00     0.069 A 
ATOM     12  H12 FG2 d   1      11.819   9.950  -2.786  0.00  0.00     0.089 H 
ATOM     13  CAH FG2 d   1      14.528   9.856  -4.846  0.00  0.00    -0.049 A 
ATOM     14  CAI FG2 d   1      15.500  10.114  -3.877  0.00  0.00    -0.054 A 
ATOM     15  H9  FG2 d   1      14.810   9.703  -5.881  0.00  0.00     0.087 H 
ATOM     16  H10 FG2 d   1      16.545  10.191  -4.156  0.00  0.00     0.087 H 
ATOM     17  NAO FG2 d   1      15.855  10.499  -1.494  0.00  0.00    -0.351 N 
ATOM     18  H15 FG2 d   1      16.881  10.580  -1.469  0.00  0.00     0.166 HD
BRANCH  11  19
ATOM     19  OAP FG2 d   1      12.264   9.565  -5.436  0.00  0.00    -0.356 OA
BRANCH  19  20
ATOM     20  CAA FG2 d   1      10.877   9.410  -5.049  0.00  0.00     0.010 C 
ATOM     21  H1  FG2 d   1      10.264   9.229  -5.945  0.00  0.00     0.066 H 
ATOM     22  H2  FG2 d   1      10.531  10.326  -4.548  0.00  0.00     0.066 H 
ATOM     23  H3  FG2 d   1      10.781   8.557  -4.361  0.00  0.00     0.066 H 
ENDBRANCH  19  20
ENDBRANCH  11  19
ENDBRANCH   3   5
BRANCH   2  24
ATOM     24  SAX FG2 d   1      15.252  10.922   3.407  0.00  0.00     0.283 S 
ATOM     25  OAD FG2 d   1      14.178  10.350   4.349  0.00  0.00    -0.199 OA
ATOM     26  OAE FG2 d   1      15.465  12.399   3.704  0.00  0.00    -0.199 OA
BRANCH  24  27
ATOM     27  CAT FG2 d   1      16.752  10.012   3.706  0.00  0.00     0.171 A 
ATOM     28  CAG FG2 d   1      17.981  10.658   3.881  0.00  0.00    -0.042 A 
ATOM     29  CAF FG2 d   1      19.137   9.905   4.118  0.00  0.00    -0.073 A 
ATOM     30  H8  FG2 d   1      18.038  11.739   3.833  0.00  0.00     0.088 H 
ATOM     31  CAR FG2 d   1      19.048   8.514   4.183  0.00  0.00    -0.044 A 
ATOM     32  H7  FG2 d   1      20.093  10.398   4.250  0.00  0.00     0.084 H 
ATOM     33  CAJ FG2 d   1      17.818   7.898   4.005  0.00  0.00     0.009 A 
ATOM     34  NAM FG2 d   1      16.677   8.668   3.761  0.00  0.00    -0.247 NA
ATOM     35  H11 FG2 d   1      17.741   6.818   4.055  0.00  0.00     0.115 H 
BRANCH  31  36
ATOM     36  CAB FG2 d   1      20.176   7.720   4.420  0.00  0.00    -0.050 C 
ATOM     37  H4  FG2 d   1      21.060   8.364   4.537  0.00  0.00     0.033 H 
ATOM     38  H5  FG2 d   1      20.329   7.038   3.571  0.00  0.00     0.033 H 
ATOM     39  H6  FG2 d   1      20.025   7.134   5.339  0.00  0.00     0.033 H 
ENDBRANCH  31  36
ENDBRANCH  24  27
ENDBRANCH   2  24
TORSDOF 6
