REMARK  8 active torsions:
REMARK  status: ('A' for Active; 'I' for Inactive)
REMARK    1  A    between atoms: CA_4  and  C_1 
REMARK    2  A    between atoms: N_2  and  CA_4 
REMARK    3  A    between atoms: OAR_19  and  CAA_5 
REMARK    4  A    between atoms: CAU_21  and  CAB_6 
REMARK       I    between atoms: NAQ_18  and  CAT_20 
REMARK    5  A    between atoms: SBB_27  and  NAQ_18 
REMARK    6  A    between atoms: CAV_22  and  OAR_19 
REMARK    7  A    between atoms: CAT_20  and  CAX_24 
REMARK    8  A    between atoms: CAW_23  and  SBB_27 
ROOT
ATOM      1  N   FG3 d   1      16.093  10.350  -1.467  0.00  0.00    -0.332 N 
ATOM      2  CAJ FG3 d   1      14.580  10.023  -4.814  0.00  0.00    -0.049 A 
ATOM      3  CAK FG3 d   1      15.591  10.065  -3.855  0.00  0.00    -0.053 A 
ATOM      4  CAM FG3 d   1      12.995  10.472  -3.066  0.00  0.00    -0.039 A 
ATOM      5  CAN FG3 d   1      14.045  10.677  -0.817  0.00  0.00    -0.039 A 
ATOM      6  CAV FG3 d   1      13.257  10.210  -4.436  0.00  0.00     0.069 A 
ATOM      7  CAX FG3 d   1      15.317  10.575  -0.396  0.00  0.00     0.105 A 
ATOM      8  CAY FG3 d   1      14.012  10.479  -2.158  0.00  0.00    -0.004 A 
ATOM      9  CAZ FG3 d   1      15.289  10.273  -2.548  0.00  0.00     0.046 A 
ATOM     10  H11 FG3 d   1      14.827   9.844  -5.854  0.00  0.00     0.087 H 
ATOM     11  H12 FG3 d   1      16.624   9.931  -4.155  0.00  0.00     0.087 H 
ATOM     12  H14 FG3 d   1      11.980  10.668  -2.740  0.00  0.00     0.089 H 
ATOM     13  H15 FG3 d   1      13.183  10.884  -0.185  0.00  0.00     0.088 H 
ENDROOT
BRANCH   7  14
ATOM     14  CAT FG3 d   1      15.747  10.711   0.889  0.00  0.00     0.282 C 
ATOM     15  OAD FG3 d   1      16.950  10.794   1.198  0.00  0.00    -0.265 OA
ATOM     16  NAQ FG3 d   1      14.775  10.706   1.803  0.00  0.00    -0.243 N 
ATOM     17  H16 FG3 d   1      13.823  10.593   1.518  0.00  0.00     0.182 HD
BRANCH  16  18
ATOM     18  SBB FG3 d   1      15.142  10.886   3.406  0.00  0.00     0.283 S 
ATOM     19  OAE FG3 d   1      13.987  10.283   4.213  0.00  0.00    -0.199 OA
ATOM     20  OAF FG3 d   1      15.361  12.371   3.700  0.00  0.00    -0.199 OA
BRANCH  18  21
ATOM     21  CAW FG3 d   1      16.593   9.956   3.843  0.00  0.00     0.171 A 
ATOM     22  CAI FG3 d   1      17.706  10.618   4.376  0.00  0.00    -0.042 A 
ATOM     23  CAH FG3 d   1      18.846   9.875   4.698  0.00  0.00    -0.073 A 
ATOM     24  H10 FG3 d   1      17.684  11.690   4.537  0.00  0.00     0.088 H 
ATOM     25  CAU FG3 d   1      18.848   8.481   4.516  0.00  0.00    -0.044 A 
ATOM     26  H9  FG3 d   1      19.727  10.373   5.087  0.00  0.00     0.084 H 
ATOM     27  CAL FG3 d   1      17.716   7.843   3.989  0.00  0.00     0.009 A 
ATOM     28  NAP FG3 d   1      16.595   8.613   3.653  0.00  0.00    -0.247 NA
ATOM     29  H13 FG3 d   1      17.708   6.769   3.844  0.00  0.00     0.115 H 
BRANCH  25  30
ATOM     30  CAB FG3 d   1      19.985   7.709   4.847  0.00  0.00    -0.050 C 
ATOM     31  H6  FG3 d   1      20.772   8.367   5.244  0.00  0.00     0.033 H 
ATOM     32  H7  FG3 d   1      20.355   7.196   3.947  0.00  0.00     0.033 H 
ATOM     33  H8  FG3 d   1      19.713   6.963   5.608  0.00  0.00     0.033 H 
ENDBRANCH  25  30
ENDBRANCH  18  21
ENDBRANCH  16  18
ENDBRANCH   7  14
BRANCH   1  34
ATOM     34  CA  FG3 d   1      17.569  10.071  -1.613  0.00  0.00     0.080 C 
ATOM     35  H1  FG3 d   1      17.761   9.138  -1.064  0.00  0.00     0.081 H 
ATOM     36  H2  FG3 d   1      17.746   9.908  -2.686  0.00  0.00     0.081 H 
BRANCH  34  37
ATOM     37  C   FG3 d   1      18.620  11.052  -1.157  0.00  0.00     0.191 C 
ATOM     38  O   FG3 d   1      18.298  12.238  -0.952  0.00  0.00    -0.647 OA
ATOM     39  OXT FG3 d   1      19.774  10.563  -1.080  0.00  0.00    -0.647 OA
ENDBRANCH  34  37
ENDBRANCH   1  34
BRANCH   6  40
ATOM     40  OAR FG3 d   1      12.318  10.184  -5.446  0.00  0.00    -0.356 OA
BRANCH  40  41
ATOM     41  CAA FG3 d   1      11.054   9.608  -5.128  0.00  0.00     0.010 C 
ATOM     42  H3  FG3 d   1      10.400   9.648  -6.012  0.00  0.00     0.066 H 
ATOM     43  H4  FG3 d   1      10.591  10.171  -4.304  0.00  0.00     0.066 H 
ATOM     44  H5  FG3 d   1      11.195   8.560  -4.823  0.00  0.00     0.066 H 
ENDBRANCH  40  41
ENDBRANCH   6  40
TORSDOF 8
