REMARK  8 active torsions:
REMARK  status: ('A' for Active; 'I' for Inactive)
REMARK    1  A    between atoms: CA_4  and  C_1 
REMARK    2  A    between atoms: N_2  and  CA_4 
REMARK    3  A    between atoms: OAP_17  and  CAA_5 
REMARK    4  A    between atoms: OAQ_18  and  CAN_16 
REMARK    5  A    between atoms: CAN_16  and  CAV_22 
REMARK    6  A    between atoms: CAU_21  and  OAP_17 
REMARK    7  A    between atoms: CAT_20  and  OAQ_18 
REMARK    8  A    between atoms: CAT_20  and  CAW_23 
ROOT
ATOM      1  N   FG4 d   1      15.544  10.296  -1.263  0.00  0.00    -0.331 N 
ATOM      2  CAG FG4 d   1      14.317   9.658  -4.716  0.00  0.00    -0.049 A 
ATOM      3  CAJ FG4 d   1      15.271   9.794  -3.703  0.00  0.00    -0.053 A 
ATOM      4  CAK FG4 d   1      12.585  10.170  -3.077  0.00  0.00    -0.039 A 
ATOM      5  CAM FG4 d   1      13.447  10.584  -0.749  0.00  0.00    -0.039 A 
ATOM      6  CAU FG4 d   1      12.972   9.849  -4.394  0.00  0.00     0.069 A 
ATOM      7  CAW FG4 d   1      14.687  10.570  -0.258  0.00  0.00     0.112 A 
ATOM      8  CAY FG4 d   1      13.532  10.298  -2.067  0.00  0.00    -0.004 A 
ATOM      9  CBA FG4 d   1      14.875  10.104  -2.389  0.00  0.00     0.046 A 
ATOM     10  H8  FG4 d   1      14.615   9.410  -5.728  0.00  0.00     0.087 H 
ATOM     11  H11 FG4 d   1      16.322   9.660  -3.931  0.00  0.00     0.087 H 
ATOM     12  H12 FG4 d   1      11.536  10.319  -2.849  0.00  0.00     0.089 H 
ATOM     13  H14 FG4 d   1      12.534  10.788  -0.191  0.00  0.00     0.088 H 
ENDROOT
BRANCH   7  14
ATOM     14  CAT FG4 d   1      15.053  10.848   1.248  0.00  0.00     0.310 C 
ATOM     15  OAC FG4 d   1      16.095  10.400   1.724  0.00  0.00    -0.258 OA
BRANCH  14  16
ATOM     16  OAQ FG4 d   1      14.264  11.595   2.096  0.00  0.00    -0.310 OA
BRANCH  16  17
ATOM     17  CAN FG4 d   1      14.964  11.901   3.246  0.00  0.00     0.073 C 
ATOM     18  H15 FG4 d   1      14.595  12.868   3.618  0.00  0.00     0.085 H 
ATOM     19  H16 FG4 d   1      16.027  11.993   2.979  0.00  0.00     0.085 H 
BRANCH  17  20
ATOM     20  CAV FG4 d   1      14.854  10.890   4.384  0.00  0.00     0.078 A 
ATOM     21  CAL FG4 d   1      13.824  10.849   5.205  0.00  0.00    -0.040 A 
ATOM     22  CAX FG4 d   1      13.986   9.857   6.064  0.00  0.00     0.000 A 
ATOM     23  H13 FG4 d   1      12.972  11.527   5.180  0.00  0.00     0.088 H 
ATOM     24  CAH FG4 d   1      13.199   9.428   7.121  0.00  0.00    -0.070 A 
ATOM     25  CAZ FG4 d   1      15.182   9.229   5.746  0.00  0.00     0.086 A 
ATOM     26  CAE FG4 d   1      13.609   8.345   7.869  0.00  0.00    -0.082 A 
ATOM     27  H9  FG4 d   1      12.272   9.938   7.357  0.00  0.00     0.084 H 
ATOM     28  CAF FG4 d   1      14.808   7.713   7.561  0.00  0.00    -0.080 A 
ATOM     29  H6  FG4 d   1      13.000   7.989   8.692  0.00  0.00     0.083 H 
ATOM     30  CAI FG4 d   1      15.610   8.155   6.515  0.00  0.00    -0.049 A 
ATOM     31  H7  FG4 d   1      15.124   6.858   8.148  0.00  0.00     0.083 H 
ATOM     32  H10 FG4 d   1      16.555   7.668   6.303  0.00  0.00     0.087 H 
ATOM     33  OAR FG4 d   1      15.724   9.884   4.669  0.00  0.00    -0.312 OA
ENDBRANCH  17  20
ENDBRANCH  16  17
ENDBRANCH  14  16
ENDBRANCH   7  14
BRANCH   1  34
ATOM     34  CA  FG4 d   1      17.027  10.161  -1.212  0.00  0.00     0.080 C 
ATOM     35  H1  FG4 d   1      17.267   9.358  -0.499  0.00  0.00     0.081 H 
ATOM     36  H2  FG4 d   1      17.374   9.876  -2.216  0.00  0.00     0.081 H 
BRANCH  34  37
ATOM     37  C   FG4 d   1      17.811  11.429  -0.781  0.00  0.00     0.191 C 
ATOM     38  O   FG4 d   1      17.215  12.523  -0.631  0.00  0.00    -0.647 OA
ATOM     39  OXT FG4 d   1      19.043  11.244  -0.629  0.00  0.00    -0.647 OA
ENDBRANCH  34  37
ENDBRANCH   1  34
BRANCH   6  40
ATOM     40  OAP FG4 d   1      12.043   9.738  -5.377  0.00  0.00    -0.356 OA
BRANCH  40  41
ATOM     41  CAA FG4 d   1      10.991   8.877  -5.013  0.00  0.00     0.010 C 
ATOM     42  H3  FG4 d   1      10.264   8.817  -5.837  0.00  0.00     0.066 H 
ATOM     43  H4  FG4 d   1      10.493   9.266  -4.112  0.00  0.00     0.066 H 
ATOM     44  H5  FG4 d   1      11.393   7.874  -4.805  0.00  0.00     0.066 H 
ENDBRANCH  40  41
ENDBRANCH   6  40
TORSDOF 8
