REMARK  7 active torsions:
REMARK  status: ('A' for Active; 'I' for Inactive)
REMARK    1  A    between atoms: CA_4  and  C_1 
REMARK    2  A    between atoms: N_2  and  CA_4 
REMARK    3  A    between atoms: OAR_19  and  CAA_5 
REMARK       I    between atoms: NAQ_18  and  CAU_21 
REMARK    4  A    between atoms: SBD_29  and  NAQ_18 
REMARK    5  A    between atoms: CAV_22  and  OAR_19 
REMARK    6  A    between atoms: CAU_21  and  CAX_24 
REMARK    7  A    between atoms: CAW_23  and  SBD_29 
ROOT
ATOM      1  N   FG6 d   1      16.174  10.338  -1.378  0.00  0.00    -0.332 N 
ATOM      2  CAI FG6 d   1      14.712   9.878  -4.705  0.00  0.00    -0.049 A 
ATOM      3  CAL FG6 d   1      15.712   9.965  -3.742  0.00  0.00    -0.053 A 
ATOM      4  CAM FG6 d   1      13.111  10.340  -2.969  0.00  0.00    -0.039 A 
ATOM      5  CAO FG6 d   1      14.129  10.638  -0.725  0.00  0.00    -0.039 A 
ATOM      6  CAV FG6 d   1      13.391  10.061  -4.329  0.00  0.00     0.069 A 
ATOM      7  CAX FG6 d   1      15.411  10.590  -0.313  0.00  0.00     0.105 A 
ATOM      8  CAZ FG6 d   1      14.108  10.415  -2.056  0.00  0.00    -0.004 A 
ATOM      9  CBB FG6 d   1      15.388  10.220  -2.447  0.00  0.00     0.046 A 
ATOM     10  H8  FG6 d   1      14.963   9.669  -5.739  0.00  0.00     0.087 H 
ATOM     11  H11 FG6 d   1      16.750   9.829  -4.024  0.00  0.00     0.087 H 
ATOM     12  H12 FG6 d   1      12.085  10.495  -2.655  0.00  0.00     0.089 H 
ATOM     13  H14 FG6 d   1      13.261  10.824  -0.094  0.00  0.00     0.088 H 
ENDROOT
BRANCH   7  14
ATOM     14  CAU FG6 d   1      15.892  10.765   0.953  0.00  0.00     0.282 C 
ATOM     15  OAC FG6 d   1      17.019  10.367   1.291  0.00  0.00    -0.265 OA
ATOM     16  NAQ FG6 d   1      15.074  11.375   1.816  0.00  0.00    -0.243 N 
ATOM     17  H15 FG6 d   1      14.162  11.653   1.516  0.00  0.00     0.182 HD
BRANCH  16  18
ATOM     18  SBD FG6 d   1      15.554  11.684   3.401  0.00  0.00     0.287 S 
ATOM     19  OAD FG6 d   1      15.149  13.072   3.742  0.00  0.00    -0.198 OA
ATOM     20  OAE FG6 d   1      17.067  11.671   3.583  0.00  0.00    -0.198 OA
BRANCH  18  21
ATOM     21  CAW FG6 d   1      14.864  10.652   4.447  0.00  0.00     0.191 A 
ATOM     22  CAN FG6 d   1      14.767  10.974   5.722  0.00  0.00    -0.025 A 
ATOM     23  CAY FG6 d   1      14.188   9.999   6.398  0.00  0.00     0.001 A 
ATOM     24  H13 FG6 d   1      15.115  11.911   6.155  0.00  0.00     0.090 H 
ATOM     25  CAJ FG6 d   1      13.885   9.921   7.690  0.00  0.00    -0.070 A 
ATOM     26  CBA FG6 d   1      13.907   9.016   5.528  0.00  0.00     0.087 A 
ATOM     27  CAG FG6 d   1      13.269   8.783   8.185  0.00  0.00    -0.082 A 
ATOM     28  H9  FG6 d   1      14.119  10.745   8.354  0.00  0.00     0.084 H 
ATOM     29  CAH FG6 d   1      12.981   7.744   7.301  0.00  0.00    -0.080 A 
ATOM     30  H6  FG6 d   1      13.017   8.702   9.236  0.00  0.00     0.083 H 
ATOM     31  CAK FG6 d   1      13.316   7.894   5.952  0.00  0.00    -0.049 A 
ATOM     32  H7  FG6 d   1      12.506   6.836   7.654  0.00  0.00     0.083 H 
ATOM     33  H10 FG6 d   1      13.096   7.099   5.248  0.00  0.00     0.087 H 
ATOM     34  OAS FG6 d   1      14.366   9.472   4.200  0.00  0.00    -0.296 OA
ENDBRANCH  18  21
ENDBRANCH  16  18
ENDBRANCH   7  14
BRANCH   1  35
ATOM     35  CA  FG6 d   1      17.649  10.128  -1.598  0.00  0.00     0.080 C 
ATOM     36  H1  FG6 d   1      17.879   9.114  -1.239  0.00  0.00     0.081 H 
ATOM     37  H2  FG6 d   1      17.815  10.179  -2.684  0.00  0.00     0.081 H 
BRANCH  35  38
ATOM     38  C   FG6 d   1      18.671  11.057  -0.958  0.00  0.00     0.191 C 
ATOM     39  O   FG6 d   1      18.315  12.171  -0.558  0.00  0.00    -0.647 OA
ATOM     40  OXT FG6 d   1      19.834  10.602  -0.919  0.00  0.00    -0.647 OA
ENDBRANCH  35  38
ENDBRANCH   1  35
BRANCH   6  41
ATOM     41  OAR FG6 d   1      12.462   9.952  -5.334  0.00  0.00    -0.356 OA
BRANCH  41  42
ATOM     42  CAA FG6 d   1      11.075   9.757  -5.010  0.00  0.00     0.010 C 
ATOM     43  H3  FG6 d   1      10.487   9.693  -5.938  0.00  0.00     0.066 H 
ATOM     44  H4  FG6 d   1      10.717  10.604  -4.407  0.00  0.00     0.066 H 
ATOM     45  H5  FG6 d   1      10.960   8.825  -4.438  0.00  0.00     0.066 H 
ENDBRANCH  41  42
ENDBRANCH   6  41
TORSDOF 7
