REMARK  9 active torsions:
REMARK  status: ('A' for Active; 'I' for Inactive)
REMARK    1  A    between atoms: CAU_21  and  CAR_18 
REMARK    2  A    between atoms: CAR_18  and  NAW_23 
REMARK    3  A    between atoms: NBL_38  and  CAU_21 
REMARK    4  A    between atoms: SBA_27  and  CAV_22 
REMARK    5  A    between atoms: CAV_22  and  CBB_28 
REMARK       I    between atoms: NAW_23  and  CBC_29 
REMARK       I    between atoms: CBB_28  and  NAX_24 
REMARK    6  A    between atoms: NAX_24  and  CBD_30 
REMARK    7  A    between atoms: CBI_35  and  SBA_27 
REMARK    8  A    between atoms: CBC_29  and  CBE_31 
REMARK    9  A    between atoms: CBF_32  and  CBM_39 
ROOT
ATOM      1  CAG DF3 d   1      17.621   3.612 -23.546  0.00  0.00    -0.082 A 
ATOM      2  CAH DF3 d   1      17.531   3.938 -22.200  0.00  0.00    -0.081 A 
ATOM      3  CAM DF3 d   1      18.082   2.361 -23.922  0.00  0.00    -0.070 A 
ATOM      4  CAN DF3 d   1      17.915   2.992 -21.239  0.00  0.00    -0.056 A 
ATOM      5  CAQ DF3 d   1      19.162  -0.303 -21.796  0.00  0.00    -0.003 A 
ATOM      6  CBI DF3 d   1      18.955   0.130 -23.023  0.00  0.00     0.029 A 
ATOM      7  CBJ DF3 d   1      18.468   1.427 -22.973  0.00  0.00     0.009 A 
ATOM      8  CBK DF3 d   1      18.394   1.740 -21.633  0.00  0.00     0.045 A 
ATOM      9  NBL DF3 d   1      18.829   0.670 -20.973  0.00  0.00    -0.353 N 
ATOM     10  H2  DF3 d   1      17.331   4.334 -24.301  0.00  0.00     0.083 H 
ATOM     11  H3  DF3 d   1      17.168   4.913 -21.895  0.00  0.00     0.083 H 
ATOM     12  H8  DF3 d   1      18.142   2.108 -24.974  0.00  0.00     0.085 H 
ATOM     13  H9  DF3 d   1      17.840   3.233 -20.185  0.00  0.00     0.087 H 
ATOM     14  H12 DF3 d   1      19.539  -1.285 -21.514  0.00  0.00     0.113 H 
ENDROOT
BRANCH   6  15
ATOM     15  SBA DF3 d   1      19.300  -0.861 -24.440  0.00  0.00    -0.118 SA
BRANCH  15  16
ATOM     16  CAV DF3 d   1      21.029  -0.423 -24.780  0.00  0.00     0.055 C 
ATOM     17  H21 DF3 d   1      21.402  -1.014 -25.630  0.00  0.00     0.063 H 
ATOM     18  H22 DF3 d   1      21.645  -0.628 -23.892  0.00  0.00     0.063 H 
BRANCH  16  19
ATOM     19  CBB DF3 d   1      21.091   1.032 -25.112  0.00  0.00     0.231 C 
ATOM     20  OAA DF3 d   1      20.815   1.400 -26.237  0.00  0.00    -0.272 OA
ATOM     21  NAX DF3 d   1      21.444   1.821 -24.122  0.00  0.00    -0.326 N 
ATOM     22  H24 DF3 d   1      21.705   1.445 -23.233  0.00  0.00     0.169 HD
BRANCH  21  23
ATOM     23  CBD DF3 d   1      21.444   3.098 -24.331  0.00  0.00     0.037 A 
ATOM     24  CAK DF3 d   1      21.551   3.577 -25.619  0.00  0.00    -0.054 A 
ATOM     25  CAL DF3 d   1      21.506   4.933 -25.902  0.00  0.00    -0.046 A 
ATOM     26  H6  DF3 d   1      21.674   2.873 -26.434  0.00  0.00     0.087 H 
ATOM     27  CBG DF3 d   1      21.317   5.809 -24.876  0.00  0.00     0.102 A 
ATOM     28  H7  DF3 d   1      21.619   5.289 -26.919  0.00  0.00     0.087 H 
ATOM     29  OAY DF3 d   1      21.275   7.118 -25.214  0.00  0.00    -0.346 OA
ATOM     30  CBH DF3 d   1      21.165   5.324 -23.580  0.00  0.00     0.104 A 
ATOM     31  CAS DF3 d   1      21.256   7.950 -24.063  0.00  0.00     0.046 C 
ATOM     32  CAT DF3 d   1      20.321   7.319 -23.058  0.00  0.00     0.046 C 
ATOM     33  H15 DF3 d   1      22.268   8.025 -23.638  0.00  0.00     0.078 H 
ATOM     34  H16 DF3 d   1      20.895   8.954 -24.332  0.00  0.00     0.078 H 
ATOM     35  OAZ DF3 d   1      20.986   6.160 -22.552  0.00  0.00    -0.346 OA
ATOM     36  H17 DF3 d   1      19.378   7.032 -23.545  0.00  0.00     0.078 H 
ATOM     37  H18 DF3 d   1      20.112   8.024 -22.240  0.00  0.00     0.078 H 
ATOM     38  CAO DF3 d   1      21.213   3.974 -23.292  0.00  0.00    -0.022 A 
ATOM     39  H10 DF3 d   1      21.073   3.614 -22.279  0.00  0.00     0.091 H 
ENDBRANCH  21  23
ENDBRANCH  16  19
ENDBRANCH  15  16
ENDBRANCH   6  15
BRANCH   9  40
ATOM     40  CAU DF3 d   1      18.962   0.546 -19.518  0.00  0.00     0.014 C 
ATOM     41  H19 DF3 d   1      18.176   1.128 -19.014  0.00  0.00     0.067 H 
ATOM     42  H20 DF3 d   1      18.886  -0.510 -19.218  0.00  0.00     0.067 H 
BRANCH  40  43
ATOM     43  CAR DF3 d   1      20.361   1.107 -19.152  0.00  0.00     0.011 C 
ATOM     44  H13 DF3 d   1      20.433   1.300 -18.072  0.00  0.00     0.066 H 
ATOM     45  H14 DF3 d   1      20.565   2.036 -19.705  0.00  0.00     0.066 H 
BRANCH  43  46
ATOM     46  NAW DF3 d   1      21.290   0.050 -19.553  0.00  0.00    -0.355 N 
ATOM     47  CBC DF3 d   1      22.086   0.099 -20.656  0.00  0.00     0.251 C 
ATOM     48  OAB DF3 d   1      22.133   1.021 -21.474  0.00  0.00    -0.268 OA
ATOM     49  H23 DF3 d   1      21.344  -0.765 -18.976  0.00  0.00     0.162 HD
BRANCH  47  50
ATOM     50  CBE DF3 d   1      22.918  -1.167 -20.875  0.00  0.00     0.032 A 
ATOM     51  CAI DF3 d   1      24.123  -1.100 -21.575  0.00  0.00    -0.068 A 
ATOM     52  CAF DF3 d   1      24.849  -2.267 -21.795  0.00  0.00    -0.081 A 
ATOM     53  H4  DF3 d   1      24.490  -0.149 -21.944  0.00  0.00     0.085 H 
ATOM     54  CAJ DF3 d   1      24.372  -3.487 -21.318  0.00  0.00    -0.068 A 
ATOM     55  H1  DF3 d   1      25.786  -2.227 -22.338  0.00  0.00     0.083 H 
ATOM     56  CBF DF3 d   1      23.160  -3.562 -20.632  0.00  0.00     0.048 A 
ATOM     57  H5  DF3 d   1      24.951  -4.389 -21.482  0.00  0.00     0.084 H 
ATOM     58  CAP DF3 d   1      22.419  -2.409 -20.416  0.00  0.00    -0.053 A 
ATOM     59  H11 DF3 d   1      21.467  -2.459 -19.901  0.00  0.00     0.086 H 
BRANCH  56  60
ATOM     60  CBM DF3 d   1      22.693  -4.935 -20.149  0.00  0.00     0.417 C 
ATOM     61  FAC DF3 d   1      23.475  -5.422 -19.231  0.00  0.00    -0.166 F 
ATOM     62  FAD DF3 d   1      21.550  -4.901 -19.574  0.00  0.00    -0.166 F 
ATOM     63  FAE DF3 d   1      22.589  -5.752 -21.193  0.00  0.00    -0.166 F 
ENDBRANCH  56  60
ENDBRANCH  47  50
ENDBRANCH  43  46
ENDBRANCH  40  43
ENDBRANCH   9  40
TORSDOF 9
