REMARK  11 active torsions:
REMARK  status: ('A' for Active; 'I' for Inactive)
REMARK    1  A    between atoms: CAL_12  and  CAA_1 
REMARK    2  A    between atoms: CAM_13  and  CAB_2 
REMARK    3  A    between atoms: CAW_23  and  CAC_3 
REMARK    4  A    between atoms: CAX_24  and  CAD_4 
REMARK    5  A    between atoms: OAS_19  and  CAL_12 
REMARK    6  A    between atoms: NBC_29  and  CAM_13 
REMARK    7  A    between atoms: CAR_18  and  CAV_22 
REMARK    8  A    between atoms: NBA_27  and  CAR_18 
REMARK    9  A    between atoms: CAT_20  and  OAS_19 
REMARK   10  A    between atoms: CAZ_26  and  CAT_20 
REMARK   11  A    between atoms: CAY_25  and  CAU_21 
REMARK       I    between atoms: CAU_21  and  NBB_28 
ROOT
ATOM      1  OAF PP0 d   1     -18.656  -2.379   7.465  0.00  0.00    -0.267 OA
ATOM      2  CAN PP0 d   1     -18.353  -3.108   2.983  0.00  0.00     0.099 C 
ATOM      3  CAO PP0 d   1     -16.536  -3.628   4.598  0.00  0.00     0.099 C 
ATOM      4  CAP PP0 d   1     -18.791  -1.962   3.894  0.00  0.00     0.021 C 
ATOM      5  CAQ PP0 d   1     -16.856  -2.426   5.438  0.00  0.00     0.021 C 
ATOM      6  CAU PP0 d   1     -19.113  -2.175   6.347  0.00  0.00     0.256 C 
ATOM      7  NBA PP0 d   1     -16.909  -3.418   3.182  0.00  0.00    -0.064 N 
ATOM      8  NBB PP0 d   1     -18.301  -2.180   5.270  0.00  0.00    -0.345 N 
ATOM      9  H22 PP0 d   1     -18.519  -2.819   1.935  0.00  0.00     0.078 H 
ATOM     10  H23 PP0 d   1     -18.950  -4.002   3.216  0.00  0.00     0.078 H 
ATOM     11  H24 PP0 d   1     -17.090  -4.494   4.988  0.00  0.00     0.078 H 
ATOM     12  H25 PP0 d   1     -15.456  -3.827   4.657  0.00  0.00     0.078 H 
ATOM     13  H26 PP0 d   1     -19.890  -1.908   3.905  0.00  0.00     0.067 H 
ATOM     14  H27 PP0 d   1     -18.381  -1.016   3.509  0.00  0.00     0.067 H 
ATOM     15  H28 PP0 d   1     -16.278  -1.555   5.094  0.00  0.00     0.067 H 
ATOM     16  H29 PP0 d   1     -16.623  -2.626   6.494  0.00  0.00     0.067 H 
ATOM     17  H32 PP0 d   1     -16.339  -2.685   2.790  0.00  0.00     0.280 HD
ENDROOT
BRANCH   6  18
ATOM     18  CAY PP0 d   1     -20.611  -1.938   6.211  0.00  0.00     0.062 A 
ATOM     19  CAW PP0 d   1     -21.236  -0.774   5.819  0.00  0.00    -0.011 A 
ATOM     20  CAZ PP0 d   1     -22.608  -1.035   5.857  0.00  0.00     0.117 A 
ATOM     21  NBC PP0 d   1     -22.788  -2.301   6.244  0.00  0.00    -0.345 N 
ATOM     22  CAX PP0 d   1     -21.614  -2.859   6.469  0.00  0.00     0.024 A 
BRANCH  19  23
ATOM     23  CAC PP0 d   1     -20.520   0.516   5.420  0.00  0.00    -0.048 C 
ATOM     24  H7  PP0 d   1     -19.433   0.373   5.505  0.00  0.00     0.033 H 
ATOM     25  H8  PP0 d   1     -20.836   1.332   6.087  0.00  0.00     0.033 H 
ATOM     26  H9  PP0 d   1     -20.776   0.771   4.381  0.00  0.00     0.033 H 
ENDBRANCH  19  23
BRANCH  20  27
ATOM     27  CAT PP0 d   1     -23.751  -0.090   5.480  0.00  0.00     0.310 C 
ATOM     28  OAE PP0 d   1     -23.506   0.979   4.915  0.00  0.00    -0.258 OA
BRANCH  27  29
ATOM     29  OAS PP0 d   1     -25.043  -0.483   5.738  0.00  0.00    -0.317 OA
BRANCH  29  30
ATOM     30  CAL PP0 d   1     -26.130   0.404   5.319  0.00  0.00     0.026 C 
ATOM     31  H18 PP0 d   1     -25.793   1.448   5.395  0.00  0.00     0.074 H 
ATOM     32  H19 PP0 d   1     -26.397   0.180   4.276  0.00  0.00     0.074 H 
BRANCH  30  33
ATOM     33  CAA PP0 d   1     -27.376   0.205   6.216  0.00  0.00    -0.056 C 
ATOM     34  H1  PP0 d   1     -28.178   0.880   5.884  0.00  0.00     0.030 H 
ATOM     35  H2  PP0 d   1     -27.116   0.431   7.261  0.00  0.00     0.030 H 
ATOM     36  H3  PP0 d   1     -27.719  -0.837   6.141  0.00  0.00     0.030 H 
ENDBRANCH  30  33
ENDBRANCH  29  30
ENDBRANCH  27  29
ENDBRANCH  20  27
BRANCH  21  37
ATOM     37  CAM PP0 d   1     -24.079  -2.987   6.426  0.00  0.00    -0.003 C 
ATOM     38  H20 PP0 d   1     -23.942  -3.819   7.133  0.00  0.00     0.064 H 
ATOM     39  H21 PP0 d   1     -24.806  -2.272   6.838  0.00  0.00     0.064 H 
BRANCH  37  40
ATOM     40  CAB PP0 d   1     -24.635  -3.552   5.089  0.00  0.00    -0.061 C 
ATOM     41  H4  PP0 d   1     -25.596  -4.053   5.274  0.00  0.00     0.029 H 
ATOM     42  H5  PP0 d   1     -23.919  -4.275   4.670  0.00  0.00     0.029 H 
ATOM     43  H6  PP0 d   1     -24.783  -2.728   4.376  0.00  0.00     0.029 H 
ENDBRANCH  37  40
ENDBRANCH  21  37
BRANCH  22  44
ATOM     44  CAD PP0 d   1     -21.438  -4.295   6.929  0.00  0.00    -0.036 C 
ATOM     45  H10 PP0 d   1     -20.366  -4.515   7.043  0.00  0.00     0.035 H 
ATOM     46  H11 PP0 d   1     -21.874  -4.975   6.183  0.00  0.00     0.035 H 
ATOM     47  H12 PP0 d   1     -21.946  -4.436   7.894  0.00  0.00     0.035 H 
ENDBRANCH  22  44
ENDBRANCH   6  18
BRANCH   7  48
ATOM     48  CAR PP0 d   1     -16.711  -4.687   2.471  0.00  0.00     0.107 C 
ATOM     49  H30 PP0 d   1     -17.311  -5.463   2.969  0.00  0.00     0.083 H 
ATOM     50  H31 PP0 d   1     -17.058  -4.563   1.435  0.00  0.00     0.083 H 
BRANCH  48  51
ATOM     51  CAV PP0 d   1     -15.238  -5.153   2.441  0.00  0.00    -0.033 A 
ATOM     52  CAJ PP0 d   1     -14.924  -6.428   2.910  0.00  0.00    -0.075 A 
ATOM     53  CAH PP0 d   1     -13.604  -6.887   2.868  0.00  0.00    -0.082 A 
ATOM     54  H16 PP0 d   1     -15.705  -7.065   3.308  0.00  0.00     0.084 H 
ATOM     55  CAG PP0 d   1     -12.587  -6.068   2.360  0.00  0.00    -0.083 A 
ATOM     56  H14 PP0 d   1     -13.366  -7.881   3.230  0.00  0.00     0.083 H 
ATOM     57  CAI PP0 d   1     -12.913  -4.789   1.895  0.00  0.00    -0.082 A 
ATOM     58  H13 PP0 d   1     -11.562  -6.420   2.328  0.00  0.00     0.083 H 
ATOM     59  CAK PP0 d   1     -14.239  -4.326   1.925  0.00  0.00    -0.075 A 
ATOM     60  H15 PP0 d   1     -12.131  -4.146   1.506  0.00  0.00     0.083 H 
ATOM     61  H17 PP0 d   1     -14.483  -3.338   1.552  0.00  0.00     0.084 H 
ENDBRANCH  48  51
ENDBRANCH   7  48
TORSDOF 11
