REMARK  12 active torsions:
REMARK  status: ('A' for Active; 'I' for Inactive)
REMARK    1  A    between atoms: C4_2  and  C5_3 
REMARK    2  A    between atoms: C5_3  and  C6_4 
REMARK    3  A    between atoms: C6_4  and  C7_5 
REMARK    4  A    between atoms: C6_4  and  N10_8 
REMARK       I    between atoms: N10_8  and  C11_9 
REMARK       I    between atoms: C11_9  and  N12_10 
REMARK    5  A    between atoms: N12_10  and  C13_11 
REMARK    6  A    between atoms: C13_11  and  C14_12 
REMARK    7  A    between atoms: C13_11  and  C28_26 
REMARK    8  A    between atoms: C14_12  and  C15_13 
REMARK    9  A    between atoms: C15_13  and  C16_14 
REMARK   10  A    between atoms: C16_14  and  C17_15 
REMARK   11  A    between atoms: C17_15  and  N18_16 
REMARK       I    between atoms: N18_16  and  C19_17 
REMARK   12  A    between atoms: C19_17  and  C20_18 
ROOT
ATOM      1  C14 YZE d   1      20.922  45.712  43.054  0.00  0.00    -0.036 C 
ATOM      2  H10 YZE d   1      20.950  46.790  43.272  0.00  0.00     0.036 H 
ATOM      3  H11 YZE d   1      20.546  45.554  42.032  0.00  0.00     0.036 H 
ENDROOT
BRANCH   1   4
ATOM      4  C13 YZE d   1      19.921  45.047  44.043  0.00  0.00     0.098 C 
ATOM      5  H9  YZE d   1      20.100  43.963  44.105  0.00  0.00     0.089 H 
BRANCH   4   6
ATOM      6  N12 YZE d   1      18.602  45.336  43.489  0.00  0.00    -0.329 N 
ATOM      7  C11 YZE d   1      18.060  44.584  42.549  0.00  0.00     0.317 C 
ATOM      8  N10 YZE d   1      16.910  45.031  42.095  0.00  0.00    -0.328 N 
ATOM      9  O31 YZE d   1      18.584  43.533  42.134  0.00  0.00    -0.247 OA
ATOM     10  H7  YZE d   1      16.490  45.850  42.486  0.00  0.00     0.165 HD
ATOM     11  H8  YZE d   1      18.094  46.127  43.831  0.00  0.00     0.165 HD
BRANCH   8  12
ATOM     12  C6  YZE d   1      16.268  44.315  41.021  0.00  0.00     0.101 C 
ATOM     13  H6  YZE d   1      16.155  43.253  41.283  0.00  0.00     0.090 H 
BRANCH  12  14
ATOM     14  C5  YZE d   1      14.883  44.884  40.684  0.00  0.00    -0.022 C 
ATOM     15  H4  YZE d   1      14.466  44.315  39.840  0.00  0.00     0.042 H 
ATOM     16  H5  YZE d   1      14.232  44.766  41.563  0.00  0.00     0.042 H 
BRANCH  14  17
ATOM     17  C4  YZE d   1      14.922  46.354  40.304  0.00  0.00    -0.110 C 
ATOM     18  C2  YZE d   1      13.788  47.121  40.471  0.00  0.00    -0.125 C 
ATOM     19  H1  YZE d   1      13.800  48.176  40.203  0.00  0.00     0.066 H 
ATOM     20  H2  YZE d   1      12.880  46.671  40.871  0.00  0.00     0.066 H 
ATOM     21  H3  YZE d   1      15.834  46.797  39.905  0.00  0.00     0.075 H 
ENDBRANCH  14  17
ENDBRANCH  12  14
BRANCH  12  22
ATOM     22  C7  YZE d   1      17.272  44.479  39.844  0.00  0.00     0.197 C 
ATOM     23  O8  YZE d   1      17.186  43.679  38.863  0.00  0.00    -0.646 OA
ATOM     24  O9  YZE d   1      18.187  45.329  39.988  0.00  0.00    -0.646 OA
ENDBRANCH  12  22
ENDBRANCH   8  12
ENDBRANCH   4   6
BRANCH   4  25
ATOM     25  C28 YZE d   1      20.005  45.677  45.458  0.00  0.00     0.196 C 
ATOM     26  O29 YZE d   1      19.544  46.844  45.647  0.00  0.00    -0.646 OA
ATOM     27  O30 YZE d   1      20.435  44.930  46.348  0.00  0.00    -0.646 OA
ENDBRANCH   4  25
ENDBRANCH   1   4
BRANCH   1  28
ATOM     28  C15 YZE d   1      22.367  45.174  43.119  0.00  0.00    -0.061 C 
ATOM     29  H12 YZE d   1      22.346  44.116  42.819  0.00  0.00     0.033 H 
ATOM     30  H13 YZE d   1      22.709  45.253  44.161  0.00  0.00     0.033 H 
BRANCH  28  31
ATOM     31  C16 YZE d   1      23.421  45.915  42.206  0.00  0.00    -0.050 C 
ATOM     32  H14 YZE d   1      23.160  45.714  41.157  0.00  0.00     0.035 H 
ATOM     33  H15 YZE d   1      24.413  45.493  42.424  0.00  0.00     0.035 H 
BRANCH  31  34
ATOM     34  C17 YZE d   1      23.505  47.454  42.391  0.00  0.00    -0.004 C 
ATOM     35  H16 YZE d   1      22.582  47.908  42.001  0.00  0.00     0.064 H 
ATOM     36  H17 YZE d   1      24.368  47.832  41.823  0.00  0.00     0.064 H 
BRANCH  34  37
ATOM     37  N18 YZE d   1      23.664  47.845  43.819  0.00  0.00    -0.357 N 
ATOM     38  C19 YZE d   1      23.174  49.004  44.292  0.00  0.00     0.251 C 
ATOM     39  O27 YZE d   1      22.520  49.751  43.568  0.00  0.00    -0.268 OA
ATOM     40  H18 YZE d   1      24.148  47.230  44.442  0.00  0.00     0.162 HD
BRANCH  38  41
ATOM     41  C20 YZE d   1      23.287  49.319  45.824  0.00  0.00     0.032 A 
ATOM     42  C21 YZE d   1      22.725  50.498  46.400  0.00  0.00    -0.067 A 
ATOM     43  C22 YZE d   1      22.822  50.770  47.808  0.00  0.00    -0.066 A 
ATOM     44  H19 YZE d   1      22.212  51.206  45.759  0.00  0.00     0.085 H 
ATOM     45  C23 YZE d   1      23.485  49.906  48.713  0.00  0.00     0.006 A 
ATOM     46  H20 YZE d   1      22.368  51.676  48.194  0.00  0.00     0.085 H 
ATOM     47  I24 YZE d   1      23.684  50.191  50.918  0.00  0.00    -0.045 I 
ATOM     48  C25 YZE d   1      24.027  48.755  48.081  0.00  0.00    -0.066 A 
ATOM     49  C26 YZE d   1      23.942  48.447  46.699  0.00  0.00    -0.067 A 
ATOM     50  H21 YZE d   1      24.553  48.048  48.712  0.00  0.00     0.085 H 
ATOM     51  H22 YZE d   1      24.386  47.533  46.320  0.00  0.00     0.085 H 
ENDBRANCH  38  41
ENDBRANCH  34  37
ENDBRANCH  31  34
ENDBRANCH  28  31
ENDBRANCH   1  28
TORSDOF 12
