REMARK  6 active torsions:
REMARK  status: ('A' for Active; 'I' for Inactive)
REMARK    1  A    between atoms: N_1  and  CA_2 
REMARK    2  A    between atoms: CA_2  and  C_7 
REMARK    3  A    between atoms: CA_2  and  CB_3 
REMARK    4  A    between atoms: CB_3  and  CG_4 
REMARK    5  A    between atoms: CG_4  and  CD_5 
REMARK    6  A    between atoms: CD_5  and  NE_6 
ROOT
ATOM      1  CB  ORN d   1      44.657  71.180  16.798  0.00  0.00    -0.027 C 
ATOM      2  H5  ORN d   1      44.221  70.393  16.165  0.00  0.00     0.036 H 
ATOM      3  H6  ORN d   1      44.173  71.166  17.786  0.00  0.00     0.036 H 
ENDROOT
BRANCH   1   4
ATOM      4  CA  ORN d   1      44.315  72.538  16.140  0.00  0.00     0.182 C 
ATOM      5  H4  ORN d   1      43.374  72.399  15.587  0.00  0.00     0.101 H 
BRANCH   4   6
ATOM      6  N   ORN d   1      45.346  72.949  15.145  0.00  0.00    -0.065 N 
ATOM      7  H1  ORN d   1      45.483  72.207  14.477  0.00  0.00     0.275 HD
ATOM      8  H2  ORN d   1      46.215  73.138  15.620  0.00  0.00     0.275 HD
ATOM      9  H3  ORN d   1      45.038  73.780  14.665  0.00  0.00     0.275 HD
ENDBRANCH   4   6
BRANCH   4  10
ATOM     10  C   ORN d   1      44.060  73.623  17.185  0.00  0.00     0.204 C 
ATOM     11  OXT ORN d   1      44.715  74.693  17.121  0.00  0.00    -0.646 OA
ATOM     12  O   ORN d   1      43.152  73.431  18.017  0.00  0.00    -0.646 OA
ENDBRANCH   4  10
ENDBRANCH   1   4
BRANCH   1  13
ATOM     13  CG  ORN d   1      46.129  70.825  17.011  0.00  0.00    -0.040 C 
ATOM     14  H7  ORN d   1      46.498  71.315  17.924  0.00  0.00     0.035 H 
ATOM     15  H8  ORN d   1      46.719  71.166  16.148  0.00  0.00     0.035 H 
BRANCH  13  16
ATOM     16  CD  ORN d   1      46.263  69.289  17.156  0.00  0.00     0.080 C 
ATOM     17  H9  ORN d   1      45.647  68.821  16.374  0.00  0.00     0.075 H 
ATOM     18  H10 ORN d   1      45.875  69.008  18.146  0.00  0.00     0.075 H 
BRANCH  16  19
ATOM     19  NE  ORN d   1      47.688  68.731  17.032  0.00  0.00    -0.079 N 
ATOM     20  H11 ORN d   1      47.667  67.729  17.140  0.00  0.00     0.274 HD
ATOM     21  H12 ORN d   1      48.270  69.135  17.749  0.00  0.00     0.274 HD
ATOM     22  H13 ORN d   1      48.062  68.963  16.125  0.00  0.00     0.274 HD
ENDBRANCH  16  19
ENDBRANCH  13  16
ENDBRANCH   1  13
TORSDOF 6
