REMARK  10 active torsions:
REMARK  status: ('A' for Active; 'I' for Inactive)
REMARK    1  A    between atoms: C1_1  and  C2_2 
REMARK    2  A    between atoms: C2_2  and  C3_3 
REMARK    3  A    between atoms: C3_3  and  C4_4 
REMARK    4  A    between atoms: C3_3  and  C6_6 
REMARK    5  A    between atoms: C5_5  and  C7_7 
REMARK    6  A    between atoms: C7_7  and  O7_8 
REMARK    7  A    between atoms: C8_9  and  C13_17 
REMARK    8  A    between atoms: C10_11  and  O10_12 
REMARK    9  A    between atoms: C12_15  and  C14_18 
REMARK   10  A    between atoms: C12_15  and  C15_19 
ROOT
ATOM      1  C7  A8S d   1      31.859 -18.247  18.594  0.00  0.00     0.109 C 
ATOM      2  C8  A8S d   1      33.088 -18.045  17.701  0.00  0.00    -0.042 C 
ATOM      3  C9  A8S d   1      33.620 -19.198  17.422  0.00  0.00    -0.046 C 
ATOM      4  C10 A8S d   1      33.529 -20.425  17.666  0.00  0.00     0.063 C 
ATOM      5  C11 A8S d   1      32.429 -20.645  18.481  0.00  0.00    -0.060 C 
ATOM      6  C12 A8S d   1      31.265 -19.672  18.392  0.00  0.00     0.011 C 
ATOM      7  H10 A8S d   1      34.441 -19.042  16.724  0.00  0.00     0.088 H 
ATOM      8  H12 A8S d   1      32.400 -21.491  19.166  0.00  0.00     0.082 H 
ENDROOT
BRANCH   1   9
ATOM      9  C5  A8S d   1      32.187 -18.101  20.084  0.00  0.00    -0.069 C 
ATOM     10  C4  A8S d   1      31.827 -16.940  20.688  0.00  0.00    -0.099 C 
ATOM     11  H4  A8S d   1      31.402 -16.120  20.111  0.00  0.00     0.077 H 
ATOM     12  H5  A8S d   1      32.688 -18.895  20.635  0.00  0.00     0.081 H 
BRANCH  10  13
ATOM     13  C3  A8S d   1      32.033 -16.811  22.205  0.00  0.00    -0.032 C 
ATOM     14  H3  A8S d   1      31.217 -17.437  22.595  0.00  0.00     0.046 H 
BRANCH  13  15
ATOM     15  C2  A8S d   1      31.779 -15.485  22.893  0.00  0.00     0.022 C 
ATOM     16  H1  A8S d   1      31.808 -15.666  23.978  0.00  0.00     0.050 H 
ATOM     17  H2  A8S d   1      32.598 -14.806  22.613  0.00  0.00     0.050 H 
BRANCH  15  18
ATOM     18  C1  A8S d   1      30.480 -14.779  22.586  0.00  0.00     0.173 C 
ATOM     19  O11 A8S d   1      29.990 -14.073  23.517  0.00  0.00    -0.648 OA
ATOM     20  O12 A8S d   1      30.013 -14.788  21.417  0.00  0.00    -0.648 OA
ENDBRANCH  15  18
ENDBRANCH  13  15
BRANCH  13  21
ATOM     21  C6  A8S d   1      33.282 -17.493  22.741  0.00  0.00    -0.069 C 
ATOM     22  H6  A8S d   1      33.431 -18.449  22.218  0.00  0.00     0.028 H 
ATOM     23  H7  A8S d   1      33.164 -17.679  23.819  0.00  0.00     0.028 H 
ATOM     24  H8  A8S d   1      34.154 -16.844  22.574  0.00  0.00     0.028 H 
ENDBRANCH  13  21
ENDBRANCH  10  13
ENDBRANCH   1   9
BRANCH   1  25
ATOM     25  O7  A8S d   1      30.807 -17.327  18.223  0.00  0.00    -0.380 OA
ATOM     26  H9  A8S d   1      30.028 -17.515  18.734  0.00  0.00     0.211 HD
ENDBRANCH   1  25
BRANCH   2  27
ATOM     27  C13 A8S d   1      33.443 -16.659  17.240  0.00  0.00    -0.051 C 
ATOM     28  H13 A8S d   1      34.346 -16.701  16.613  0.00  0.00     0.033 H 
ATOM     29  H14 A8S d   1      33.633 -16.019  18.114  0.00  0.00     0.033 H 
ATOM     30  H15 A8S d   1      32.610 -16.242  16.655  0.00  0.00     0.033 H 
ENDBRANCH   2  27
BRANCH   6  31
ATOM     31  C14 A8S d   1      30.632 -19.913  16.999  0.00  0.00    -0.063 C 
ATOM     32  H16 A8S d   1      30.241 -20.940  16.947  0.00  0.00     0.029 H 
ATOM     33  H17 A8S d   1      31.395 -19.772  16.220  0.00  0.00     0.029 H 
ATOM     34  H18 A8S d   1      29.810 -19.199  16.841  0.00  0.00     0.029 H 
ENDBRANCH   6  31
BRANCH   6  35
ATOM     35  C15 A8S d   1      30.150 -19.980  19.429  0.00  0.00    -0.063 C 
ATOM     36  H19 A8S d   1      30.542 -19.826  20.445  0.00  0.00     0.029 H 
ATOM     37  H20 A8S d   1      29.823 -21.024  19.317  0.00  0.00     0.029 H 
ATOM     38  H21 A8S d   1      29.296 -19.308  19.259  0.00  0.00     0.029 H 
ENDBRANCH   6  35
BRANCH   4  39
ATOM     39  O10 A8S d   1      34.329 -21.423  17.291  0.00  0.00    -0.361 OA
ATOM     40  H11 A8S d   1      33.993 -22.243  17.634  0.00  0.00     0.217 HD
ENDBRANCH   4  39
TORSDOF 10
