REMARK  12 active torsions:
REMARK  status: ('A' for Active; 'I' for Inactive)
REMARK    1  A    between atoms: C2_2  and  C19_18 
REMARK    2  A    between atoms: C3_3  and  O3_31 
REMARK    3  A    between atoms: C4_4  and  O4_32 
REMARK    4  A    between atoms: C5_5  and  O5_33 
REMARK    5  A    between atoms: C6_6  and  C21_20 
REMARK    6  A    between atoms: C8_8  and  C22_21 
REMARK    7  A    between atoms: C11_11  and  O11_35 
REMARK    8  A    between atoms: C12_12  and  O12_36 
REMARK    9  A    between atoms: C17_17  and  C25_24 
REMARK   10  A    between atoms: O4_32  and  C20_19 
REMARK   11  A    between atoms: O11_35  and  C23_22 
REMARK   12  A    between atoms: O12_36  and  C24_23 
ROOT
ATOM      1  C1  S1A d   1     -44.229  25.233 -16.073  0.00  0.00     0.268 C 
ATOM      2  C2  S1A d   1     -43.036  25.465 -17.021  0.00  0.00     0.083 C 
ATOM      3  C3  S1A d   1     -43.003  24.382 -18.164  0.00  0.00     0.203 C 
ATOM      4  C4  S1A d   1     -41.759  24.584 -19.154  0.00  0.00     0.117 C 
ATOM      5  C5  S1A d   1     -41.930  23.753 -20.500  0.00  0.00     0.071 C 
ATOM      6  C6  S1A d   1     -43.372  23.857 -21.090  0.00  0.00    -0.004 C 
ATOM      7  C7  S1A d   1     -44.453  23.554 -19.977  0.00  0.00     0.054 C 
ATOM      8  C8  S1A d   1     -45.907  23.703 -20.533  0.00  0.00    -0.016 C 
ATOM      9  C9  S1A d   1     -46.949  23.390 -19.381  0.00  0.00    -0.098 C 
ATOM     10  C10 S1A d   1     -47.259  22.082 -18.990  0.00  0.00    -0.076 C 
ATOM     11  C11 S1A d   1     -48.292  21.799 -17.855  0.00  0.00     0.079 C 
ATOM     12  C12 S1A d   1     -47.914  20.505 -17.059  0.00  0.00     0.066 C 
ATOM     13  C13 S1A d   1     -46.526  20.635 -16.378  0.00  0.00    -0.038 C 
ATOM     14  C14 S1A d   1     -46.404  21.757 -15.357  0.00  0.00    -0.063 C 
ATOM     15  C15 S1A d   1     -45.107  21.629 -14.605  0.00  0.00    -0.062 C 
ATOM     16  C16 S1A d   1     -44.905  22.699 -13.550  0.00  0.00    -0.036 C 
ATOM     17  C17 S1A d   1     -44.980  24.166 -14.008  0.00  0.00     0.073 C 
ATOM     18  O1  S1A d   1     -45.397  25.687 -16.159  0.00  0.00    -0.265 OA
ATOM     19  O7  S1A d   1     -44.283  24.468 -18.854  0.00  0.00    -0.346 OA
ATOM     20  O18 S1A d   1     -43.925  24.436 -15.002  0.00  0.00    -0.311 OA
ATOM     21  H1  S1A d   1     -43.157  26.450 -17.495  0.00  0.00     0.063 H 
ATOM     22  H2  S1A d   1     -40.850  24.234 -18.643  0.00  0.00     0.095 H 
ATOM     23  H3  S1A d   1     -41.221  24.145 -21.244  0.00  0.00     0.087 H 
ATOM     24  H4  S1A d   1     -43.480  23.092 -21.873  0.00  0.00     0.047 H 
ATOM     25  H5  S1A d   1     -44.313  22.521 -19.625  0.00  0.00     0.085 H 
ATOM     26  H6  S1A d   1     -46.046  24.741 -20.869  0.00  0.00     0.049 H 
ATOM     27  H7  S1A d   1     -47.441  24.220 -18.876  0.00  0.00     0.077 H 
ATOM     28  H8  S1A d   1     -46.770  21.246 -19.488  0.00  0.00     0.080 H 
ATOM     29  H9  S1A d   1     -48.313  22.655 -17.165  0.00  0.00     0.093 H 
ATOM     30  H10 S1A d   1     -48.672  20.331 -16.281  0.00  0.00     0.087 H 
ATOM     31  H11 S1A d   1     -45.777  20.808 -17.164  0.00  0.00     0.036 H 
ATOM     32  H12 S1A d   1     -46.308  19.686 -15.867  0.00  0.00     0.036 H 
ATOM     33  H13 S1A d   1     -47.243  21.698 -14.649  0.00  0.00     0.033 H 
ATOM     34  H14 S1A d   1     -46.430  22.727 -15.876  0.00  0.00     0.033 H 
ATOM     35  H15 S1A d   1     -44.279  21.693 -15.327  0.00  0.00     0.033 H 
ATOM     36  H16 S1A d   1     -45.088  20.646 -14.111  0.00  0.00     0.033 H 
ATOM     37  H17 S1A d   1     -43.911  22.542 -13.107  0.00  0.00     0.037 H 
ATOM     38  H18 S1A d   1     -45.677  22.554 -12.780  0.00  0.00     0.037 H 
ATOM     39  H19 S1A d   1     -45.969  24.403 -14.427  0.00  0.00     0.091 H 
ENDROOT
BRANCH  17  40
ATOM     40  C25 S1A d   1     -44.695  24.994 -12.724  0.00  0.00    -0.029 A 
ATOM     41  C26 S1A d   1     -43.336  25.097 -12.236  0.00  0.00    -0.074 A 
ATOM     42  C27 S1A d   1     -43.054  25.800 -11.050  0.00  0.00    -0.082 A 
ATOM     43  H38 S1A d   1     -42.529  24.629 -12.789  0.00  0.00     0.084 H 
ATOM     44  C28 S1A d   1     -44.107  26.411 -10.327  0.00  0.00    -0.083 A 
ATOM     45  H39 S1A d   1     -42.034  25.873 -10.691  0.00  0.00     0.083 H 
ATOM     46  C29 S1A d   1     -45.454  26.318 -10.797  0.00  0.00    -0.082 A 
ATOM     47  H40 S1A d   1     -43.891  26.952  -9.413  0.00  0.00     0.083 H 
ATOM     48  C30 S1A d   1     -45.744  25.608 -12.001  0.00  0.00    -0.074 A 
ATOM     49  H41 S1A d   1     -46.256  26.787 -10.239  0.00  0.00     0.083 H 
ATOM     50  H42 S1A d   1     -46.765  25.540 -12.360  0.00  0.00     0.084 H 
ENDBRANCH  17  40
BRANCH   2  51
ATOM     51  C19 S1A d   1     -41.731  25.484 -16.201  0.00  0.00    -0.059 C 
ATOM     52  H20 S1A d   1     -41.801  26.253 -15.418  0.00  0.00     0.028 H 
ATOM     53  H21 S1A d   1     -40.884  25.713 -16.865  0.00  0.00     0.028 H 
ATOM     54  H22 S1A d   1     -41.576  24.500 -15.735  0.00  0.00     0.028 H 
ENDBRANCH   2  51
BRANCH   3  55
ATOM     55  O3  S1A d   1     -42.894  23.067 -17.563  0.00  0.00    -0.362 OA
ATOM     56  H43 S1A d   1     -42.063  22.996 -17.108  0.00  0.00     0.213 HD
ENDBRANCH   3  55
BRANCH  12  57
ATOM     57  O12 S1A d   1     -47.908  19.382 -17.983  0.00  0.00    -0.388 OA
BRANCH  57  58
ATOM     58  C24 S1A d   1     -47.966  18.103 -17.272  0.00  0.00     0.005 C 
ATOM     59  H35 S1A d   1     -47.960  17.278 -18.000  0.00  0.00     0.066 H 
ATOM     60  H36 S1A d   1     -48.888  18.057 -16.674  0.00  0.00     0.066 H 
ATOM     61  H37 S1A d   1     -47.094  18.013 -16.608  0.00  0.00     0.066 H 
ENDBRANCH  57  58
ENDBRANCH  12  57
BRANCH   4  62
ATOM     62  O4  S1A d   1     -41.604  25.991 -19.473  0.00  0.00    -0.383 OA
BRANCH  62  63
ATOM     63  C20 S1A d   1     -40.198  26.390 -19.445  0.00  0.00     0.005 C 
ATOM     64  H23 S1A d   1     -40.115  27.459 -19.690  0.00  0.00     0.066 H 
ATOM     65  H24 S1A d   1     -39.635  25.800 -20.183  0.00  0.00     0.066 H 
ATOM     66  H25 S1A d   1     -39.786  26.212 -18.441  0.00  0.00     0.066 H 
ENDBRANCH  62  63
ENDBRANCH   4  62
BRANCH  11  67
ATOM     67  O11 S1A d   1     -49.596  21.619 -18.442  0.00  0.00    -0.384 OA
BRANCH  67  68
ATOM     68  C23 S1A d   1     -50.598  22.373 -17.707  0.00  0.00     0.005 C 
ATOM     69  H32 S1A d   1     -51.584  22.222 -18.171  0.00  0.00     0.066 H 
ATOM     70  H33 S1A d   1     -50.342  23.443 -17.730  0.00  0.00     0.066 H 
ATOM     71  H34 S1A d   1     -50.626  22.025 -16.664  0.00  0.00     0.066 H 
ENDBRANCH  67  68
ENDBRANCH  11  67
BRANCH   5  72
ATOM     72  O5  S1A d   1     -41.627  22.380 -20.242  0.00  0.00    -0.392 OA
ATOM     73  H44 S1A d   1     -40.750  22.312 -19.883  0.00  0.00     0.210 HD
ENDBRANCH   5  72
BRANCH   6  74
ATOM     74  C21 S1A d   1     -43.559  25.246 -21.755  0.00  0.00    -0.068 C 
ATOM     75  H26 S1A d   1     -42.780  25.396 -22.517  0.00  0.00     0.028 H 
ATOM     76  H27 S1A d   1     -43.480  26.032 -20.990  0.00  0.00     0.028 H 
ATOM     77  H28 S1A d   1     -44.550  25.295 -22.230  0.00  0.00     0.028 H 
ENDBRANCH   6  74
BRANCH   8  78
ATOM     78  C22 S1A d   1     -46.171  22.765 -21.727  0.00  0.00    -0.067 C 
ATOM     79  H29 S1A d   1     -47.203  22.905 -22.082  0.00  0.00     0.028 H 
ATOM     80  H30 S1A d   1     -46.031  21.721 -21.411  0.00  0.00     0.028 H 
ATOM     81  H31 S1A d   1     -45.468  23.000 -22.540  0.00  0.00     0.028 H 
ENDBRANCH   8  78
TORSDOF 12
