REMARK  15 active torsions:
REMARK  status: ('A' for Active; 'I' for Inactive)
REMARK    1  A    between atoms: N1_1  and  C1C_9 
REMARK    2  A    between atoms: C2C_10  and  O2C_11 
REMARK    3  A    between atoms: C3C_12  and  O3C_15 
REMARK    4  A    between atoms: C4C_13  and  C5C_16 
REMARK    5  A    between atoms: C5C_16  and  O5C_17 
REMARK    6  A    between atoms: O5C_17  and  PA_18 
REMARK    7  A    between atoms: PA_18  and  O3A_21 
REMARK    8  A    between atoms: O3A_21  and  PB_22 
REMARK    9  A    between atoms: PB_22  and  O3B_25 
REMARK   10  A    between atoms: O3B_25  and  C1'_26 
REMARK   11  A    between atoms: C2'_27  and  O2'_32 
REMARK   12  A    between atoms: C3'_28  and  O3'_33 
REMARK   13  A    between atoms: C4'_29  and  O4'_34 
REMARK   14  A    between atoms: C5'_30  and  C6'_31 
REMARK   15  A    between atoms: C6'_31  and  O6'_36 
ROOT
ATOM      1  PA  UPG d   1      59.127  42.494  55.458  0.00  0.00     0.417 P 
ATOM      2  O1A UPG d   1      58.111  42.174  54.625  0.00  0.00    -0.624 OA
ATOM      3  O2A UPG d   1      60.019  43.253  54.704  0.00  0.00    -0.624 OA
ENDROOT
BRANCH   1   4
ATOM      4  O5C UPG d   1      59.789  41.269  55.986  0.00  0.00    -0.287 OA
BRANCH   4   5
ATOM      5  C5C UPG d   1      60.794  41.347  56.916  0.00  0.00     0.058 C 
ATOM      6  H10 UPG d   1      61.397  42.250  56.740  0.00  0.00     0.079 H 
ATOM      7  H11 UPG d   1      60.365  41.384  57.928  0.00  0.00     0.079 H 
BRANCH   5   8
ATOM      8  C4C UPG d   1      61.647  40.129  56.770  0.00  0.00     0.089 C 
ATOM      9  C3C UPG d   1      62.283  40.028  55.413  0.00  0.00     0.091 C 
ATOM     10  C2C UPG d   1      61.460  38.941  54.767  0.00  0.00     0.105 C 
ATOM     11  H7  UPG d   1      62.229  40.960  54.831  0.00  0.00     0.091 H 
ATOM     12  C1C UPG d   1      61.109  38.090  55.956  0.00  0.00     0.141 C 
ATOM     13  H5  UPG d   1      60.542  39.394  54.364  0.00  0.00     0.093 H 
ATOM     14  O4C UPG d   1      60.972  38.954  57.028  0.00  0.00    -0.353 OA
ATOM     15  H4  UPG d   1      61.940  37.392  56.138  0.00  0.00     0.123 H 
ATOM     16  H8  UPG d   1      62.455  40.217  57.512  0.00  0.00     0.090 H 
BRANCH   9  17
ATOM     17  O3C UPG d   1      63.625  39.702  55.703  0.00  0.00    -0.390 OA
ATOM     18  H9  UPG d   1      64.111  39.617  54.892  0.00  0.00     0.210 HD
ENDBRANCH   9  17
BRANCH  10  19
ATOM     19  O2C UPG d   1      62.042  38.227  53.699  0.00  0.00    -0.388 OA
ATOM     20  H6  UPG d   1      62.236  38.826  52.987  0.00  0.00     0.210 HD
ENDBRANCH  10  19
BRANCH  12  21
ATOM     21  N1  UPG d   1      59.883  37.313  55.853  0.00  0.00    -0.280 N 
ATOM     22  C2  UPG d   1      60.027  35.909  55.845  0.00  0.00     0.331 A 
ATOM     23  N3  UPG d   1      58.947  35.180  55.763  0.00  0.00    -0.275 N 
ATOM     24  O2  UPG d   1      61.124  35.381  55.913  0.00  0.00    -0.246 OA
ATOM     25  C4  UPG d   1      57.751  35.755  55.691  0.00  0.00     0.250 A 
ATOM     26  H1  UPG d   1      59.020  34.183  55.754  0.00  0.00     0.173 HD
ATOM     27  C5  UPG d   1      57.566  37.139  55.694  0.00  0.00    -0.002 A 
ATOM     28  O4  UPG d   1      56.826  35.018  55.626  0.00  0.00    -0.268 OA
ATOM     29  C6  UPG d   1      58.693  37.918  55.779  0.00  0.00    -0.008 A 
ATOM     30  H2  UPG d   1      56.572  37.581  55.632  0.00  0.00     0.094 H 
ATOM     31  H3  UPG d   1      58.620  39.005  55.786  0.00  0.00     0.112 H 
ENDBRANCH  12  21
ENDBRANCH   5   8
ENDBRANCH   4   5
ENDBRANCH   1   4
BRANCH   1  32
ATOM     32  O3A UPG d   1      58.584  43.250  56.726  0.00  0.00    -0.180 OA
BRANCH  32  33
ATOM     33  PB  UPG d   1      58.351  44.767  56.963  0.00  0.00     0.420 P 
ATOM     34  O1B UPG d   1      59.436  45.495  56.444  0.00  0.00    -0.624 OA
ATOM     35  O2B UPG d   1      57.115  45.162  56.423  0.00  0.00    -0.624 OA
BRANCH  33  36
ATOM     36  O3B UPG d   1      58.419  44.944  58.501  0.00  0.00    -0.255 OA
BRANCH  36  37
ATOM     37  C1' UPG d   1      59.446  44.549  59.383  0.00  0.00     0.170 C 
ATOM     38  C2' UPG d   1      58.914  44.576  60.814  0.00  0.00     0.110 C 
ATOM     39  C3' UPG d   1      58.594  46.004  61.267  0.00  0.00     0.092 C 
ATOM     40  H13 UPG d   1      59.670  44.159  61.496  0.00  0.00     0.094 H 
ATOM     41  C4' UPG d   1      59.827  46.892  61.028  0.00  0.00     0.090 C 
ATOM     42  H14 UPG d   1      57.785  46.385  60.626  0.00  0.00     0.091 H 
ATOM     43  C5' UPG d   1      60.303  46.734  59.566  0.00  0.00     0.089 C 
ATOM     44  H15 UPG d   1      60.622  46.496  61.677  0.00  0.00     0.091 H 
ATOM     45  O5' UPG d   1      60.583  45.381  59.307  0.00  0.00    -0.348 OA
ATOM     46  H16 UPG d   1      59.502  47.071  58.892  0.00  0.00     0.090 H 
ATOM     47  H12 UPG d   1      59.747  43.522  59.128  0.00  0.00     0.134 H 
BRANCH  38  48
ATOM     48  O2' UPG d   1      57.785  43.755  60.816  0.00  0.00    -0.388 OA
ATOM     49  H19 UPG d   1      57.133  44.113  60.225  0.00  0.00     0.210 HD
ENDBRANCH  38  48
BRANCH  39  50
ATOM     50  O3' UPG d   1      58.126  46.044  62.568  0.00  0.00    -0.390 OA
ATOM     51  H20 UPG d   1      57.368  45.477  62.648  0.00  0.00     0.210 HD
ENDBRANCH  39  50
BRANCH  41  52
ATOM     52  O4' UPG d   1      59.692  48.265  61.365  0.00  0.00    -0.390 OA
ATOM     53  H21 UPG d   1      60.532  48.698  61.266  0.00  0.00     0.210 HD
ENDBRANCH  41  52
BRANCH  43  54
ATOM     54  C6' UPG d   1      61.540  47.569  59.311  0.00  0.00     0.043 C 
ATOM     55  H17 UPG d   1      62.123  47.625  60.242  0.00  0.00     0.078 H 
ATOM     56  H18 UPG d   1      61.225  48.580  59.014  0.00  0.00     0.078 H 
BRANCH  54  57
ATOM     57  O6' UPG d   1      62.329  47.060  58.338  0.00  0.00    -0.398 OA
ATOM     58  H22 UPG d   1      63.087  47.621  58.220  0.00  0.00     0.209 HD
ENDBRANCH  54  57
ENDBRANCH  43  54
ENDBRANCH  36  37
ENDBRANCH  33  36
ENDBRANCH  32  33
ENDBRANCH   1  32
TORSDOF 15
