REMARK  3 active torsions:
REMARK  status: ('A' for Active; 'I' for Inactive)
REMARK    1  A    between atoms: CAO_15  and  NAL_12 
REMARK    2  A    between atoms: NAL_12  and  CAQ_17 
REMARK    3  A    between atoms: CAM_13  and  CAP_16 
ROOT
ATOM      1  CAG AJD d   1      39.116  -1.636  92.464  0.00  0.00    -0.041 C 
ATOM      2  CAH AJD d   1      39.014  -0.888  91.138  0.00  0.00     0.082 C 
ATOM      3  CAI AJD d   1      40.458  -2.345  92.562  0.00  0.00    -0.043 C 
ATOM      4  CAJ AJD d   1      41.487  -0.408  91.318  0.00  0.00     0.100 C 
ATOM      5  NAK AJD d   1      40.117   0.084  91.042  0.00  0.00    -0.073 N 
ATOM      6  CAQ AJD d   1      41.526  -1.289  92.645  0.00  0.00     0.033 C 
ATOM      7  H4  AJD d   1      38.307  -2.379  92.526  0.00  0.00     0.035 H 
ATOM      8  H5  AJD d   1      39.021  -0.920  93.294  0.00  0.00     0.035 H 
ATOM      9  H6  AJD d   1      38.051  -0.358  91.088  0.00  0.00     0.075 H 
ATOM     10  H7  AJD d   1      39.082  -1.604  90.306  0.00  0.00     0.075 H 
ATOM     11  H8  AJD d   1      40.618  -2.970  91.671  0.00  0.00     0.036 H 
ATOM     12  H9  AJD d   1      40.484  -2.976  93.463  0.00  0.00     0.036 H 
ATOM     13  H10 AJD d   1      42.160   0.454  91.439  0.00  0.00     0.078 H 
ATOM     14  H11 AJD d   1      41.826  -1.021  90.470  0.00  0.00     0.078 H 
ATOM     15  H12 AJD d   1      39.925   0.825  91.698  0.00  0.00     0.277 HD
ATOM     16  H13 AJD d   1      40.112   0.455  90.105  0.00  0.00     0.277 HD
ATOM     17  H15 AJD d   1      41.367  -0.645  93.522  0.00  0.00     0.074 H 
ENDROOT
BRANCH   6  18
ATOM     18  NAL AJD d   1      42.819  -2.013  92.767  0.00  0.00    -0.383 N 
ATOM     19  H14 AJD d   1      42.801  -3.036  92.651  0.00  0.00     0.160 HD
BRANCH  18  20
ATOM     20  CAO AJD d   1      44.005  -1.442  93.016  0.00  0.00     0.045 A 
ATOM     21  CAE AJD d   1      44.129  -0.054  93.269  0.00  0.00    -0.055 A 
ATOM     22  CAD AJD d   1      45.394   0.484  93.491  0.00  0.00    -0.064 A 
ATOM     23  H2  AJD d   1      43.251   0.581  93.290  0.00  0.00     0.087 H 
ATOM     24  CAN AJD d   1      46.551  -0.344  93.473  0.00  0.00     0.012 A 
ATOM     25  H1  AJD d   1      45.499   1.546  93.680  0.00  0.00     0.085 H 
ATOM     26 BRAC AJD d   1      48.337   0.393  93.775  0.00  0.00    -0.051 Br
ATOM     27  CAF AJD d   1      46.428  -1.709  93.233  0.00  0.00    -0.047 A 
ATOM     28  CAP AJD d   1      45.156  -2.251  92.981  0.00  0.00     0.068 A 
ATOM     29  H3  AJD d   1      47.304  -2.348  93.240  0.00  0.00     0.087 H 
BRANCH  28  30
ATOM     30  CAM AJD d   1      45.058  -3.738  92.721  0.00  0.00     0.211 C 
ATOM     31  OAA AJD d   1      46.017  -4.404  93.013  0.00  0.00    -0.644 OA
ATOM     32  OAB AJD d   1      44.018  -4.273  92.302  0.00  0.00    -0.644 OA
ENDBRANCH  28  30
ENDBRANCH  18  20
ENDBRANCH   6  18
TORSDOF 3
