REMARK  3 active torsions:
REMARK  status: ('A' for Active; 'I' for Inactive)
REMARK    1  A    between atoms: CAO_15  and  NAL_12 
REMARK    2  A    between atoms: NAL_12  and  CAQ_17 
REMARK    3  A    between atoms: CAM_13  and  CAP_16 
ROOT
ATOM      1  CAG AKD d   1      39.483  -1.352  92.167  0.00  0.00    -0.041 C 
ATOM      2  CAH AKD d   1      39.477  -0.855  90.709  0.00  0.00     0.082 C 
ATOM      3  CAI AKD d   1      40.855  -1.551  92.662  0.00  0.00    -0.043 C 
ATOM      4  CAJ AKD d   1      41.785   0.114  91.045  0.00  0.00     0.100 C 
ATOM      5  NAK AKD d   1      40.397   0.265  90.578  0.00  0.00    -0.073 N 
ATOM      6  CAQ AKD d   1      41.794  -0.362  92.513  0.00  0.00     0.033 C 
ATOM      7  H4  AKD d   1      38.941  -2.308  92.221  0.00  0.00     0.035 H 
ATOM      8  H5  AKD d   1      38.979  -0.608  92.801  0.00  0.00     0.035 H 
ATOM      9  H6  AKD d   1      38.462  -0.530  90.436  0.00  0.00     0.075 H 
ATOM     10  H7  AKD d   1      39.794  -1.670  90.042  0.00  0.00     0.075 H 
ATOM     11  H8  AKD d   1      41.292  -2.397  92.112  0.00  0.00     0.036 H 
ATOM     12  H9  AKD d   1      40.795  -1.801  93.731  0.00  0.00     0.036 H 
ATOM     13  H10 AKD d   1      42.302   1.082  90.972  0.00  0.00     0.078 H 
ATOM     14  H11 AKD d   1      42.303  -0.627  90.418  0.00  0.00     0.078 H 
ATOM     15  H12 AKD d   1      39.997   1.036  91.089  0.00  0.00     0.277 HD
ATOM     16  H13 AKD d   1      40.440   0.498  89.598  0.00  0.00     0.277 HD
ATOM     17  H15 AKD d   1      42.811  -0.615  92.847  0.00  0.00     0.074 H 
ENDROOT
BRANCH   6  18
ATOM     18  NAL AKD d   1      41.223   0.738  93.292  0.00  0.00    -0.383 N 
ATOM     19  H14 AKD d   1      40.331   0.574  93.780  0.00  0.00     0.160 HD
BRANCH  18  20
ATOM     20  CAO AKD d   1      41.793   1.946  93.407  0.00  0.00     0.045 A 
ATOM     21  CAE AKD d   1      43.163   2.013  93.211  0.00  0.00    -0.055 A 
ATOM     22  CAD AKD d   1      43.824   3.220  93.341  0.00  0.00    -0.064 A 
ATOM     23  H2  AKD d   1      43.717   1.117  92.955  0.00  0.00     0.087 H 
ATOM     24  CAN AKD d   1      43.097   4.316  93.714  0.00  0.00     0.012 A 
ATOM     25  H1  AKD d   1      44.889   3.295  93.153  0.00  0.00     0.085 H 
ATOM     26 BRAC AKD d   1      43.945   5.997  93.940  0.00  0.00    -0.051 Br
ATOM     27  CAF AKD d   1      41.727   4.242  93.967  0.00  0.00    -0.047 A 
ATOM     28  CAP AKD d   1      41.055   3.049  93.797  0.00  0.00     0.068 A 
ATOM     29  H3  AKD d   1      41.190   5.123  94.298  0.00  0.00     0.087 H 
BRANCH  28  30
ATOM     30  CAM AKD d   1      39.523   2.987  94.035  0.00  0.00     0.211 C 
ATOM     31  OAA AKD d   1      38.986   3.753  94.832  0.00  0.00    -0.644 OA
ATOM     32  OAB AKD d   1      38.949   2.183  93.337  0.00  0.00    -0.644 OA
ENDBRANCH  28  30
ENDBRANCH  18  20
ENDBRANCH   6  18
TORSDOF 3
