REMARK  5 active torsions:
REMARK  status: ('A' for Active; 'I' for Inactive)
REMARK    1  A    between atoms: O_3  and  C7_15 
REMARK    2  A    between atoms: C8_16  and  O_3 
REMARK       I    between atoms: N2_10  and  C8_16 
REMARK    3  A    between atoms: C9_17  and  N2_10 
REMARK    4  A    between atoms: C7_15  and  C6_14 
REMARK    5  A    between atoms: C7_15  and  C15_23 
ROOT
ATOM      1  C7  AGX d   1      30.680  -4.618  17.371  0.00  0.00     0.103 C 
ATOM      2  H7  AGX d   1      31.114  -5.617  17.523  0.00  0.00     0.096 H 
ENDROOT
BRANCH   1   3
ATOM      3  O   AGX d   1      29.634  -4.319  18.349  0.00  0.00    -0.291 OA
BRANCH   3   4
ATOM      4  C8  AGX d   1      29.818  -4.562  19.669  0.00  0.00     0.365 C 
ATOM      5  O1  AGX d   1      30.878  -5.037  20.035  0.00  0.00    -0.238 OA
ATOM      6  N2  AGX d   1      28.694  -4.219  20.280  0.00  0.00    -0.303 N 
ATOM      7  H5  AGX d   1      27.870  -4.093  19.727  0.00  0.00     0.171 HD
BRANCH   6   8
ATOM      8  C9  AGX d   1      28.606  -4.025  21.660  0.00  0.00     0.038 A 
ATOM      9  C10 AGX d   1      29.681  -4.138  22.614  0.00  0.00    -0.055 A 
ATOM     10  C11 AGX d   1      29.440  -3.923  23.998  0.00  0.00    -0.058 A 
ATOM     11  H8  AGX d   1      30.679  -4.388  22.274  0.00  0.00     0.087 H 
ATOM     12  C12 AGX d   1      28.127  -3.596  24.461  0.00  0.00     0.055 A 
ATOM     13  H9  AGX d   1      30.256  -4.007  24.707  0.00  0.00     0.086 H 
ATOM     14 CL1  AGX d   1      27.889  -3.352  26.157  0.00  0.00    -0.083 Cl
ATOM     15  C13 AGX d   1      27.046  -3.484  23.510  0.00  0.00     0.058 A 
ATOM     16 CL   AGX d   1      25.430  -3.104  24.008  0.00  0.00    -0.082 Cl
ATOM     17  C14 AGX d   1      27.300  -3.697  22.118  0.00  0.00    -0.034 A 
ATOM     18  H10 AGX d   1      26.488  -3.607  21.405  0.00  0.00     0.089 H 
ENDBRANCH   6   8
ENDBRANCH   3   4
ENDBRANCH   1   3
BRANCH   1  19
ATOM     19  C6  AGX d   1      31.817  -3.612  17.391  0.00  0.00     0.134 A 
ATOM     20  N   AGX d   1      31.696  -2.263  17.244  0.00  0.00    -0.340 N 
ATOM     21  C4  AGX d   1      32.991  -1.793  17.330  0.00  0.00     0.062 A 
ATOM     22  H2  AGX d   1      30.834  -1.718  17.101  0.00  0.00     0.167 HD
ATOM     23  C   AGX d   1      33.502  -0.457  17.245  0.00  0.00    -0.055 A 
ATOM     24  C5  AGX d   1      33.851  -2.876  17.526  0.00  0.00     0.085 A 
ATOM     25  C1  AGX d   1      34.924  -0.248  17.368  0.00  0.00    -0.081 A 
ATOM     26  H1  AGX d   1      32.832   0.381  17.091  0.00  0.00     0.087 H 
ATOM     27  C2  AGX d   1      35.810  -1.365  17.570  0.00  0.00    -0.081 A 
ATOM     28  H3  AGX d   1      35.328   0.756  17.308  0.00  0.00     0.083 H 
ATOM     29  C3  AGX d   1      35.268  -2.693  17.652  0.00  0.00    -0.053 A 
ATOM     30  H4  AGX d   1      36.878  -1.205  17.660  0.00  0.00     0.083 H 
ATOM     31  H6  AGX d   1      35.921  -3.545  17.807  0.00  0.00     0.087 H 
ATOM     32  N1  AGX d   1      33.095  -4.019  17.565  0.00  0.00    -0.231 NA
ENDBRANCH   1  19
BRANCH   1  33
ATOM     33  C15 AGX d   1      29.787  -4.602  16.204  0.00  0.00    -0.045 C 
ATOM     34  H11 AGX d   1      30.369  -4.812  15.294  0.00  0.00     0.031 H 
ATOM     35  H12 AGX d   1      29.315  -3.612  16.117  0.00  0.00     0.031 H 
ATOM     36  H13 AGX d   1      29.009  -5.370  16.327  0.00  0.00     0.031 H 
ENDBRANCH   1  33
TORSDOF 5
