REMARK  23 active torsions:
REMARK  status: ('A' for Active; 'I' for Inactive)
REMARK    1  A    between atoms: N4B_18  and  C1A_1 
REMARK    2  A    between atoms: C2A_2  and  O2A_8 
REMARK    3  A    between atoms: C3A_3  and  O3A_9 
REMARK    4  A    between atoms: C4A_4  and  O4A_10 
REMARK    5  A    between atoms: C5A_5  and  C6A_6 
REMARK    6  A    between atoms: C6A_6  and  O6A_11 
REMARK    7  A    between atoms: O4C_30  and  C1B_12 
REMARK    8  A    between atoms: C2B_13  and  O2B_19 
REMARK    9  A    between atoms: C3B_14  and  O3B_20 
REMARK   10  A    between atoms: C4B_15  and  N4B_18 
REMARK   11  A    between atoms: C5B_16  and  C6B_17 
REMARK   12  A    between atoms: O4D_42  and  C1C_22 
REMARK   13  A    between atoms: C2C_23  and  O2C_28 
REMARK   14  A    between atoms: C3C_24  and  O3C_29 
REMARK   15  A    between atoms: C4C_25  and  O4C_30 
REMARK   16  A    between atoms: C5C_26  and  C6C_27 
REMARK   17  A    between atoms: C6C_27  and  O6C_32 
REMARK   18  A    between atoms: C1D_33  and  O1D_39 
REMARK   19  A    between atoms: C2D_34  and  O2D_40 
REMARK   20  A    between atoms: C3D_35  and  O3D_41 
REMARK   21  A    between atoms: C4D_36  and  O4D_42 
REMARK   22  A    between atoms: C5D_37  and  C6D_38 
REMARK   23  A    between atoms: C6D_38  and  O6D_44 
ROOT
ATOM      1  C1B ACR d   1      17.309  -8.156  15.227  0.00  0.00     0.159 C 
ATOM      2  C2B ACR d   1      17.665  -8.019  16.711  0.00  0.00     0.110 C 
ATOM      3  C3B ACR d   1      19.181  -7.822  16.886  0.00  0.00     0.094 C 
ATOM      4  C4B ACR d   1      20.034  -8.834  16.108  0.00  0.00     0.154 C 
ATOM      5  C5B ACR d   1      19.515  -9.021  14.676  0.00  0.00     0.068 C 
ATOM      6  O5B ACR d   1      18.090  -9.185  14.627  0.00  0.00    -0.351 OA
ATOM      7  H12 ACR d   1      16.240  -8.395  15.130  0.00  0.00     0.133 H 
ATOM      8  H13 ACR d   1      17.369  -8.945  17.226  0.00  0.00     0.094 H 
ATOM      9  H14 ACR d   1      19.433  -6.821  16.506  0.00  0.00     0.090 H 
ATOM     10  H15 ACR d   1      20.002  -9.800  16.633  0.00  0.00     0.092 H 
ATOM     11  H16 ACR d   1      19.785  -8.127  14.094  0.00  0.00     0.086 H 
ENDROOT
BRANCH   1  12
ATOM     12  O4C ACR d   1      17.597  -6.943  14.542  0.00  0.00    -0.348 OA
BRANCH  12  13
ATOM     13  C4C ACR d   1      16.566  -6.474  13.690  0.00  0.00     0.096 C 
ATOM     14  C3C ACR d   1      15.850  -5.278  14.342  0.00  0.00     0.092 C 
ATOM     15  C2C ACR d   1      14.865  -4.650  13.358  0.00  0.00     0.110 C 
ATOM     16  H26 ACR d   1      16.607  -4.527  14.610  0.00  0.00     0.091 H 
ATOM     17  C1C ACR d   1      15.651  -4.167  12.143  0.00  0.00     0.159 C 
ATOM     18  H25 ACR d   1      14.120  -5.400  13.053  0.00  0.00     0.094 H 
ATOM     19  O5C ACR d   1      16.276  -5.313  11.566  0.00  0.00    -0.348 OA
ATOM     20  H24 ACR d   1      14.973  -3.700  11.413  0.00  0.00     0.133 H 
ATOM     21  C5C ACR d   1      17.226  -6.032  12.375  0.00  0.00     0.089 C 
ATOM     22  H28 ACR d   1      18.081  -5.380  12.605  0.00  0.00     0.090 H 
ATOM     23  H27 ACR d   1      15.840  -7.278  13.497  0.00  0.00     0.091 H 
BRANCH  14  24
ATOM     24  O3C ACR d   1      15.150  -5.670  15.544  0.00  0.00    -0.390 OA
ATOM     25  H32 ACR d   1      14.501  -6.330  15.330  0.00  0.00     0.210 HD
ENDBRANCH  14  24
BRANCH  15  26
ATOM     26  O2C ACR d   1      14.197  -3.520  13.946  0.00  0.00    -0.388 OA
ATOM     27  H31 ACR d   1      13.719  -3.802  14.717  0.00  0.00     0.210 HD
ENDBRANCH  15  26
BRANCH  17  28
ATOM     28  O4D ACR d   1      16.634  -3.218  12.557  0.00  0.00    -0.348 OA
BRANCH  28  29
ATOM     29  C4D ACR d   1      16.781  -2.085  11.717  0.00  0.00     0.096 C 
ATOM     30  C3D ACR d   1      16.080  -0.915  12.403  0.00  0.00     0.092 C 
ATOM     31  C2D ACR d   1      16.401   0.370  11.636  0.00  0.00     0.110 C 
ATOM     32  H36 ACR d   1      16.451  -0.821  13.434  0.00  0.00     0.091 H 
ATOM     33  C1D ACR d   1      17.905   0.585  11.508  0.00  0.00     0.156 C 
ATOM     34  H35 ACR d   1      15.954   0.302  10.633  0.00  0.00     0.094 H 
ATOM     35  O5D ACR d   1      18.524  -0.546  10.893  0.00  0.00    -0.349 OA
ATOM     36  H34 ACR d   1      18.085   1.473  10.884  0.00  0.00     0.133 H 
ATOM     37  C5D ACR d   1      18.281  -1.794  11.587  0.00  0.00     0.089 C 
ATOM     38  H38 ACR d   1      18.695  -1.708  12.602  0.00  0.00     0.090 H 
ATOM     39  H37 ACR d   1      16.339  -2.270  10.727  0.00  0.00     0.091 H 
BRANCH  30  40
ATOM     40  O3D ACR d   1      14.671  -1.152  12.437  0.00  0.00    -0.390 OA
ATOM     41  H43 ACR d   1      14.497  -1.952  12.920  0.00  0.00     0.210 HD
ENDBRANCH  30  40
BRANCH  31  42
ATOM     42  O2D ACR d   1      15.878   1.511  12.316  0.00  0.00    -0.388 OA
ATOM     43  H42 ACR d   1      14.935   1.427  12.393  0.00  0.00     0.210 HD
ENDBRANCH  31  42
BRANCH  33  44
ATOM     44  O1D ACR d   1      18.478   0.796  12.794  0.00  0.00    -0.369 OA
ATOM     45  H41 ACR d   1      19.410   0.955  12.702  0.00  0.00     0.212 HD
ENDBRANCH  33  44
BRANCH  37  46
ATOM     46  C6D ACR d   1      19.019  -2.935  10.862  0.00  0.00     0.043 C 
ATOM     47  H39 ACR d   1      18.762  -2.914   9.793  0.00  0.00     0.078 H 
ATOM     48  H40 ACR d   1      18.713  -3.899  11.294  0.00  0.00     0.078 H 
BRANCH  46  49
ATOM     49  O6D ACR d   1      20.444  -2.775  11.014  0.00  0.00    -0.398 OA
ATOM     50  H44 ACR d   1      20.667  -2.795  11.937  0.00  0.00     0.209 HD
ENDBRANCH  46  49
ENDBRANCH  37  46
ENDBRANCH  28  29
ENDBRANCH  17  28
BRANCH  21  51
ATOM     51  C6C ACR d   1      17.711  -7.242  11.576  0.00  0.00     0.043 C 
ATOM     52  H29 ACR d   1      16.867  -7.692  11.032  0.00  0.00     0.078 H 
ATOM     53  H30 ACR d   1      18.148  -7.987  12.257  0.00  0.00     0.078 H 
BRANCH  51  54
ATOM     54  O6C ACR d   1      18.706  -6.791  10.644  0.00  0.00    -0.398 OA
ATOM     55  H33 ACR d   1      19.430  -6.401  11.120  0.00  0.00     0.209 HD
ENDBRANCH  51  54
ENDBRANCH  21  51
ENDBRANCH  12  13
ENDBRANCH   1  12
BRANCH   2  56
ATOM     56  O2B ACR d   1      16.960  -6.921  17.306  0.00  0.00    -0.388 OA
ATOM     57  H22 ACR d   1      16.025  -7.049  17.195  0.00  0.00     0.210 HD
ENDBRANCH   2  56
BRANCH   3  58
ATOM     58  O3B ACR d   1      19.499  -7.865  18.292  0.00  0.00    -0.391 OA
ATOM     59  H23 ACR d   1      20.417  -7.653  18.415  0.00  0.00     0.210 HD
ENDBRANCH   3  58
BRANCH   5  60
ATOM     60  C6B ACR d   1      20.164 -10.252  14.030  0.00  0.00    -0.050 C 
ATOM     61  H17 ACR d   1      19.782 -10.373  13.005  0.00  0.00     0.031 H 
ATOM     62  H18 ACR d   1      19.919 -11.148  14.620  0.00  0.00     0.031 H 
ATOM     63  H19 ACR d   1      21.256 -10.119  14.001  0.00  0.00     0.031 H 
ENDBRANCH   5  60
BRANCH   4  64
ATOM     64  N4B ACR d   1      21.427  -8.368  16.028  0.00  0.00    -0.056 N 
ATOM     65  H20 ACR d   1      21.789  -8.673  15.138  0.00  0.00     0.278 HD
ATOM     66  H21 ACR d   1      21.403  -7.361  16.054  0.00  0.00     0.278 HD
BRANCH  64  67
ATOM     67  C1A ACR d   1      22.377  -8.797  17.044  0.00  0.00     0.146 C 
ATOM     68  C2A ACR d   1      23.435  -7.718  17.363  0.00  0.00     0.093 C 
ATOM     69  C3A ACR d   1      24.669  -7.850  16.482  0.00  0.00     0.091 C 
ATOM     70  H2  ACR d   1      23.732  -7.834  18.416  0.00  0.00     0.090 H 
ATOM     71  C4A ACR d   1      25.324  -9.230  16.574  0.00  0.00     0.086 C 
ATOM     72  H3  ACR d   1      24.367  -7.683  15.438  0.00  0.00     0.091 H 
ATOM     73  C5A ACR d   1      24.312 -10.331  16.446  0.00  0.00    -0.027 C 
ATOM     74  H4  ACR d   1      25.825  -9.324  17.549  0.00  0.00     0.094 H 
ATOM     75  C7A ACR d   1      22.996 -10.125  16.628  0.00  0.00    -0.064 C 
ATOM     76  H7  ACR d   1      22.325 -10.967  16.466  0.00  0.00     0.080 H 
ATOM     77  H1  ACR d   1      21.812  -8.973  17.971  0.00  0.00     0.095 H 
BRANCH  68  78
ATOM     78  O2A ACR d   1      22.924  -6.391  17.164  0.00  0.00    -0.390 OA
ATOM     79  H8  ACR d   1      22.149  -6.268  17.699  0.00  0.00     0.210 HD
ENDBRANCH  68  78
BRANCH  69  80
ATOM     80  O3A ACR d   1      25.619  -6.842  16.860  0.00  0.00    -0.390 OA
ATOM     81  H9  ACR d   1      25.211  -5.986  16.802  0.00  0.00     0.210 HD
ENDBRANCH  69  80
BRANCH  71  82
ATOM     82  O4A ACR d   1      26.301  -9.338  15.524  0.00  0.00    -0.388 OA
ATOM     83  H10 ACR d   1      26.937  -8.638  15.612  0.00  0.00     0.210 HD
ENDBRANCH  71  82
BRANCH  73  84
ATOM     84  C6A ACR d   1      24.785 -11.724  16.108  0.00  0.00     0.039 C 
ATOM     85  H5  ACR d   1      25.742 -11.672  15.569  0.00  0.00     0.081 H 
ATOM     86  H6  ACR d   1      24.037 -12.229  15.479  0.00  0.00     0.081 H 
BRANCH  84  87
ATOM     87  O6A ACR d   1      24.957 -12.446  17.330  0.00  0.00    -0.397 OA
ATOM     88  H11 ACR d   1      24.128 -12.485  17.793  0.00  0.00     0.209 HD
ENDBRANCH  84  87
ENDBRANCH  73  84
ENDBRANCH  64  67
ENDBRANCH   4  64
TORSDOF 23
