REMARK  27 active torsions:
REMARK  status: ('A' for Active; 'I' for Inactive)
REMARK    1  A    between atoms: N_1  and  CA_2 
REMARK    2  A    between atoms: CA_2  and  C_3 
REMARK    3  A    between atoms: CA_2  and  CB_5 
REMARK       I    between atoms: C_3  and  N_9 
REMARK    4  A    between atoms: CB_5  and  CG_6 
REMARK    5  A    between atoms: N_9  and  CA_10 
REMARK    6  A    between atoms: CA_10  and  C_11 
REMARK    7  A    between atoms: CA_10  and  CB_13 
REMARK       I    between atoms: C_11  and  N_20 
REMARK    8  A    between atoms: CB_13  and  CG_14 
REMARK    9  A    between atoms: N_20  and  CA_21 
REMARK   10  A    between atoms: CA_21  and  CB_22 
REMARK   11  A    between atoms: CA_21  and  C_27 
REMARK   12  A    between atoms: CB_22  and  CG_23 
REMARK   13  A    between atoms: CG_23  and  CD_24 
REMARK   14  A    between atoms: CD_24  and  CE_25 
REMARK   15  A    between atoms: CE_25  and  NZ_26 
REMARK   16  A    between atoms: NZ_26  and  CM1_29 
REMARK   17  A    between atoms: NZ_26  and  CM2_30 
REMARK   18  A    between atoms: NZ_26  and  CM3_31 
REMARK       I    between atoms: C_27  and  N_32 
REMARK   19  A    between atoms: N_32  and  CA_33 
REMARK   20  A    between atoms: CA_33  and  C_34 
REMARK   21  A    between atoms: CA_33  and  CB_36 
REMARK       I    between atoms: C_34  and  N_39 
REMARK   22  A    between atoms: CB_36  and  OG1_37 
REMARK   23  A    between atoms: CB_36  and  CG2_38 
REMARK   24  A    between atoms: N_39  and  CA_40 
REMARK   25  A    between atoms: CA_40  and  C_41 
REMARK   26  A    between atoms: CA_40  and  CB_43 
REMARK   27  A    between atoms: CB_43  and  CG_44 
ROOT
ATOM      1  CA  M3L d   1      17.330  13.057 -27.381  0.00  0.00     0.089 C 
ATOM      2  H17 M3L d   1      16.743  12.515 -26.625  0.00  0.00     0.087 H 
ENDROOT
BRANCH   1   3
ATOM      3  N   M3L d   1      18.374  12.113 -27.884  0.00  0.00    -0.346 N 
ATOM      4  C   PHE d   1      18.143  10.805 -28.082  0.00  0.00     0.241 C 
ATOM      5  O   PHE d   1      17.052  10.301 -27.827  0.00  0.00    -0.271 OA
ATOM      6  H16 M3L d   1      19.286  12.472 -28.082  0.00  0.00     0.163 HD
BRANCH   4   7
ATOM      7  CA  PHE d   1      19.296   9.901 -28.666  0.00  0.00     0.093 C 
ATOM      8  H8  PHE d   1      20.247  10.454 -28.676  0.00  0.00     0.088 H 
BRANCH   7   9
ATOM      9  N   PHE d   1      19.427   8.647 -27.861  0.00  0.00    -0.346 N 
ATOM     10  C   ASP d   1      20.164   8.439 -26.760  0.00  0.00     0.249 C 
ATOM     11  O   ASP d   1      20.676   9.343 -26.125  0.00  0.00    -0.271 OA
ATOM     12  H7  PHE d   1      18.897   7.863 -28.185  0.00  0.00     0.163 HD
BRANCH  10  13
ATOM     13  CA  ASP d   1      20.271   6.964 -26.252  0.00  0.00     0.185 C 
ATOM     14  H4  ASP d   1      19.600   6.365 -26.885  0.00  0.00     0.100 H 
BRANCH  13  15
ATOM     15  N   ASP d   1      21.606   6.319 -26.299  0.00  0.00    -0.066 N 
ATOM     16  H1  ASP d   1      21.537   5.377 -25.946  0.00  0.00     0.275 HD
ATOM     17  H2  ASP d   1      22.253   6.844 -25.732  0.00  0.00     0.275 HD
ATOM     18  H3  ASP d   1      21.935   6.297 -27.251  0.00  0.00     0.275 HD
ENDBRANCH  13  15
BRANCH  13  19
ATOM     19  CB  ASP d   1      19.788   6.880 -24.820  0.00  0.00     0.050 C 
ATOM     20  H5  ASP d   1      20.403   7.547 -24.198  0.00  0.00     0.052 H 
ATOM     21  H6  ASP d   1      19.900   5.844 -24.468  0.00  0.00     0.052 H 
BRANCH  19  22
ATOM     22  CG  ASP d   1      18.364   7.280 -24.687  0.00  0.00     0.175 C 
ATOM     23  OD1 ASP d   1      17.642   7.215 -25.732  0.00  0.00    -0.648 OA
ATOM     24  OD2 ASP d   1      17.949   7.670 -23.555  0.00  0.00    -0.648 OA
ENDBRANCH  19  22
ENDBRANCH  13  19
ENDBRANCH  10  13
ENDBRANCH   7   9
BRANCH   7  25
ATOM     25  CB  PHE d   1      18.884   9.470 -30.109  0.00  0.00    -0.014 C 
ATOM     26  H9  PHE d   1      17.979  10.035 -30.377  0.00  0.00     0.043 H 
ATOM     27  H10 PHE d   1      18.649   8.396 -30.079  0.00  0.00     0.043 H 
BRANCH  25  28
ATOM     28  CG  PHE d   1      19.929   9.690 -31.247  0.00  0.00    -0.056 A 
ATOM     29  CD1 PHE d   1      21.343   9.741 -31.015  0.00  0.00    -0.077 A 
ATOM     30  CE1 PHE d   1      22.278   9.932 -32.133  0.00  0.00    -0.082 A 
ATOM     31  H11 PHE d   1      21.726   9.638 -30.006  0.00  0.00     0.084 H 
ATOM     32  CZ  PHE d   1      21.766  10.058 -33.493  0.00  0.00    -0.083 A 
ATOM     33  H13 PHE d   1      23.345   9.979 -31.947  0.00  0.00     0.083 H 
ATOM     34  CE2 PHE d   1      20.366   9.994 -33.729  0.00  0.00    -0.082 A 
ATOM     35  H15 PHE d   1      22.451  10.200 -34.321  0.00  0.00     0.083 H 
ATOM     36  CD2 PHE d   1      19.461   9.793 -32.607  0.00  0.00    -0.077 A 
ATOM     37  H14 PHE d   1      19.976  10.094 -34.735  0.00  0.00     0.083 H 
ATOM     38  H12 PHE d   1      18.397   9.718 -32.801  0.00  0.00     0.084 H 
ENDBRANCH  25  28
ENDBRANCH   7  25
ENDBRANCH   4   7
ENDBRANCH   1   3
BRANCH   1  39
ATOM     39  CB  M3L d   1      17.875  14.336 -26.688  0.00  0.00    -0.038 C 
ATOM     40  H18 M3L d   1      18.351  14.967 -27.453  0.00  0.00     0.036 H 
ATOM     41  H19 M3L d   1      18.626  14.032 -25.944  0.00  0.00     0.036 H 
BRANCH  39  42
ATOM     42  CG  M3L d   1      16.798  15.174 -25.972  0.00  0.00    -0.061 C 
ATOM     43  H20 M3L d   1      16.404  14.571 -25.141  0.00  0.00     0.033 H 
ATOM     44  H21 M3L d   1      15.993  15.371 -26.695  0.00  0.00     0.033 H 
BRANCH  42  45
ATOM     45  CD  M3L d   1      17.247  16.526 -25.395  0.00  0.00    -0.042 C 
ATOM     46  H22 M3L d   1      17.581  17.164 -26.227  0.00  0.00     0.035 H 
ATOM     47  H23 M3L d   1      18.088  16.348 -24.709  0.00  0.00     0.035 H 
BRANCH  45  48
ATOM     48  CE  M3L d   1      16.134  17.278 -24.619  0.00  0.00     0.084 C 
ATOM     49  H24 M3L d   1      15.717  16.588 -23.871  0.00  0.00     0.076 H 
ATOM     50  H25 M3L d   1      15.350  17.558 -25.337  0.00  0.00     0.076 H 
BRANCH  48  51
ATOM     51  NZ  M3L d   1      16.573  18.519 -23.908  0.00  0.00    -0.079 N 
BRANCH  51  52
ATOM     52  CM1 M3L d   1      17.293  18.280 -22.627  0.00  0.00     0.067 C 
ATOM     53  H26 M3L d   1      17.575  19.244 -22.179  0.00  0.00     0.068 H 
ATOM     54  H27 M3L d   1      18.199  17.687 -22.821  0.00  0.00     0.068 H 
ATOM     55  H28 M3L d   1      16.637  17.732 -21.934  0.00  0.00     0.068 H 
ENDBRANCH  51  52
BRANCH  51  56
ATOM     56  CM2 M3L d   1      15.341  19.222 -23.527  0.00  0.00     0.067 C 
ATOM     57  H29 M3L d   1      14.748  19.437 -24.428  0.00  0.00     0.068 H 
ATOM     58  H30 M3L d   1      15.598  20.166 -23.024  0.00  0.00     0.068 H 
ATOM     59  H31 M3L d   1      14.755  18.590 -22.844  0.00  0.00     0.068 H 
ENDBRANCH  51  56
BRANCH  51  60
ATOM     60  CM3 M3L d   1      17.411  19.338 -24.833  0.00  0.00     0.067 C 
ATOM     61  H32 M3L d   1      18.322  18.779 -25.095  0.00  0.00     0.068 H 
ATOM     62  H33 M3L d   1      17.689  20.281 -24.339  0.00  0.00     0.068 H 
ATOM     63  H34 M3L d   1      16.840  19.558 -25.747  0.00  0.00     0.068 H 
ENDBRANCH  51  60
ENDBRANCH  48  51
ENDBRANCH  45  48
ENDBRANCH  42  45
ENDBRANCH  39  42
ENDBRANCH   1  39
BRANCH   1  64
ATOM     64  C   M3L d   1      16.399  13.415 -28.526  0.00  0.00     0.241 C 
ATOM     65  O   M3L d   1      15.231  13.769 -28.341  0.00  0.00    -0.271 OA
ATOM     66  N   THR d   1      16.954  13.250 -29.724  0.00  0.00    -0.344 N 
ATOM     67  H35 THR d   1      17.858  12.822 -29.751  0.00  0.00     0.163 HD
BRANCH  66  68
ATOM     68  CA  THR d   1      16.364  13.637 -31.006  0.00  0.00     0.113 C 
ATOM     69  H36 THR d   1      15.275  13.721 -30.878  0.00  0.00     0.091 H 
BRANCH  68  70
ATOM     70  C   THR d   1      16.650  12.626 -32.159  0.00  0.00     0.243 C 
ATOM     71  O   THR d   1      17.644  11.907 -32.142  0.00  0.00    -0.271 OA
ATOM     72  N   ASP d   1      15.816  12.610 -33.188  0.00  0.00    -0.344 N 
ATOM     73  H42 ASP d   1      14.973  13.147 -33.155  0.00  0.00     0.163 HD
BRANCH  72  74
ATOM     74  CA  ASP d   1      16.126  11.802 -34.383  0.00  0.00     0.105 C 
ATOM     75  H43 ASP d   1      16.797  10.993 -34.056  0.00  0.00     0.090 H 
BRANCH  74  76
ATOM     76  C   ASP d   1      16.864  12.581 -35.459  0.00  0.00     0.197 C 
ATOM     77  O   ASP d   1      17.328  11.961 -36.412  0.00  0.00    -0.646 OA
ATOM     78  O1  ASP d   1      16.996  13.831 -35.375  0.00  0.00    -0.646 OA
ENDBRANCH  74  76
BRANCH  74  79
ATOM     79  CB  ASP d   1      14.854  11.141 -34.956  0.00  0.00     0.044 C 
ATOM     80  H44 ASP d   1      14.828  10.090 -34.633  0.00  0.00     0.053 H 
ATOM     81  H45 ASP d   1      14.898  11.186 -36.054  0.00  0.00     0.053 H 
BRANCH  79  82
ATOM     82  CG  ASP d   1      13.564  11.831 -34.488  0.00  0.00     0.175 C 
ATOM     83  OD1 ASP d   1      12.514  11.150 -34.496  0.00  0.00    -0.648 OA
ATOM     84  OD2 ASP d   1      13.594  13.028 -34.090  0.00  0.00    -0.648 OA
ENDBRANCH  79  82
ENDBRANCH  74  79
ENDBRANCH  72  74
ENDBRANCH  68  70
BRANCH  68  85
ATOM     85  CB  THR d   1      16.944  15.007 -31.407  0.00  0.00     0.060 C 
ATOM     86  H37 THR d   1      16.736  15.729 -30.604  0.00  0.00     0.086 H 
BRANCH  85  87
ATOM     87  OG1 THR d   1      16.306  15.423 -32.589  0.00  0.00    -0.393 OA
ATOM     88  H38 THR d   1      16.466  14.786 -33.275  0.00  0.00     0.210 HD
ENDBRANCH  85  87
BRANCH  85  89
ATOM     89  CG2 THR d   1      18.534  14.955 -31.651  0.00  0.00    -0.050 C 
ATOM     90  H39 THR d   1      18.895  15.955 -31.934  0.00  0.00     0.031 H 
ATOM     91  H40 THR d   1      18.758  14.243 -32.459  0.00  0.00     0.031 H 
ATOM     92  H41 THR d   1      19.036  14.632 -30.727  0.00  0.00     0.031 H 
ENDBRANCH  85  89
ENDBRANCH  68  85
ENDBRANCH  66  68
ENDBRANCH   1  64
TORSDOF 27
