REMARK  23 active torsions:
REMARK  status: ('A' for Active; 'I' for Inactive)
REMARK    1  A    between atoms: N4B_18  and  C1A_1 
REMARK    2  A    between atoms: C2A_2  and  O2A_8 
REMARK    3  A    between atoms: C3A_3  and  O3A_9 
REMARK    4  A    between atoms: C4A_4  and  O4A_10 
REMARK    5  A    between atoms: C5A_5  and  C6A_6 
REMARK    6  A    between atoms: C6A_6  and  O6A_11 
REMARK    7  A    between atoms: O4C_30  and  C1B_12 
REMARK    8  A    between atoms: C2B_13  and  O2B_19 
REMARK    9  A    between atoms: C3B_14  and  O3B_20 
REMARK   10  A    between atoms: C4B_15  and  N4B_18 
REMARK   11  A    between atoms: C5B_16  and  C6B_17 
REMARK   12  A    between atoms: O4D_42  and  C1C_22 
REMARK   13  A    between atoms: C2C_23  and  O2C_28 
REMARK   14  A    between atoms: C3C_24  and  O3C_29 
REMARK   15  A    between atoms: C4C_25  and  O4C_30 
REMARK   16  A    between atoms: C5C_26  and  C6C_27 
REMARK   17  A    between atoms: C6C_27  and  O6C_32 
REMARK   18  A    between atoms: C1D_33  and  O1D_39 
REMARK   19  A    between atoms: C2D_34  and  O2D_40 
REMARK   20  A    between atoms: C3D_35  and  O3D_41 
REMARK   21  A    between atoms: C4D_36  and  O4D_42 
REMARK   22  A    between atoms: C5D_37  and  C6D_38 
REMARK   23  A    between atoms: C6D_38  and  O6D_44 
ROOT
ATOM      1  C1B ACR d   1      -4.598  -6.766  23.923  0.00  0.00     0.159 C 
ATOM      2  C2B ACR d   1      -3.789  -7.990  24.324  0.00  0.00     0.110 C 
ATOM      3  C3B ACR d   1      -3.891  -8.992  23.181  0.00  0.00     0.094 C 
ATOM      4  C4B ACR d   1      -5.342  -9.435  23.053  0.00  0.00     0.154 C 
ATOM      5  C5B ACR d   1      -6.249  -8.208  22.901  0.00  0.00     0.068 C 
ATOM      6  O5B ACR d   1      -5.965  -7.210  23.894  0.00  0.00    -0.351 OA
ATOM      7  H12 ACR d   1      -4.485  -5.974  24.678  0.00  0.00     0.133 H 
ATOM      8  H13 ACR d   1      -4.237  -8.432  25.226  0.00  0.00     0.094 H 
ATOM      9  H14 ACR d   1      -3.562  -8.505  22.251  0.00  0.00     0.090 H 
ATOM     10  H15 ACR d   1      -5.625  -9.986  23.962  0.00  0.00     0.092 H 
ATOM     11  H16 ACR d   1      -6.120  -7.791  21.891  0.00  0.00     0.086 H 
ENDROOT
BRANCH   1  12
ATOM     12  O4C ACR d   1      -4.128  -6.250  22.631  0.00  0.00    -0.348 OA
BRANCH  12  13
ATOM     13  C4C ACR d   1      -4.228  -4.855  22.378  0.00  0.00     0.096 C 
ATOM     14  C3C ACR d   1      -2.937  -4.454  21.690  0.00  0.00     0.092 C 
ATOM     15  C2C ACR d   1      -3.014  -2.962  21.347  0.00  0.00     0.110 C 
ATOM     16  H26 ACR d   1      -2.789  -5.056  20.781  0.00  0.00     0.091 H 
ATOM     17  C1C ACR d   1      -4.214  -2.678  20.468  0.00  0.00     0.159 C 
ATOM     18  H25 ACR d   1      -3.117  -2.398  22.286  0.00  0.00     0.094 H 
ATOM     19  O5C ACR d   1      -5.385  -3.116  21.112  0.00  0.00    -0.348 OA
ATOM     20  H24 ACR d   1      -4.283  -1.598  20.272  0.00  0.00     0.133 H 
ATOM     21  C5C ACR d   1      -5.394  -4.507  21.462  0.00  0.00     0.089 C 
ATOM     22  H28 ACR d   1      -5.317  -5.116  20.549  0.00  0.00     0.090 H 
ATOM     23  H27 ACR d   1      -4.341  -4.314  23.329  0.00  0.00     0.091 H 
BRANCH  14  24
ATOM     24  O3C ACR d   1      -1.845  -4.621  22.575  0.00  0.00    -0.390 OA
ATOM     25  H32 ACR d   1      -1.789  -5.532  22.839  0.00  0.00     0.210 HD
ENDBRANCH  14  24
BRANCH  15  26
ATOM     26  O2C ACR d   1      -1.845  -2.507  20.668  0.00  0.00    -0.388 OA
ATOM     27  H31 ACR d   1      -1.933  -1.581  20.474  0.00  0.00     0.210 HD
ENDBRANCH  15  26
BRANCH  17  28
ATOM     28  O4D ACR d   1      -4.060  -3.385  19.231  0.00  0.00    -0.348 OA
BRANCH  28  29
ATOM     29  C4D ACR d   1      -4.359  -2.612  18.029  0.00  0.00     0.096 C 
ATOM     30  C3D ACR d   1      -3.041  -2.236  17.367  0.00  0.00     0.092 C 
ATOM     31  C2D ACR d   1      -3.332  -1.657  15.997  0.00  0.00     0.110 C 
ATOM     32  H36 ACR d   1      -2.404  -3.128  17.271  0.00  0.00     0.091 H 
ATOM     33  C1D ACR d   1      -4.103  -2.635  15.144  0.00  0.00     0.156 C 
ATOM     34  H35 ACR d   1      -3.958  -0.762  16.128  0.00  0.00     0.094 H 
ATOM     35  O5D ACR d   1      -5.364  -2.947  15.790  0.00  0.00    -0.349 OA
ATOM     36  H34 ACR d   1      -4.277  -2.225  14.138  0.00  0.00     0.133 H 
ATOM     37  C5D ACR d   1      -5.237  -3.485  17.148  0.00  0.00     0.089 C 
ATOM     38  H38 ACR d   1      -4.749  -4.469  17.082  0.00  0.00     0.090 H 
ATOM     39  H37 ACR d   1      -4.905  -1.694  18.291  0.00  0.00     0.091 H 
BRANCH  30  40
ATOM     40  O3D ACR d   1      -2.373  -1.246  18.153  0.00  0.00    -0.390 OA
ATOM     41  H43 ACR d   1      -1.551  -1.014  17.737  0.00  0.00     0.210 HD
ENDBRANCH  30  40
BRANCH  31  42
ATOM     42  O2D ACR d   1      -2.096  -1.248  15.373  0.00  0.00    -0.388 OA
ATOM     43  H42 ACR d   1      -2.281  -0.885  14.515  0.00  0.00     0.210 HD
ENDBRANCH  31  42
BRANCH  33  44
ATOM     44  O1D ACR d   1      -3.337  -3.805  15.084  0.00  0.00    -0.369 OA
ATOM     45  H41 ACR d   1      -3.805  -4.463  14.584  0.00  0.00     0.212 HD
ENDBRANCH  33  44
BRANCH  37  46
ATOM     46  C6D ACR d   1      -6.651  -3.699  17.706  0.00  0.00     0.043 C 
ATOM     47  H39 ACR d   1      -6.603  -4.062  18.743  0.00  0.00     0.078 H 
ATOM     48  H40 ACR d   1      -7.201  -4.424  17.088  0.00  0.00     0.078 H 
BRANCH  46  49
ATOM     49  O6D ACR d   1      -7.285  -2.418  17.655  0.00  0.00    -0.398 OA
ATOM     50  H44 ACR d   1      -7.310  -2.114  16.755  0.00  0.00     0.209 HD
ENDBRANCH  46  49
ENDBRANCH  37  46
ENDBRANCH  28  29
ENDBRANCH  17  28
BRANCH  21  51
ATOM     51  C6C ACR d   1      -6.732  -4.778  22.145  0.00  0.00     0.043 C 
ATOM     52  H29 ACR d   1      -6.873  -4.059  22.965  0.00  0.00     0.078 H 
ATOM     53  H30 ACR d   1      -6.732  -5.801  22.550  0.00  0.00     0.078 H 
BRANCH  51  54
ATOM     54  O6C ACR d   1      -7.825  -4.639  21.190  0.00  0.00    -0.398 OA
ATOM     55  H33 ACR d   1      -8.650  -4.810  21.628  0.00  0.00     0.209 HD
ENDBRANCH  51  54
ENDBRANCH  21  51
ENDBRANCH  12  13
ENDBRANCH   1  12
BRANCH   2  56
ATOM     56  O2B ACR d   1      -2.435  -7.659  24.623  0.00  0.00    -0.388 OA
ATOM     57  H22 ACR d   1      -2.026  -7.277  23.855  0.00  0.00     0.210 HD
ENDBRANCH   2  56
BRANCH   3  58
ATOM     58  O3B ACR d   1      -3.100 -10.181  23.396  0.00  0.00    -0.391 OA
ATOM     59  H23 ACR d   1      -2.185  -9.940  23.481  0.00  0.00     0.210 HD
ENDBRANCH   3  58
BRANCH   5  60
ATOM     60  C6B ACR d   1      -7.724  -8.572  23.149  0.00  0.00    -0.050 C 
ATOM     61  H17 ACR d   1      -8.348  -7.673  23.033  0.00  0.00     0.031 H 
ATOM     62  H18 ACR d   1      -7.838  -8.968  24.169  0.00  0.00     0.031 H 
ATOM     63  H19 ACR d   1      -8.041  -9.335  22.422  0.00  0.00     0.031 H 
ENDBRANCH   5  60
BRANCH   4  64
ATOM     64  N4B ACR d   1      -5.531 -10.308  21.886  0.00  0.00    -0.056 N 
ATOM     65  H20 ACR d   1      -6.177  -9.837  21.272  0.00  0.00     0.278 HD
ATOM     66  H21 ACR d   1      -4.634 -10.386  21.433  0.00  0.00     0.278 HD
BRANCH  64  67
ATOM     67  C1A ACR d   1      -6.042 -11.692  22.066  0.00  0.00     0.146 C 
ATOM     68  C2A ACR d   1      -5.260 -12.637  21.171  0.00  0.00     0.093 C 
ATOM     69  C3A ACR d   1      -5.670 -12.393  19.707  0.00  0.00     0.091 C 
ATOM     70  H2  ACR d   1      -5.497 -13.674  21.451  0.00  0.00     0.090 H 
ATOM     71  C4A ACR d   1      -7.169 -12.709  19.524  0.00  0.00     0.086 C 
ATOM     72  H3  ACR d   1      -5.527 -11.323  19.497  0.00  0.00     0.091 H 
ATOM     73  C5A ACR d   1      -8.038 -12.210  20.647  0.00  0.00    -0.027 C 
ATOM     74  H4  ACR d   1      -7.279 -13.803  19.484  0.00  0.00     0.094 H 
ATOM     75  C7A ACR d   1      -7.520 -11.833  21.821  0.00  0.00    -0.064 C 
ATOM     76  H7  ACR d   1      -8.203 -11.617  22.642  0.00  0.00     0.080 H 
ATOM     77  H1  ACR d   1      -5.856 -11.979  23.112  0.00  0.00     0.095 H 
BRANCH  68  78
ATOM     78  O2A ACR d   1      -3.839 -12.428  21.301  0.00  0.00    -0.390 OA
ATOM     79  H8  ACR d   1      -3.378 -13.034  20.733  0.00  0.00     0.210 HD
ENDBRANCH  68  78
BRANCH  69  80
ATOM     80  O3A ACR d   1      -4.846 -13.124  18.769  0.00  0.00    -0.390 OA
ATOM     81  H9  ACR d   1      -4.972 -14.057  18.898  0.00  0.00     0.210 HD
ENDBRANCH  69  80
BRANCH  71  82
ATOM     82  O4A ACR d   1      -7.604 -12.159  18.257  0.00  0.00    -0.388 OA
ATOM     83  H10 ACR d   1      -8.502 -12.421  18.091  0.00  0.00     0.210 HD
ENDBRANCH  71  82
BRANCH  73  84
ATOM     84  C6A ACR d   1      -9.527 -12.168  20.375  0.00  0.00     0.039 C 
ATOM     85  H5  ACR d   1      -9.850 -13.178  20.082  0.00  0.00     0.081 H 
ATOM     86  H6  ACR d   1      -9.703 -11.471  19.543  0.00  0.00     0.081 H 
BRANCH  84  87
ATOM     87  O6A ACR d   1     -10.336 -11.745  21.493  0.00  0.00    -0.397 OA
ATOM     88  H11 ACR d   1     -10.207 -12.343  22.220  0.00  0.00     0.209 HD
ENDBRANCH  84  87
ENDBRANCH  73  84
ENDBRANCH  64  67
ENDBRANCH   4  64
TORSDOF 23
