REMARK  24 active torsions:
REMARK  status: ('A' for Active; 'I' for Inactive)
REMARK    1  A    between atoms: O14_1  and  C14_2 
REMARK    2  A    between atoms: C13_3  and  O13_4 
REMARK    3  A    between atoms: C12_5  and  O12_6 
REMARK    4  A    between atoms: C11_7  and  O24_12 
REMARK    5  A    between atoms: C15_8  and  C16_10 
REMARK    6  A    between atoms: C16_10  and  O16_11 
REMARK    7  A    between atoms: O24_12  and  C24_13 
REMARK    8  A    between atoms: C23_14  and  O23_15 
REMARK    9  A    between atoms: C22_16  and  O22_17 
REMARK   10  A    between atoms: C21_18  and  O34_23 
REMARK   11  A    between atoms: C25_19  and  C26_21 
REMARK   12  A    between atoms: C26_21  and  O26_22 
REMARK   13  A    between atoms: O34_23  and  C34_24 
REMARK   14  A    between atoms: C33_25  and  O33_26 
REMARK   15  A    between atoms: C32_27  and  O32_28 
REMARK   16  A    between atoms: C31_29  and  O44_34 
REMARK   17  A    between atoms: C35_30  and  C36_32 
REMARK   18  A    between atoms: C36_32  and  O36_33 
REMARK   19  A    between atoms: O44_34  and  C44_35 
REMARK   20  A    between atoms: C43_36  and  O43_37 
REMARK   21  A    between atoms: C42_38  and  O42_39 
REMARK   22  A    between atoms: C41_40  and  O41_41 
REMARK   23  A    between atoms: C45_42  and  C46_44 
REMARK   24  A    between atoms: C46_44  and  O46_45 
ROOT
ATOM      1  O34 MTT d   1      -4.016  -6.309  22.629  0.00  0.00    -0.348 OA
ENDROOT
BRANCH   1   2
ATOM      2  C21 MTT d   1      -4.521  -6.714  23.920  0.00  0.00     0.159 C 
ATOM      3  C22 MTT d   1      -3.679  -7.858  24.453  0.00  0.00     0.110 C 
ATOM      4  C23 MTT d   1      -3.694  -8.990  23.438  0.00  0.00     0.092 C 
ATOM      5  H15 MTT d   1      -4.125  -8.226  25.389  0.00  0.00     0.094 H 
ATOM      6  C24 MTT d   1      -5.133  -9.490  23.242  0.00  0.00     0.096 C 
ATOM      7  H13 MTT d   1      -3.329  -8.609  22.473  0.00  0.00     0.091 H 
ATOM      8  C25 MTT d   1      -6.132  -8.333  23.078  0.00  0.00     0.089 C 
ATOM      9  H12 MTT d   1      -5.419 -10.086  24.121  0.00  0.00     0.091 H 
ATOM     10  O25 MTT d   1      -5.881  -7.199  23.925  0.00  0.00    -0.348 OA
ATOM     11  H18 MTT d   1      -6.091  -8.004  22.029  0.00  0.00     0.090 H 
ATOM     12  H17 MTT d   1      -4.452  -5.850  24.598  0.00  0.00     0.133 H 
BRANCH   3  13
ATOM     13  O22 MTT d   1      -2.365  -7.386  24.741  0.00  0.00    -0.388 OA
ATOM     14  H16 MTT d   1      -1.963  -7.064  23.943  0.00  0.00     0.210 HD
ENDBRANCH   3  13
BRANCH   4  15
ATOM     15  O23 MTT d   1      -2.800 -10.027  23.883  0.00  0.00    -0.390 OA
ATOM     16  H14 MTT d   1      -2.780 -10.725  23.239  0.00  0.00     0.210 HD
ENDBRANCH   4  15
BRANCH   6  17
ATOM     17  O24 MTT d   1      -5.210 -10.310  22.065  0.00  0.00    -0.348 OA
BRANCH  17  18
ATOM     18  C11 MTT d   1      -6.283 -11.275  22.102  0.00  0.00     0.159 C 
ATOM     19  C12 MTT d   1      -7.162 -11.219  20.853  0.00  0.00     0.110 C 
ATOM     20  C13 MTT d   1      -6.421 -11.618  19.553  0.00  0.00     0.092 C 
ATOM     21  H5  MTT d   1      -7.500 -10.181  20.722  0.00  0.00     0.094 H 
ATOM     22  C14 MTT d   1      -5.025 -12.229  19.761  0.00  0.00     0.090 C 
ATOM     23  H3  MTT d   1      -6.275 -10.691  18.979  0.00  0.00     0.091 H 
ATOM     24  C15 MTT d   1      -4.733 -12.799  21.151  0.00  0.00     0.089 C 
ATOM     25  H2  MTT d   1      -4.311 -11.410  19.588  0.00  0.00     0.091 H 
ATOM     26  O15 MTT d   1      -5.737 -12.579  22.155  0.00  0.00    -0.348 OA
ATOM     27  H8  MTT d   1      -4.661 -13.890  21.027  0.00  0.00     0.090 H 
ATOM     28  H7  MTT d   1      -6.901 -11.088  22.993  0.00  0.00     0.133 H 
BRANCH  19  29
ATOM     29  O12 MTT d   1      -8.317 -12.038  21.111  0.00  0.00    -0.388 OA
ATOM     30  H6  MTT d   1      -8.930 -11.955  20.390  0.00  0.00     0.210 HD
ENDBRANCH  19  29
BRANCH  20  31
ATOM     31  O13 MTT d   1      -7.233 -12.490  18.762  0.00  0.00    -0.390 OA
ATOM     32  H4  MTT d   1      -8.091 -12.100  18.642  0.00  0.00     0.210 HD
ENDBRANCH  20  31
BRANCH  22  33
ATOM     33  O14 MTT d   1      -4.718 -13.283  18.836  0.00  0.00    -0.390 OA
ATOM     34  H1  MTT d   1      -5.353 -13.983  18.933  0.00  0.00     0.210 HD
ENDBRANCH  22  33
BRANCH  24  35
ATOM     35  C16 MTT d   1      -3.378 -12.307  21.633  0.00  0.00     0.043 C 
ATOM     36  H9  MTT d   1      -3.297 -11.223  21.467  0.00  0.00     0.078 H 
ATOM     37  H10 MTT d   1      -2.579 -12.823  21.081  0.00  0.00     0.078 H 
BRANCH  35  38
ATOM     38  O16 MTT d   1      -3.258 -12.589  23.026  0.00  0.00    -0.398 OA
ATOM     39  H11 MTT d   1      -3.951 -12.143  23.499  0.00  0.00     0.209 HD
ENDBRANCH  35  38
ENDBRANCH  24  35
ENDBRANCH  17  18
ENDBRANCH   6  17
BRANCH   8  40
ATOM     40  C26 MTT d   1      -7.558  -8.790  23.414  0.00  0.00     0.043 C 
ATOM     41  H19 MTT d   1      -7.845  -8.460  24.423  0.00  0.00     0.078 H 
ATOM     42  H20 MTT d   1      -7.641  -9.885  23.349  0.00  0.00     0.078 H 
BRANCH  40  43
ATOM     43  O26 MTT d   1      -8.361  -8.174  22.444  0.00  0.00    -0.398 OA
ATOM     44  H21 MTT d   1      -9.269  -8.412  22.588  0.00  0.00     0.209 HD
ENDBRANCH  40  43
ENDBRANCH   8  40
ENDBRANCH   1   2
BRANCH   1  45
ATOM     45  C34 MTT d   1      -4.114  -4.888  22.369  0.00  0.00     0.096 C 
ATOM     46  C33 MTT d   1      -2.779  -4.401  21.763  0.00  0.00     0.092 C 
ATOM     47  C32 MTT d   1      -2.931  -2.917  21.406  0.00  0.00     0.110 C 
ATOM     48  H23 MTT d   1      -2.557  -4.986  20.858  0.00  0.00     0.091 H 
ATOM     49  C31 MTT d   1      -4.158  -2.661  20.539  0.00  0.00     0.159 C 
ATOM     50  H25 MTT d   1      -3.055  -2.360  22.346  0.00  0.00     0.094 H 
ATOM     51  O35 MTT d   1      -5.332  -3.159  21.169  0.00  0.00    -0.348 OA
ATOM     52  H27 MTT d   1      -4.269  -1.577  20.391  0.00  0.00     0.133 H 
ATOM     53  C35 MTT d   1      -5.300  -4.566  21.466  0.00  0.00     0.089 C 
ATOM     54  H28 MTT d   1      -5.171  -5.136  20.534  0.00  0.00     0.090 H 
ATOM     55  H22 MTT d   1      -4.269  -4.369  23.326  0.00  0.00     0.091 H 
BRANCH  46  56
ATOM     56  O33 MTT d   1      -1.698  -4.527  22.678  0.00  0.00    -0.390 OA
ATOM     57  H24 MTT d   1      -1.597  -5.439  22.923  0.00  0.00     0.210 HD
ENDBRANCH  46  56
BRANCH  47  58
ATOM     58  O32 MTT d   1      -1.770  -2.410  20.737  0.00  0.00    -0.388 OA
ATOM     59  H26 MTT d   1      -1.900  -1.491  20.532  0.00  0.00     0.210 HD
ENDBRANCH  47  58
BRANCH  49  60
ATOM     60  O44 MTT d   1      -3.981  -3.290  19.262  0.00  0.00    -0.348 OA
BRANCH  60  61
ATOM     61  C44 MTT d   1      -4.313  -2.538  18.097  0.00  0.00     0.096 C 
ATOM     62  C43 MTT d   1      -3.018  -2.093  17.421  0.00  0.00     0.092 C 
ATOM     63  C42 MTT d   1      -3.341  -1.512  16.035  0.00  0.00     0.110 C 
ATOM     64  H33 MTT d   1      -2.376  -2.976  17.291  0.00  0.00     0.091 H 
ATOM     65  C41 MTT d   1      -4.098  -2.548  15.209  0.00  0.00     0.156 C 
ATOM     66  H35 MTT d   1      -3.970  -0.617  16.151  0.00  0.00     0.094 H 
ATOM     67  O45 MTT d   1      -5.343  -2.873  15.854  0.00  0.00    -0.349 OA
ATOM     68  H37 MTT d   1      -4.301  -2.144  14.206  0.00  0.00     0.133 H 
ATOM     69  C45 MTT d   1      -5.147  -3.431  17.175  0.00  0.00     0.089 C 
ATOM     70  H39 MTT d   1      -4.624  -4.394  17.083  0.00  0.00     0.090 H 
ATOM     71  H32 MTT d   1      -4.901  -1.651  18.377  0.00  0.00     0.091 H 
BRANCH  62  72
ATOM     72  O43 MTT d   1      -2.298  -1.129  18.210  0.00  0.00    -0.390 OA
ATOM     73  H34 MTT d   1      -1.502  -0.880  17.755  0.00  0.00     0.210 HD
ENDBRANCH  62  72
BRANCH  63  74
ATOM     74  O42 MTT d   1      -2.116  -1.145  15.391  0.00  0.00    -0.388 OA
ATOM     75  H36 MTT d   1      -2.306  -0.785  14.533  0.00  0.00     0.210 HD
ENDBRANCH  63  74
BRANCH  65  76
ATOM     76  O41 MTT d   1      -3.293  -3.720  15.099  0.00  0.00    -0.369 OA
ATOM     77  H38 MTT d   1      -3.754  -4.372  14.585  0.00  0.00     0.212 HD
ENDBRANCH  65  76
BRANCH  69  78
ATOM     78  C46 MTT d   1      -6.554  -3.673  17.715  0.00  0.00     0.043 C 
ATOM     79  H40 MTT d   1      -6.489  -4.130  18.713  0.00  0.00     0.078 H 
ATOM     80  H41 MTT d   1      -7.094  -4.350  17.037  0.00  0.00     0.078 H 
BRANCH  78  81
ATOM     81  O46 MTT d   1      -7.262  -2.422  17.807  0.00  0.00    -0.398 OA
ATOM     82  H42 MTT d   1      -7.319  -2.027  16.945  0.00  0.00     0.209 HD
ENDBRANCH  78  81
ENDBRANCH  69  78
ENDBRANCH  60  61
ENDBRANCH  49  60
BRANCH  53  83
ATOM     83  C36 MTT d   1      -6.681  -4.889  22.044  0.00  0.00     0.043 C 
ATOM     84  H29 MTT d   1      -6.856  -4.256  22.926  0.00  0.00     0.078 H 
ATOM     85  H30 MTT d   1      -6.705  -5.947  22.342  0.00  0.00     0.078 H 
BRANCH  83  86
ATOM     86  O36 MTT d   1      -7.720  -4.652  21.088  0.00  0.00    -0.398 OA
ATOM     87  H31 MTT d   1      -7.708  -3.738  20.829  0.00  0.00     0.209 HD
ENDBRANCH  83  86
ENDBRANCH  53  83
ENDBRANCH   1  45
TORSDOF 24
