REMARK  29 active torsions:
REMARK  status: ('A' for Active; 'I' for Inactive)
REMARK    1  A    between atoms: N4B_30  and  C1A_1 
REMARK    2  A    between atoms: O4C_32  and  C1B_2 
REMARK    3  A    between atoms: O4D_34  and  C1C_3 
REMARK    4  A    between atoms: O4E_36  and  C1D_4 
REMARK    5  A    between atoms: C1E_5  and  O1E_6 
REMARK    6  A    between atoms: C2A_7  and  O2A_8 
REMARK    7  A    between atoms: C2B_9  and  O2B_10 
REMARK    8  A    between atoms: C2C_11  and  O2C_12 
REMARK    9  A    between atoms: C2D_13  and  O2D_14 
REMARK   10  A    between atoms: C2E_15  and  O2E_16 
REMARK   11  A    between atoms: C3A_17  and  O3A_18 
REMARK   12  A    between atoms: C3B_19  and  O3B_20 
REMARK   13  A    between atoms: C3C_21  and  O3C_22 
REMARK   14  A    between atoms: C3D_23  and  O3D_24 
REMARK   15  A    between atoms: C3E_25  and  O3E_26 
REMARK   16  A    between atoms: C4A_27  and  O4A_28 
REMARK   17  A    between atoms: C4B_29  and  N4B_30 
REMARK   18  A    between atoms: C4C_31  and  O4C_32 
REMARK   19  A    between atoms: C4D_33  and  O4D_34 
REMARK   20  A    between atoms: C4E_35  and  O4E_36 
REMARK   21  A    between atoms: C5A_37  and  C6A_46 
REMARK   22  A    between atoms: C5B_38  and  C6B_48 
REMARK   23  A    between atoms: C5C_40  and  C6C_49 
REMARK   24  A    between atoms: C5D_42  and  C6D_51 
REMARK   25  A    between atoms: C5E_44  and  C6E_53 
REMARK   26  A    between atoms: C6A_46  and  O6A_47 
REMARK   27  A    between atoms: C6C_49  and  O6C_50 
REMARK   28  A    between atoms: C6D_51  and  O6D_52 
REMARK   29  A    between atoms: C6E_53  and  O6E_54 
ROOT
ATOM      1  C1C TXT d   1      -4.549  -6.651  23.986  0.00  0.00     0.159 C 
ATOM      2  C2C TXT d   1      -3.599  -7.690  24.590  0.00  0.00     0.110 C 
ATOM      3  C3C TXT d   1      -3.603  -8.905  23.674  0.00  0.00     0.092 C 
ATOM      4  C4C TXT d   1      -5.027  -9.513  23.548  0.00  0.00     0.096 C 
ATOM      5  C5C TXT d   1      -6.046  -8.419  23.180  0.00  0.00     0.089 C 
ATOM      6  O5C TXT d   1      -5.870  -7.204  23.944  0.00  0.00    -0.348 OA
ATOM      7  H3  TXT d   1      -4.549  -5.744  24.608  0.00  0.00     0.133 H 
ATOM      8  H11 TXT d   1      -4.001  -7.998  25.566  0.00  0.00     0.094 H 
ATOM      9  H21 TXT d   1      -3.314  -8.575  22.665  0.00  0.00     0.091 H 
ATOM     10  H32 TXT d   1      -5.296  -9.951  24.521  0.00  0.00     0.091 H 
ATOM     11  H36 TXT d   1      -5.927  -8.188  22.111  0.00  0.00     0.090 H 
ENDROOT
BRANCH   4  12
ATOM     12  O4C TXT d   1      -5.137 -10.537  22.532  0.00  0.00    -0.348 OA
BRANCH  12  13
ATOM     13  C1B TXT d   1      -5.337 -11.935  22.895  0.00  0.00     0.159 C 
ATOM     14  C2B TXT d   1      -4.570 -12.885  21.942  0.00  0.00     0.110 C 
ATOM     15  C3B TXT d   1      -5.316 -13.508  20.724  0.00  0.00     0.094 C 
ATOM     16  H9  TXT d   1      -4.298 -13.750  22.565  0.00  0.00     0.094 H 
ATOM     17  C4B TXT d   1      -6.853 -13.386  20.747  0.00  0.00     0.154 C 
ATOM     18  H19 TXT d   1      -5.133 -14.585  20.853  0.00  0.00     0.090 H 
ATOM     19  C5B TXT d   1      -7.444 -12.374  21.746  0.00  0.00     0.068 C 
ATOM     20  H29 TXT d   1      -7.202 -14.361  21.119  0.00  0.00     0.092 H 
ATOM     21  O5B TXT d   1      -6.707 -12.349  22.964  0.00  0.00    -0.351 OA
ATOM     22  H35 TXT d   1      -7.421 -11.376  21.284  0.00  0.00     0.086 H 
ATOM     23  H2  TXT d   1      -4.913 -12.060  23.902  0.00  0.00     0.133 H 
BRANCH  14  24
ATOM     24  O2B TXT d   1      -3.337 -12.263  21.557  0.00  0.00    -0.388 OA
ATOM     25  H10 TXT d   1      -3.522 -11.444  21.113  0.00  0.00     0.210 HD
ENDBRANCH  14  24
BRANCH  15  26
ATOM     26  O3B TXT d   1      -4.785 -13.225  19.386  0.00  0.00    -0.391 OA
ATOM     27  H20 TXT d   1      -5.324 -13.658  18.735  0.00  0.00     0.210 HD
ENDBRANCH  15  26
BRANCH  17  28
ATOM     28  N4B TXT d   1      -7.401 -13.281  19.389  0.00  0.00    -0.056 N 
ATOM     29  H30 TXT d   1      -7.925 -12.422  19.332  0.00  0.00     0.278 HD
ATOM     30  H31 TXT d   1      -6.627 -13.246  18.744  0.00  0.00     0.278 HD
BRANCH  28  31
ATOM     31  C1A TXT d   1      -8.275 -14.364  18.979  0.00  0.00     0.146 C 
ATOM     32  C2A TXT d   1      -7.629 -15.732  18.792  0.00  0.00     0.093 C 
ATOM     33  C3A TXT d   1      -8.778 -16.568  19.317  0.00  0.00     0.091 C 
ATOM     34  H7  TXT d   1      -7.410 -15.936  17.733  0.00  0.00     0.090 H 
ATOM     35  C4A TXT d   1      -9.884 -16.596  18.249  0.00  0.00     0.086 C 
ATOM     36  H17 TXT d   1      -9.187 -16.080  20.214  0.00  0.00     0.091 H 
ATOM     37  C5A TXT d   1     -10.143 -15.194  17.690  0.00  0.00    -0.027 C 
ATOM     38  H27 TXT d   1      -9.543 -17.231  17.418  0.00  0.00     0.094 H 
ATOM     39  C7A TXT d   1      -9.218 -14.207  17.802  0.00  0.00    -0.064 C 
ATOM     40  H54 TXT d   1      -9.158 -13.372  17.105  0.00  0.00     0.080 H 
ATOM     41  H1  TXT d   1      -8.939 -14.472  19.850  0.00  0.00     0.095 H 
BRANCH  32  42
ATOM     42  O2A TXT d   1      -6.444 -15.944  19.563  0.00  0.00    -0.390 OA
ATOM     43  H8  TXT d   1      -5.791 -15.297  19.323  0.00  0.00     0.210 HD
ENDBRANCH  32  42
BRANCH  33  44
ATOM     44  O3A TXT d   1      -8.312 -17.864  19.706  0.00  0.00    -0.390 OA
ATOM     45  H18 TXT d   1      -7.657 -17.772  20.388  0.00  0.00     0.210 HD
ENDBRANCH  33  44
BRANCH  35  46
ATOM     46  O4A TXT d   1     -11.088 -17.188  18.802  0.00  0.00    -0.388 OA
ATOM     47  H28 TXT d   1     -11.767 -17.202  18.137  0.00  0.00     0.210 HD
ENDBRANCH  35  46
BRANCH  37  48
ATOM     48  C6A TXT d   1     -11.446 -14.891  16.986  0.00  0.00     0.039 C 
ATOM     49  H39 TXT d   1     -11.272 -14.120  16.221  0.00  0.00     0.081 H 
ATOM     50  H40 TXT d   1     -12.175 -14.520  17.721  0.00  0.00     0.081 H 
BRANCH  48  51
ATOM     51  O6A TXT d   1     -11.970 -16.068  16.357  0.00  0.00    -0.397 OA
ATOM     52  H41 TXT d   1     -12.125 -16.735  17.015  0.00  0.00     0.209 HD
ENDBRANCH  48  51
ENDBRANCH  37  48
ENDBRANCH  28  31
ENDBRANCH  17  28
BRANCH  19  53
ATOM     53  C6B TXT d   1      -8.883 -12.728  22.120  0.00  0.00    -0.050 C 
ATOM     54  H42 TXT d   1      -9.270 -11.985  22.833  0.00  0.00     0.031 H 
ATOM     55  H43 TXT d   1      -8.907 -13.726  22.582  0.00  0.00     0.031 H 
ATOM     56  H44 TXT d   1      -9.508 -12.728  21.215  0.00  0.00     0.031 H 
ENDBRANCH  19  53
ENDBRANCH  12  13
ENDBRANCH   4  12
BRANCH   3  57
ATOM     57  O3C TXT d   1      -2.571  -9.806  24.143  0.00  0.00    -0.390 OA
ATOM     58  H22 TXT d   1      -1.729  -9.367  24.109  0.00  0.00     0.210 HD
ENDBRANCH   3  57
BRANCH   5  59
ATOM     59  C6C TXT d   1      -7.471  -8.895  23.437  0.00  0.00     0.043 C 
ATOM     60  H45 TXT d   1      -7.729  -8.728  24.493  0.00  0.00     0.078 H 
ATOM     61  H46 TXT d   1      -7.547  -9.968  23.206  0.00  0.00     0.078 H 
BRANCH  59  62
ATOM     62  O6C TXT d   1      -8.358  -8.175  22.618  0.00  0.00    -0.398 OA
ATOM     63  H47 TXT d   1      -9.246  -8.471  22.778  0.00  0.00     0.209 HD
ENDBRANCH  59  62
ENDBRANCH   5  59
BRANCH   2  64
ATOM     64  O2C TXT d   1      -2.294  -7.159  24.821  0.00  0.00    -0.388 OA
ATOM     65  H12 TXT d   1      -1.923  -6.863  23.998  0.00  0.00     0.210 HD
ENDBRANCH   2  64
BRANCH   1  66
ATOM     66  O4D TXT d   1      -4.111  -6.317  22.647  0.00  0.00    -0.348 OA
BRANCH  66  67
ATOM     67  C4D TXT d   1      -4.217  -4.899  22.318  0.00  0.00     0.096 C 
ATOM     68  C3D TXT d   1      -2.877  -4.427  21.692  0.00  0.00     0.092 C 
ATOM     69  C2D TXT d   1      -3.021  -2.945  21.299  0.00  0.00     0.110 C 
ATOM     70  H23 TXT d   1      -2.678  -5.027  20.791  0.00  0.00     0.091 H 
ATOM     71  C1D TXT d   1      -4.249  -2.701  20.426  0.00  0.00     0.159 C 
ATOM     72  H13 TXT d   1      -3.143  -2.366  22.227  0.00  0.00     0.094 H 
ATOM     73  O5D TXT d   1      -5.431  -3.193  21.035  0.00  0.00    -0.348 OA
ATOM     74  H4  TXT d   1      -4.356  -1.621  20.244  0.00  0.00     0.133 H 
ATOM     75  C5D TXT d   1      -5.391  -4.577  21.391  0.00  0.00     0.089 C 
ATOM     76  H37 TXT d   1      -5.275  -5.188  20.484  0.00  0.00     0.090 H 
ATOM     77  H33 TXT d   1      -4.375  -4.346  23.256  0.00  0.00     0.091 H 
BRANCH  68  78
ATOM     78  O3D TXT d   1      -1.783  -4.567  22.575  0.00  0.00    -0.390 OA
ATOM     79  H24 TXT d   1      -1.690  -5.480  22.820  0.00  0.00     0.210 HD
ENDBRANCH  68  78
BRANCH  69  80
ATOM     80  O2D TXT d   1      -1.851  -2.458  20.620  0.00  0.00    -0.388 OA
ATOM     81  H14 TXT d   1      -1.946  -1.527  20.456  0.00  0.00     0.210 HD
ENDBRANCH  69  80
BRANCH  71  82
ATOM     82  O4E TXT d   1      -4.068  -3.393  19.178  0.00  0.00    -0.348 OA
BRANCH  82  83
ATOM     83  C4E TXT d   1      -4.368  -2.625  18.004  0.00  0.00     0.096 C 
ATOM     84  C3E TXT d   1      -3.069  -2.157  17.330  0.00  0.00     0.092 C 
ATOM     85  C2E TXT d   1      -3.368  -1.633  15.920  0.00  0.00     0.110 C 
ATOM     86  H25 TXT d   1      -2.411  -3.033  17.229  0.00  0.00     0.091 H 
ATOM     87  C1E TXT d   1      -4.110  -2.671  15.099  0.00  0.00     0.156 C 
ATOM     88  H15 TXT d   1      -4.031  -0.760  16.015  0.00  0.00     0.094 H 
ATOM     89  O5E TXT d   1      -5.366  -2.968  15.742  0.00  0.00    -0.349 OA
ATOM     90  H5  TXT d   1      -4.296  -2.289  14.084  0.00  0.00     0.133 H 
ATOM     91  C5E TXT d   1      -5.218  -3.492  17.084  0.00  0.00     0.089 C 
ATOM     92  H38 TXT d   1      -4.716  -4.468  17.019  0.00  0.00     0.090 H 
ATOM     93  H34 TXT d   1      -4.949  -1.736  18.291  0.00  0.00     0.091 H 
BRANCH  84  94
ATOM     94  O3E TXT d   1      -2.370  -1.189  18.124  0.00  0.00    -0.390 OA
ATOM     95  H26 TXT d   1      -1.545  -0.974  17.705  0.00  0.00     0.210 HD
ENDBRANCH  84  94
BRANCH  85  96
ATOM     96  O2E TXT d   1      -2.142  -1.182  15.312  0.00  0.00    -0.388 OA
ATOM     97  H16 TXT d   1      -2.334  -0.791  14.468  0.00  0.00     0.210 HD
ENDBRANCH  85  96
BRANCH  87  98
ATOM     98  O1E TXT d   1      -3.289  -3.850  15.034  0.00  0.00    -0.369 OA
ATOM     99  H6  TXT d   1      -3.740  -4.522  14.537  0.00  0.00     0.212 HD
ENDBRANCH  87  98
BRANCH  91 100
ATOM    100  C6E TXT d   1      -6.650  -3.718  17.595  0.00  0.00     0.043 C 
ATOM    101  H51 TXT d   1      -6.612  -4.159  18.602  0.00  0.00     0.078 H 
ATOM    102  H52 TXT d   1      -7.176  -4.403  16.914  0.00  0.00     0.078 H 
BRANCH 100 103
ATOM    103  O6E TXT d   1      -7.356  -2.463  17.649  0.00  0.00    -0.398 OA
ATOM    104  H53 TXT d   1      -7.390  -2.082  16.779  0.00  0.00     0.209 HD
ENDBRANCH 100 103
ENDBRANCH  91 100
ENDBRANCH  82  83
ENDBRANCH  71  82
BRANCH  75 105
ATOM    105  C6D TXT d   1      -6.766  -4.842  22.000  0.00  0.00     0.043 C 
ATOM    106  H48 TXT d   1      -6.927  -4.133  22.826  0.00  0.00     0.078 H 
ATOM    107  H49 TXT d   1      -6.785  -5.870  22.390  0.00  0.00     0.078 H 
BRANCH 105 108
ATOM    108  O6D TXT d   1      -7.828  -4.692  21.056  0.00  0.00    -0.398 OA
ATOM    109  H50 TXT d   1      -8.658  -4.867  21.484  0.00  0.00     0.209 HD
ENDBRANCH 105 108
ENDBRANCH  75 105
ENDBRANCH  66  67
ENDBRANCH   1  66
TORSDOF 29
