REMARK  8 active torsions:
REMARK  status: ('A' for Active; 'I' for Inactive)
REMARK    1  A    between atoms: O3A_8  and  PB_1 
REMARK    2  A    between atoms: PA_5  and  O3A_8 
REMARK    3  A    between atoms: PA_5  and  O5'_9 
REMARK    4  A    between atoms: O5'_9  and  C5'_10 
REMARK    5  A    between atoms: C5'_10  and  C4'_11 
REMARK    6  A    between atoms: C3'_13  and  O3'_14 
REMARK    7  A    between atoms: C2'_15  and  O2'_16 
REMARK    8  A    between atoms: C1'_17  and  N9_18 
ROOT
ATOM      1  C4' ADP d   1     -35.910 -63.973 -10.392  0.00  0.00     0.089 C 
ATOM      2  O4' ADP d   1     -36.274 -63.578  -9.065  0.00  0.00    -0.353 OA
ATOM      3  C3' ADP d   1     -36.434 -62.751 -11.167  0.00  0.00     0.091 C 
ATOM      4  C2' ADP d   1     -37.859 -62.644 -10.593  0.00  0.00     0.105 C 
ATOM      5  C1' ADP d   1     -37.536 -62.760  -9.114  0.00  0.00     0.139 C 
ATOM      6  H3  ADP d   1     -36.362 -64.912 -10.745  0.00  0.00     0.090 H 
ATOM      7  H4  ADP d   1     -35.874 -61.848 -10.883  0.00  0.00     0.091 H 
ATOM      8  H6  ADP d   1     -38.360 -61.700 -10.854  0.00  0.00     0.093 H 
ATOM      9  H8  ADP d   1     -38.412 -63.218  -8.632  0.00  0.00     0.122 H 
ENDROOT
BRANCH   5  10
ATOM     10  N9  ADP d   1     -36.901 -61.737  -8.152  0.00  0.00    -0.294 N 
ATOM     11  C8  ADP d   1     -35.764 -61.489  -7.448  0.00  0.00     0.071 A 
ATOM     12  N7  ADP d   1     -35.822 -60.375  -6.749  0.00  0.00    -0.236 NA
ATOM     13  H9  ADP d   1     -34.895 -62.145  -7.461  0.00  0.00     0.144 H 
ATOM     14  C5  ADP d   1     -37.080 -59.838  -7.009  0.00  0.00     0.149 A 
ATOM     15  C6  ADP d   1     -37.791 -58.633  -6.565  0.00  0.00     0.155 A 
ATOM     16  C4  ADP d   1     -37.748 -60.668  -7.884  0.00  0.00     0.167 A 
ATOM     17  N6  ADP d   1     -37.278 -57.734  -5.693  0.00  0.00    -0.382 N 
ATOM     18  N1  ADP d   1     -39.072 -58.424  -7.062  0.00  0.00    -0.222 NA
ATOM     19  H10 ADP d   1     -37.829 -56.907  -5.421  0.00  0.00     0.157 HD
ATOM     20  H11 ADP d   1     -36.336 -57.876  -5.301  0.00  0.00     0.157 HD
ATOM     21  C2  ADP d   1     -39.596 -59.319  -7.905  0.00  0.00     0.091 A 
ATOM     22  N3  ADP d   1     -39.023 -60.470  -8.368  0.00  0.00    -0.222 NA
ATOM     23  H12 ADP d   1     -40.596 -59.106  -8.265  0.00  0.00     0.146 H 
ENDBRANCH   5  10
BRANCH   4  24
ATOM     24  O2' ADP d   1     -38.604 -63.721 -10.986  0.00  0.00    -0.388 OA
ATOM     25  H7  ADP d   1     -39.480 -63.646 -10.627  0.00  0.00     0.210 HD
ENDBRANCH   4  24
BRANCH   1  26
ATOM     26  C5' ADP d   1     -34.447 -64.086 -10.267  0.00  0.00     0.058 C 
ATOM     27  H1  ADP d   1     -34.230 -64.765  -9.429  0.00  0.00     0.079 H 
ATOM     28  H2  ADP d   1     -34.060 -64.520 -11.201  0.00  0.00     0.079 H 
BRANCH  26  29
ATOM     29  O5' ADP d   1     -33.752 -62.856 -10.030  0.00  0.00    -0.287 OA
BRANCH  29  30
ATOM     30  PA  ADP d   1     -32.376 -62.310 -10.643  0.00  0.00     0.418 P 
ATOM     31  O1A ADP d   1     -32.610 -60.986 -11.235  0.00  0.00    -0.624 OA
ATOM     32  O2A ADP d   1     -31.849 -63.314 -11.532  0.00  0.00    -0.624 OA
BRANCH  30  33
ATOM     33  O3A ADP d   1     -31.332 -62.174  -9.411  0.00  0.00    -0.173 OA
BRANCH  33  34
ATOM     34  PB  ADP d   1     -29.787 -61.788  -9.307  0.00  0.00     0.431 P 
ATOM     35  O1B ADP d   1     -29.619 -60.849  -8.183  0.00  0.00    -0.616 OA
ATOM     36  O2B ADP d   1     -29.426 -61.220 -10.623  0.00  0.00    -0.616 OA
ATOM     37  O3B ADP d   1     -29.201 -63.114  -9.063  0.00  0.00    -0.616 OA
ENDBRANCH  33  34
ENDBRANCH  30  33
ENDBRANCH  29  30
ENDBRANCH  26  29
ENDBRANCH   1  26
BRANCH   3  38
ATOM     38  O3' ADP d   1     -36.248 -62.920 -12.563  0.00  0.00    -0.390 OA
ATOM     39  H5  ADP d   1     -35.322 -63.026 -12.748  0.00  0.00     0.210 HD
ENDBRANCH   3  38
TORSDOF 8
