REMARK  14 active torsions:
REMARK  status: ('A' for Active; 'I' for Inactive)
REMARK    1  A    between atoms: CAD_4  and  CAA_1 
REMARK    2  A    between atoms: CAH_8  and  SAI_9 
REMARK    3  A    between atoms: SAI_9  and  NAJ_10 
REMARK    4  A    between atoms: NAQ_17  and  CAN_14 
REMARK    5  A    between atoms: NAQ_17  and  CAR_18 
REMARK       I    between atoms: CAU_21  and  NAQ_17 
REMARK    6  A    between atoms: CAR_18  and  CAS_19 
REMARK    7  A    between atoms: OAV_22  and  CAU_21 
REMARK    8  A    between atoms: CAW_23  and  OAV_22 
REMARK    9  A    between atoms: CAY_25  and  CAW_23 
REMARK   10  A    between atoms: OAZ_26  and  CAY_25 
REMARK   11  A    between atoms: CAY_25  and  CBC_29 
REMARK   12  A    between atoms: OAZ_26  and  NBA_27 
REMARK   13  A    between atoms: CBC_29  and  OBD_30 
REMARK   14  A    between atoms: OBD_30  and  NBE_31 
ROOT
ATOM      1  NAQ NKX d   1      -3.239   2.977  11.936  0.00  0.00    -0.319 N 
ATOM      2  OAT NKX d   1      -1.043   3.534  11.706  0.00  0.00    -0.238 OA
ATOM      3  CAU NKX d   1      -2.019   2.861  11.374  0.00  0.00     0.363 C 
ENDROOT
BRANCH   1   4
ATOM      4  CAN NKX d   1      -3.504   3.979  13.006  0.00  0.00     0.045 C 
ATOM      5  CAM NKX d   1      -3.846   5.311  12.252  0.00  0.00    -0.026 C 
ATOM      6  CAD NKX d   1      -4.297   6.470  13.143  0.00  0.00     0.048 C 
ATOM      7  H7  NKX d   1      -2.947   5.632  11.706  0.00  0.00     0.038 H 
ATOM      8  H8  NKX d   1      -4.654   5.098  11.536  0.00  0.00     0.038 H 
ATOM      9  SAE NKX d   1      -5.884   5.975  13.900  0.00  0.00     0.186 S 
ATOM     10  H4  NKX d   1      -4.455   7.366  12.525  0.00  0.00     0.064 H 
ATOM     11  OAB NKX d   1      -7.017   5.959  12.924  0.00  0.00    -0.222 OA
ATOM     12  CAF NKX d   1      -5.596   4.361  14.519  0.00  0.00     0.110 A 
ATOM     13  OAK NKX d   1      -6.225   6.912  15.027  0.00  0.00    -0.222 OA
ATOM     14  SAG NKX d   1      -6.461   3.558  15.696  0.00  0.00    -0.064 SA
ATOM     15  CAO NKX d   1      -4.545   3.516  14.099  0.00  0.00    -0.005 A 
ATOM     16  CAH NKX d   1      -5.553   2.209  15.693  0.00  0.00     0.121 A 
ATOM     17  CAP NKX d   1      -4.570   2.338  14.784  0.00  0.00    -0.043 A 
ATOM     18  H10 NKX d   1      -3.840   1.550  14.606  0.00  0.00     0.087 H 
ATOM     19  H9  NKX d   1      -2.561   4.143  13.548  0.00  0.00     0.080 H 
BRANCH   6  20
ATOM     20  CAA NKX d   1      -3.236   6.789  14.194  0.00  0.00    -0.060 C 
ATOM     21  H1  NKX d   1      -2.301   7.081  13.694  0.00  0.00     0.029 H 
ATOM     22  H2  NKX d   1      -3.057   5.900  14.816  0.00  0.00     0.029 H 
ATOM     23  H3  NKX d   1      -3.586   7.616  14.829  0.00  0.00     0.029 H 
ENDBRANCH   6  20
BRANCH  16  24
ATOM     24  SAI NKX d   1      -5.931   0.871  16.756  0.00  0.00     0.263 S 
ATOM     25  OAC NKX d   1      -5.288   1.035  18.101  0.00  0.00    -0.200 OA
ATOM     26  OAL NKX d   1      -7.507   0.835  16.929  0.00  0.00    -0.200 OA
BRANCH  24  27
ATOM     27  NAJ NKX d   1      -5.432  -0.387  16.089  0.00  0.00    -0.324 N 
ATOM     28  H5  NKX d   1      -5.768  -0.639  15.181  0.00  0.00     0.169 HD
ATOM     29  H6  NKX d   1      -4.765  -0.969  16.555  0.00  0.00     0.169 HD
ENDBRANCH  24  27
ENDBRANCH  16  24
ENDBRANCH   1   4
BRANCH   1  30
ATOM     30  CAR NKX d   1      -4.377   2.142  11.493  0.00  0.00    -0.003 C 
ATOM     31  H11 NKX d   1      -5.026   1.919  12.353  0.00  0.00     0.064 H 
ATOM     32  H12 NKX d   1      -3.998   1.202  11.066  0.00  0.00     0.064 H 
BRANCH  30  33
ATOM     33  CAS NKX d   1      -5.172   2.892  10.440  0.00  0.00    -0.061 C 
ATOM     34  H13 NKX d   1      -6.019   2.272  10.110  0.00  0.00     0.029 H 
ATOM     35  H14 NKX d   1      -4.523   3.115   9.580  0.00  0.00     0.029 H 
ATOM     36  H15 NKX d   1      -5.551   3.832  10.867  0.00  0.00     0.029 H 
ENDBRANCH  30  33
ENDBRANCH   1  30
BRANCH   3  37
ATOM     37  OAV NKX d   1      -1.819   1.960  10.376  0.00  0.00    -0.301 OA
BRANCH  37  38
ATOM     38  CAW NKX d   1      -0.559   2.199   9.604  0.00  0.00     0.059 C 
ATOM     39  H16 NKX d   1      -0.783   1.863   8.581  0.00  0.00     0.079 H 
ATOM     40  H17 NKX d   1       0.185   1.527  10.056  0.00  0.00     0.079 H 
BRANCH  38  41
ATOM     41  CAY NKX d   1       0.184   3.572   9.430  0.00  0.00     0.115 C 
ATOM     42  H18 NKX d   1       0.593   3.822  10.420  0.00  0.00     0.094 H 
BRANCH  41  43
ATOM     43  OAZ NKX d   1      -0.716   4.664   9.072  0.00  0.00    -0.211 OA
BRANCH  43  44
ATOM     44  NBA NKX d   1      -1.296   4.632   7.825  0.00  0.00     0.005 N 
ATOM     45  OAX NKX d   1      -0.481   4.557   6.647  0.00  0.00    -0.511 OA
ATOM     46  OBB NKX d   1      -2.745   4.714   7.701  0.00  0.00    -0.511 OA
ENDBRANCH  43  44
ENDBRANCH  41  43
BRANCH  41  47
ATOM     47  CBC NKX d   1       1.400   3.491   8.466  0.00  0.00     0.080 C 
ATOM     48  H19 NKX d   1       1.223   4.162   7.612  0.00  0.00     0.082 H 
ATOM     49  H20 NKX d   1       1.500   2.457   8.105  0.00  0.00     0.082 H 
BRANCH  47  50
ATOM     50  OBD NKX d   1       2.623   3.878   9.116  0.00  0.00    -0.219 OA
BRANCH  50  51
ATOM     51  NBE NKX d   1       3.618   3.968   8.193  0.00  0.00     0.005 N 
ATOM     52  OBF NKX d   1       3.824   5.194   7.493  0.00  0.00    -0.511 OA
ATOM     53  OBG NKX d   1       4.463   2.845   7.917  0.00  0.00    -0.511 OA
ENDBRANCH  50  51
ENDBRANCH  47  50
ENDBRANCH  41  47
ENDBRANCH  38  41
ENDBRANCH  37  38
ENDBRANCH   3  37
TORSDOF 14
