REMARK  11 active torsions:
REMARK  status: ('A' for Active; 'I' for Inactive)
REMARK    1  A    between atoms: C2_1  and  N25_2 
REMARK       I    between atoms: N25_2  and  C26_3 
REMARK       I    between atoms: C26_3  and  N30_4 
REMARK       I    between atoms: C26_3  and  N27_5 
REMARK    2  A    between atoms: C3_6  and  C10_7 
REMARK    3  A    between atoms: C10_7  and  C24_8 
REMARK    4  A    between atoms: C10_7  and  N11_13 
REMARK    5  A    between atoms: C24_8  and  C37_9 
REMARK    6  A    between atoms: C24_8  and  C36_11 
REMARK    7  A    between atoms: C37_9  and  C38_10 
REMARK    8  A    between atoms: C36_11  and  C39_12 
REMARK       I    between atoms: N11_13  and  C13_14 
REMARK    9  A    between atoms: C13_14  and  C15_15 
REMARK   10  A    between atoms: C4_17  and  O9_18 
REMARK   11  A    between atoms: C5_19  and  C6_20 
ROOT
ATOM      1  C10 BCZ d   1     -14.221 -29.547  12.542  0.00  0.00     0.023 C 
ATOM      2  H8  BCZ d   1     -13.679 -29.793  11.617  0.00  0.00     0.073 H 
ENDROOT
BRANCH   1   3
ATOM      3  C3  BCZ d   1     -14.951 -28.226  12.241  0.00  0.00     0.012 C 
ATOM      4  C2  BCZ d   1     -14.038 -27.041  11.939  0.00  0.00     0.035 C 
ATOM      5  C1  BCZ d   1     -14.961 -26.062  11.209  0.00  0.00    -0.030 C 
ATOM      6  H1  BCZ d   1     -13.250 -27.377  11.249  0.00  0.00     0.074 H 
ATOM      7  C5  BCZ d   1     -15.828 -26.935  10.310  0.00  0.00     0.057 C 
ATOM      8  H27 BCZ d   1     -14.374 -25.352  10.608  0.00  0.00     0.037 H 
ATOM      9  H28 BCZ d   1     -15.584 -25.508  11.927  0.00  0.00     0.037 H 
ATOM     10  C4  BCZ d   1     -15.833 -28.295  11.000  0.00  0.00     0.056 C 
ATOM     11  H26 BCZ d   1     -15.461 -26.980   9.274  0.00  0.00     0.060 H 
ATOM     12  H24 BCZ d   1     -16.854 -28.607  11.265  0.00  0.00     0.085 H 
ATOM     13  H7  BCZ d   1     -15.570 -27.990  13.119  0.00  0.00     0.050 H 
BRANCH   4  14
ATOM     14  N25 BCZ d   1     -13.354 -26.424  13.094  0.00  0.00    -0.222 N 
ATOM     15  C26 BCZ d   1     -12.002 -26.037  13.086  0.00  0.00     0.665 C 
ATOM     16  N30 BCZ d   1     -11.282 -25.883  11.932  0.00  0.00    -0.235 N 
ATOM     17  N27 BCZ d   1     -11.296 -25.779  14.249  0.00  0.00    -0.235 N 
ATOM     18  H3  BCZ d   1     -10.293 -25.598  11.976  0.00  0.00     0.174 HD
ATOM     19  H4  BCZ d   1     -11.729 -26.052  11.020  0.00  0.00     0.174 HD
ATOM     20  H5  BCZ d   1     -11.760 -25.870  15.164  0.00  0.00     0.174 HD
ATOM     21  H6  BCZ d   1     -10.307 -25.496  14.199  0.00  0.00     0.174 HD
ATOM     22  H2  BCZ d   1     -13.899 -26.268  13.954  0.00  0.00     0.178 HD
ENDBRANCH   4  14
BRANCH   7  23
ATOM     23  C6  BCZ d   1     -17.264 -26.389  10.400  0.00  0.00     0.179 C 
ATOM     24  O8  BCZ d   1     -17.395 -25.145  10.205  0.00  0.00    -0.648 OA
ATOM     25  O7  BCZ d   1     -18.191 -27.216  10.638  0.00  0.00    -0.648 OA
ENDBRANCH   7  23
BRANCH  10  26
ATOM     26  O9  BCZ d   1     -15.232 -29.202  10.055  0.00  0.00    -0.394 OA
ATOM     27  H25 BCZ d   1     -14.368 -28.886   9.820  0.00  0.00     0.210 HD
ENDBRANCH  10  26
ENDBRANCH   1   3
BRANCH   1  28
ATOM     28  C24 BCZ d   1     -15.140 -30.730  12.828  0.00  0.00    -0.035 C 
ATOM     29  H9  BCZ d   1     -15.878 -30.784  12.014  0.00  0.00     0.043 H 
BRANCH  28  30
ATOM     30  C37 BCZ d   1     -15.906 -30.549  14.131  0.00  0.00    -0.063 C 
ATOM     31  H10 BCZ d   1     -15.954 -29.479  14.380  0.00  0.00     0.033 H 
ATOM     32  H11 BCZ d   1     -15.388 -31.090  14.937  0.00  0.00     0.033 H 
BRANCH  30  33
ATOM     33  C38 BCZ d   1     -17.305 -31.091  13.985  0.00  0.00    -0.076 C 
ATOM     34  H12 BCZ d   1     -17.851 -30.956  14.930  0.00  0.00     0.027 H 
ATOM     35  H13 BCZ d   1     -17.259 -32.162  13.737  0.00  0.00     0.027 H 
ATOM     36  H14 BCZ d   1     -17.826 -30.550  13.181  0.00  0.00     0.027 H 
ENDBRANCH  30  33
ENDBRANCH  28  30
BRANCH  28  37
ATOM     37  C36 BCZ d   1     -14.350 -32.032  12.827  0.00  0.00    -0.063 C 
ATOM     38  H15 BCZ d   1     -14.987 -32.836  13.226  0.00  0.00     0.033 H 
ATOM     39  H16 BCZ d   1     -13.465 -31.913  13.469  0.00  0.00     0.033 H 
BRANCH  37  40
ATOM     40  C39 BCZ d   1     -13.893 -32.414  11.420  0.00  0.00    -0.076 C 
ATOM     41  H17 BCZ d   1     -13.328 -33.357  11.461  0.00  0.00     0.027 H 
ATOM     42  H18 BCZ d   1     -13.250 -31.619  11.015  0.00  0.00     0.027 H 
ATOM     43  H19 BCZ d   1     -14.772 -32.542  10.771  0.00  0.00     0.027 H 
ENDBRANCH  37  40
ENDBRANCH  28  37
ENDBRANCH   1  28
BRANCH   1  44
ATOM     44  N11 BCZ d   1     -13.225 -29.469  13.586  0.00  0.00    -0.356 N 
ATOM     45  C13 BCZ d   1     -11.870 -29.420  13.316  0.00  0.00     0.213 C 
ATOM     46  O14 BCZ d   1     -11.327 -29.610  12.236  0.00  0.00    -0.274 OA
ATOM     47  H20 BCZ d   1     -13.527 -29.450  14.539  0.00  0.00     0.162 HD
BRANCH  45  48
ATOM     48  C15 BCZ d   1     -11.074 -29.114  14.544  0.00  0.00    -0.003 C 
ATOM     49  H21 BCZ d   1     -10.004 -29.084  14.289  0.00  0.00     0.040 H 
ATOM     50  H22 BCZ d   1     -11.249 -29.895  15.299  0.00  0.00     0.040 H 
ATOM     51  H23 BCZ d   1     -11.383 -28.138  14.947  0.00  0.00     0.040 H 
ENDBRANCH  45  48
ENDBRANCH   1  44
TORSDOF 11
