REMARK  4 active torsions:
REMARK  status: ('A' for Active; 'I' for Inactive)
REMARK    1  A    between atoms: C_1  and  CA_4 
REMARK    2  A    between atoms: CB_5  and  OG_7 
REMARK    3  A    between atoms: CG_6  and  OD2_12 
REMARK    4  A    between atoms: CD1_11  and  OAJ_9 
ROOT
ATOM      1  N   EVA d   1     -23.417 -26.487  -0.839  0.00  0.00    -0.342 N 
ATOM      2  CA  EVA d   1     -22.404 -27.260  -0.129  0.00  0.00     0.123 C 
ATOM      3  CB  EVA d   1     -23.080 -28.215   0.828  0.00  0.00     0.092 C 
ATOM      4  CG  EVA d   1     -24.061 -27.445   1.712  0.00  0.00     0.096 C 
ATOM      5  CAE EVA d   1     -24.668 -26.248  -0.395  0.00  0.00     0.249 C 
ATOM      6  OAK EVA d   1     -25.368 -25.494  -1.042  0.00  0.00    -0.271 OA
ATOM      7  CD1 EVA d   1     -25.199 -26.890   0.884  0.00  0.00     0.139 C 
ATOM      8  H1  EVA d   1     -23.163 -26.103  -1.727  0.00  0.00     0.163 HD
ATOM      9  H2  EVA d   1     -21.775 -26.574   0.457  0.00  0.00     0.093 H 
ATOM     10  H3  EVA d   1     -23.613 -28.995   0.264  0.00  0.00     0.091 H 
ATOM     11  H4  EVA d   1     -23.545 -26.641   2.258  0.00  0.00     0.091 H 
ATOM     12  H7  EVA d   1     -25.891 -27.703   0.619  0.00  0.00     0.102 H 
ENDROOT
BRANCH   2  13
ATOM     13  C   EVA d   1     -21.521 -27.966  -1.148  0.00  0.00     0.199 C 
ATOM     14  O   EVA d   1     -22.050 -28.743  -1.902  0.00  0.00    -0.646 OA
ATOM     15  OXT EVA d   1     -20.322 -27.747  -1.161  0.00  0.00    -0.646 OA
ENDBRANCH   2  13
BRANCH   3  16
ATOM     16  OG  EVA d   1     -22.097 -28.804   1.668  0.00  0.00    -0.390 OA
ATOM     17  H5  EVA d   1     -22.519 -29.395   2.281  0.00  0.00     0.210 HD
ENDBRANCH   3  16
BRANCH   4  18
ATOM     18  OD2 EVA d   1     -24.642 -28.388   2.597  0.00  0.00    -0.390 OA
ATOM     19  H8  EVA d   1     -23.964 -28.768   3.143  0.00  0.00     0.210 HD
ENDBRANCH   4  18
BRANCH   7  20
ATOM     20  OAJ EVA d   1     -25.880 -25.918   1.665  0.00  0.00    -0.383 OA
ATOM     21  H6  EVA d   1     -25.279 -25.218   1.891  0.00  0.00     0.210 HD
ENDBRANCH   7  20
TORSDOF 4
