REMARK  12 active torsions:
REMARK  status: ('A' for Active; 'I' for Inactive)
REMARK    1  A    between atoms: C1_1  and  O1_2 
REMARK    2  A    between atoms: O1_2  and  S1_3 
REMARK    3  A    between atoms: C2_4  and  O12_17 
REMARK    4  A    between atoms: O12_17  and  S2_6 
REMARK    5  A    between atoms: C3_7  and  O13_18 
REMARK    6  A    between atoms: O13_18  and  S3_9 
REMARK    7  A    between atoms: C4_10  and  O14_19 
REMARK    8  A    between atoms: O14_19  and  S4_12 
REMARK    9  A    between atoms: C5_13  and  O15_20 
REMARK   10  A    between atoms: O15_20  and  S5_14 
REMARK   11  A    between atoms: C6_15  and  O16_21 
REMARK   12  A    between atoms: O16_21  and  S6_16 
ROOT
ATOM      1  C1  IHS d   1      -5.427  11.567  35.395  0.00  0.00     0.117 C 
ATOM      2  C2  IHS d   1      -6.225  10.500  34.673  0.00  0.00     0.117 C 
ATOM      3  C3  IHS d   1      -5.241   9.527  34.060  0.00  0.00     0.117 C 
ATOM      4  C4  IHS d   1      -3.913   9.327  34.757  0.00  0.00     0.117 C 
ATOM      5  C5  IHS d   1      -3.343  10.637  35.329  0.00  0.00     0.117 C 
ATOM      6  C6  IHS d   1      -4.347  11.126  36.357  0.00  0.00     0.117 C 
ATOM      7  H1  IHS d   1      -4.901  12.125  34.607  0.00  0.00     0.094 H 
ATOM      8  H2  IHS d   1      -6.756  11.009  33.855  0.00  0.00     0.094 H 
ATOM      9  H3  IHS d   1      -4.954  10.011  33.115  0.00  0.00     0.094 H 
ATOM     10  H4  IHS d   1      -3.954   8.546  35.531  0.00  0.00     0.094 H 
ATOM     11  H5  IHS d   1      -3.282  11.373  34.514  0.00  0.00     0.094 H 
ATOM     12  H6  IHS d   1      -4.670  10.360  37.078  0.00  0.00     0.094 H 
ENDROOT
BRANCH   1  13
ATOM     13  O1  IHS d   1      -6.286  12.439  35.996  0.00  0.00    -0.246 OA
BRANCH  13  14
ATOM     14  S1  IHS d   1      -6.346  13.846  35.436  0.00  0.00     0.252 S 
ATOM     15  O2  IHS d   1      -5.351  14.669  36.136  0.00  0.00    -0.572 OA
ATOM     16  O3  IHS d   1      -7.732  14.104  35.865  0.00  0.00    -0.572 OA
ATOM     17  O4  IHS d   1      -6.292  14.040  33.977  0.00  0.00    -0.572 OA
ENDBRANCH  13  14
ENDBRANCH   1  13
BRANCH   2  18
ATOM     18  O12 IHS d   1      -7.215   9.794  35.399  0.00  0.00    -0.246 OA
BRANCH  18  19
ATOM     19  S2  IHS d   1      -8.619  10.311  35.688  0.00  0.00     0.252 S 
ATOM     20  O22 IHS d   1      -8.555  11.022  36.994  0.00  0.00    -0.572 OA
ATOM     21  O32 IHS d   1      -9.109  11.283  34.716  0.00  0.00    -0.572 OA
ATOM     22  O42 IHS d   1      -9.447   9.124  35.871  0.00  0.00    -0.572 OA
ENDBRANCH  18  19
ENDBRANCH   2  18
BRANCH   6  23
ATOM     23  O16 IHS d   1      -3.801  12.271  37.000  0.00  0.00    -0.246 OA
BRANCH  23  24
ATOM     24  S6  IHS d   1      -3.577  12.448  38.514  0.00  0.00     0.252 S 
ATOM     25  O26 IHS d   1      -2.666  11.362  38.941  0.00  0.00    -0.572 OA
ATOM     26  O36 IHS d   1      -4.852  12.410  39.247  0.00  0.00    -0.572 OA
ATOM     27  O46 IHS d   1      -2.961  13.775  38.662  0.00  0.00    -0.572 OA
ENDBRANCH  23  24
ENDBRANCH   6  23
BRANCH   3  28
ATOM     28  O13 IHS d   1      -5.890   8.312  33.651  0.00  0.00    -0.246 OA
BRANCH  28  29
ATOM     29  S3  IHS d   1      -6.323   8.392  32.187  0.00  0.00     0.252 S 
ATOM     30  O23 IHS d   1      -6.845   7.060  31.827  0.00  0.00    -0.572 OA
ATOM     31  O33 IHS d   1      -5.122   8.834  31.409  0.00  0.00    -0.572 OA
ATOM     32  O43 IHS d   1      -7.276   9.462  31.938  0.00  0.00    -0.572 OA
ENDBRANCH  28  29
ENDBRANCH   3  28
BRANCH   5  33
ATOM     33  O15 IHS d   1      -2.042  10.511  35.882  0.00  0.00    -0.246 OA
BRANCH  33  34
ATOM     34  S5  IHS d   1      -0.848  11.249  35.276  0.00  0.00     0.252 S 
ATOM     35  O25 IHS d   1      -0.847  11.076  33.822  0.00  0.00    -0.572 OA
ATOM     36  O35 IHS d   1      -0.935  12.677  35.606  0.00  0.00    -0.572 OA
ATOM     37  O45 IHS d   1       0.393  10.675  35.829  0.00  0.00    -0.572 OA
ENDBRANCH  33  34
ENDBRANCH   5  33
BRANCH   4  38
ATOM     38  O14 IHS d   1      -3.140   8.975  33.645  0.00  0.00    -0.246 OA
BRANCH  38  39
ATOM     39  S4  IHS d   1      -2.391   7.671  33.689  0.00  0.00     0.252 S 
ATOM     40  O24 IHS d   1      -2.177   7.067  32.371  0.00  0.00    -0.572 OA
ATOM     41  O34 IHS d   1      -3.037   6.715  34.583  0.00  0.00    -0.572 OA
ATOM     42  O44 IHS d   1      -1.074   8.192  34.162  0.00  0.00    -0.572 OA
ENDBRANCH  38  39
ENDBRANCH   4  38
TORSDOF 12
