REMARK  8 active torsions:
REMARK  status: ('A' for Active; 'I' for Inactive)
REMARK    1  A    between atoms: C1_1  and  C2_3 
REMARK    2  A    between atoms: C2_3  and  N1_2 
REMARK    3  A    between atoms: C2_3  and  P3_4 
REMARK    4  A    between atoms: P3_4  and  C4_5 
REMARK    5  A    between atoms: C4_5  and  C5_6 
REMARK    6  A    between atoms: C5_6  and  C6_7 
REMARK    7  A    between atoms: C5_6  and  C7_8 
REMARK    8  A    between atoms: C7_8  and  C8_9 
ROOT
ATOM      1  C4  P8D d   1     -26.257  29.851 -13.078  0.00  0.00     0.022 C 
ATOM      2  H8  P8D d   1     -25.768  30.790 -12.778  0.00  0.00     0.050 H 
ATOM      3  H9  P8D d   1     -25.931  29.038 -12.412  0.00  0.00     0.050 H 
ENDROOT
BRANCH   1   4
ATOM      4  P3  P8D d   1     -25.661  29.448 -14.741  0.00  0.00     0.137 P 
ATOM      5  O31 P8D d   1     -25.096  28.073 -14.713  0.00  0.00    -0.666 OA
ATOM      6  O32 P8D d   1     -26.874  29.518 -15.773  0.00  0.00    -0.666 OA
BRANCH   4   7
ATOM      7  C2  P8D d   1     -24.401  30.687 -15.216  0.00  0.00     0.170 C 
ATOM      8  H7  P8D d   1     -23.650  30.765 -14.416  0.00  0.00     0.100 H 
BRANCH   7   9
ATOM      9  C1  P8D d   1     -24.977  32.089 -15.485  0.00  0.00    -0.041 C 
ATOM     10  H1  P8D d   1     -24.162  32.773 -15.763  0.00  0.00     0.031 H 
ATOM     11  H2  P8D d   1     -25.474  32.461 -14.577  0.00  0.00     0.031 H 
ATOM     12  H3  P8D d   1     -25.706  32.034 -16.307  0.00  0.00     0.031 H 
ENDBRANCH   7   9
BRANCH   7  13
ATOM     13  N1  P8D d   1     -23.779  30.172 -16.446  0.00  0.00    -0.066 N 
ATOM     14  H4  P8D d   1     -23.070  30.817 -16.759  0.00  0.00     0.275 HD
ATOM     15  H5  P8D d   1     -24.482  30.072 -17.161  0.00  0.00     0.275 HD
ATOM     16  H6  P8D d   1     -23.359  29.275 -16.260  0.00  0.00     0.275 HD
ENDBRANCH   7  13
ENDBRANCH   4   7
ENDBRANCH   1   4
BRANCH   1  17
ATOM     17  C5  P8D d   1     -27.788  30.040 -12.856  0.00  0.00     0.048 C 
ATOM     18  H10 P8D d   1     -28.102  30.890 -13.480  0.00  0.00     0.058 H 
BRANCH  17  19
ATOM     19  C6  P8D d   1     -28.601  28.824 -13.364  0.00  0.00     0.178 C 
ATOM     20  O61 P8D d   1     -29.829  28.936 -13.405  0.00  0.00    -0.648 OA
ATOM     21  O62 P8D d   1     -27.986  27.799 -13.732  0.00  0.00    -0.648 OA
ENDBRANCH  17  19
BRANCH  17  22
ATOM     22  C7  P8D d   1     -28.039  30.463 -11.393  0.00  0.00     0.029 C 
ATOM     23  H11 P8D d   1     -27.516  29.734 -10.757  0.00  0.00     0.050 H 
ATOM     24  H12 P8D d   1     -29.123  30.388 -11.222  0.00  0.00     0.050 H 
BRANCH  22  25
ATOM     25  C8  P8D d   1     -27.610  31.857 -10.916  0.00  0.00     0.173 C 
ATOM     26  O81 P8D d   1     -27.884  32.836 -11.636  0.00  0.00    -0.648 OA
ATOM     27  O82 P8D d   1     -27.008  31.901  -9.827  0.00  0.00    -0.648 OA
ENDBRANCH  22  25
ENDBRANCH  17  22
ENDBRANCH   1  17
TORSDOF 8
