REMARK  8 active torsions:
REMARK  status: ('A' for Active; 'I' for Inactive)
REMARK    1  A    between atoms: P_2  and  O4_5 
REMARK    2  A    between atoms: O4_5  and  C4_6 
REMARK    3  A    between atoms: C4_6  and  C3_7 
REMARK    4  A    between atoms: C3_7  and  O3_8 
REMARK    5  A    between atoms: C3_7  and  C2_9 
REMARK    6  A    between atoms: C2_9  and  O2_10 
REMARK    7  A    between atoms: C2_9  and  C1_11 
REMARK       I    between atoms: C1_11  and  N_13 
REMARK    8  A    between atoms: N_13  and  ON_14 
ROOT
ATOM      1  C3  RES d   1      39.012  28.900  13.182  0.00  0.00     0.090 C 
ATOM      2  H3  RES d   1      38.846  28.281  12.288  0.00  0.00     0.091 H 
ENDROOT
BRANCH   1   3
ATOM      3  C4  RES d   1      40.246  29.751  12.907  0.00  0.00     0.059 C 
ATOM      4  H1  RES d   1      40.080  30.387  12.025  0.00  0.00     0.079 H 
ATOM      5  H2  RES d   1      40.472  30.384  13.778  0.00  0.00     0.079 H 
BRANCH   3   6
ATOM      6  O4  RES d   1      41.329  28.838  12.663  0.00  0.00    -0.280 OA
BRANCH   6   7
ATOM      7  P   RES d   1      42.875  29.341  12.508  0.00  0.00     0.422 P 
ATOM      8  O7  RES d   1      43.342  29.403  13.943  0.00  0.00    -0.617 OA
ATOM      9  O5  RES d   1      43.517  28.236  11.737  0.00  0.00    -0.617 OA
ATOM     10  O6  RES d   1      42.747  30.689  11.819  0.00  0.00    -0.617 OA
ENDBRANCH   6   7
ENDBRANCH   3   6
ENDBRANCH   1   3
BRANCH   1  11
ATOM     11  O3  RES d   1      39.277  28.034  14.289  0.00  0.00    -0.390 OA
ATOM     12  H4  RES d   1      39.483  28.556  15.056  0.00  0.00     0.210 HD
ENDBRANCH   1  11
BRANCH   1  13
ATOM     13  C2  RES d   1      37.708  29.654  13.452  0.00  0.00     0.140 C 
ATOM     14  H5  RES d   1      37.663  29.904  14.522  0.00  0.00     0.102 H 
BRANCH  13  15
ATOM     15  O2  RES d   1      37.651  30.889  12.722  0.00  0.00    -0.383 OA
ATOM     16  H6  RES d   1      38.378  31.443  12.982  0.00  0.00     0.210 HD
ENDBRANCH  13  15
BRANCH  13  17
ATOM     17  C1  RES d   1      36.566  28.704  13.141  0.00  0.00     0.272 C 
ATOM     18  O1  RES d   1      36.401  28.138  12.060  0.00  0.00    -0.268 OA
ATOM     19  N   RES d   1      35.750  28.444  14.150  0.00  0.00    -0.235 N 
ATOM     20  H7  RES d   1      35.886  28.864  15.047  0.00  0.00     0.197 HD
BRANCH  19  21
ATOM     21  ON  RES d   1      34.704  27.571  13.920  0.00  0.00    -0.287 OA
ATOM     22  H8  RES d   1      35.050  26.727  13.654  0.00  0.00     0.244 HD
ENDBRANCH  19  21
ENDBRANCH  13  17
ENDBRANCH   1  13
TORSDOF 8
