REMARK  9 active torsions:
REMARK  status: ('A' for Active; 'I' for Inactive)
REMARK    1  A    between atoms: O4_1  and  C11_2 
REMARK    2  A    between atoms: C11_2  and  C6_3 
REMARK    3  A    between atoms: C6_3  and  O3_4 
REMARK    4  A    between atoms: C6_3  and  C8_5 
REMARK    5  A    between atoms: C8_5  and  C3_6 
REMARK    6  A    between atoms: C8_5  and  N2_8 
REMARK    7  A    between atoms: C3_6  and  O2_7 
REMARK    8  A    between atoms: N2_8  and  C10_9 
REMARK    9  A    between atoms: C10_9  and  C4_10 
ROOT
ATOM      1  N2  229 d   1     -44.559  -0.810  -3.301  0.00  0.00    -0.062 N 
ATOM      2  H10 229 d   1     -44.660  -0.541  -2.335  0.00  0.00     0.278 HD
ATOM      3  H11 229 d   1     -45.257  -1.500  -3.533  0.00  0.00     0.278 HD
ENDROOT
BRANCH   1   4
ATOM      4  C8  229 d   1     -43.279  -1.464  -3.415  0.00  0.00     0.148 C 
ATOM      5  H6  229 d   1     -42.474  -0.714  -3.436  0.00  0.00     0.091 H 
BRANCH   4   6
ATOM      6  C6  229 d   1     -43.112  -2.393  -2.213  0.00  0.00     0.085 C 
ATOM      7  H4  229 d   1     -42.108  -2.839  -2.270  0.00  0.00     0.089 H 
BRANCH   6   8
ATOM      8  C11 229 d   1     -43.218  -1.659  -0.870  0.00  0.00     0.043 C 
ATOM      9  H2  229 d   1     -42.961  -2.350  -0.054  0.00  0.00     0.077 H 
ATOM     10  H3  229 d   1     -42.523  -0.807  -0.862  0.00  0.00     0.077 H 
BRANCH   8  11
ATOM     11  O4  229 d   1     -44.554  -1.185  -0.689  0.00  0.00    -0.398 OA
ATOM     12  H1  229 d   1     -45.154  -1.922  -0.696  0.00  0.00     0.209 HD
ENDBRANCH   8  11
ENDBRANCH   6   8
BRANCH   6  13
ATOM     13  O3  229 d   1     -44.080  -3.452  -2.287  0.00  0.00    -0.391 OA
ATOM     14  H5  229 d   1     -44.953  -3.088  -2.202  0.00  0.00     0.210 HD
ENDBRANCH   6  13
ENDBRANCH   4   6
BRANCH   4  15
ATOM     15  C3  229 d   1     -43.231  -2.316  -4.677  0.00  0.00     0.046 C 
ATOM     16  H7  229 d   1     -44.215  -2.783  -4.827  0.00  0.00     0.077 H 
ATOM     17  H8  229 d   1     -42.469  -3.099  -4.548  0.00  0.00     0.077 H 
BRANCH  15  18
ATOM     18  O2  229 d   1     -42.904  -1.539  -5.841  0.00  0.00    -0.399 OA
ATOM     19  H9  229 d   1     -42.884  -2.106  -6.603  0.00  0.00     0.209 HD
ENDBRANCH  15  18
ENDBRANCH   4  15
ENDBRANCH   1   4
BRANCH   1  20
ATOM     20  C10 229 d   1     -44.860   0.360  -4.087  0.00  0.00     0.109 C 
ATOM     21  H12 229 d   1     -45.898   0.312  -4.447  0.00  0.00     0.083 H 
ATOM     22  H13 229 d   1     -44.176   0.419  -4.947  0.00  0.00     0.083 H 
BRANCH  20  23
ATOM     23  C4  229 d   1     -44.680   1.564  -3.209  0.00  0.00     0.014 A 
ATOM     24  C1  229 d   1     -43.441   2.303  -2.982  0.00  0.00     0.099 A 
ATOM     25  N4  229 d   1     -42.198   2.097  -3.468  0.00  0.00    -0.241 NA
ATOM     26  C2  229 d   1     -43.769   3.373  -2.060  0.00  0.00     0.130 A 
ATOM     27  C7  229 d   1     -41.217   2.930  -3.098  0.00  0.00     0.067 A 
ATOM     28  N3  229 d   1     -41.432   3.973  -2.252  0.00  0.00    -0.316 N 
ATOM     29  H14 229 d   1     -40.213   2.767  -3.488  0.00  0.00     0.143 H 
ATOM     30  C5  229 d   1     -42.625   4.252  -1.695  0.00  0.00     0.275 A 
ATOM     31  H15 229 d   1     -40.659   4.567  -2.031  0.00  0.00     0.170 HD
ATOM     32  O1  229 d   1     -42.755   5.223  -0.915  0.00  0.00    -0.266 OA
ATOM     33  N1  229 d   1     -45.080   3.272  -1.791  0.00  0.00    -0.359 N 
ATOM     34  C9  229 d   1     -45.634   2.219  -2.451  0.00  0.00    -0.012 A 
ATOM     35  H17 229 d   1     -45.598   3.907  -1.167  0.00  0.00     0.165 HD
ATOM     36  H16 229 d   1     -46.683   1.932  -2.391  0.00  0.00     0.112 H 
ENDBRANCH  20  23
ENDBRANCH   1  20
TORSDOF 9
