REMARK  7 active torsions:
REMARK  status: ('A' for Active; 'I' for Inactive)
REMARK    1  A    between atoms: C9_10  and  C10_12 
REMARK    2  A    between atoms: C10_12  and  N1'_11 
REMARK    3  A    between atoms: N1'_11  and  C2'_13 
REMARK    4  A    between atoms: C2'_13  and  C3'_14 
REMARK    5  A    between atoms: C2'_13  and  C4'_15 
REMARK    6  A    between atoms: C3'_14  and  O6'_17 
REMARK    7  A    between atoms: C4'_15  and  O5'_16 
ROOT
ATOM      1  C10 22A d   1      13.667  12.979  58.768  0.00  0.00     0.109 C 
ATOM      2  H7  22A d   1      12.701  12.541  59.060  0.00  0.00     0.083 H 
ATOM      3  H8  22A d   1      13.530  14.044  58.529  0.00  0.00     0.083 H 
ENDROOT
BRANCH   1   4
ATOM      4  C9  22A d   1      14.230  12.247  57.576  0.00  0.00     0.014 C 
ATOM      5  C4  22A d   1      13.912  10.984  57.112  0.00  0.00     0.099 C 
ATOM      6  N3  22A d   1      12.966  10.100  57.526  0.00  0.00    -0.241 NA
ATOM      7  C5  22A d   1      14.634  10.758  55.917  0.00  0.00     0.130 C 
ATOM      8  C2  22A d   1      12.826   8.938  56.870  0.00  0.00     0.067 C 
ATOM      9  N1  22A d   1      13.582   8.613  55.803  0.00  0.00    -0.316 N 
ATOM     10  H2  22A d   1      12.073   8.230  57.213  0.00  0.00     0.143 H 
ATOM     11  C6  22A d   1      14.556   9.424  55.329  0.00  0.00     0.275 C 
ATOM     12  H1  22A d   1      13.417   7.740  55.344  0.00  0.00     0.170 HD
ATOM     13  O6  22A d   1      15.224   9.119  54.314  0.00  0.00    -0.266 OA
ATOM     14  N7  22A d   1      15.639  11.788  55.783  0.00  0.00    -0.359 N 
ATOM     15  C8  22A d   1      15.281  12.693  56.757  0.00  0.00    -0.012 C 
ATOM     16  H3  22A d   1      16.428  11.834  55.122  0.00  0.00     0.165 HD
ATOM     17  H4  22A d   1      15.765  13.661  56.881  0.00  0.00     0.112 H 
ENDBRANCH   1   4
BRANCH   1  18
ATOM     18  N1' 22A d   1      14.638  12.827  59.854  0.00  0.00    -0.063 N 
ATOM     19  H5  22A d   1      14.358  13.459  60.587  0.00  0.00     0.278 HD
ATOM     20  H6  22A d   1      15.533  13.112  59.488  0.00  0.00     0.278 HD
BRANCH  18  21
ATOM     21  C2' 22A d   1      14.831  11.513  60.476  0.00  0.00     0.142 C 
ATOM     22  H9  22A d   1      14.490  10.758  59.752  0.00  0.00     0.091 H 
BRANCH  21  23
ATOM     23  C3' 22A d   1      13.964  11.394  61.723  0.00  0.00     0.045 C 
ATOM     24  H10 22A d   1      14.360  10.583  62.352  0.00  0.00     0.077 H 
ATOM     25  H11 22A d   1      12.936  11.151  61.416  0.00  0.00     0.077 H 
BRANCH  23  26
ATOM     26  O6' 22A d   1      13.940  12.612  62.498  0.00  0.00    -0.399 OA
ATOM     27  H15 22A d   1      13.592  13.318  61.966  0.00  0.00     0.209 HD
ENDBRANCH  23  26
ENDBRANCH  21  23
BRANCH  21  28
ATOM     28  C4' 22A d   1      16.294  11.184  60.819  0.00  0.00     0.045 C 
ATOM     29  H12 22A d   1      16.658  10.440  60.095  0.00  0.00     0.077 H 
ATOM     30  H13 22A d   1      16.321  10.755  61.831  0.00  0.00     0.077 H 
BRANCH  28  31
ATOM     31  O5' 22A d   1      17.184  12.316  60.786  0.00  0.00    -0.399 OA
ATOM     32  H14 22A d   1      18.063  12.033  61.008  0.00  0.00     0.209 HD
ENDBRANCH  28  31
ENDBRANCH  21  28
ENDBRANCH  18  21
ENDBRANCH   1  18
TORSDOF 7
