REMARK  5 active torsions:
REMARK  status: ('A' for Active; 'I' for Inactive)
REMARK       I    between atoms: C18_21  and  N1_1 
REMARK    1  A    between atoms: C4_2  and  C5_3 
REMARK    2  A    between atoms: C10_7  and  C11_15 
REMARK    3  A    between atoms: C15_9  and  O2_20 
REMARK    4  A    between atoms: C17_10  and  O1_19 
REMARK    5  A    between atoms: C12_16  and  C18_21 
ROOT
ATOM      1  N1  4CD d   1      67.465  78.967  22.812  0.00  0.00    -0.339 N 
ATOM      2  C4  4CD d   1      67.982  79.893  23.865  0.00  0.00     0.041 C 
ATOM      3  C1  4CD d   1      67.823  81.283  23.221  0.00  0.00    -0.041 C 
ATOM      4  C2  4CD d   1      67.944  81.046  21.717  0.00  0.00    -0.048 C 
ATOM      5  C3  4CD d   1      67.377  79.648  21.512  0.00  0.00    -0.001 C 
ATOM      6  C18 4CD d   1      67.005  77.631  22.925  0.00  0.00     0.257 C 
ATOM      7  O3  4CD d   1      66.521  77.000  21.984  0.00  0.00    -0.267 OA
ATOM      8  H1  4CD d   1      67.349  79.813  24.761  0.00  0.00     0.080 H 
ATOM      9  H6  4CD d   1      68.615  81.962  23.569  0.00  0.00     0.036 H 
ATOM     10  H7  4CD d   1      66.840  81.711  23.466  0.00  0.00     0.036 H 
ATOM     11  H8  4CD d   1      68.996  81.091  21.398  0.00  0.00     0.035 H 
ATOM     12  H9  4CD d   1      67.359  81.790  21.157  0.00  0.00     0.035 H 
ATOM     13  H10 4CD d   1      66.329  79.707  21.184  0.00  0.00     0.064 H 
ATOM     14  H11 4CD d   1      67.967  79.106  20.758  0.00  0.00     0.064 H 
ENDROOT
BRANCH   2  15
ATOM     15  C5  4CD d   1      69.461  79.654  24.300  0.00  0.00    -0.029 A 
ATOM     16  C6  4CD d   1      70.420  79.041  23.404  0.00  0.00    -0.074 A 
ATOM     17  C7  4CD d   1      71.762  78.818  23.799  0.00  0.00    -0.082 A 
ATOM     18  H2  4CD d   1      70.104  78.747  22.410  0.00  0.00     0.084 H 
ATOM     19  C8  4CD d   1      72.193  79.195  25.089  0.00  0.00    -0.082 A 
ATOM     20  H3  4CD d   1      72.459  78.357  23.109  0.00  0.00     0.083 H 
ATOM     21  C9  4CD d   1      71.285  79.796  25.992  0.00  0.00    -0.077 A 
ATOM     22  H4  4CD d   1      73.221  79.024  25.388  0.00  0.00     0.083 H 
ATOM     23  C10 4CD d   1      69.923  80.035  25.624  0.00  0.00    -0.054 A 
ATOM     24  H12 4CD d   1      71.627  80.081  26.980  0.00  0.00     0.084 H 
BRANCH  23  25
ATOM     25  C11 4CD d   1      69.028  80.681  26.657  0.00  0.00    -0.051 C 
ATOM     26  H13 4CD d   1      68.017  80.804  26.241  0.00  0.00     0.033 H 
ATOM     27  H14 4CD d   1      69.434  81.666  26.930  0.00  0.00     0.033 H 
ATOM     28  H15 4CD d   1      68.981  80.043  27.552  0.00  0.00     0.033 H 
ENDBRANCH  23  25
ENDBRANCH   2  15
BRANCH   6  29
ATOM     29  C12 4CD d   1      67.068  76.908  24.240  0.00  0.00     0.067 A 
ATOM     30  C13 4CD d   1      68.324  76.447  24.747  0.00  0.00    -0.041 A 
ATOM     31  C14 4CD d   1      68.388  75.771  25.998  0.00  0.00     0.068 A 
ATOM     32  H5  4CD d   1      69.230  76.613  24.176  0.00  0.00     0.087 H 
ATOM     33  C15 4CD d   1      67.197  75.553  26.745  0.00  0.00     0.090 A 
ATOM     34 CL1  4CD d   1      69.924  75.235  26.569  0.00  0.00    -0.081 Cl
ATOM     35  C16 4CD d   1      65.947  76.001  26.244  0.00  0.00    -0.016 A 
ATOM     36  C17 4CD d   1      65.886  76.674  24.994  0.00  0.00     0.084 A 
ATOM     37  H16 4CD d   1      65.041  75.830  26.814  0.00  0.00     0.092 H 
BRANCH  33  38
ATOM     38  O2  4CD d   1      67.248  74.913  27.951  0.00  0.00    -0.359 OA
ATOM     39  H18 4CD d   1      66.715  74.127  27.914  0.00  0.00     0.217 HD
ENDBRANCH  33  38
BRANCH  36  40
ATOM     40  O1  4CD d   1      64.661  77.072  24.579  0.00  0.00    -0.360 OA
ATOM     41  H17 4CD d   1      64.095  76.314  24.493  0.00  0.00     0.217 HD
ENDBRANCH  36  40
ENDBRANCH   6  29
TORSDOF 5
