REMARK  2 active torsions:
REMARK  status: ('A' for Active; 'I' for Inactive)
REMARK       I    between atoms: N1_1  and  C2_2 
REMARK    1  A    between atoms: C2_2  and  C5_5 
REMARK    2  A    between atoms: C9_9  and  O14_14 
ROOT
ATOM      1  N1  PFT d   1      47.361  72.417  63.975  0.00  0.00    -0.339 N 
ATOM      2  C2  PFT d   1      46.884  72.346  65.331  0.00  0.00     0.256 C 
ATOM      3  C3  PFT d   1      47.946  73.704  63.390  0.00  0.00     0.022 A 
ATOM      4  C4  PFT d   1      47.400  71.290  62.903  0.00  0.00     0.022 A 
ATOM      5  O6  PFT d   1      47.003  73.377  65.940  0.00  0.00    -0.267 OA
ATOM      6  C7  PFT d   1      48.341  73.278  61.927  0.00  0.00    -0.032 A 
ATOM      7  C8  PFT d   1      48.003  71.875  61.701  0.00  0.00    -0.032 A 
ATOM      8  C11 PFT d   1      48.948  73.955  60.815  0.00  0.00    -0.075 A 
ATOM      9  C12 PFT d   1      48.219  71.128  60.485  0.00  0.00    -0.075 A 
ATOM     10  C16 PFT d   1      49.189  73.221  59.552  0.00  0.00    -0.082 A 
ATOM     11  C17 PFT d   1      48.813  71.805  59.417  0.00  0.00    -0.082 A 
ATOM     12  H1  PFT d   1      48.829  74.032  63.959  0.00  0.00     0.071 H 
ATOM     13  H2  PFT d   1      47.197  74.510  63.379  0.00  0.00     0.071 H 
ATOM     14  H3  PFT d   1      46.381  70.939  62.684  0.00  0.00     0.071 H 
ATOM     15  H4  PFT d   1      48.009  70.447  63.261  0.00  0.00     0.071 H 
ATOM     16  H6  PFT d   1      49.228  74.999  60.900  0.00  0.00     0.084 H 
ATOM     17  H7  PFT d   1      47.932  70.086  60.404  0.00  0.00     0.084 H 
ATOM     18  H12 PFT d   1      49.649  73.734  58.715  0.00  0.00     0.083 H 
ATOM     19  H13 PFT d   1      48.998  71.284  58.484  0.00  0.00     0.083 H 
ENDROOT
BRANCH   2  20
ATOM     20  C5  PFT d   1      46.346  70.976  65.746  0.00  0.00     0.061 A 
ATOM     21  C9  PFT d   1      47.329  70.241  66.533  0.00  0.00     0.065 A 
ATOM     22  C13 PFT d   1      47.157  68.944  67.073  0.00  0.00     0.027 A 
ATOM     23  C18 PFT d   1      45.835  68.489  66.697  0.00  0.00     0.090 A 
ATOM     24  H8  PFT d   1      47.245  68.978  68.169  0.00  0.00     0.053 H 
ATOM     25  H9  PFT d   1      47.919  68.263  66.665  0.00  0.00     0.053 H 
ATOM     26  C15 PFT d   1      44.800  69.184  65.907  0.00  0.00    -0.050 A 
ATOM     27  O19 PFT d   1      45.521  67.282  67.121  0.00  0.00    -0.196 OA
ATOM     28  C10 PFT d   1      45.055  70.472  65.411  0.00  0.00    -0.063 A 
ATOM     29  H11 PFT d   1      43.844  68.700  65.710  0.00  0.00     0.087 H 
ATOM     30  H5  PFT d   1      44.332  71.036  64.823  0.00  0.00     0.085 H 
BRANCH  21  31
ATOM     31  O14 PFT d   1      48.581  70.731  66.853  0.00  0.00    -0.364 OA
ATOM     32  H10 PFT d   1      48.671  70.773  67.798  0.00  0.00     0.217 HD
ENDBRANCH  21  31
ENDBRANCH   2  20
TORSDOF 2
