REMARK  16 active torsions:
REMARK  status: ('A' for Active; 'I' for Inactive)
REMARK    1  A    between atoms: C12_2  and  C21_3 
REMARK       I    between atoms: C12_2  and  N2_13 
REMARK    2  A    between atoms: C21_3  and  O2_4 
REMARK    3  A    between atoms: O2_4  and  C45_5 
REMARK    4  A    between atoms: C46_6  and  C44_7 
REMARK    5  A    between atoms: C42_11  and  C43_12 
REMARK    6  A    between atoms: N2_13  and  C13_14 
REMARK    7  A    between atoms: C13_14  and  C15_15 
REMARK    8  A    between atoms: C13_14  and  C14_22 
REMARK    9  A    between atoms: C15_15  and  C22_16 
REMARK   10  A    between atoms: C14_22  and  O1_23 
REMARK   11  A    between atoms: C14_22  and  C16_24 
REMARK       I    between atoms: C16_24  and  N3_26 
REMARK   12  A    between atoms: C18_29  and  C30_30 
REMARK   13  A    between atoms: C18_29  and  C29_31 
REMARK   14  A    between atoms: C17_32  and  C20_33 
REMARK       I    between atoms: C20_33  and  N4_35 
REMARK   15  A    between atoms: N4_35  and  C31_36 
REMARK   16  A    between atoms: C35_44  and  O7_45 
ROOT
ATOM      1  C14 006 d   1      15.296  23.143  18.773  0.00  0.00     0.132 C 
ATOM      2  H21 006 d   1      15.355  22.551  19.698  0.00  0.00     0.101 H 
ENDROOT
BRANCH   1   3
ATOM      3  C13 006 d   1      15.150  22.196  17.593  0.00  0.00     0.049 C 
ATOM      4  H13 006 d   1      16.154  21.829  17.334  0.00  0.00     0.077 H 
BRANCH   3   5
ATOM      5  N2  006 d   1      14.355  21.061  18.038  0.00  0.00    -0.351 N 
ATOM      6  C12 006 d   1      14.972  19.908  18.308  0.00  0.00     0.242 C 
ATOM      7  O8  006 d   1      16.172  19.761  18.246  0.00  0.00    -0.271 OA
ATOM      8  H12 006 d   1      13.364  21.143  18.140  0.00  0.00     0.163 HD
BRANCH   6   9
ATOM      9  C21 006 d   1      14.121  18.716  18.663  0.00  0.00     0.099 C 
ATOM     10  H1  006 d   1      14.655  18.111  19.410  0.00  0.00     0.089 H 
ATOM     11  H2  006 d   1      13.957  18.117  17.755  0.00  0.00     0.089 H 
BRANCH   9  12
ATOM     12  O2  006 d   1      12.848  19.091  19.201  0.00  0.00    -0.341 OA
BRANCH  12  13
ATOM     13  C45 006 d   1      11.966  18.046  19.361  0.00  0.00     0.081 A 
ATOM     14  C46 006 d   1      11.933  17.250  20.625  0.00  0.00    -0.028 A 
ATOM     15  C47 006 d   1      11.023  16.204  20.722  0.00  0.00    -0.074 A 
ATOM     16  C40 006 d   1      10.173  15.885  19.663  0.00  0.00    -0.082 A 
ATOM     17  H6  006 d   1      10.973  15.626  21.637  0.00  0.00     0.084 H 
ATOM     18  C41 006 d   1      10.175  16.591  18.464  0.00  0.00    -0.074 A 
ATOM     19  H7  006 d   1       9.485  15.056  19.779  0.00  0.00     0.083 H 
ATOM     20  C42 006 d   1      11.041  17.660  18.263  0.00  0.00    -0.028 A 
ATOM     21  H8  006 d   1       9.491  16.303  17.674  0.00  0.00     0.084 H 
BRANCH  14  22
ATOM     22  C44 006 d   1      12.826  17.573  21.793  0.00  0.00    -0.049 C 
ATOM     23  H3  006 d   1      12.633  16.862  22.610  0.00  0.00     0.033 H 
ATOM     24  H4  006 d   1      12.619  18.596  22.141  0.00  0.00     0.033 H 
ATOM     25  H5  006 d   1      13.878  17.497  21.482  0.00  0.00     0.033 H 
ENDBRANCH  14  22
BRANCH  20  26
ATOM     26  C43 006 d   1      11.032  18.415  16.961  0.00  0.00    -0.049 C 
ATOM     27  H9  006 d   1      11.783  19.218  16.998  0.00  0.00     0.033 H 
ATOM     28  H10 006 d   1      10.036  18.852  16.797  0.00  0.00     0.033 H 
ATOM     29  H11 006 d   1      11.271  17.727  16.137  0.00  0.00     0.033 H 
ENDBRANCH  20  26
ENDBRANCH  12  13
ENDBRANCH   9  12
ENDBRANCH   6   9
ENDBRANCH   3   5
BRANCH   3  30
ATOM     30  C15 006 d   1      14.577  22.843  16.328  0.00  0.00    -0.019 C 
ATOM     31  H14 006 d   1      15.295  23.577  15.932  0.00  0.00     0.043 H 
ATOM     32  H15 006 d   1      13.631  23.349  16.570  0.00  0.00     0.043 H 
BRANCH  30  33
ATOM     33  C22 006 d   1      14.326  21.768  15.289  0.00  0.00    -0.056 A 
ATOM     34  C23 006 d   1      15.394  21.269  14.529  0.00  0.00    -0.077 A 
ATOM     35  C24 006 d   1      15.161  20.275  13.583  0.00  0.00    -0.082 A 
ATOM     36  H16 006 d   1      16.396  21.655  14.678  0.00  0.00     0.084 H 
ATOM     37  C25 006 d   1      13.870  19.764  13.392  0.00  0.00    -0.083 A 
ATOM     38  H17 006 d   1      15.984  19.893  12.990  0.00  0.00     0.083 H 
ATOM     39  C26 006 d   1      12.806  20.257  14.144  0.00  0.00    -0.082 A 
ATOM     40  H18 006 d   1      13.699  18.984  12.658  0.00  0.00     0.083 H 
ATOM     41  C27 006 d   1      13.028  21.260  15.094  0.00  0.00    -0.077 A 
ATOM     42  H19 006 d   1      11.807  19.864  13.993  0.00  0.00     0.083 H 
ATOM     43  H20 006 d   1      12.201  21.645  15.679  0.00  0.00     0.084 H 
ENDBRANCH  30  33
ENDBRANCH   3  30
ENDBRANCH   1   3
BRANCH   1  44
ATOM     44  O1  006 d   1      14.130  23.972  18.853  0.00  0.00    -0.384 OA
ATOM     45  H22 006 d   1      14.215  24.566  19.589  0.00  0.00     0.210 HD
ENDBRANCH   1  44
BRANCH   1  46
ATOM     46  C16 006 d   1      16.583  23.919  18.637  0.00  0.00     0.252 C 
ATOM     47  O3  006 d   1      16.655  24.900  17.903  0.00  0.00    -0.270 OA
ATOM     48  N3  006 d   1      17.633  23.439  19.310  0.00  0.00    -0.326 N 
ATOM     49  C19 006 d   1      17.716  22.144  20.011  0.00  0.00     0.040 C 
ATOM     50  C17 006 d   1      18.877  24.224  19.395  0.00  0.00     0.108 C 
ATOM     51  S1  006 d   1      19.376  21.954  20.529  0.00  0.00    -0.137 SA
ATOM     52  H23 006 d   1      17.436  21.326  19.330  0.00  0.00     0.081 H 
ATOM     53  H24 006 d   1      17.045  22.142  20.883  0.00  0.00     0.081 H 
ATOM     54  C18 006 d   1      19.765  23.675  20.516  0.00  0.00     0.032 C 
ATOM     55  H31 006 d   1      18.607  25.256  19.664  0.00  0.00     0.090 H 
BRANCH  54  56
ATOM     56  C30 006 d   1      21.265  23.874  20.339  0.00  0.00    -0.058 C 
ATOM     57  H25 006 d   1      21.494  24.950  20.333  0.00  0.00     0.029 H 
ATOM     58  H26 006 d   1      21.585  23.425  19.387  0.00  0.00     0.029 H 
ATOM     59  H27 006 d   1      21.800  23.390  21.170  0.00  0.00     0.029 H 
ENDBRANCH  54  56
BRANCH  54  60
ATOM     60  C29 006 d   1      19.272  24.315  21.822  0.00  0.00    -0.058 C 
ATOM     61  H28 006 d   1      19.513  25.388  21.818  0.00  0.00     0.029 H 
ATOM     62  H29 006 d   1      19.767  23.831  22.677  0.00  0.00     0.029 H 
ATOM     63  H30 006 d   1      18.183  24.184  21.907  0.00  0.00     0.029 H 
ENDBRANCH  54  60
BRANCH  50  64
ATOM     64  C20 006 d   1      19.580  24.279  18.054  0.00  0.00     0.242 C 
ATOM     65  O4  006 d   1      19.599  23.300  17.328  0.00  0.00    -0.271 OA
ATOM     66  N4  006 d   1      20.153  25.442  17.746  0.00  0.00    -0.348 N 
ATOM     67  H32 006 d   1      19.944  26.249  18.298  0.00  0.00     0.163 HD
BRANCH  66  68
ATOM     68  C31 006 d   1      21.070  25.567  16.634  0.00  0.00     0.063 C 
ATOM     69  C32 006 d   1      20.435  26.152  15.436  0.00  0.00    -0.027 A 
ATOM     70  C33 006 d   1      19.193  25.879  14.880  0.00  0.00    -0.074 A 
ATOM     71  C36 006 d   1      21.306  27.169  14.834  0.00  0.00    -0.047 A 
ATOM     72  C34 006 d   1      18.818  26.586  13.730  0.00  0.00    -0.082 A 
ATOM     73  H34 006 d   1      18.533  25.141  15.322  0.00  0.00     0.084 H 
ATOM     74  C38 006 d   1      19.655  27.557  13.154  0.00  0.00    -0.082 A 
ATOM     75  H35 006 d   1      17.857  26.379  13.273  0.00  0.00     0.083 H 
ATOM     76  C37 006 d   1      20.913  27.865  13.690  0.00  0.00    -0.076 A 
ATOM     77  H36 006 d   1      19.318  28.084  12.269  0.00  0.00     0.083 H 
ATOM     78  H37 006 d   1      21.553  28.612  13.235  0.00  0.00     0.084 H 
ATOM     79  C39 006 d   1      22.576  27.289  15.625  0.00  0.00    -0.014 C 
ATOM     80  C35 006 d   1      22.173  26.600  16.933  0.00  0.00     0.063 C 
ATOM     81  H38 006 d   1      22.851  28.341  15.791  0.00  0.00     0.044 H 
ATOM     82  H39 006 d   1      23.409  26.766  15.133  0.00  0.00     0.044 H 
ATOM     83  H40 006 d   1      23.042  26.091  17.375  0.00  0.00     0.087 H 
ATOM     84  H33 006 d   1      21.499  24.579  16.409  0.00  0.00     0.084 H 
BRANCH  80  85
ATOM     85  O7  006 d   1      21.698  27.606  17.829  0.00  0.00    -0.393 OA
ATOM     86  H41 006 d   1      22.389  28.238  17.988  0.00  0.00     0.210 HD
ENDBRANCH  80  85
ENDBRANCH  66  68
ENDBRANCH  50  64
ENDBRANCH   1  46
TORSDOF 16
