REMARK  14 active torsions:
REMARK  status: ('A' for Active; 'I' for Inactive)
REMARK       I    between atoms: C12_13  and  N2_3 
REMARK    1  A    between atoms: N2_3  and  C13_14 
REMARK    2  A    between atoms: O2_4  and  C21_22 
REMARK    3  A    between atoms: C45_43  and  O2_4 
REMARK       I    between atoms: C16_17  and  N3_6 
REMARK       I    between atoms: C20_21  and  N4_8 
REMARK    4  A    between atoms: N4_8  and  C31_31 
REMARK    5  A    between atoms: C14_15  and  O5_10 
REMARK    6  A    between atoms: C35_35  and  O7_11 
REMARK    7  A    between atoms: C21_22  and  C12_13 
REMARK    8  A    between atoms: C13_14  and  C14_15 
REMARK    9  A    between atoms: C13_14  and  C15_16 
REMARK   10  A    between atoms: C14_15  and  C16_17 
REMARK   11  A    between atoms: C15_16  and  C22_23 
REMARK   12  A    between atoms: C17_18  and  C20_21 
REMARK   13  A    between atoms: C18_19  and  C29_29 
REMARK   14  A    between atoms: C18_19  and  C30_30 
ROOT
ATOM      1  S1  JZP d   1      19.090  22.147  20.452  0.00  0.00    -0.137 SA
ATOM      2  N3  JZP d   1      17.387  23.612  19.152  0.00  0.00    -0.326 N 
ATOM      3  O3  JZP d   1      16.331  25.197  17.942  0.00  0.00    -0.270 OA
ATOM      4  C16 JZP d   1      16.317  24.122  18.525  0.00  0.00     0.252 C 
ATOM      5  C17 JZP d   1      18.646  24.377  19.220  0.00  0.00     0.108 C 
ATOM      6  C18 JZP d   1      19.550  23.830  20.326  0.00  0.00     0.032 C 
ATOM      7  C19 JZP d   1      17.467  22.301  19.811  0.00  0.00     0.040 C 
ATOM      8  H9  JZP d   1      18.388  25.412  19.489  0.00  0.00     0.090 H 
ATOM      9  H10 JZP d   1      16.732  22.243  20.627  0.00  0.00     0.081 H 
ATOM     10  H11 JZP d   1      17.271  21.500  19.083  0.00  0.00     0.081 H 
ENDROOT
BRANCH   4  11
ATOM     11  C14 JZP d   1      15.039  23.323  18.562  0.00  0.00     0.132 C 
ATOM     12  H6  JZP d   1      15.046  22.710  19.476  0.00  0.00     0.101 H 
BRANCH  11  13
ATOM     13  O5  JZP d   1      13.917  24.207  18.624  0.00  0.00    -0.384 OA
ATOM     14  H3  JZP d   1      14.010  24.783  19.373  0.00  0.00     0.210 HD
ENDBRANCH  11  13
BRANCH  11  15
ATOM     15  C13 JZP d   1      14.922  22.378  17.364  0.00  0.00     0.049 C 
ATOM     16  H5  JZP d   1      15.938  22.044  17.106  0.00  0.00     0.077 H 
BRANCH  15  17
ATOM     17  N2  JZP d   1      14.157  21.208  17.771  0.00  0.00    -0.351 N 
ATOM     18  C12 JZP d   1      14.757  20.067  18.129  0.00  0.00     0.242 C 
ATOM     19  O8  JZP d   1      15.966  19.943  18.229  0.00  0.00    -0.271 OA
ATOM     20  H1  JZP d   1      13.158  21.259  17.783  0.00  0.00     0.163 HD
BRANCH  18  21
ATOM     21  C21 JZP d   1      13.883  18.869  18.416  0.00  0.00     0.099 C 
ATOM     22  H12 JZP d   1      13.914  18.196  17.547  0.00  0.00     0.089 H 
ATOM     23  H13 JZP d   1      14.282  18.347  19.299  0.00  0.00     0.089 H 
BRANCH  21  24
ATOM     24  O2  JZP d   1      12.522  19.222  18.671  0.00  0.00    -0.339 OA
BRANCH  24  25
ATOM     25  C45 JZP d   1      11.604  18.203  18.676  0.00  0.00     0.112 A 
ATOM     26  C42 JZP d   1      11.410  17.351  19.871  0.00  0.00     0.069 A 
ATOM     27 CL1  JZP d   1      12.361  17.669  21.357  0.00  0.00    -0.081 Cl
ATOM     28  C41 JZP d   1      10.472  16.322  19.820  0.00  0.00    -0.059 A 
ATOM     29  C40 JZP d   1       9.725  16.070  18.666  0.00  0.00    -0.080 A 
ATOM     30  H34 JZP d   1      10.318  15.702  20.696  0.00  0.00     0.086 H 
ATOM     31  C47 JZP d   1       9.877  16.843  17.510  0.00  0.00    -0.059 A 
ATOM     32  H33 JZP d   1       9.010  15.255  18.667  0.00  0.00     0.083 H 
ATOM     33  C46 JZP d   1      10.792  17.895  17.476  0.00  0.00     0.069 A 
ATOM     34  H35 JZP d   1       9.279  16.622  16.633  0.00  0.00     0.086 H 
ATOM     35 CL2  JZP d   1      10.994  18.888  16.005  0.00  0.00    -0.081 Cl
ENDBRANCH  24  25
ENDBRANCH  21  24
ENDBRANCH  18  21
ENDBRANCH  15  17
BRANCH  15  36
ATOM     36  C15 JZP d   1      14.341  23.038  16.109  0.00  0.00    -0.019 C 
ATOM     37  H7  JZP d   1      15.093  23.711  15.671  0.00  0.00     0.043 H 
ATOM     38  H8  JZP d   1      13.447  23.617  16.384  0.00  0.00     0.043 H 
BRANCH  36  39
ATOM     39  C22 JZP d   1      13.962  21.986  15.095  0.00  0.00    -0.056 A 
ATOM     40  C23 JZP d   1      14.949  21.249  14.436  0.00  0.00    -0.077 A 
ATOM     41  C24 JZP d   1      14.582  20.276  13.506  0.00  0.00    -0.082 A 
ATOM     42  H14 JZP d   1      15.996  21.433  14.646  0.00  0.00     0.084 H 
ATOM     43  C25 JZP d   1      13.234  20.037  13.239  0.00  0.00    -0.083 A 
ATOM     44  H15 JZP d   1      15.345  19.705  12.990  0.00  0.00     0.083 H 
ATOM     45  C26 JZP d   1      12.249  20.775  13.897  0.00  0.00    -0.082 A 
ATOM     46  H16 JZP d   1      12.951  19.277  12.520  0.00  0.00     0.083 H 
ATOM     47  C27 JZP d   1      12.614  21.749  14.825  0.00  0.00    -0.077 A 
ATOM     48  H17 JZP d   1      11.202  20.591  13.687  0.00  0.00     0.083 H 
ATOM     49  H18 JZP d   1      11.850  22.323  15.337  0.00  0.00     0.084 H 
ENDBRANCH  36  39
ENDBRANCH  15  36
ENDBRANCH  11  15
ENDBRANCH   4  11
BRANCH   5  50
ATOM     50  C20 JZP d   1      19.345  24.426  17.885  0.00  0.00     0.242 C 
ATOM     51  N4  JZP d   1      19.923  25.587  17.557  0.00  0.00    -0.348 N 
ATOM     52  H2  JZP d   1      19.749  26.388  18.131  0.00  0.00     0.163 HD
ATOM     53  O4  JZP d   1      19.353  23.437  17.167  0.00  0.00    -0.271 OA
BRANCH  51  54
ATOM     54  C31 JZP d   1      20.792  25.733  16.403  0.00  0.00     0.063 C 
ATOM     55  C32 JZP d   1      20.066  26.275  15.242  0.00  0.00    -0.027 A 
ATOM     56  C33 JZP d   1      18.885  25.813  14.675  0.00  0.00    -0.074 A 
ATOM     57  C36 JZP d   1      20.759  27.437  14.684  0.00  0.00    -0.047 A 
ATOM     58  C34 JZP d   1      18.392  26.504  13.563  0.00  0.00    -0.082 A 
ATOM     59  H26 JZP d   1      18.366  24.951  15.078  0.00  0.00     0.084 H 
ATOM     60  C38 JZP d   1      19.057  27.621  13.031  0.00  0.00    -0.082 A 
ATOM     61  H27 JZP d   1      17.472  26.168  13.099  0.00  0.00     0.083 H 
ATOM     62  C37 JZP d   1      20.249  28.108  13.582  0.00  0.00    -0.076 A 
ATOM     63  H30 JZP d   1      18.635  28.122  12.167  0.00  0.00     0.083 H 
ATOM     64  H29 JZP d   1      20.752  28.973  13.165  0.00  0.00     0.084 H 
ATOM     65  C39 JZP d   1      22.008  27.746  15.461  0.00  0.00    -0.014 C 
ATOM     66  C35 JZP d   1      21.907  26.766  16.641  0.00  0.00     0.063 C 
ATOM     67  H31 JZP d   1      22.909  27.555  14.860  0.00  0.00     0.044 H 
ATOM     68  H32 JZP d   1      22.014  28.790  15.809  0.00  0.00     0.044 H 
ATOM     69  H28 JZP d   1      22.865  26.238  16.757  0.00  0.00     0.087 H 
ATOM     70  H25 JZP d   1      21.226  24.752  16.161  0.00  0.00     0.084 H 
BRANCH  66  71
ATOM     71  O7  JZP d   1      21.627  27.514  17.827  0.00  0.00    -0.393 OA
ATOM     72  H4  JZP d   1      22.318  28.150  17.969  0.00  0.00     0.210 HD
ENDBRANCH  66  71
ENDBRANCH  51  54
ENDBRANCH   5  50
BRANCH   6  73
ATOM     73  C29 JZP d   1      21.049  23.930  20.056  0.00  0.00    -0.058 C 
ATOM     74  H19 JZP d   1      21.337  24.988  19.977  0.00  0.00     0.029 H 
ATOM     75  H20 JZP d   1      21.287  23.414  19.114  0.00  0.00     0.029 H 
ATOM     76  H21 JZP d   1      21.603  23.460  20.882  0.00  0.00     0.029 H 
ENDBRANCH   6  73
BRANCH   6  77
ATOM     77  C30 JZP d   1      19.237  24.523  21.631  0.00  0.00    -0.058 C 
ATOM     78  H22 JZP d   1      19.523  25.583  21.561  0.00  0.00     0.029 H 
ATOM     79  H23 JZP d   1      19.801  24.044  22.445  0.00  0.00     0.029 H 
ATOM     80  H24 JZP d   1      18.159  24.447  21.837  0.00  0.00     0.029 H 
ENDBRANCH   6  77
TORSDOF 14
