REMARK  14 active torsions:
REMARK  status: ('A' for Active; 'I' for Inactive)
REMARK       I    between atoms: C12_13  and  N2_4 
REMARK    1  A    between atoms: N2_4  and  C13_14 
REMARK    2  A    between atoms: O2_5  and  C21_22 
REMARK    3  A    between atoms: C45_43  and  O2_5 
REMARK       I    between atoms: C16_17  and  N3_6 
REMARK       I    between atoms: C20_21  and  N4_8 
REMARK    4  A    between atoms: N4_8  and  C31_31 
REMARK    5  A    between atoms: C14_15  and  O5_10 
REMARK    6  A    between atoms: C35_35  and  O7_11 
REMARK    7  A    between atoms: C21_22  and  C12_13 
REMARK    8  A    between atoms: C13_14  and  C14_15 
REMARK    9  A    between atoms: C13_14  and  C15_16 
REMARK   10  A    between atoms: C14_15  and  C16_17 
REMARK   11  A    between atoms: C15_16  and  C22_23 
REMARK   12  A    between atoms: C17_18  and  C20_21 
REMARK   13  A    between atoms: C18_19  and  C29_29 
REMARK   14  A    between atoms: C18_19  and  C30_30 
ROOT
ATOM      1  S1  JZQ d   1      14.487  22.163  14.023  0.00  0.00    -0.137 SA
ATOM      2  N3  JZQ d   1      14.565  22.952  16.480  0.00  0.00    -0.326 N 
ATOM      3  O3  JZQ d   1      14.321  23.151  18.703  0.00  0.00    -0.270 OA
ATOM      4  C16 JZQ d   1      14.880  23.482  17.668  0.00  0.00     0.252 C 
ATOM      5  C17 JZQ d   1      13.467  21.968  16.366  0.00  0.00     0.108 C 
ATOM      6  C18 JZQ d   1      13.032  21.757  14.909  0.00  0.00     0.032 C 
ATOM      7  C19 JZQ d   1      15.220  23.239  15.198  0.00  0.00     0.040 C 
ATOM      8  H9  JZQ d   1      12.604  22.399  16.895  0.00  0.00     0.090 H 
ATOM      9  H10 JZQ d   1      15.053  24.288  14.911  0.00  0.00     0.081 H 
ATOM     10  H11 JZQ d   1      16.300  23.046  15.270  0.00  0.00     0.081 H 
ENDROOT
BRANCH   4  11
ATOM     11  C14 JZQ d   1      15.940  24.557  17.710  0.00  0.00     0.132 C 
ATOM     12  H6  JZQ d   1      15.990  25.017  16.712  0.00  0.00     0.101 H 
BRANCH  11  13
ATOM     13  O5  JZQ d   1      15.537  25.558  18.649  0.00  0.00    -0.384 OA
ATOM     14  H3  JZQ d   1      14.666  25.867  18.427  0.00  0.00     0.210 HD
ENDBRANCH  11  13
BRANCH  11  15
ATOM     15  C13 JZQ d   1      17.344  24.040  18.045  0.00  0.00     0.049 C 
ATOM     16  H5  JZQ d   1      17.421  23.002  17.690  0.00  0.00     0.077 H 
BRANCH  15  17
ATOM     17  N2  JZQ d   1      18.312  24.854  17.328  0.00  0.00    -0.351 N 
ATOM     18  C12 JZQ d   1      18.888  24.427  16.201  0.00  0.00     0.242 C 
ATOM     19  O8  JZQ d   1      18.539  23.419  15.615  0.00  0.00    -0.271 OA
ATOM     20  H1  JZQ d   1      18.552  25.756  17.687  0.00  0.00     0.163 HD
BRANCH  18  21
ATOM     21  C21 JZQ d   1      20.030  25.241  15.637  0.00  0.00     0.099 C 
ATOM     22  H12 JZQ d   1      20.968  24.686  15.782  0.00  0.00     0.089 H 
ATOM     23  H13 JZQ d   1      19.859  25.397  14.562  0.00  0.00     0.089 H 
BRANCH  21  24
ATOM     24  O2  JZQ d   1      20.143  26.512  16.275  0.00  0.00    -0.336 OA
BRANCH  24  25
ATOM     25  C45 JZQ d   1      21.351  27.165  16.192  0.00  0.00     0.146 A 
ATOM     26  C42 JZQ d   1      21.737  27.792  15.011  0.00  0.00     0.152 A 
ATOM     27  F1  JZQ d   1      20.936  27.784  13.931  0.00  0.00    -0.203 F 
ATOM     28  C41 JZQ d   1      22.965  28.443  14.937  0.00  0.00    -0.043 A 
ATOM     29  C40 JZQ d   1      23.807  28.470  16.046  0.00  0.00    -0.077 A 
ATOM     30  H34 JZQ d   1      23.266  28.929  14.016  0.00  0.00     0.088 H 
ATOM     31  C47 JZQ d   1      23.424  27.836  17.223  0.00  0.00    -0.043 A 
ATOM     32  H33 JZQ d   1      24.760  28.985  15.992  0.00  0.00     0.083 H 
ATOM     33  C46 JZQ d   1      22.197  27.183  17.293  0.00  0.00     0.152 A 
ATOM     34  H35 JZQ d   1      24.081  27.850  18.085  0.00  0.00     0.088 H 
ATOM     35  F2  JZQ d   1      21.831  26.576  18.436  0.00  0.00    -0.203 F 
ENDBRANCH  24  25
ENDBRANCH  21  24
ENDBRANCH  18  21
ENDBRANCH  15  17
BRANCH  15  36
ATOM     36  C15 JZQ d   1      17.656  24.046  19.543  0.00  0.00    -0.019 C 
ATOM     37  H7  JZQ d   1      16.898  23.453  20.075  0.00  0.00     0.043 H 
ATOM     38  H8  JZQ d   1      17.639  25.081  19.915  0.00  0.00     0.043 H 
BRANCH  36  39
ATOM     39  C22 JZQ d   1      19.023  23.448  19.789  0.00  0.00    -0.056 A 
ATOM     40  C23 JZQ d   1      19.196  22.062  19.797  0.00  0.00    -0.077 A 
ATOM     41  C24 JZQ d   1      20.458  21.522  20.027  0.00  0.00    -0.082 A 
ATOM     42  H14 JZQ d   1      18.349  21.408  19.624  0.00  0.00     0.084 H 
ATOM     43  C25 JZQ d   1      21.548  22.365  20.237  0.00  0.00    -0.083 A 
ATOM     44  H15 JZQ d   1      20.593  20.447  20.043  0.00  0.00     0.083 H 
ATOM     45  C26 JZQ d   1      21.380  23.750  20.227  0.00  0.00    -0.082 A 
ATOM     46  H16 JZQ d   1      22.531  21.942  20.409  0.00  0.00     0.083 H 
ATOM     47  C27 JZQ d   1      20.113  24.289  20.007  0.00  0.00    -0.077 A 
ATOM     48  H17 JZQ d   1      22.230  24.403  20.389  0.00  0.00     0.083 H 
ATOM     49  H18 JZQ d   1      19.975  25.364  20.006  0.00  0.00     0.084 H 
ENDBRANCH  36  39
ENDBRANCH  15  36
ENDBRANCH  11  15
ENDBRANCH   4  11
BRANCH   5  50
ATOM     50  C20 JZQ d   1      13.781  20.663  17.047  0.00  0.00     0.242 C 
ATOM     51  N4  JZQ d   1      12.775  20.151  17.761  0.00  0.00    -0.348 N 
ATOM     52  H2  JZQ d   1      12.036  20.757  18.056  0.00  0.00     0.163 HD
ATOM     53  O4  JZQ d   1      14.887  20.143  16.922  0.00  0.00    -0.271 OA
BRANCH  51  54
ATOM     54  C31 JZQ d   1      12.716  18.752  18.123  0.00  0.00     0.063 C 
ATOM     55  C32 JZQ d   1      12.920  18.556  19.570  0.00  0.00    -0.027 A 
ATOM     56  C33 JZQ d   1      13.846  19.203  20.372  0.00  0.00    -0.074 A 
ATOM     57  C36 JZQ d   1      12.061  17.613  20.075  0.00  0.00    -0.047 A 
ATOM     58  C34 JZQ d   1      13.851  18.856  21.720  0.00  0.00    -0.082 A 
ATOM     59  H26 JZQ d   1      14.531  19.941  19.971  0.00  0.00     0.084 H 
ATOM     60  C38 JZQ d   1      12.970  17.901  22.235  0.00  0.00    -0.082 A 
ATOM     61  H27 JZQ d   1      14.556  19.339  22.387  0.00  0.00     0.083 H 
ATOM     62  C37 JZQ d   1      12.050  17.258  21.417  0.00  0.00    -0.076 A 
ATOM     63  H30 JZQ d   1      13.005  17.658  23.291  0.00  0.00     0.083 H 
ATOM     64  H29 JZQ d   1      11.360  16.518  21.806  0.00  0.00     0.084 H 
ATOM     65  C39 JZQ d   1      11.153  17.067  19.016  0.00  0.00    -0.014 C 
ATOM     66  C35 JZQ d   1      11.337  18.113  17.922  0.00  0.00     0.063 C 
ATOM     67  H31 JZQ d   1      11.474  16.069  18.681  0.00  0.00     0.044 H 
ATOM     68  H32 JZQ d   1      10.110  17.020  19.361  0.00  0.00     0.044 H 
ATOM     69  H28 JZQ d   1      11.272  17.653  16.925  0.00  0.00     0.087 H 
ATOM     70  H25 JZQ d   1      13.477  18.210  17.543  0.00  0.00     0.084 H 
BRANCH  66  71
ATOM     71  O7  JZQ d   1      10.305  19.090  18.086  0.00  0.00    -0.393 OA
ATOM     72  H4  JZQ d   1       9.458  18.679  17.959  0.00  0.00     0.210 HD
ENDBRANCH  66  71
ENDBRANCH  51  54
ENDBRANCH   5  50
BRANCH   6  73
ATOM     73  C29 JZQ d   1      11.934  22.757  14.591  0.00  0.00    -0.058 C 
ATOM     74  H19 JZQ d   1      11.025  22.494  15.152  0.00  0.00     0.029 H 
ATOM     75  H20 JZQ d   1      11.719  22.735  13.512  0.00  0.00     0.029 H 
ATOM     76  H21 JZQ d   1      12.263  23.767  14.879  0.00  0.00     0.029 H 
ENDBRANCH   6  73
BRANCH   6  77
ATOM     77  C30 JZQ d   1      12.554  20.349  14.555  0.00  0.00    -0.058 C 
ATOM     78  H22 JZQ d   1      11.641  20.118  15.123  0.00  0.00     0.029 H 
ATOM     79  H23 JZQ d   1      13.338  19.621  14.809  0.00  0.00     0.029 H 
ATOM     80  H24 JZQ d   1      12.339  20.295  13.478  0.00  0.00     0.029 H 
ENDBRANCH   6  77
TORSDOF 14
