REMARK  3 active torsions:
REMARK  status: ('A' for Active; 'I' for Inactive)
REMARK    1  A    between atoms: C10_11  and  C19_21 
REMARK    2  A    between atoms: C13_14  and  C18_20 
REMARK    3  A    between atoms: C17_18  and  O17_19 
ROOT
ATOM      1  C1  TES d   1      -2.319  -0.756  20.867  0.00  0.00    -0.048 C 
ATOM      2  C2  TES d   1      -3.509  -1.558  20.343  0.00  0.00    -0.005 C 
ATOM      3  C3  TES d   1      -4.015  -1.044  19.015  0.00  0.00     0.149 C 
ATOM      4  O3  TES d   1      -5.177  -1.247  18.676  0.00  0.00    -0.293 OA
ATOM      5  C4  TES d   1      -3.082  -0.300  18.130  0.00  0.00    -0.036 C 
ATOM      6  C5  TES d   1      -1.846   0.041  18.504  0.00  0.00    -0.068 C 
ATOM      7  C6  TES d   1      -1.022   0.826  17.512  0.00  0.00    -0.043 C 
ATOM      8  C7  TES d   1      -0.051   1.822  18.137  0.00  0.00    -0.058 C 
ATOM      9  C8  TES d   1       0.621   1.301  19.400  0.00  0.00    -0.045 C 
ATOM     10  C9  TES d   1      -0.433   0.795  20.383  0.00  0.00    -0.040 C 
ATOM     11  C10 TES d   1      -1.262  -0.377  19.830  0.00  0.00    -0.016 C 
ATOM     12  C11 TES d   1       0.121   0.526  21.799  0.00  0.00    -0.060 C 
ATOM     13  C12 TES d   1       0.872   1.745  22.382  0.00  0.00    -0.055 C 
ATOM     14  C13 TES d   1       1.991   2.108  21.422  0.00  0.00    -0.014 C 
ATOM     15  C14 TES d   1       1.423   2.425  20.059  0.00  0.00    -0.041 C 
ATOM     16  C15 TES d   1       2.625   2.964  19.296  0.00  0.00    -0.058 C 
ATOM     17  C16 TES d   1       3.479   3.642  20.373  0.00  0.00    -0.040 C 
ATOM     18  C17 TES d   1       2.726   3.424  21.690  0.00  0.00     0.043 C 
ATOM     19  H1  TES d   1      -1.826  -1.355  21.647  0.00  0.00     0.035 H 
ATOM     20  H2  TES d   1      -2.707   0.174  21.308  0.00  0.00     0.035 H 
ATOM     21  H3  TES d   1      -4.325  -1.499  21.078  0.00  0.00     0.044 H 
ATOM     22  H4  TES d   1      -3.201  -2.607  20.221  0.00  0.00     0.044 H 
ATOM     23  H5  TES d   1      -3.421  -0.021  17.133  0.00  0.00     0.089 H 
ATOM     24  H6  TES d   1      -1.710   1.382  16.859  0.00  0.00     0.039 H 
ATOM     25  H7  TES d   1      -0.441   0.113  16.909  0.00  0.00     0.039 H 
ATOM     26  H8  TES d   1      -0.606   2.738  18.390  0.00  0.00     0.034 H 
ATOM     27  H9  TES d   1       0.730   2.058  17.399  0.00  0.00     0.034 H 
ATOM     28  H10 TES d   1       1.298   0.476  19.136  0.00  0.00     0.041 H 
ATOM     29  H11 TES d   1      -1.143   1.626  20.501  0.00  0.00     0.042 H 
ATOM     30  H12 TES d   1       0.815  -0.326  21.750  0.00  0.00     0.033 H 
ATOM     31  H13 TES d   1      -0.718   0.277  22.465  0.00  0.00     0.033 H 
ATOM     32  H14 TES d   1       1.292   1.489  23.366  0.00  0.00     0.034 H 
ATOM     33  H15 TES d   1       0.181   2.594  22.488  0.00  0.00     0.034 H 
ATOM     34  H16 TES d   1       0.710   3.254  20.177  0.00  0.00     0.042 H 
ATOM     35  H17 TES d   1       2.309   3.691  18.533  0.00  0.00     0.033 H 
ATOM     36  H18 TES d   1       3.181   2.146  18.815  0.00  0.00     0.033 H 
ATOM     37  H19 TES d   1       3.582   4.717  20.162  0.00  0.00     0.036 H 
ATOM     38  H20 TES d   1       4.476   3.181  20.420  0.00  0.00     0.036 H 
ATOM     39  H21 TES d   1       1.996   4.233  21.841  0.00  0.00     0.084 H 
ENDROOT
BRANCH  11  40
ATOM     40  C19 TES d   1      -0.381  -1.600  19.589  0.00  0.00    -0.065 C 
ATOM     41  H26 TES d   1      -0.996  -2.423  19.195  0.00  0.00     0.028 H 
ATOM     42  H27 TES d   1       0.083  -1.911  20.537  0.00  0.00     0.028 H 
ATOM     43  H28 TES d   1       0.405  -1.348  18.862  0.00  0.00     0.028 H 
ENDBRANCH  11  40
BRANCH  14  44
ATOM     44  C18 TES d   1       3.019   0.966  21.355  0.00  0.00    -0.066 C 
ATOM     45  H23 TES d   1       2.499   0.016  21.163  0.00  0.00     0.028 H 
ATOM     46  H24 TES d   1       3.558   0.902  22.311  0.00  0.00     0.028 H 
ATOM     47  H25 TES d   1       3.734   1.164  20.543  0.00  0.00     0.028 H 
ENDBRANCH  14  44
BRANCH  18  48
ATOM     48  O17 TES d   1       3.584   3.396  22.845  0.00  0.00    -0.395 OA
ATOM     49  H22 TES d   1       3.059   3.258  23.625  0.00  0.00     0.210 HD
ENDBRANCH  18  48
TORSDOF 3
