REMARK  8 active torsions:
REMARK  status: ('A' for Active; 'I' for Inactive)
REMARK    1  A    between atoms: C1_1  and  C7_7 
REMARK    2  A    between atoms: C4_4  and  C30_30 
REMARK    3  A    between atoms: C7_7  and  N8_8 
REMARK    4  A    between atoms: C10_10  and  C13_13 
REMARK    5  A    between atoms: C15_15  and  C19_19 
REMARK    6  A    between atoms: C17_17  and  C20_20 
REMARK       I    between atoms: C20_20  and  N22_22 
REMARK    7  A    between atoms: N22_22  and  C23_23 
REMARK    8  A    between atoms: C23_23  and  C24_24 
ROOT
ATOM      1  C13 3EK d   1      44.561  21.685  19.291  0.00  0.00     0.018 A 
ATOM      2  C14 3EK d   1      43.265  21.883  18.857  0.00  0.00    -0.046 A 
ATOM      3  C15 3EK d   1      42.779  23.171  18.780  0.00  0.00     0.032 A 
ATOM      4  N16 3EK d   1      43.485  24.257  19.107  0.00  0.00    -0.248 NA
ATOM      5  C17 3EK d   1      44.735  24.029  19.541  0.00  0.00     0.125 A 
ATOM      6  C18 3EK d   1      45.321  22.781  19.643  0.00  0.00    -0.036 A 
ATOM      7  H14 3EK d   1      42.641  21.041  18.582  0.00  0.00     0.088 H 
ATOM      8  H15 3EK d   1      46.343  22.668  19.988  0.00  0.00     0.088 H 
ENDROOT
BRANCH   1   9
ATOM      9  C10 3EK d   1      45.108  20.352  19.311  0.00  0.00     0.180 A 
ATOM     10  N9  3EK d   1      44.584  19.357  18.592  0.00  0.00    -0.150 NA
ATOM     11  N8  3EK d   1      45.430  18.358  18.892  0.00  0.00    -0.261 N 
ATOM     12  C12 3EK d   1      46.422  18.752  19.736  0.00  0.00     0.085 A 
ATOM     13  N11 3EK d   1      46.231  20.011  20.019  0.00  0.00    -0.221 NA
ATOM     14  H13 3EK d   1      47.232  18.127  20.109  0.00  0.00     0.146 H 
BRANCH  11  15
ATOM     15  C7  3EK d   1      45.301  17.031  18.323  0.00  0.00     0.021 C 
ATOM     16  H11 3EK d   1      45.910  16.333  18.916  0.00  0.00     0.068 H 
ATOM     17  H12 3EK d   1      44.245  16.729  18.371  0.00  0.00     0.068 H 
BRANCH  15  18
ATOM     18  C1  3EK d   1      45.761  16.967  16.873  0.00  0.00    -0.037 C 
ATOM     19  C2  3EK d   1      46.189  15.553  16.529  0.00  0.00    -0.059 C 
ATOM     20  C3  3EK d   1      46.583  15.436  15.066  0.00  0.00    -0.052 C 
ATOM     21  H2  3EK d   1      45.354  14.867  16.731  0.00  0.00     0.033 H 
ATOM     22  H3  3EK d   1      47.050  15.277  17.155  0.00  0.00     0.033 H 
ATOM     23  C4  3EK d   1      47.756  16.367  14.859  0.00  0.00     0.030 C 
ATOM     24  H4  3EK d   1      45.743  15.735  14.422  0.00  0.00     0.034 H 
ATOM     25  H5  3EK d   1      46.874  14.401  14.833  0.00  0.00     0.034 H 
ATOM     26  C5  3EK d   1      47.379  17.815  15.084  0.00  0.00    -0.052 C 
ATOM     27  H6  3EK d   1      48.587  16.081  15.520  0.00  0.00     0.056 H 
ATOM     28  C6  3EK d   1      46.810  18.006  16.488  0.00  0.00    -0.059 C 
ATOM     29  H7  3EK d   1      46.622  18.112  14.343  0.00  0.00     0.034 H 
ATOM     30  H8  3EK d   1      48.273  18.445  14.967  0.00  0.00     0.034 H 
ATOM     31  H9  3EK d   1      47.639  17.946  17.209  0.00  0.00     0.033 H 
ATOM     32  H10 3EK d   1      46.348  19.003  16.542  0.00  0.00     0.033 H 
ATOM     33  H1  3EK d   1      44.877  17.190  16.258  0.00  0.00     0.042 H 
BRANCH  23  34
ATOM     34  C30 3EK d   1      48.155  16.268  13.390  0.00  0.00     0.177 C 
ATOM     35  O31 3EK d   1      49.393  16.103  13.245  0.00  0.00    -0.648 OA
ATOM     36  O33 3EK d   1      47.258  16.348  12.504  0.00  0.00    -0.648 OA
ENDBRANCH  23  34
ENDBRANCH  15  18
ENDBRANCH  11  15
ENDBRANCH   1   9
BRANCH   3  37
ATOM     37  C19 3EK d   1      41.384  23.390  18.311  0.00  0.00    -0.035 C 
ATOM     38  H16 3EK d   1      41.162  24.467  18.311  0.00  0.00     0.035 H 
ATOM     39  H17 3EK d   1      40.685  22.872  18.984  0.00  0.00     0.035 H 
ATOM     40  H18 3EK d   1      41.273  22.993  17.291  0.00  0.00     0.035 H 
ENDBRANCH   3  37
BRANCH   5  41
ATOM     41  C20 3EK d   1      45.526  25.227  19.895  0.00  0.00     0.270 C 
ATOM     42  O21 3EK d   1      46.671  25.131  20.316  0.00  0.00    -0.266 OA
ATOM     43  N22 3EK d   1      44.865  26.408  19.671  0.00  0.00    -0.351 N 
ATOM     44  H19 3EK d   1      43.897  26.374  19.424  0.00  0.00     0.163 HD
BRANCH  43  45
ATOM     45  C23 3EK d   1      45.508  27.702  19.777  0.00  0.00     0.019 C 
ATOM     46  H20 3EK d   1      45.944  27.778  20.784  0.00  0.00     0.071 H 
ATOM     47  H21 3EK d   1      44.732  28.472  19.654  0.00  0.00     0.071 H 
BRANCH  45  48
ATOM     48  C24 3EK d   1      46.595  27.988  18.787  0.00  0.00    -0.040 A 
ATOM     49  C25 3EK d   1      47.333  29.144  18.948  0.00  0.00    -0.072 A 
ATOM     50  C26 3EK d   1      48.345  29.449  18.063  0.00  0.00    -0.045 A 
ATOM     51  H22 3EK d   1      47.116  29.813  19.773  0.00  0.00     0.084 H 
ATOM     52  C27 3EK d   1      48.611  28.602  17.012  0.00  0.00     0.116 A 
ATOM     53  H23 3EK d   1      48.929  30.353  18.195  0.00  0.00     0.088 H 
ATOM     54  C28 3EK d   1      47.880  27.448  16.830  0.00  0.00    -0.045 A 
ATOM     55  F32 3EK d   1      49.597  28.921  16.156  0.00  0.00    -0.206 F 
ATOM     56  C29 3EK d   1      46.871  27.147  17.725  0.00  0.00    -0.072 A 
ATOM     57  H24 3EK d   1      48.093  26.787  15.998  0.00  0.00     0.088 H 
ATOM     58  H25 3EK d   1      46.290  26.242  17.593  0.00  0.00     0.084 H 
ENDBRANCH  45  48
ENDBRANCH  43  45
ENDBRANCH   5  41
TORSDOF 8
