REMARK  6 active torsions:
REMARK  status: ('A' for Active; 'I' for Inactive)
REMARK    1  A    between atoms: C1_1  and  C2_4 
REMARK    2  A    between atoms: C2_4  and  C3_5 
REMARK    3  A    between atoms: C3_5  and  O7_6 
REMARK    4  A    between atoms: C3_5  and  C4_7 
REMARK    5  A    between atoms: C3_5  and  C6_11 
REMARK    6  A    between atoms: C4_7  and  C5_8 
ROOT
ATOM      1  C3  CIT d   1       6.302   0.190   6.069  0.00  0.00     0.164 C 
ENDROOT
BRANCH   1   2
ATOM      2  C2  CIT d   1       4.903  -0.410   6.188  0.00  0.00     0.054 C 
ATOM      3  H1  CIT d   1       4.738  -1.133   5.375  0.00  0.00     0.054 H 
ATOM      4  H2  CIT d   1       4.798  -0.918   7.158  0.00  0.00     0.054 H 
BRANCH   2   5
ATOM      5  C1  CIT d   1       3.895   0.711   6.087  0.00  0.00     0.176 C 
ATOM      6  O1  CIT d   1       3.113   0.969   7.015  0.00  0.00    -0.648 OA
ATOM      7  O2  CIT d   1       3.816   1.419   5.075  0.00  0.00    -0.648 OA
ENDBRANCH   2   5
ENDBRANCH   1   2
BRANCH   1   8
ATOM      8  O7  CIT d   1       6.378   1.348   6.952  0.00  0.00    -0.378 OA
ATOM      9  H3  CIT d   1       6.215   1.074   7.847  0.00  0.00     0.211 HD
ENDBRANCH   1   8
BRANCH   1  10
ATOM     10  C4  CIT d   1       7.359  -0.833   6.480  0.00  0.00     0.054 C 
ATOM     11  H4  CIT d   1       7.278  -1.716   5.829  0.00  0.00     0.054 H 
ATOM     12  H5  CIT d   1       7.186  -1.130   7.525  0.00  0.00     0.054 H 
BRANCH  10  13
ATOM     13  C5  CIT d   1       8.748  -0.250   6.354  0.00  0.00     0.176 C 
ATOM     14  O3  CIT d   1       9.262  -0.098   5.224  0.00  0.00    -0.648 OA
ATOM     15  O4  CIT d   1       9.397   0.082   7.375  0.00  0.00    -0.648 OA
ENDBRANCH  10  13
ENDBRANCH   1  10
BRANCH   1  16
ATOM     16  C6  CIT d   1       6.513   0.615   4.618  0.00  0.00     0.210 C 
ATOM     17  O5  CIT d   1       6.195  -0.148   3.676  0.00  0.00    -0.646 OA
ATOM     18  O6  CIT d   1       6.999   1.740   4.362  0.00  0.00    -0.646 OA
ENDBRANCH   1  16
TORSDOF 6
