REMARK  3 active torsions:
REMARK  status: ('A' for Active; 'I' for Inactive)
REMARK    1  A    between atoms: C2_2  and  O2_3 
REMARK    2  A    between atoms: C4_5  and  O4_6 
REMARK    3  A    between atoms: C14_17  and  O14_18 
ROOT
ATOM      1  C1  GEN d   1      22.424  43.091  34.766  0.00  0.00    -0.017 A 
ATOM      2  C2  GEN d   1      21.547  42.482  33.905  0.00  0.00     0.071 A 
ATOM      3  C3  GEN d   1      20.468  41.739  34.369  0.00  0.00    -0.018 A 
ATOM      4  C4  GEN d   1      20.277  41.605  35.737  0.00  0.00     0.085 A 
ATOM      5  C5  GEN d   1      21.163  42.217  36.621  0.00  0.00     0.082 A 
ATOM      6  C6  GEN d   1      20.992  42.092  37.994  0.00  0.00     0.200 A 
ATOM      7  O6  GEN d   1      20.055  41.450  38.462  0.00  0.00    -0.286 OA
ATOM      8  C7  GEN d   1      21.905  42.697  38.837  0.00  0.00     0.048 A 
ATOM      9  C8  GEN d   1      22.949  43.420  38.290  0.00  0.00     0.034 A 
ATOM     10  O9  GEN d   1      23.128  43.571  36.949  0.00  0.00    -0.321 OA
ATOM     11  C10 GEN d   1      22.235  42.956  36.130  0.00  0.00     0.094 A 
ATOM     12  C11 GEN d   1      21.798  42.613  40.220  0.00  0.00    -0.020 A 
ATOM     13  C12 GEN d   1      21.807  41.382  40.863  0.00  0.00    -0.069 A 
ATOM     14  C13 GEN d   1      21.705  41.330  42.247  0.00  0.00    -0.050 A 
ATOM     15  C14 GEN d   1      21.604  42.493  42.998  0.00  0.00     0.065 A 
ATOM     16  C15 GEN d   1      21.602  43.718  42.348  0.00  0.00    -0.050 A 
ATOM     17  C16 GEN d   1      21.699  43.781  40.966  0.00  0.00    -0.069 A 
ATOM     18  H1  GEN d   1      23.255  43.671  34.382  0.00  0.00     0.092 H 
ATOM     19  H3  GEN d   1      19.784  41.270  33.671  0.00  0.00     0.092 H 
ATOM     20  H5  GEN d   1      23.662  43.891  38.964  0.00  0.00     0.125 H 
ATOM     21  H6  GEN d   1      21.893  40.467  40.288  0.00  0.00     0.085 H 
ATOM     22  H7  GEN d   1      21.704  40.368  42.748  0.00  0.00     0.087 H 
ATOM     23  H9  GEN d   1      21.524  44.633  42.924  0.00  0.00     0.087 H 
ATOM     24  H10 GEN d   1      21.698  44.743  40.467  0.00  0.00     0.085 H 
ENDROOT
BRANCH   4  25
ATOM     25  O4  GEN d   1      19.225  40.872  36.197  0.00  0.00    -0.360 OA
ATOM     26  H4  GEN d   1      19.230  40.875  37.147  0.00  0.00     0.217 HD
ENDBRANCH   4  25
BRANCH  15  27
ATOM     27  O14 GEN d   1      21.506  42.434  44.355  0.00  0.00    -0.361 OA
ATOM     28  H8  GEN d   1      21.446  43.315  44.706  0.00  0.00     0.217 HD
ENDBRANCH  15  27
BRANCH   2  29
ATOM     29  O2  GEN d   1      21.717  42.607  32.555  0.00  0.00    -0.361 OA
ATOM     30  H2  GEN d   1      21.030  42.129  32.105  0.00  0.00     0.217 HD
ENDBRANCH   2  29
TORSDOF 3
