REMARK  3 active torsions:
REMARK  status: ('A' for Active; 'I' for Inactive)
REMARK    1  A    between atoms: C2_2  and  O2_3 
REMARK    2  A    between atoms: C4_5  and  O4_6 
REMARK    3  A    between atoms: C14_17  and  O14_18 
ROOT
ATOM      1  C1  GEN d   1      -0.892   0.498  -2.546  0.00  0.00    -0.017 A 
ATOM      2  C2  GEN d   1       0.028  -0.075  -1.678  0.00  0.00     0.071 A 
ATOM      3  C3  GEN d   1       1.122  -0.765  -2.184  0.00  0.00    -0.018 A 
ATOM      4  C4  GEN d   1       1.300  -0.873  -3.558  0.00  0.00     0.085 A 
ATOM      5  C5  GEN d   1       0.376  -0.297  -4.424  0.00  0.00     0.082 A 
ATOM      6  C6  GEN d   1       0.549  -0.402  -5.794  0.00  0.00     0.200 A 
ATOM      7  O6  GEN d   1       1.517  -0.997  -6.265  0.00  0.00    -0.286 OA
ATOM      8  C7  GEN d   1      -0.377   0.190  -6.630  0.00  0.00     0.048 A 
ATOM      9  C8  GEN d   1      -1.462   0.858  -6.081  0.00  0.00     0.034 A 
ATOM     10  O9  GEN d   1      -1.654   0.973  -4.733  0.00  0.00    -0.321 OA
ATOM     11  C10 GEN d   1      -0.723   0.392  -3.920  0.00  0.00     0.094 A 
ATOM     12  C11 GEN d   1      -0.228   0.109  -8.010  0.00  0.00    -0.020 A 
ATOM     13  C12 GEN d   1      -0.109   1.269  -8.767  0.00  0.00    -0.069 A 
ATOM     14  C13 GEN d   1       0.038   1.187 -10.145  0.00  0.00    -0.050 A 
ATOM     15  C14 GEN d   1       0.071  -0.056 -10.768  0.00  0.00     0.065 A 
ATOM     16  C15 GEN d   1      -0.045  -1.216 -10.010  0.00  0.00    -0.050 A 
ATOM     17  C16 GEN d   1      -0.197  -1.133  -8.632  0.00  0.00    -0.069 A 
ATOM     18  H1  GEN d   1      -1.748   1.032  -2.148  0.00  0.00     0.092 H 
ATOM     19  H3  GEN d   1       1.837  -1.219  -1.507  0.00  0.00     0.092 H 
ATOM     20  H5  GEN d   1      -2.191   1.310  -6.752  0.00  0.00     0.125 H 
ATOM     21  H6  GEN d   1      -0.131   2.238  -8.281  0.00  0.00     0.085 H 
ATOM     22  H7  GEN d   1       0.127   2.092 -10.735  0.00  0.00     0.087 H 
ATOM     23  H9  GEN d   1      -0.017  -2.185 -10.495  0.00  0.00     0.087 H 
ATOM     24  H10 GEN d   1      -0.291  -2.037  -8.042  0.00  0.00     0.085 H 
ENDROOT
BRANCH   4  25
ATOM     25  O4  GEN d   1       2.377  -1.549  -4.048  0.00  0.00    -0.360 OA
ATOM     26  H4  GEN d   1       2.355  -1.532  -4.998  0.00  0.00     0.217 HD
ENDBRANCH   4  25
BRANCH  15  27
ATOM     27  O14 GEN d   1       0.218  -0.140 -12.122  0.00  0.00    -0.361 OA
ATOM     28  H8  GEN d   1       0.221  -1.053 -12.383  0.00  0.00     0.217 HD
ENDBRANCH  15  27
BRANCH   2  29
ATOM     29  O2  GEN d   1      -0.152   0.034  -0.334  0.00  0.00    -0.361 OA
ATOM     30  H2  GEN d   1      -0.160   0.952  -0.090  0.00  0.00     0.217 HD
ENDBRANCH   2  29
TORSDOF 3
