REMARK  6 active torsions:
REMARK  status: ('A' for Active; 'I' for Inactive)
REMARK    1  A    between atoms: C1_1  and  C2_4 
REMARK    2  A    between atoms: C2_4  and  C3_5 
REMARK    3  A    between atoms: C3_5  and  C4_6 
REMARK    4  A    between atoms: C4_6  and  C5_7 
REMARK    5  A    between atoms: C5_7  and  C6_8 
REMARK    6  A    between atoms: C6_8  and  N6_9 
ROOT
ATOM      1  C4  ACA d   1      10.072  15.150   5.241  0.00  0.00    -0.063 C 
ATOM      2  H5  ACA d   1       9.220  15.746   5.599  0.00  0.00     0.033 H 
ATOM      3  H6  ACA d   1      10.772  15.801   4.697  0.00  0.00     0.033 H 
ENDROOT
BRANCH   1   4
ATOM      4  C3  ACA d   1       9.542  14.069   4.264  0.00  0.00    -0.056 C 
ATOM      5  H3  ACA d   1       8.789  14.515   3.598  0.00  0.00     0.033 H 
ATOM      6  H4  ACA d   1      10.376  13.677   3.664  0.00  0.00     0.033 H 
BRANCH   4   7
ATOM      7  C2  ACA d   1       8.892  12.902   5.080  0.00  0.00     0.016 C 
ATOM      8  H1  ACA d   1       9.664  12.346   5.632  0.00  0.00     0.049 H 
ATOM      9  H2  ACA d   1       8.149  13.299   5.788  0.00  0.00     0.049 H 
BRANCH   7  10
ATOM     10  C1  ACA d   1       8.205  11.981   4.040  0.00  0.00     0.172 C 
ATOM     11  O2  ACA d   1       8.233  10.745   4.247  0.00  0.00    -0.648 OA
ATOM     12  O1  ACA d   1       7.765  12.613   3.021  0.00  0.00    -0.648 OA
ENDBRANCH   7  10
ENDBRANCH   4   7
ENDBRANCH   1   4
BRANCH   1  13
ATOM     13  C5  ACA d   1      10.785  14.570   6.432  0.00  0.00    -0.043 C 
ATOM     14  H7  ACA d   1      11.796  14.318   6.081  0.00  0.00     0.035 H 
ATOM     15  H8  ACA d   1      10.243  13.646   6.683  0.00  0.00     0.035 H 
BRANCH  13  16
ATOM     16  C6  ACA d   1      10.969  15.276   7.694  0.00  0.00     0.080 C 
ATOM     17  H9  ACA d   1      10.005  15.248   8.224  0.00  0.00     0.075 H 
ATOM     18  H10 ACA d   1      11.222  16.318   7.448  0.00  0.00     0.075 H 
BRANCH  16  19
ATOM     19  N6  ACA d   1      12.019  14.780   8.656  0.00  0.00    -0.079 N 
ATOM     20  H11 ACA d   1      12.027  15.366   9.476  0.00  0.00     0.274 HD
ATOM     21  H12 ACA d   1      12.923  14.812   8.212  0.00  0.00     0.274 HD
ATOM     22  H13 ACA d   1      11.809  13.831   8.923  0.00  0.00     0.274 HD
ENDBRANCH  16  19
ENDBRANCH  13  16
ENDBRANCH   1  13
TORSDOF 6
