REMARK  3 active torsions:
REMARK  status: ('A' for Active; 'I' for Inactive)
REMARK    1  A    between atoms: C5_2  and  C10_5 
REMARK    2  A    between atoms: C8_4  and  C13_6 
REMARK       I    between atoms: C10_5  and  N11_14 
REMARK    3  A    between atoms: C13_6  and  C18_18 
ROOT
ATOM      1  C4  78P d   1      -4.530  34.259  39.610  0.00  0.00     0.078 A 
ATOM      2  C5  78P d   1      -4.628  33.822  40.928  0.00  0.00     0.060 A 
ATOM      3  C6  78P d   1      -5.853  33.354  41.412  0.00  0.00    -0.065 A 
ATOM      4  C8  78P d   1      -4.036  34.980  37.659  0.00  0.00     0.141 A 
ATOM      5  C1  78P d   1      -6.992  33.335  40.608  0.00  0.00    -0.080 A 
ATOM      6  C2  78P d   1      -6.877  33.776  39.311  0.00  0.00    -0.053 A 
ATOM      7  C3  78P d   1      -5.662  34.222  38.808  0.00  0.00     0.086 A 
ATOM      8  N7  78P d   1      -5.307  34.657  37.602  0.00  0.00    -0.231 NA
ATOM      9  N9  78P d   1      -3.528  34.775  38.855  0.00  0.00    -0.340 N 
ATOM     10  H1  78P d   1      -5.919  32.998  42.434  0.00  0.00     0.085 H 
ATOM     11  H6  78P d   1      -7.941  32.983  40.995  0.00  0.00     0.083 H 
ATOM     12  H7  78P d   1      -7.751  33.776  38.669  0.00  0.00     0.087 H 
ATOM     13  H8  78P d   1      -2.562  34.968  39.158  0.00  0.00     0.167 HD
ENDROOT
BRANCH   4  14
ATOM     14  C13 78P d   1      -3.278  35.602  36.493  0.00  0.00     0.181 C 
ATOM     15  C17 78P d   1      -3.866  36.973  36.238  0.00  0.00    -0.026 C 
ATOM     16  C16 78P d   1      -3.121  37.894  37.179  0.00  0.00    -0.040 C 
ATOM     17  H4  78P d   1      -4.943  36.980  36.461  0.00  0.00     0.037 H 
ATOM     18  H5  78P d   1      -3.706  37.275  35.193  0.00  0.00     0.037 H 
ATOM     19  C15 78P d   1      -1.802  37.172  37.501  0.00  0.00     0.083 C 
ATOM     20  H13 78P d   1      -2.922  38.861  36.693  0.00  0.00     0.035 H 
ATOM     21  H14 78P d   1      -3.704  38.058  38.097  0.00  0.00     0.035 H 
ATOM     22  N14 78P d   1      -1.866  35.835  36.874  0.00  0.00    -0.059 N 
ATOM     23  H2  78P d   1      -0.953  37.739  37.092  0.00  0.00     0.075 H 
ATOM     24  H3  78P d   1      -1.685  37.071  38.590  0.00  0.00     0.075 H 
ATOM     25  H11 78P d   1      -1.278  35.808  36.056  0.00  0.00     0.278 HD
ATOM     26  H12 78P d   1      -1.563  35.131  37.529  0.00  0.00     0.278 HD
BRANCH  14  27
ATOM     27  C18 78P d   1      -3.437  34.797  35.211  0.00  0.00    -0.038 C 
ATOM     28  H15 78P d   1      -4.507  34.664  34.992  0.00  0.00     0.031 H 
ATOM     29  H16 78P d   1      -2.963  33.812  35.335  0.00  0.00     0.031 H 
ATOM     30  H17 78P d   1      -2.956  35.333  34.379  0.00  0.00     0.031 H 
ENDBRANCH  14  27
ENDBRANCH   4  14
BRANCH   2  31
ATOM     31  C10 78P d   1      -3.422  33.805  41.873  0.00  0.00     0.251 C 
ATOM     32  N11 78P d   1      -2.278  34.235  41.379  0.00  0.00    -0.366 N 
ATOM     33  H9  78P d   1      -1.458  34.246  41.952  0.00  0.00     0.159 HD
ATOM     34  H10 78P d   1      -2.230  34.550  40.431  0.00  0.00     0.159 HD
ATOM     35  O12 78P d   1      -3.500  33.315  42.996  0.00  0.00    -0.268 OA
ENDBRANCH   2  31
TORSDOF 3
