REMARK  9 active torsions:
REMARK  status: ('A' for Active; 'I' for Inactive)
REMARK    1  A    between atoms: C1_1  and  O1_3 
REMARK    2  A    between atoms: C12_17  and  N1_2 
REMARK    3  A    between atoms: O1_3  and  C7_12 
REMARK    4  A    between atoms: C11_16  and  S1_4 
REMARK    5  A    between atoms: S1_4  and  C12_17 
REMARK    6  A    between atoms: C4_9  and  C11_16 
REMARK    7  A    between atoms: C7_12  and  C8_13 
REMARK    8  A    between atoms: C8_13  and  C9_14 
REMARK    9  A    between atoms: C9_14  and  C10_15 
ROOT
ATOM      1  C1  G00 d   1      24.487  11.281  20.233  0.00  0.00     0.090 A 
ATOM      2 CL1  G00 d   1      23.183  13.488  19.338  0.00  0.00    -0.081 Cl
ATOM      3  C2  G00 d   1      24.561  10.030  20.929  0.00  0.00    -0.049 A 
ATOM      4  C3  G00 d   1      23.407   9.488  21.566  0.00  0.00    -0.073 A 
ATOM      5  C4  G00 d   1      22.165  10.184  21.511  0.00  0.00    -0.047 A 
ATOM      6  C5  G00 d   1      22.084  11.430  20.822  0.00  0.00    -0.052 A 
ATOM      7  C6  G00 d   1      23.240  11.968  20.188  0.00  0.00     0.068 A 
ATOM      8  H3  G00 d   1      25.501   9.492  20.971  0.00  0.00     0.087 H 
ATOM      9  H6  G00 d   1      23.474   8.544  22.094  0.00  0.00     0.084 H 
ATOM     10  H7  G00 d   1      21.143  11.967  20.781  0.00  0.00     0.087 H 
ENDROOT
BRANCH   1  11
ATOM     11  O1  G00 d   1      25.605  11.853  19.608  0.00  0.00    -0.349 OA
BRANCH  11  12
ATOM     12  C7  G00 d   1      26.714  10.965  19.443  0.00  0.00     0.026 C 
ATOM     13  H8  G00 d   1      27.040  10.976  18.392  0.00  0.00     0.075 H 
ATOM     14  H9  G00 d   1      26.412   9.945  19.722  0.00  0.00     0.075 H 
BRANCH  12  15
ATOM     15  C8  G00 d   1      27.865  11.418  20.338  0.00  0.00    -0.045 C 
ATOM     16  H10 G00 d   1      27.454  11.944  21.212  0.00  0.00     0.036 H 
ATOM     17  H11 G00 d   1      28.514  12.101  19.770  0.00  0.00     0.036 H 
BRANCH  15  18
ATOM     18  C9  G00 d   1      28.688  10.235  20.814  0.00  0.00    -0.067 C 
ATOM     19  H12 G00 d   1      29.372   9.933  20.007  0.00  0.00     0.032 H 
ATOM     20  H13 G00 d   1      28.008   9.403  21.048  0.00  0.00     0.032 H 
BRANCH  18  21
ATOM     21  C10 G00 d   1      29.514  10.560  22.062  0.00  0.00    -0.076 C 
ATOM     22  H14 G00 d   1      30.089   9.672  22.363  0.00  0.00     0.027 H 
ATOM     23  H15 G00 d   1      28.841  10.856  22.880  0.00  0.00     0.027 H 
ATOM     24  H16 G00 d   1      30.206  11.386  21.839  0.00  0.00     0.027 H 
ENDBRANCH  18  21
ENDBRANCH  15  18
ENDBRANCH  12  15
ENDBRANCH  11  12
ENDBRANCH   1  11
BRANCH   5  25
ATOM     25  C11 G00 d   1      20.936   9.588  22.170  0.00  0.00     0.008 C 
ATOM     26  H17 G00 d   1      20.108   9.589  21.446  0.00  0.00     0.056 H 
ATOM     27  H18 G00 d   1      21.159   8.554  22.470  0.00  0.00     0.056 H 
BRANCH  25  28
ATOM     28  S1  G00 d   1      20.430  10.539  23.651  0.00  0.00    -0.090 SA
BRANCH  28  29
ATOM     29  C12 G00 d   1      21.676   9.983  24.775  0.00  0.00     0.131 C 
ATOM     30  N2  G00 d   1      21.801  10.863  25.786  0.00  0.00    -0.380 N 
ATOM     31  H4  G00 d   1      21.211  11.707  25.810  0.00  0.00     0.158 HD
ATOM     32  H5  G00 d   1      22.487  10.692  26.535  0.00  0.00     0.158 HD
BRANCH  29  33
ATOM     33  N1  G00 d   1      22.453   8.807  24.681  0.00  0.00    -0.380 N 
ATOM     34  H1  G00 d   1      23.153   8.593  25.406  0.00  0.00     0.158 HD
ATOM     35  H2  G00 d   1      22.320   8.164  23.887  0.00  0.00     0.158 HD
ENDBRANCH  29  33
ENDBRANCH  28  29
ENDBRANCH  25  28
ENDBRANCH   5  25
TORSDOF 9
