REMARK  4 active torsions:
REMARK  status: ('A' for Active; 'I' for Inactive)
REMARK    1  A    between atoms: C2_4  and  N2_5 
REMARK    2  A    between atoms: C6_9  and  C3_6 
REMARK    3  A    between atoms: C7_10  and  C6_9 
REMARK    4  A    between atoms: C8_11  and  C7_10 
ROOT
ATOM      1  C6  D8Y d   1      21.058  10.243  22.087  0.00  0.00    -0.034 C 
ATOM      2  H6  D8Y d   1      20.285  10.779  21.516  0.00  0.00     0.040 H 
ATOM      3  H7  D8Y d   1      20.724   9.213  22.279  0.00  0.00     0.040 H 
ENDROOT
BRANCH   1   4
ATOM      4  C3  D8Y d   1      21.263  10.950  23.422  0.00  0.00    -0.012 A 
ATOM      5  C2  D8Y d   1      21.919  10.329  24.504  0.00  0.00     0.127 A 
ATOM      6  N1  D8Y d   1      22.102  10.987  25.685  0.00  0.00    -0.243 NA
ATOM      7  C1  D8Y d   1      21.666  12.254  25.886  0.00  0.00     0.004 A 
ATOM      8  C5  D8Y d   1      20.993  12.944  24.845  0.00  0.00    -0.065 A 
ATOM      9  H1  D8Y d   1      21.831  12.740  26.841  0.00  0.00     0.114 H 
ATOM     10  C4  D8Y d   1      20.796  12.276  23.608  0.00  0.00    -0.072 A 
ATOM     11  H5  D8Y d   1      20.637  13.958  24.991  0.00  0.00     0.085 H 
ATOM     12  H4  D8Y d   1      20.284  12.784  22.799  0.00  0.00     0.084 H 
BRANCH   5  13
ATOM     13  N2  D8Y d   1      22.372   9.056  24.383  0.00  0.00    -0.384 N 
ATOM     14  H2  D8Y d   1      22.242   8.545  23.498  0.00  0.00     0.157 HD
ATOM     15  H3  D8Y d   1      22.846   8.601  25.176  0.00  0.00     0.157 HD
ENDBRANCH   5  13
ENDBRANCH   1   4
BRANCH   1  16
ATOM     16  C7  D8Y d   1      22.373  10.198  21.238  0.00  0.00    -0.037 C 
ATOM     17  H8  D8Y d   1      22.287   9.391  20.495  0.00  0.00     0.040 H 
ATOM     18  H9  D8Y d   1      23.220   9.991  21.909  0.00  0.00     0.040 H 
BRANCH  16  19
ATOM     19  C8  D8Y d   1      22.636  11.512  20.507  0.00  0.00    -0.056 A 
ATOM     20  C9  D8Y d   1      23.804  12.264  20.824  0.00  0.00    -0.077 A 
ATOM     21  C10 D8Y d   1      24.058  13.504  20.170  0.00  0.00    -0.081 A 
ATOM     22  H10 D8Y d   1      24.502  11.891  21.565  0.00  0.00     0.084 H 
ATOM     23  C11 D8Y d   1      23.144  13.995  19.195  0.00  0.00    -0.062 A 
ATOM     24  H11 D8Y d   1      24.947  14.074  20.415  0.00  0.00     0.083 H 
ATOM     25  C12 D8Y d   1      21.976  13.246  18.872  0.00  0.00     0.034 A 
ATOM     26  H12 D8Y d   1      23.337  14.939  18.698  0.00  0.00     0.086 H 
ATOM     27 CL1  D8Y d   1      20.861  13.856  17.694  0.00  0.00    -0.084 Cl
ATOM     28  C13 D8Y d   1      21.722  12.002  19.525  0.00  0.00    -0.056 A 
ATOM     29  H13 D8Y d   1      20.836  11.430  19.276  0.00  0.00     0.086 H 
ENDBRANCH  16  19
ENDBRANCH   1  16
TORSDOF 4
