REMARK  4 active torsions:
REMARK  status: ('A' for Active; 'I' for Inactive)
REMARK    1  A    between atoms: CA_1  and  CB_2 
REMARK    2  A    between atoms: O4_6  and  CA_1 
REMARK    3  A    between atoms: CB_2  and  N_7 
REMARK    4  A    between atoms: O4_6  and  P_8 
ROOT
ATOM      1  CA  OPE d   1      17.695  14.194  56.252  0.00  0.00     0.054 C 
ATOM      2  H1  OPE d   1      18.623  14.430  56.794  0.00  0.00     0.077 H 
ATOM      3  H2  OPE d   1      17.095  13.486  56.843  0.00  0.00     0.077 H 
ENDROOT
BRANCH   1   4
ATOM      4  CB  OPE d   1      18.006  13.620  54.894  0.00  0.00     0.100 C 
ATOM      5  H3  OPE d   1      17.071  13.420  54.350  0.00  0.00     0.078 H 
ATOM      6  H4  OPE d   1      18.572  12.684  55.005  0.00  0.00     0.078 H 
BRANCH   4   7
ATOM      7  N   OPE d   1      18.816  14.611  54.152  0.00  0.00    -0.077 N 
ATOM      8  H5  OPE d   1      19.037  14.248  53.238  0.00  0.00     0.274 HD
ATOM      9  H6  OPE d   1      19.670  14.793  54.656  0.00  0.00     0.274 HD
ATOM     10  H7  OPE d   1      18.294  15.468  54.056  0.00  0.00     0.274 HD
ENDBRANCH   4   7
ENDBRANCH   1   4
BRANCH   1  11
ATOM     11  O4  OPE d   1      16.968  15.358  55.994  0.00  0.00    -0.281 OA
BRANCH  11  12
ATOM     12  P   OPE d   1      16.690  16.359  57.242  0.00  0.00     0.422 P 
ATOM     13  O1  OPE d   1      15.483  17.288  56.838  0.00  0.00    -0.617 OA
ATOM     14  O2  OPE d   1      17.973  17.348  57.268  0.00  0.00    -0.617 OA
ATOM     15  O3  OPE d   1      16.561  15.696  58.548  0.00  0.00    -0.617 OA
ENDBRANCH  11  12
ENDBRANCH   1  11
TORSDOF 4
