REMARK  12 active torsions:
REMARK  status: ('A' for Active; 'I' for Inactive)
REMARK    1  A    between atoms: N2_1  and  C1_2 
REMARK    2  A    between atoms: C1_2  and  C6_3 
REMARK    3  A    between atoms: C1_2  and  C2_10 
REMARK    4  A    between atoms: C6_3  and  C7_4 
REMARK    5  A    between atoms: C2_10  and  O2_11 
REMARK    6  A    between atoms: C2_10  and  C3_12 
REMARK       I    between atoms: C3_12  and  N1_14 
REMARK    7  A    between atoms: N1_14  and  C4_15 
REMARK    8  A    between atoms: C4_15  and  C13_16 
REMARK    9  A    between atoms: C4_15  and  C5_20 
REMARK   10  A    between atoms: C13_16  and  C14_17 
REMARK   11  A    between atoms: C14_17  and  C15_18 
REMARK   12  A    between atoms: C14_17  and  C16_19 
ROOT
ATOM      1  C2  BES d   1      87.253  75.650  30.228  0.00  0.00     0.139 C 
ATOM      2  H12 BES d   1      87.470  76.026  31.239  0.00  0.00     0.101 H 
ENDROOT
BRANCH   1   3
ATOM      3  C1  BES d   1      85.775  75.183  30.147  0.00  0.00     0.136 C 
ATOM      4  H4  BES d   1      85.626  74.634  29.206  0.00  0.00     0.089 H 
BRANCH   3   5
ATOM      5  N2  BES d   1      84.832  76.293  30.185  0.00  0.00    -0.072 N 
ATOM      6  H1  BES d   1      83.891  75.936  30.130  0.00  0.00     0.274 HD
ATOM      7  H2  BES d   1      85.005  76.908  29.405  0.00  0.00     0.274 HD
ATOM      8  H3  BES d   1      84.948  76.803  31.047  0.00  0.00     0.274 HD
ENDBRANCH   3   5
BRANCH   3   9
ATOM      9  C6  BES d   1      85.527  74.245  31.328  0.00  0.00    -0.012 C 
ATOM     10  H5  BES d   1      85.561  74.861  32.239  0.00  0.00     0.043 H 
ATOM     11  H6  BES d   1      86.356  73.522  31.343  0.00  0.00     0.043 H 
BRANCH   9  12
ATOM     12  C7  BES d   1      84.239  73.442  31.384  0.00  0.00    -0.056 A 
ATOM     13  C8  BES d   1      84.108  72.238  30.674  0.00  0.00    -0.077 A 
ATOM     14  C9  BES d   1      82.935  71.476  30.789  0.00  0.00    -0.082 A 
ATOM     15  H7  BES d   1      84.915  71.896  30.036  0.00  0.00     0.084 H 
ATOM     16  C10 BES d   1      81.890  71.921  31.617  0.00  0.00    -0.083 A 
ATOM     17  H9  BES d   1      82.835  70.546  30.241  0.00  0.00     0.083 H 
ATOM     18  C11 BES d   1      82.037  73.113  32.329  0.00  0.00    -0.082 A 
ATOM     19  H11 BES d   1      80.977  71.343  31.702  0.00  0.00     0.083 H 
ATOM     20  C12 BES d   1      83.211  73.866  32.214  0.00  0.00    -0.077 A 
ATOM     21  H10 BES d   1      81.237  73.457  32.975  0.00  0.00     0.083 H 
ATOM     22  H8  BES d   1      83.318  74.786  32.777  0.00  0.00     0.084 H 
ENDBRANCH   9  12
ENDBRANCH   3   9
ENDBRANCH   1   3
BRANCH   1  23
ATOM     23  O2  BES d   1      87.715  76.584  29.244  0.00  0.00    -0.384 OA
ATOM     24  H13 BES d   1      87.622  76.203  28.379  0.00  0.00     0.210 HD
ENDBRANCH   1  23
BRANCH   1  25
ATOM     25  C3  BES d   1      88.033  74.431  29.877  0.00  0.00     0.249 C 
ATOM     26  O3  BES d   1      87.709  73.806  28.867  0.00  0.00    -0.271 OA
ATOM     27  N1  BES d   1      89.033  74.127  30.702  0.00  0.00    -0.344 N 
ATOM     28  H14 BES d   1      89.254  74.710  31.484  0.00  0.00     0.163 HD
BRANCH  27  29
ATOM     29  C4  BES d   1      89.793  72.919  30.427  0.00  0.00     0.096 C 
ATOM     30  H15 BES d   1      89.883  72.740  29.346  0.00  0.00     0.089 H 
BRANCH  29  31
ATOM     31  C13 BES d   1      91.182  73.118  31.028  0.00  0.00    -0.034 C 
ATOM     32  H16 BES d   1      91.086  73.144  32.123  0.00  0.00     0.037 H 
ATOM     33  H17 BES d   1      91.580  74.080  30.672  0.00  0.00     0.037 H 
BRANCH  31  34
ATOM     34  C14 BES d   1      92.176  72.016  30.656  0.00  0.00    -0.059 C 
ATOM     35  H18 BES d   1      91.667  71.043  30.726  0.00  0.00     0.038 H 
BRANCH  34  36
ATOM     36  C15 BES d   1      92.689  72.181  29.230  0.00  0.00    -0.073 C 
ATOM     37  H19 BES d   1      93.399  71.373  29.000  0.00  0.00     0.028 H 
ATOM     38  H20 BES d   1      93.195  73.153  29.133  0.00  0.00     0.028 H 
ATOM     39  H21 BES d   1      91.843  72.136  28.529  0.00  0.00     0.028 H 
ENDBRANCH  34  36
BRANCH  34  40
ATOM     40  C16 BES d   1      93.324  72.044  31.667  0.00  0.00    -0.073 C 
ATOM     41  H22 BES d   1      92.921  71.923  32.683  0.00  0.00     0.028 H 
ATOM     42  H23 BES d   1      93.853  73.006  31.595  0.00  0.00     0.028 H 
ATOM     43  H24 BES d   1      94.024  71.224  31.450  0.00  0.00     0.028 H 
ENDBRANCH  34  40
ENDBRANCH  31  34
ENDBRANCH  29  31
BRANCH  29  44
ATOM     44  C5  BES d   1      88.995  71.802  31.071  0.00  0.00     0.196 C 
ATOM     45  O1  BES d   1      88.964  70.712  30.467  0.00  0.00    -0.646 OA
ATOM     46  O4  BES d   1      88.361  71.986  32.153  0.00  0.00    -0.646 OA
ENDBRANCH  29  44
ENDBRANCH  27  29
ENDBRANCH   1  25
TORSDOF 12
