REMARK  2 active torsions:
REMARK  status: ('A' for Active; 'I' for Inactive)
REMARK    1  A    between atoms: CAP_19  and  C2_2 
REMARK    2  A    between atoms: CAQ_20  and  CAU_21 
ROOT
ATOM      1  N1  XAV d   1      37.936 -11.102 -12.915  0.00  0.00    -0.318 N 
ATOM      2  C2  XAV d   1      38.766 -11.747 -12.114  0.00  0.00     0.140 A 
ATOM      3  N3  XAV d   1      39.563 -12.685 -12.642  0.00  0.00    -0.234 NA
ATOM      4  C4  XAV d   1      39.625 -12.979 -13.921  0.00  0.00     0.049 A 
ATOM      5  C5  XAV d   1      38.800 -12.304 -14.806  0.00  0.00     0.030 A 
ATOM      6  C6  XAV d   1      37.938 -11.360 -14.241  0.00  0.00     0.189 A 
ATOM      7  O6  XAV d   1      37.081 -10.729 -15.073  0.00  0.00    -0.171 OA
ATOM      8  CAI XAV d   1      40.219 -14.732 -15.587  0.00  0.00    -0.018 C 
ATOM      9  CAJ XAV d   1      40.610 -14.085 -14.285  0.00  0.00    -0.016 C 
ATOM     10  CAK XAV d   1      38.754 -12.586 -16.277  0.00  0.00     0.007 C 
ATOM     11  SAN XAV d   1      40.259 -13.430 -16.853  0.00  0.00    -0.164 SA
ATOM     12  H1  XAV d   1      37.306 -10.422 -12.539  0.00  0.00     0.169 HD
ATOM     13  H6  XAV d   1      39.206 -15.155 -15.511  0.00  0.00     0.049 H 
ATOM     14  H7  XAV d   1      40.931 -15.530 -15.842  0.00  0.00     0.049 H 
ATOM     15  H8  XAV d   1      40.611 -14.845 -13.489  0.00  0.00     0.043 H 
ATOM     16  H9  XAV d   1      41.617 -13.655 -14.383  0.00  0.00     0.043 H 
ATOM     17  H10 XAV d   1      38.651 -11.634 -16.819  0.00  0.00     0.056 H 
ATOM     18  H11 XAV d   1      37.884 -13.225 -16.490  0.00  0.00     0.056 H 
ENDROOT
BRANCH   2  19
ATOM     19  CAP XAV d   1      38.814 -11.498 -10.729  0.00  0.00     0.010 A 
ATOM     20  CAE XAV d   1      38.196 -10.386 -10.195  0.00  0.00    -0.069 A 
ATOM     21  CAG XAV d   1      38.242 -10.068  -8.836  0.00  0.00    -0.067 A 
ATOM     22  H2  XAV d   1      37.649  -9.729 -10.861  0.00  0.00     0.085 H 
ATOM     23  CAQ XAV d   1      38.885 -10.906  -7.962  0.00  0.00     0.048 A 
ATOM     24  H4  XAV d   1      37.771  -9.162  -8.473  0.00  0.00     0.084 H 
ATOM     25  CAH XAV d   1      39.509 -12.045  -8.462  0.00  0.00    -0.067 A 
ATOM     26  CAF XAV d   1      39.498 -12.347  -9.834  0.00  0.00    -0.069 A 
ATOM     27  H5  XAV d   1      40.016 -12.715  -7.777  0.00  0.00     0.084 H 
ATOM     28  H3  XAV d   1      40.012 -13.227 -10.203  0.00  0.00     0.085 H 
BRANCH  23  29
ATOM     29  CAU XAV d   1      38.883 -10.526  -6.461  0.00  0.00     0.417 C 
ATOM     30  FAB XAV d   1      39.700 -11.300  -5.784  0.00  0.00    -0.166 F 
ATOM     31  FAC XAV d   1      39.293  -9.268  -6.328  0.00  0.00    -0.166 F 
ATOM     32  FAD XAV d   1      37.665 -10.674  -5.945  0.00  0.00    -0.166 F 
ENDBRANCH  23  29
ENDBRANCH   2  19
TORSDOF 2
