REMARK  20 active torsions:
REMARK  status: ('A' for Active; 'I' for Inactive)
REMARK    1  A    between atoms: C5_7  and  N_1 
REMARK    2  A    between atoms: N_1  and  C6_8 
REMARK    3  A    between atoms: N_1  and  C7_9 
REMARK    4  A    between atoms: N_1  and  C8_10 
REMARK    5  A    between atoms: P_2  and  O3P_22 
REMARK    6  A    between atoms: O4P_23  and  P_2 
REMARK    7  A    between atoms: C1_3  and  C2_4 
REMARK    8  A    between atoms: O3P_22  and  C1_3 
REMARK    9  A    between atoms: C2_4  and  C3_5 
REMARK   10  A    between atoms: C3_5  and  C15_11 
REMARK   11  A    between atoms: C4_6  and  C5_7 
REMARK   12  A    between atoms: C4_6  and  O4P_23 
REMARK   13  A    between atoms: C15_11  and  C16_12 
REMARK   14  A    between atoms: C16_12  and  C17_13 
REMARK   15  A    between atoms: C17_13  and  C18_14 
REMARK   16  A    between atoms: C18_14  and  C19_15 
REMARK   17  A    between atoms: C19_15  and  C20_17 
REMARK   18  A    between atoms: C20_17  and  C21_18 
REMARK   19  A    between atoms: C21_18  and  C22_19 
REMARK   20  A    between atoms: C22_19  and  C23_20 
ROOT
ATOM      1  C3  DPV d   1       2.162  18.477  12.092  0.00  0.00    -0.063 C 
ATOM      2  H5  DPV d   1       1.534  19.299  12.468  0.00  0.00     0.033 H 
ATOM      3  H6  DPV d   1       2.454  17.826  12.929  0.00  0.00     0.033 H 
ENDROOT
BRANCH   1   4
ATOM      4  C2  DPV d   1       3.423  19.063  11.448  0.00  0.00    -0.045 C 
ATOM      5  H3  DPV d   1       3.214  19.297  10.394  0.00  0.00     0.036 H 
ATOM      6  H4  DPV d   1       3.704  19.985  11.979  0.00  0.00     0.036 H 
BRANCH   4   7
ATOM      7  C1  DPV d   1       4.588  18.067  11.520  0.00  0.00     0.032 C 
ATOM      8  H1  DPV d   1       4.250  17.135  11.996  0.00  0.00     0.075 H 
ATOM      9  H2  DPV d   1       5.411  18.501  12.107  0.00  0.00     0.075 H 
BRANCH   7  10
ATOM     10  O3P DPV d   1       5.043  17.789  10.176  0.00  0.00    -0.290 OA
BRANCH  10  11
ATOM     11  P   DPV d   1       5.403  16.262   9.716  0.00  0.00     0.408 P 
ATOM     12  O1P DPV d   1       4.129  15.498   9.524  0.00  0.00    -0.624 OA
ATOM     13  O2P DPV d   1       6.387  16.342   8.597  0.00  0.00    -0.624 OA
BRANCH  11  14
ATOM     14  O4P DPV d   1       6.196  15.659  11.005  0.00  0.00    -0.288 OA
BRANCH  14  15
ATOM     15  C4  DPV d   1       5.772  14.429  11.604  0.00  0.00     0.054 C 
ATOM     16  H7  DPV d   1       5.649  14.578  12.687  0.00  0.00     0.077 H 
ATOM     17  H8  DPV d   1       4.811  14.125  11.164  0.00  0.00     0.077 H 
BRANCH  15  18
ATOM     18  C5  DPV d   1       6.812  13.322  11.361  0.00  0.00     0.104 C 
ATOM     19  H9  DPV d   1       6.861  13.112  10.282  0.00  0.00     0.079 H 
ATOM     20  H10 DPV d   1       7.793  13.675  11.711  0.00  0.00     0.079 H 
BRANCH  18  21
ATOM     21  N   DPV d   1       6.472  12.072  12.075  0.00  0.00    -0.077 N 
BRANCH  21  22
ATOM     22  C6  DPV d   1       6.125  12.338  13.479  0.00  0.00     0.067 C 
ATOM     23  H11 DPV d   1       5.878  11.391  13.981  0.00  0.00     0.068 H 
ATOM     24  H12 DPV d   1       5.257  13.013  13.521  0.00  0.00     0.068 H 
ATOM     25  H13 DPV d   1       6.980  12.809  13.985  0.00  0.00     0.068 H 
ENDBRANCH  21  22
BRANCH  21  26
ATOM     26  C7  DPV d   1       7.642  11.181  12.053  0.00  0.00     0.067 C 
ATOM     27  H14 DPV d   1       7.921  10.967  11.011  0.00  0.00     0.068 H 
ATOM     28  H15 DPV d   1       7.396  10.240  12.567  0.00  0.00     0.068 H 
ATOM     29  H16 DPV d   1       8.484  11.669  12.565  0.00  0.00     0.068 H 
ENDBRANCH  21  26
BRANCH  21  30
ATOM     30  C8  DPV d   1       5.352  11.378  11.412  0.00  0.00     0.067 C 
ATOM     31  H17 DPV d   1       4.464  12.027  11.417  0.00  0.00     0.068 H 
ATOM     32  H18 DPV d   1       5.128  10.446  11.951  0.00  0.00     0.068 H 
ATOM     33  H19 DPV d   1       5.629  11.143  10.374  0.00  0.00     0.068 H 
ENDBRANCH  21  30
ENDBRANCH  18  21
ENDBRANCH  15  18
ENDBRANCH  14  15
ENDBRANCH  11  14
ENDBRANCH  10  11
ENDBRANCH   7  10
ENDBRANCH   4   7
ENDBRANCH   1   4
BRANCH   1  34
ATOM     34  C15 DPV d   1       1.361  17.659  11.077  0.00  0.00    -0.065 C 
ATOM     35  H20 DPV d   1       1.939  16.765  10.800  0.00  0.00     0.033 H 
ATOM     36  H21 DPV d   1       1.184  18.273  10.181  0.00  0.00     0.033 H 
BRANCH  34  37
ATOM     37  C16 DPV d   1       0.020  17.225  11.656  0.00  0.00    -0.065 C 
ATOM     38  H22 DPV d   1      -0.756  17.942  11.352  0.00  0.00     0.033 H 
ATOM     39  H23 DPV d   1       0.088  17.202  12.754  0.00  0.00     0.033 H 
BRANCH  37  40
ATOM     40  C17 DPV d   1      -0.350  15.837  11.146  0.00  0.00    -0.065 C 
ATOM     41  H24 DPV d   1       0.480  15.144  11.348  0.00  0.00     0.033 H 
ATOM     42  H25 DPV d   1      -0.532  15.886  10.062  0.00  0.00     0.033 H 
BRANCH  40  43
ATOM     43  C18 DPV d   1      -1.609  15.329  11.844  0.00  0.00    -0.065 C 
ATOM     44  H26 DPV d   1      -2.290  16.174  12.025  0.00  0.00     0.033 H 
ATOM     45  H27 DPV d   1      -1.331  14.870  12.804  0.00  0.00     0.033 H 
BRANCH  43  46
ATOM     46  C19 DPV d   1      -2.317  14.288  10.973  0.00  0.00    -0.065 C 
ATOM     47  H28 DPV d   1      -1.625  13.458  10.765  0.00  0.00     0.033 H 
ATOM     48  H29 DPV d   1      -2.623  14.756  10.026  0.00  0.00     0.033 H 
BRANCH  46  49
ATOM     49  C20 DPV d   1      -3.552  13.746  11.689  0.00  0.00    -0.065 C 
ATOM     50  H30 DPV d   1      -4.293  14.553  11.789  0.00  0.00     0.033 H 
ATOM     51  H31 DPV d   1      -3.261  13.389  12.688  0.00  0.00     0.033 H 
BRANCH  49  52
ATOM     52  C21 DPV d   1      -4.173  12.592  10.908  0.00  0.00    -0.065 C 
ATOM     53  H32 DPV d   1      -4.569  11.849  11.616  0.00  0.00     0.033 H 
ATOM     54  H33 DPV d   1      -3.401  12.125  10.279  0.00  0.00     0.033 H 
BRANCH  52  55
ATOM     55  C22 DPV d   1      -5.309  13.092  10.019  0.00  0.00    -0.069 C 
ATOM     56  H34 DPV d   1      -5.102  14.129   9.714  0.00  0.00     0.032 H 
ATOM     57  H35 DPV d   1      -6.253  13.057  10.583  0.00  0.00     0.032 H 
BRANCH  55  58
ATOM     58  C23 DPV d   1      -5.434  12.218   8.775  0.00  0.00    -0.077 C 
ATOM     59  H36 DPV d   1      -6.256  12.591   8.146  0.00  0.00     0.027 H 
ATOM     60  H37 DPV d   1      -5.644  11.181   9.075  0.00  0.00     0.027 H 
ATOM     61  H38 DPV d   1      -4.493  12.252   8.207  0.00  0.00     0.027 H 
ENDBRANCH  55  58
ENDBRANCH  52  55
ENDBRANCH  49  52
ENDBRANCH  46  49
ENDBRANCH  43  46
ENDBRANCH  40  43
ENDBRANCH  37  40
ENDBRANCH  34  37
ENDBRANCH   1  34
TORSDOF 20
