REMARK  5 active torsions:
REMARK  status: ('A' for Active; 'I' for Inactive)
REMARK    1  A    between atoms: C12_12  and  N1_1 
REMARK    2  A    between atoms: C6_6  and  C11_11 
REMARK    3  A    between atoms: C6_6  and  C12_12 
REMARK    4  A    between atoms: C17_17  and  O20_20 
REMARK    5  A    between atoms: O20_20  and  C21_21 
ROOT
ATOM      1  N1  724 d   1       6.290   8.829  23.992  0.00  0.00    -0.254 N 
ATOM      2  N2  724 d   1       7.705   8.708  24.149  0.00  0.00    -0.295 N 
ATOM      3  C3  724 d   1       5.562   8.845  25.142  0.00  0.00     0.274 A 
ATOM      4  C13 724 d   1       6.575   8.771  26.183  0.00  0.00     0.064 A 
ATOM      5  C14 724 d   1       7.835   8.687  25.534  0.00  0.00     0.064 A 
ATOM      6  C15 724 d   1       9.021   8.594  26.254  0.00  0.00    -0.052 A 
ATOM      7  C16 724 d   1       8.898   8.606  27.631  0.00  0.00    -0.049 A 
ATOM      8  C17 724 d   1       7.606   8.698  28.267  0.00  0.00     0.069 A 
ATOM      9  C18 724 d   1       6.429   8.783  27.524  0.00  0.00    -0.033 A 
ATOM     10  O19 724 d   1       4.342   8.930  25.274  0.00  0.00    -0.266 OA
ATOM     11  H1  724 d   1       8.437   8.651  23.426  0.00  0.00     0.187 HD
ATOM     12  H9  724 d   1       9.985   8.517  25.765  0.00  0.00     0.087 H 
ATOM     13  H10 724 d   1       9.789   8.545  28.245  0.00  0.00     0.087 H 
ATOM     14  H11 724 d   1       5.455   8.854  27.995  0.00  0.00     0.089 H 
ENDROOT
BRANCH   1  15
ATOM     15  C12 724 d   1       5.718   8.977  22.691  0.00  0.00     0.050 C 
ATOM     16  H7  724 d   1       4.663   8.666  22.703  0.00  0.00     0.072 H 
ATOM     17  H8  724 d   1       6.272   8.367  21.962  0.00  0.00     0.072 H 
BRANCH  15  18
ATOM     18  C6  724 d   1       5.830  10.517  22.313  0.00  0.00     0.130 C 
ATOM     19  C5  724 d   1       7.329  10.950  22.240  0.00  0.00     0.255 C 
ATOM     20  N4  724 d   1       7.646  11.744  23.325  0.00  0.00    -0.277 N 
ATOM     21  O10 724 d   1       8.113  10.504  21.420  0.00  0.00    -0.270 OA
ATOM     22  C8  724 d   1       6.456  12.093  24.015  0.00  0.00     0.323 C 
ATOM     23  H2  724 d   1       8.569  12.028  23.584  0.00  0.00     0.173 HD
ATOM     24  N7  724 d   1       5.397  11.374  23.445  0.00  0.00    -0.323 N 
ATOM     25  O9  724 d   1       6.403  12.971  24.873  0.00  0.00    -0.247 OA
ATOM     26  H3  724 d   1       4.452  11.432  23.766  0.00  0.00     0.165 HD
BRANCH  18  27
ATOM     27  C11 724 d   1       5.090  10.889  21.008  0.00  0.00    -0.043 C 
ATOM     28  H4  724 d   1       5.434  10.236  20.192  0.00  0.00     0.031 H 
ATOM     29  H5  724 d   1       5.302  11.938  20.752  0.00  0.00     0.031 H 
ATOM     30  H6  724 d   1       4.007  10.758  21.150  0.00  0.00     0.031 H 
ENDBRANCH  18  27
ENDBRANCH  15  18
ENDBRANCH   1  15
BRANCH   8  31
ATOM     31  O20 724 d   1       7.353   8.705  29.595  0.00  0.00    -0.356 OA
BRANCH  31  32
ATOM     32  C21 724 d   1       8.371   8.208  30.492  0.00  0.00     0.010 C 
ATOM     33  H12 724 d   1       8.013   8.281  31.529  0.00  0.00     0.066 H 
ATOM     34  H13 724 d   1       9.286   8.808  30.377  0.00  0.00     0.066 H 
ATOM     35  H14 724 d   1       8.589   7.157  30.253  0.00  0.00     0.066 H 
ENDBRANCH  31  32
ENDBRANCH   8  31
TORSDOF 5
