REMARK  2 active torsions:
REMARK  status: ('A' for Active; 'I' for Inactive)
REMARK    1  A    between atoms: C5_5  and  C8_8 
REMARK       I    between atoms: C8_8  and  N17_17 
REMARK    2  A    between atoms: C14_14  and  N16_16 
ROOT
ATOM      1  C1  L3L d   1     -28.708  65.112  24.291  0.00  0.00    -0.081 A 
ATOM      2  C2  L3L d   1     -27.841  65.955  23.621  0.00  0.00    -0.067 A 
ATOM      3  C3  L3L d   1     -28.264  64.335  25.342  0.00  0.00    -0.074 A 
ATOM      4  C4  L3L d   1     -26.072  65.225  25.019  0.00  0.00     0.055 A 
ATOM      5  C5  L3L d   1     -26.512  66.022  23.980  0.00  0.00     0.048 A 
ATOM      6  C6  L3L d   1     -26.934  64.400  25.688  0.00  0.00    -0.024 A 
ATOM      7  C7  L3L d   1     -24.741  65.073  25.617  0.00  0.00     0.256 C 
ATOM      8  C9  L3L d   1     -26.255  63.659  26.781  0.00  0.00     0.023 C 
ATOM      9  N16 L3L d   1     -24.940  64.250  26.702  0.00  0.00    -0.339 N 
ATOM     10  O18 L3L d   1     -23.692  65.538  25.191  0.00  0.00    -0.267 OA
ATOM     11  H1  L3L d   1     -29.747  65.061  23.988  0.00  0.00     0.083 H 
ATOM     12  H2  L3L d   1     -28.209  66.568  22.807  0.00  0.00     0.085 H 
ATOM     13  H3  L3L d   1     -28.947  63.689  25.882  0.00  0.00     0.084 H 
ATOM     14  H4  L3L d   1     -26.229  62.577  26.586  0.00  0.00     0.071 H 
ATOM     15  H5  L3L d   1     -26.729  63.845  27.756  0.00  0.00     0.071 H 
ENDROOT
BRANCH   9  16
ATOM     16  C14 L3L d   1     -23.864  63.841  27.566  0.00  0.00     0.018 C 
ATOM     17  C10 L3L d   1     -23.355  62.467  27.214  0.00  0.00    -0.023 C 
ATOM     18  C12 L3L d   1     -22.183  62.154  28.110  0.00  0.00     0.083 C 
ATOM     19  H6  L3L d   1     -24.151  61.724  27.369  0.00  0.00     0.038 H 
ATOM     20  H7  L3L d   1     -23.035  62.447  26.162  0.00  0.00     0.038 H 
ATOM     21  N15 L3L d   1     -22.664  62.106  29.477  0.00  0.00    -0.075 N 
ATOM     22  H10 L3L d   1     -21.418  62.938  28.011  0.00  0.00     0.075 H 
ATOM     23  H11 L3L d   1     -21.750  61.182  27.832  0.00  0.00     0.075 H 
ATOM     24  C13 L3L d   1     -23.085  63.446  29.853  0.00  0.00     0.083 C 
ATOM     25  H15 L3L d   1     -21.925  61.795  30.089  0.00  0.00     0.277 HD
ATOM     26  H16 L3L d   1     -23.444  61.471  29.543  0.00  0.00     0.277 HD
ATOM     27  C11 L3L d   1     -24.277  63.838  29.015  0.00  0.00    -0.023 C 
ATOM     28  H12 L3L d   1     -23.361  63.461  30.918  0.00  0.00     0.075 H 
ATOM     29  H13 L3L d   1     -22.262  64.154  29.678  0.00  0.00     0.075 H 
ATOM     30  H8  L3L d   1     -24.620  64.842  29.305  0.00  0.00     0.038 H 
ATOM     31  H9  L3L d   1     -25.091  63.114  29.167  0.00  0.00     0.038 H 
ATOM     32  H14 L3L d   1     -23.041  64.560  27.440  0.00  0.00     0.073 H 
ENDBRANCH   9  16
BRANCH   5  33
ATOM     33  C8  L3L d   1     -25.670  66.950  23.216  0.00  0.00     0.250 C 
ATOM     34  N17 L3L d   1     -24.329  66.895  23.485  0.00  0.00    -0.366 N 
ATOM     35  H17 L3L d   1     -23.697  67.500  23.001  0.00  0.00     0.159 HD
ATOM     36  H18 L3L d   1     -23.982  66.250  24.166  0.00  0.00     0.159 HD
ATOM     37  O19 L3L d   1     -26.205  67.703  22.416  0.00  0.00    -0.268 OA
ENDBRANCH   5  33
TORSDOF 2
