REMARK  3 active torsions:
REMARK  status: ('A' for Active; 'I' for Inactive)
REMARK    1  A    between atoms: C7_8  and  C13_14 
REMARK    2  A    between atoms: C8_9  and  C14_15 
REMARK    3  A    between atoms: C19_20  and  C9_10 
REMARK       I    between atoms: C14_15  and  N23_24 
ROOT
ATOM      1  F   A92 d   1      28.063   9.052  27.628  0.00  0.00    -0.205 F 
ATOM      2  C2  A92 d   1      26.482  12.300  27.578  0.00  0.00    -0.066 A 
ATOM      3  C4  A92 d   1      27.341  12.987  28.409  0.00  0.00    -0.074 A 
ATOM      4  C6  A92 d   1      28.646  11.024  28.690  0.00  0.00    -0.037 A 
ATOM      5  C7  A92 d   1      26.691  10.967  27.302  0.00  0.00     0.048 A 
ATOM      6  C9  A92 d   1      28.425  12.350  28.968  0.00  0.00    -0.025 A 
ATOM      7  C12 A92 d   1      27.786  10.343  27.863  0.00  0.00     0.131 A 
ATOM      8  H2  A92 d   1      25.635  12.813  27.138  0.00  0.00     0.085 H 
ATOM      9  H4  A92 d   1      27.162  14.034  28.623  0.00  0.00     0.084 H 
ATOM     10  H6  A92 d   1      29.499  10.514  29.123  0.00  0.00     0.089 H 
ENDROOT
BRANCH   5  11
ATOM     11  C13 A92 d   1      25.769  10.253  26.447  0.00  0.00     0.142 A 
ATOM     12  N20 A92 d   1      25.034  10.858  25.466  0.00  0.00    -0.227 NA
ATOM     13  C10 A92 d   1      24.281   9.911  24.834  0.00  0.00     0.101 A 
ATOM     14  C8  A92 d   1      23.384   9.969  23.794  0.00  0.00     0.062 A 
ATOM     15  C11 A92 d   1      24.584   8.736  25.485  0.00  0.00     0.064 A 
ATOM     16  C3  A92 d   1      22.804   8.782  23.414  0.00  0.00    -0.065 A 
ATOM     17  C1  A92 d   1      23.120   7.599  24.044  0.00  0.00    -0.080 A 
ATOM     18  H3  A92 d   1      22.084   8.777  22.603  0.00  0.00     0.085 H 
ATOM     19  C5  A92 d   1      24.007   7.542  25.095  0.00  0.00    -0.055 A 
ATOM     20  H1  A92 d   1      22.655   6.682  23.701  0.00  0.00     0.083 H 
ATOM     21  H5  A92 d   1      24.241   6.608  25.592  0.00  0.00     0.087 H 
ATOM     22  N21 A92 d   1      25.497   8.965  26.476  0.00  0.00    -0.338 N 
ATOM     23  H16 A92 d   1      25.895   8.266  27.120  0.00  0.00     0.167 HD
BRANCH  14  24
ATOM     24  C14 A92 d   1      23.015  11.208  23.110  0.00  0.00     0.251 C 
ATOM     25  N23 A92 d   1      23.707  12.302  23.563  0.00  0.00    -0.366 N 
ATOM     26  H19 A92 d   1      23.534  13.203  23.165  0.00  0.00     0.159 HD
ATOM     27  H20 A92 d   1      24.384  12.199  24.291  0.00  0.00     0.159 HD
ATOM     28  O24 A92 d   1      22.152  11.189  22.241  0.00  0.00    -0.268 OA
ENDBRANCH  14  24
ENDBRANCH   5  11
BRANCH   6  29
ATOM     29  C19 A92 d   1      29.359  13.051  29.886  0.00  0.00     0.127 C 
ATOM     30  C17 A92 d   1      28.753  13.068  31.265  0.00  0.00    -0.034 C 
ATOM     31  C15 A92 d   1      29.775  13.603  32.236  0.00  0.00    -0.061 C 
ATOM     32  H11 A92 d   1      27.863  13.715  31.270  0.00  0.00     0.036 H 
ATOM     33  H12 A92 d   1      28.466  12.047  31.555  0.00  0.00     0.036 H 
ATOM     34  C16 A92 d   1      30.178  15.001  31.835  0.00  0.00    -0.042 C 
ATOM     35  H7  A92 d   1      29.342  13.623  33.247  0.00  0.00     0.033 H 
ATOM     36  H8  A92 d   1      30.661  12.951  32.229  0.00  0.00     0.033 H 
ATOM     37  C18 A92 d   1      30.673  15.021  30.409  0.00  0.00     0.083 C 
ATOM     38  H9  A92 d   1      30.980  15.352  32.501  0.00  0.00     0.035 H 
ATOM     39  H10 A92 d   1      29.308  15.668  31.925  0.00  0.00     0.035 H 
ATOM     40  N22 A92 d   1      29.601  14.468  29.549  0.00  0.00    -0.067 N 
ATOM     41  H13 A92 d   1      31.580  14.405  30.319  0.00  0.00     0.075 H 
ATOM     42  H14 A92 d   1      30.900  16.054  30.106  0.00  0.00     0.075 H 
ATOM     43  H17 A92 d   1      29.880  14.538  28.583  0.00  0.00     0.277 HD
ATOM     44  H18 A92 d   1      28.753  14.994  29.693  0.00  0.00     0.277 HD
ATOM     45  H15 A92 d   1      30.317  12.511  29.893  0.00  0.00     0.091 H 
ENDBRANCH   6  29
TORSDOF 3
