REMARK  18 active torsions:
REMARK  status: ('A' for Active; 'I' for Inactive)
REMARK    1  A    between atoms: CAL_12  and  OAA_1 
REMARK    2  A    between atoms: CAM_13  and  OAB_2 
REMARK    3  A    between atoms: CAQ_17  and  OAC_3 
REMARK    4  A    between atoms: CAR_18  and  OAD_4 
REMARK    5  A    between atoms: CAS_19  and  OAE_5 
REMARK    6  A    between atoms: CAT_20  and  OAF_6 
REMARK    7  A    between atoms: CAU_21  and  OAG_7 
REMARK    8  A    between atoms: CAV_22  and  OAH_8 
REMARK    9  A    between atoms: CAQ_17  and  CAL_12 
REMARK   10  A    between atoms: CAW_23  and  CAM_13 
REMARK   11  A    between atoms: CAS_19  and  CAO_15 
REMARK   12  A    between atoms: CAO_15  and  SAY_25 
REMARK   13  A    between atoms: CAX_24  and  OAP_16 
REMARK   14  A    between atoms: OAP_16  and  SAZ_26 
REMARK   15  A    between atoms: CAT_20  and  CAQ_17 
REMARK   16  A    between atoms: CAX_24  and  CAS_19 
REMARK   17  A    between atoms: CAV_22  and  CAT_20 
REMARK   18  A    between atoms: CAV_22  and  CAX_24 
ROOT
ATOM      1  CAS KTL d   1      43.424  90.632  33.198  0.00  0.00     0.072 C 
ATOM      2  H19 KTL d   1      42.342  90.788  33.079  0.00  0.00     0.088 H 
ENDROOT
BRANCH   1   3
ATOM      3  OAE KTL d   1      44.050  90.967  31.957  0.00  0.00    -0.392 OA
ATOM      4  H5  KTL d   1      44.992  90.886  32.047  0.00  0.00     0.210 HD
ENDBRANCH   1   3
BRANCH   1   5
ATOM      5  CAO KTL d   1      43.875  91.553  34.349  0.00  0.00    -0.005 C 
ATOM      6  H15 KTL d   1      44.947  91.365  34.510  0.00  0.00     0.051 H 
ATOM      7  H16 KTL d   1      43.311  91.250  35.243  0.00  0.00     0.051 H 
BRANCH   5   8
ATOM      8  SAY KTL d   1      43.685  93.226  34.188  0.00  0.00    -0.206 SA
ATOM      9  CAN KTL d   1      45.026  93.736  33.309  0.00  0.00    -0.005 C 
ATOM     10  CAR KTL d   1      46.026  94.270  34.354  0.00  0.00     0.069 C 
ATOM     11  H13 KTL d   1      45.464  92.894  32.753  0.00  0.00     0.051 H 
ATOM     12  H14 KTL d   1      44.744  94.533  32.605  0.00  0.00     0.051 H 
ATOM     13  CAU KTL d   1      45.201  94.847  35.496  0.00  0.00     0.074 C 
ATOM     14  H18 KTL d   1      46.590  93.404  34.729  0.00  0.00     0.088 H 
ATOM     15  CAW KTL d   1      44.109  93.796  35.721  0.00  0.00     0.030 C 
ATOM     16  H21 KTL d   1      44.745  95.800  35.190  0.00  0.00     0.088 H 
ATOM     17  H23 KTL d   1      44.551  92.952  36.270  0.00  0.00     0.062 H 
BRANCH  10  18
ATOM     18  OAD KTL d   1      47.010  95.246  33.925  0.00  0.00    -0.392 OA
ATOM     19  H4  KTL d   1      47.549  94.870  33.239  0.00  0.00     0.210 HD
ENDBRANCH  10  18
BRANCH  13  20
ATOM     20  OAG KTL d   1      45.998  95.085  36.657  0.00  0.00    -0.392 OA
ATOM     21  H7  KTL d   1      45.452  95.444  37.347  0.00  0.00     0.210 HD
ENDBRANCH  13  20
BRANCH  15  22
ATOM     22  CAM KTL d   1      42.984  94.328  36.601  0.00  0.00     0.030 C 
ATOM     23  H11 KTL d   1      42.204  93.555  36.665  0.00  0.00     0.075 H 
ATOM     24  H12 KTL d   1      43.394  94.519  37.603  0.00  0.00     0.075 H 
BRANCH  22  25
ATOM     25  OAB KTL d   1      42.374  95.541  36.128  0.00  0.00    -0.400 OA
ATOM     26  H2  KTL d   1      42.003  95.392  35.266  0.00  0.00     0.209 HD
ENDBRANCH  22  25
ENDBRANCH  15  22
ENDBRANCH   5   8
ENDBRANCH   1   5
BRANCH   1  27
ATOM     27  CAX KTL d   1      43.642  89.129  33.462  0.00  0.00     0.112 C 
ATOM     28  H24 KTL d   1      44.714  88.919  33.588  0.00  0.00     0.093 H 
BRANCH  27  29
ATOM     29  OAP KTL d   1      42.912  88.771  34.624  0.00  0.00    -0.246 OA
BRANCH  29  30
ATOM     30  SAZ KTL d   1      43.661  88.237  35.966  0.00  0.00     0.252 S 
ATOM     31  OAI KTL d   1      44.560  87.097  35.675  0.00  0.00    -0.572 OA
ATOM     32  OAJ KTL d   1      44.526  89.281  36.571  0.00  0.00    -0.572 OA
ATOM     33  OAK KTL d   1      42.555  87.837  36.856  0.00  0.00    -0.572 OA
ENDBRANCH  29  30
ENDBRANCH  27  29
BRANCH  27  34
ATOM     34  CAV KTL d   1      43.056  88.284  32.316  0.00  0.00     0.091 C 
ATOM     35  H22 KTL d   1      43.619  88.531  31.404  0.00  0.00     0.091 H 
BRANCH  34  36
ATOM     36  OAH KTL d   1      41.683  88.668  32.134  0.00  0.00    -0.390 OA
ATOM     37  H8  KTL d   1      41.179  88.410  32.897  0.00  0.00     0.210 HD
ENDBRANCH  34  36
BRANCH  34  38
ATOM     38  CAT KTL d   1      43.121  86.756  32.495  0.00  0.00     0.089 C 
ATOM     39  H20 KTL d   1      42.464  86.484  33.334  0.00  0.00     0.091 H 
BRANCH  38  40
ATOM     40  OAF KTL d   1      44.443  86.319  32.779  0.00  0.00    -0.390 OA
ATOM     41  H6  KTL d   1      45.007  86.518  32.041  0.00  0.00     0.210 HD
ENDBRANCH  38  40
BRANCH  38  42
ATOM     42  CAQ KTL d   1      42.666  86.002  31.244  0.00  0.00     0.083 C 
ATOM     43  H17 KTL d   1      41.731  86.463  30.893  0.00  0.00     0.090 H 
BRANCH  42  44
ATOM     44  OAC KTL d   1      43.638  86.119  30.198  0.00  0.00    -0.391 OA
ATOM     45  H3  KTL d   1      43.802  87.038  30.021  0.00  0.00     0.210 HD
ENDBRANCH  42  44
BRANCH  42  46
ATOM     46  CAL KTL d   1      42.375  84.521  31.558  0.00  0.00     0.043 C 
ATOM     47  H9  KTL d   1      43.242  83.900  31.288  0.00  0.00     0.078 H 
ATOM     48  H10 KTL d   1      42.155  84.397  32.629  0.00  0.00     0.078 H 
BRANCH  46  49
ATOM     49  OAA KTL d   1      41.225  84.142  30.767  0.00  0.00    -0.398 OA
ATOM     50  H1  KTL d   1      40.485  84.689  31.004  0.00  0.00     0.209 HD
ENDBRANCH  46  49
ENDBRANCH  42  46
ENDBRANCH  38  42
ENDBRANCH  34  38
ENDBRANCH  27  34
ENDBRANCH   1  27
TORSDOF 18
