REMARK  18 active torsions:
REMARK  status: ('A' for Active; 'I' for Inactive)
REMARK    1  A    between atoms: CAL_12  and  OAA_1 
REMARK    2  A    between atoms: CAM_13  and  OAB_2 
REMARK    3  A    between atoms: CAQ_17  and  OAC_3 
REMARK    4  A    between atoms: CAR_18  and  OAD_4 
REMARK    5  A    between atoms: CAS_19  and  OAE_5 
REMARK    6  A    between atoms: CAT_20  and  OAF_6 
REMARK    7  A    between atoms: CAU_21  and  OAG_7 
REMARK    8  A    between atoms: CAV_22  and  OAH_8 
REMARK    9  A    between atoms: CAQ_17  and  CAL_12 
REMARK   10  A    between atoms: CAW_23  and  CAM_13 
REMARK   11  A    between atoms: CAS_19  and  CAO_15 
REMARK   12  A    between atoms: CAO_15  and  SAY_25 
REMARK   13  A    between atoms: CAX_24  and  OAP_16 
REMARK   14  A    between atoms: OAP_16  and  SAZ_26 
REMARK   15  A    between atoms: CAT_20  and  CAQ_17 
REMARK   16  A    between atoms: CAX_24  and  CAS_19 
REMARK   17  A    between atoms: CAV_22  and  CAT_20 
REMARK   18  A    between atoms: CAV_22  and  CAX_24 
ROOT
ATOM      1  CAS NR3 d   1       2.779 -19.129  21.414  0.00  0.00     0.072 C 
ATOM      2  H19 NR3 d   1       3.870 -19.008  21.480  0.00  0.00     0.088 H 
ENDROOT
BRANCH   1   3
ATOM      3  OAE NR3 d   1       2.201 -18.747  22.666  0.00  0.00    -0.392 OA
ATOM      4  H5  NR3 d   1       1.256 -18.824  22.614  0.00  0.00     0.210 HD
ENDBRANCH   1   3
BRANCH   1   5
ATOM      5  CAO NR3 d   1       2.267 -18.226  20.292  0.00  0.00    -0.005 C 
ATOM      6  H15 NR3 d   1       1.180 -18.374  20.213  0.00  0.00     0.051 H 
ATOM      7  H16 NR3 d   1       2.750 -18.547  19.357  0.00  0.00     0.051 H 
BRANCH   5   8
ATOM      8  SAY NR3 d   1       2.567 -16.460  20.486  0.00  0.00    -0.206 SA
ATOM      9  CAN NR3 d   1       1.156 -15.783  21.464  0.00  0.00    -0.005 C 
ATOM     10  CAR NR3 d   1       0.145 -15.445  20.348  0.00  0.00     0.069 C 
ATOM     11  H13 NR3 d   1       0.752 -16.534  22.159  0.00  0.00     0.051 H 
ATOM     12  H14 NR3 d   1       1.451 -14.884  22.026  0.00  0.00     0.051 H 
ATOM     13  CAU NR3 d   1       0.943 -14.778  19.203  0.00  0.00     0.074 C 
ATOM     14  H18 NR3 d   1      -0.280 -16.391  19.980  0.00  0.00     0.088 H 
ATOM     15  CAW NR3 d   1       2.040 -15.819  18.859  0.00  0.00     0.030 C 
ATOM     16  H21 NR3 d   1       1.375 -13.812  19.506  0.00  0.00     0.088 H 
ATOM     17  H23 NR3 d   1       1.582 -16.636  18.282  0.00  0.00     0.062 H 
BRANCH  10  18
ATOM     18  OAD NR3 d   1      -0.985 -14.590  20.757  0.00  0.00    -0.392 OA
ATOM     19  H4  NR3 d   1      -1.477 -15.024  21.444  0.00  0.00     0.210 HD
ENDBRANCH  10  18
BRANCH  13  20
ATOM     20  OAG NR3 d   1       0.064 -14.620  18.080  0.00  0.00    -0.392 OA
ATOM     21  H7  NR3 d   1       0.536 -14.211  17.364  0.00  0.00     0.210 HD
ENDBRANCH  13  20
BRANCH  15  22
ATOM     22  CAM NR3 d   1       3.205 -15.275  18.017  0.00  0.00     0.030 C 
ATOM     23  H11 NR3 d   1       4.023 -16.011  18.029  0.00  0.00     0.075 H 
ATOM     24  H12 NR3 d   1       2.856 -15.132  16.984  0.00  0.00     0.075 H 
BRANCH  22  25
ATOM     25  OAB NR3 d   1       3.707 -14.018  18.514  0.00  0.00    -0.400 OA
ATOM     26  H2  NR3 d   1       4.018 -14.132  19.404  0.00  0.00     0.209 HD
ENDBRANCH  22  25
ENDBRANCH  15  22
ENDBRANCH   5   8
ENDBRANCH   1   5
BRANCH   1  27
ATOM     27  CAX NR3 d   1       2.472 -20.620  21.135  0.00  0.00     0.112 C 
ATOM     28  H24 NR3 d   1       1.389 -20.776  21.019  0.00  0.00     0.093 H 
BRANCH  27  29
ATOM     29  OAP NR3 d   1       3.131 -20.984  19.904  0.00  0.00    -0.246 OA
BRANCH  29  30
ATOM     30  SAZ NR3 d   1       2.401 -21.503  18.760  0.00  0.00     0.252 S 
ATOM     31  OAI NR3 d   1       1.537 -20.454  18.166  0.00  0.00    -0.572 OA
ATOM     32  OAJ NR3 d   1       3.383 -21.984  17.725  0.00  0.00    -0.572 OA
ATOM     33  OAK NR3 d   1       1.571 -22.576  19.185  0.00  0.00    -0.572 OA
ENDBRANCH  29  30
ENDBRANCH  27  29
BRANCH  27  34
ATOM     34  CAV NR3 d   1       2.974 -21.409  22.384  0.00  0.00     0.091 C 
ATOM     35  H22 NR3 d   1       2.281 -21.158  23.201  0.00  0.00     0.091 H 
BRANCH  34  36
ATOM     36  OAH NR3 d   1       4.271 -20.927  22.736  0.00  0.00    -0.390 OA
ATOM     37  H8  NR3 d   1       4.900 -21.208  22.082  0.00  0.00     0.210 HD
ENDBRANCH  34  36
BRANCH  34  38
ATOM     38  CAT NR3 d   1       3.027 -22.943  22.328  0.00  0.00     0.089 C 
ATOM     39  H20 NR3 d   1       3.257 -23.289  23.346  0.00  0.00     0.091 H 
BRANCH  38  40
ATOM     40  OAF NR3 d   1       1.734 -23.444  21.979  0.00  0.00    -0.390 OA
ATOM     41  H6  NR3 d   1       1.538 -23.211  21.079  0.00  0.00     0.210 HD
ENDBRANCH  38  40
BRANCH  38  42
ATOM     42  CAQ NR3 d   1       4.111 -23.546  21.406  0.00  0.00     0.083 C 
ATOM     43  H17 NR3 d   1       3.719 -23.547  20.378  0.00  0.00     0.090 H 
BRANCH  42  44
ATOM     44  OAC NR3 d   1       5.325 -22.748  21.424  0.00  0.00    -0.391 OA
ATOM     45  H3  NR3 d   1       5.119 -21.854  21.178  0.00  0.00     0.210 HD
ENDBRANCH  42  44
BRANCH  42  46
ATOM     46  CAL NR3 d   1       4.424 -25.010  21.805  0.00  0.00     0.043 C 
ATOM     47  H9  NR3 d   1       5.515 -25.148  21.833  0.00  0.00     0.078 H 
ATOM     48  H10 NR3 d   1       4.004 -25.207  22.802  0.00  0.00     0.078 H 
BRANCH  46  49
ATOM     49  OAA NR3 d   1       3.852 -25.949  20.856  0.00  0.00    -0.398 OA
ATOM     50  H1  NR3 d   1       4.059 -26.836  21.126  0.00  0.00     0.209 HD
ENDBRANCH  46  49
ENDBRANCH  42  46
ENDBRANCH  38  42
ENDBRANCH  34  38
ENDBRANCH  27  34
ENDBRANCH   1  27
TORSDOF 18
