REMARK  18 active torsions:
REMARK  status: ('A' for Active; 'I' for Inactive)
REMARK    1  A    between atoms: CAL_12  and  OAA_1 
REMARK    2  A    between atoms: CAM_13  and  OAB_2 
REMARK    3  A    between atoms: CAQ_17  and  OAC_3 
REMARK    4  A    between atoms: CAR_18  and  OAD_4 
REMARK    5  A    between atoms: CAS_19  and  OAE_5 
REMARK    6  A    between atoms: CAT_20  and  OAF_6 
REMARK    7  A    between atoms: CAU_21  and  OAG_7 
REMARK    8  A    between atoms: CAV_22  and  OAH_8 
REMARK    9  A    between atoms: CAQ_17  and  CAL_12 
REMARK   10  A    between atoms: CAW_23  and  CAM_13 
REMARK   11  A    between atoms: CAS_19  and  CAO_15 
REMARK   12  A    between atoms: CAO_15  and  SAY_25 
REMARK   13  A    between atoms: CAX_24  and  OAP_16 
REMARK   14  A    between atoms: OAP_16  and  SAZ_26 
REMARK   15  A    between atoms: CAT_20  and  CAQ_17 
REMARK   16  A    between atoms: CAX_24  and  CAS_19 
REMARK   17  A    between atoms: CAV_22  and  CAT_20 
REMARK   18  A    between atoms: CAV_22  and  CAX_24 
ROOT
ATOM      1  CAS NR4 d   1      -2.733 -18.915 -21.523  0.00  0.00     0.072 C 
ATOM      2  H19 NR4 d   1      -3.825 -18.788 -21.500  0.00  0.00     0.088 H 
ENDROOT
BRANCH   1   3
ATOM      3  OAE NR4 d   1      -2.224 -18.574 -22.800  0.00  0.00    -0.392 OA
ATOM      4  H5  NR4 d   1      -1.285 -18.719 -22.815  0.00  0.00     0.210 HD
ENDBRANCH   1   3
BRANCH   1   5
ATOM      5  CAO NR4 d   1      -2.083 -18.063 -20.460  0.00  0.00    -0.005 C 
ATOM      6  H15 NR4 d   1      -0.991 -18.172 -20.529  0.00  0.00     0.051 H 
ATOM      7  H16 NR4 d   1      -2.423 -18.401 -19.470  0.00  0.00     0.051 H 
BRANCH   5   8
ATOM      8  SAY NR4 d   1      -2.515 -16.341 -20.672  0.00  0.00    -0.206 SA
ATOM      9  CAN NR4 d   1      -1.154 -15.475 -21.628  0.00  0.00    -0.005 C 
ATOM     10  CAR NR4 d   1      -0.131 -15.267 -20.501  0.00  0.00     0.069 C 
ATOM     11  H13 NR4 d   1      -0.753 -16.109 -22.432  0.00  0.00     0.051 H 
ATOM     12  H14 NR4 d   1      -1.496 -14.519 -22.051  0.00  0.00     0.051 H 
ATOM     13  CAU NR4 d   1      -0.945 -14.617 -19.367  0.00  0.00     0.074 C 
ATOM     14  H18 NR4 d   1       0.255 -16.245 -20.178  0.00  0.00     0.088 H 
ATOM     15  CAW NR4 d   1      -2.027 -15.680 -19.043  0.00  0.00     0.030 C 
ATOM     16  H21 NR4 d   1      -1.386 -13.657 -19.674  0.00  0.00     0.088 H 
ATOM     17  H23 NR4 d   1      -1.566 -16.500 -18.472  0.00  0.00     0.062 H 
BRANCH  10  18
ATOM     18  OAD NR4 d   1       1.014 -14.421 -20.855  0.00  0.00    -0.392 OA
ATOM     19  H4  NR4 d   1       1.484 -14.813 -21.582  0.00  0.00     0.210 HD
ENDBRANCH  10  18
BRANCH  13  20
ATOM     20  OAG NR4 d   1      -0.104 -14.450 -18.214  0.00  0.00    -0.392 OA
ATOM     21  H7  NR4 d   1      -0.605 -14.049 -17.514  0.00  0.00     0.210 HD
ENDBRANCH  13  20
BRANCH  15  22
ATOM     22  CAM NR4 d   1      -3.148 -15.091 -18.141  0.00  0.00     0.030 C 
ATOM     23  H11 NR4 d   1      -3.937 -15.846 -18.011  0.00  0.00     0.075 H 
ATOM     24  H12 NR4 d   1      -2.721 -14.834 -17.160  0.00  0.00     0.075 H 
BRANCH  22  25
ATOM     25  OAB NR4 d   1      -3.716 -13.923 -18.719  0.00  0.00    -0.400 OA
ATOM     26  H2  NR4 d   1      -4.090 -14.140 -19.565  0.00  0.00     0.209 HD
ENDBRANCH  22  25
ENDBRANCH  15  22
ENDBRANCH   5   8
ENDBRANCH   1   5
BRANCH   1  27
ATOM     27  CAX NR4 d   1      -2.353 -20.351 -21.249  0.00  0.00     0.112 C 
ATOM     28  H24 NR4 d   1      -1.276 -20.437 -21.045  0.00  0.00     0.093 H 
BRANCH  27  29
ATOM     29  OAP NR4 d   1      -3.088 -20.832 -20.097  0.00  0.00    -0.246 OA
BRANCH  29  30
ATOM     30  SAZ NR4 d   1      -2.273 -21.345 -18.967  0.00  0.00     0.252 S 
ATOM     31  OAI NR4 d   1      -1.347 -22.420 -19.400  0.00  0.00    -0.572 OA
ATOM     32  OAJ NR4 d   1      -1.485 -20.288 -18.325  0.00  0.00    -0.572 OA
ATOM     33  OAK NR4 d   1      -3.186 -21.913 -17.984  0.00  0.00    -0.572 OA
ENDBRANCH  29  30
ENDBRANCH  27  29
BRANCH  27  34
ATOM     34  CAV NR4 d   1      -2.691 -21.072 -22.524  0.00  0.00     0.091 C 
ATOM     35  H22 NR4 d   1      -2.214 -20.538 -23.359  0.00  0.00     0.091 H 
BRANCH  34  36
ATOM     36  OAH NR4 d   1      -4.097 -21.007 -22.734  0.00  0.00    -0.390 OA
ATOM     37  H8  NR4 d   1      -4.310 -21.407 -23.569  0.00  0.00     0.210 HD
ENDBRANCH  34  36
BRANCH  34  38
ATOM     38  CAT NR4 d   1      -2.104 -22.455 -22.494  0.00  0.00     0.089 C 
ATOM     39  H20 NR4 d   1      -1.079 -22.411 -22.098  0.00  0.00     0.091 H 
BRANCH  38  40
ATOM     40  OAF NR4 d   1      -2.891 -23.299 -21.674  0.00  0.00    -0.390 OA
ATOM     41  H6  NR4 d   1      -2.906 -22.954 -20.789  0.00  0.00     0.210 HD
ENDBRANCH  38  40
BRANCH  38  42
ATOM     42  CAQ NR4 d   1      -2.083 -23.005 -23.894  0.00  0.00     0.083 C 
ATOM     43  H17 NR4 d   1      -1.924 -22.190 -24.615  0.00  0.00     0.090 H 
BRANCH  42  44
ATOM     44  OAC NR4 d   1      -3.385 -23.569 -24.101  0.00  0.00    -0.391 OA
ATOM     45  H3  NR4 d   1      -3.533 -24.262 -23.468  0.00  0.00     0.210 HD
ENDBRANCH  42  44
BRANCH  42  46
ATOM     46  CAL NR4 d   1      -0.941 -24.009 -24.047  0.00  0.00     0.043 C 
ATOM     47  H9  NR4 d   1      -1.278 -24.861 -24.655  0.00  0.00     0.078 H 
ATOM     48  H10 NR4 d   1      -0.086 -23.523 -24.539  0.00  0.00     0.078 H 
BRANCH  46  49
ATOM     49  OAA NR4 d   1      -0.544 -24.478 -22.725  0.00  0.00    -0.398 OA
ATOM     50  H1  NR4 d   1      -1.285 -24.896 -22.303  0.00  0.00     0.209 HD
ENDBRANCH  46  49
ENDBRANCH  42  46
ENDBRANCH  38  42
ENDBRANCH  34  38
ENDBRANCH  27  34
ENDBRANCH   1  27
TORSDOF 18
