REMARK  12 active torsions:
REMARK  status: ('A' for Active; 'I' for Inactive)
REMARK    1  A    between atoms: C1_1  and  O1_7 
REMARK    2  A    between atoms: C2_2  and  O2_6 
REMARK    3  A    between atoms: C5_4  and  C6_8 
REMARK    4  A    between atoms: S4_5  and  C7_10 
REMARK    5  A    between atoms: C6_8  and  O6_9 
REMARK    6  A    between atoms: C7_10  and  C8_11 
REMARK    7  A    between atoms: C8_11  and  C9_12 
REMARK    8  A    between atoms: C8_11  and  O8_15 
REMARK    9  A    between atoms: C9_12  and  C10_13 
REMARK   10  A    between atoms: C9_12  and  O9_16 
REMARK   11  A    between atoms: C10_13  and  O10_14 
REMARK   12  A    between atoms: O9_16  and  S9_17 
ROOT
ATOM      1  C1  SSD d   1      45.593  94.327  35.651  0.00  0.00     0.074 C 
ATOM      2  C2  SSD d   1      46.439  93.662  34.570  0.00  0.00     0.069 C 
ATOM      3  C3  SSD d   1      45.442  93.409  33.420  0.00  0.00    -0.005 C 
ATOM      4  C5  SSD d   1      44.462  93.308  35.967  0.00  0.00     0.030 C 
ATOM      5  S4  SSD d   1      43.991  92.745  34.317  0.00  0.00    -0.206 SA
ATOM      6  H1  SSD d   1      45.178  95.286  35.308  0.00  0.00     0.088 H 
ATOM      7  H2  SSD d   1      46.898  92.724  34.914  0.00  0.00     0.088 H 
ATOM      8  H3  SSD d   1      45.838  92.676  32.701  0.00  0.00     0.051 H 
ATOM      9  H4  SSD d   1      45.194  94.342  32.893  0.00  0.00     0.051 H 
ATOM     10  H5  SSD d   1      44.860  92.463  36.548  0.00  0.00     0.062 H 
ENDROOT
BRANCH   5  11
ATOM     11  C7  SSD d   1      44.328  90.961  34.478  0.00  0.00    -0.005 C 
ATOM     12  H11 SSD d   1      43.918  90.628  35.443  0.00  0.00     0.051 H 
ATOM     13  H12 SSD d   1      45.419  90.825  34.477  0.00  0.00     0.051 H 
BRANCH  11  14
ATOM     14  C8  SSD d   1      43.748  90.063  33.393  0.00  0.00     0.071 C 
ATOM     15  H13 SSD d   1      42.658  90.207  33.347  0.00  0.00     0.088 H 
BRANCH  14  16
ATOM     16  C9  SSD d   1      44.057  88.599  33.737  0.00  0.00     0.105 C 
ATOM     17  H14 SSD d   1      45.142  88.477  33.874  0.00  0.00     0.092 H 
BRANCH  16  18
ATOM     18  C10 SSD d   1      43.576  87.674  32.620  0.00  0.00     0.044 C 
ATOM     19  H15 SSD d   1      43.534  86.633  32.973  0.00  0.00     0.078 H 
ATOM     20  H16 SSD d   1      44.246  87.739  31.750  0.00  0.00     0.078 H 
BRANCH  18  21
ATOM     21  O10 SSD d   1      42.276  88.138  32.282  0.00  0.00    -0.398 OA
ATOM     22  H17 SSD d   1      42.329  89.040  31.989  0.00  0.00     0.209 HD
ENDBRANCH  18  21
ENDBRANCH  16  18
BRANCH  16  23
ATOM     23  O9  SSD d   1      43.369  88.244  34.950  0.00  0.00    -0.247 OA
BRANCH  23  24
ATOM     24  S9  SSD d   1      44.076  87.612  36.052  0.00  0.00     0.252 S 
ATOM     25  O11 SSD d   1      45.018  88.545  36.741  0.00  0.00    -0.572 OA
ATOM     26  O12 SSD d   1      43.062  87.185  37.099  0.00  0.00    -0.572 OA
ATOM     27  O13 SSD d   1      44.847  86.434  35.537  0.00  0.00    -0.572 OA
ENDBRANCH  23  24
ENDBRANCH  16  23
ENDBRANCH  14  16
BRANCH  14  28
ATOM     28  O8  SSD d   1      44.313  90.377  32.129  0.00  0.00    -0.392 OA
ATOM     29  H18 SSD d   1      45.254  90.249  32.163  0.00  0.00     0.210 HD
ENDBRANCH  14  28
ENDBRANCH  11  14
ENDBRANCH   5  11
BRANCH   4  30
ATOM     30  C6  SSD d   1      43.323  93.946  36.785  0.00  0.00     0.030 C 
ATOM     31  H8  SSD d   1      43.697  94.195  37.789  0.00  0.00     0.075 H 
ATOM     32  H9  SSD d   1      42.495  93.227  36.870  0.00  0.00     0.075 H 
BRANCH  30  33
ATOM     33  O6  SSD d   1      42.848  95.128  36.160  0.00  0.00    -0.400 OA
ATOM     34  H10 SSD d   1      42.520  94.917  35.294  0.00  0.00     0.209 HD
ENDBRANCH  30  33
ENDBRANCH   4  30
BRANCH   2  35
ATOM     35  O2  SSD d   1      47.456  94.628  34.197  0.00  0.00    -0.392 OA
ATOM     36  H6  SSD d   1      47.940  94.303  33.447  0.00  0.00     0.210 HD
ENDBRANCH   2  35
BRANCH   1  37
ATOM     37  O1  SSD d   1      46.419  94.519  36.799  0.00  0.00    -0.392 OA
ATOM     38  H7  SSD d   1      47.105  95.143  36.593  0.00  0.00     0.210 HD
ENDBRANCH   1  37
TORSDOF 12
