REMARK  5 active torsions:
REMARK  status: ('A' for Active; 'I' for Inactive)
REMARK    1  A    between atoms: C1_1  and  N3_7 
REMARK    2  A    between atoms: N2_5  and  C6_10 
REMARK    3  A    between atoms: C3_6  and  C4_8 
REMARK    4  A    between atoms: C3_6  and  C5_9 
REMARK    5  A    between atoms: C6_10  and  C7_11 
ROOT
ATOM      1  C1  BDJ d   1      21.879  10.243  24.606  0.00  0.00     0.678 A 
ATOM      2  N1  BDJ d   1      21.805  10.828  25.818  0.00  0.00    -0.209 N 
ATOM      3  O1  BDJ d   1      19.408  12.407  23.771  0.00  0.00    -0.270 OA
ATOM      4  C2  BDJ d   1      20.296  11.721  24.284  0.00  0.00     0.266 A 
ATOM      5  N2  BDJ d   1      21.012  10.743  23.705  0.00  0.00    -0.145 N 
ATOM      6  C3  BDJ d   1      20.770  11.842  25.727  0.00  0.00     0.122 A 
ATOM      7  H1  BDJ d   1      22.372  10.600  26.647  0.00  0.00     0.179 HD
ENDROOT
BRANCH   5   8
ATOM      8  C6  BDJ d   1      20.880  10.302  22.318  0.00  0.00     0.043 C 
ATOM      9  H10 BDJ d   1      19.852  10.486  21.974  0.00  0.00     0.073 H 
ATOM     10  H11 BDJ d   1      21.100   9.226  22.255  0.00  0.00     0.073 H 
BRANCH   8  11
ATOM     11  C7  BDJ d   1      21.848  11.064  21.437  0.00  0.00    -0.038 A 
ATOM     12  C8  BDJ d   1      21.588  12.427  21.103  0.00  0.00    -0.075 A 
ATOM     13  C9  BDJ d   1      22.499  13.150  20.276  0.00  0.00    -0.081 A 
ATOM     14  H12 BDJ d   1      20.696  12.915  21.479  0.00  0.00     0.084 H 
ATOM     15  C10 BDJ d   1      23.671  12.513  19.785  0.00  0.00    -0.062 A 
ATOM     16  H13 BDJ d   1      22.297  14.184  20.022  0.00  0.00     0.083 H 
ATOM     17  C11 BDJ d   1      23.935  11.157  20.115  0.00  0.00     0.034 A 
ATOM     18  H14 BDJ d   1      24.364  13.063  19.158  0.00  0.00     0.086 H 
ATOM     19  C12 BDJ d   1      23.027  10.430  20.941  0.00  0.00    -0.054 A 
ATOM     20 CL1  BDJ d   1      25.362  10.397  19.510  0.00  0.00    -0.084 Cl
ATOM     21  H15 BDJ d   1      23.232   9.396  21.192  0.00  0.00     0.086 H 
ENDBRANCH   8  11
ENDBRANCH   5   8
BRANCH   1  22
ATOM     22  N3  BDJ d   1      22.722   9.261  24.310  0.00  0.00    -0.234 N 
ATOM     23  H2  BDJ d   1      23.370   8.905  25.027  0.00  0.00     0.174 HD
ATOM     24  H3  BDJ d   1      22.728   8.855  23.363  0.00  0.00     0.174 HD
ENDBRANCH   1  22
BRANCH   6  25
ATOM     25  C4  BDJ d   1      19.562  11.483  26.601  0.00  0.00    -0.044 C 
ATOM     26  H4  BDJ d   1      18.797  12.269  26.510  0.00  0.00     0.031 H 
ATOM     27  H5  BDJ d   1      19.880  11.400  27.651  0.00  0.00     0.031 H 
ATOM     28  H6  BDJ d   1      19.142  10.522  26.269  0.00  0.00     0.031 H 
ENDBRANCH   6  25
BRANCH   6  29
ATOM     29  C5  BDJ d   1      21.346  13.266  25.933  0.00  0.00    -0.044 C 
ATOM     30  H7  BDJ d   1      20.534  14.004  25.857  0.00  0.00     0.031 H 
ATOM     31  H8  BDJ d   1      22.102  13.471  25.160  0.00  0.00     0.031 H 
ATOM     32  H9  BDJ d   1      21.811  13.333  26.928  0.00  0.00     0.031 H 
ENDBRANCH   6  29
TORSDOF 5
