REMARK  8 active torsions:
REMARK  status: ('A' for Active; 'I' for Inactive)
REMARK    1  A    between atoms: N5_5  and  C10_10 
REMARK    2  A    between atoms: C6_6  and  N16_16 
REMARK    3  A    between atoms: C12_12  and  C28_28 
REMARK    4  A    between atoms: C13_13  and  O30_30 
REMARK    5  A    between atoms: C14_14  and  O31_31 
REMARK    6  A    between atoms: N16_16  and  C17_17 
REMARK    7  A    between atoms: C17_17  and  C18_18 
REMARK    8  A    between atoms: C28_28  and  O29_29 
ROOT
ATOM      1  N1  3P1 d   1      12.514 -10.074   6.002  0.00  0.00    -0.222 NA
ATOM      2  C2  3P1 d   1      12.629  -9.042   6.856  0.00  0.00     0.091 A 
ATOM      3  N3  3P1 d   1      13.705  -8.247   6.820  0.00  0.00    -0.221 NA
ATOM      4  C4  3P1 d   1      13.476 -10.322   5.087  0.00  0.00     0.156 A 
ATOM      5  N5  3P1 d   1      15.838  -7.866   5.679  0.00  0.00    -0.132 N 
ATOM      6  C6  3P1 d   1      16.453  -8.488   4.651  0.00  0.00     0.707 A 
ATOM      7  N7  3P1 d   1      15.678  -9.523   4.261  0.00  0.00    -0.057 NA
ATOM      8  C8  3P1 d   1      14.585  -9.525   5.040  0.00  0.00     0.168 A 
ATOM      9  C9  3P1 d   1      14.697  -8.484   5.925  0.00  0.00     0.182 A 
ATOM     10  N15 3P1 d   1      13.345 -11.334   4.241  0.00  0.00    -0.382 N 
ATOM     11  H1  3P1 d   1      11.844  -8.852   7.579  0.00  0.00     0.146 H 
ATOM     12  H6  3P1 d   1      14.080 -11.521   3.544  0.00  0.00     0.157 HD
ATOM     13  H7  3P1 d   1      12.508 -11.933   4.280  0.00  0.00     0.157 HD
ENDROOT
BRANCH   6  14
ATOM     14  N16 3P1 d   1      17.638  -8.136   4.125  0.00  0.00    -0.218 N 
ATOM     15  H8  3P1 d   1      18.104  -7.276   4.449  0.00  0.00     0.178 HD
BRANCH  14  16
ATOM     16  C17 3P1 d   1      18.269  -8.952   3.107  0.00  0.00     0.049 C 
ATOM     17  H9  3P1 d   1      18.839  -8.307   2.422  0.00  0.00     0.074 H 
ATOM     18  H10 3P1 d   1      17.496  -9.494   2.542  0.00  0.00     0.074 H 
BRANCH  16  19
ATOM     19  C18 3P1 d   1      19.208  -9.948   3.760  0.00  0.00     0.053 A 
ATOM     20  N19 3P1 d   1      19.125 -11.268   3.430  0.00  0.00    -0.251 NA
ATOM     21  C23 3P1 d   1      19.960 -12.189   4.001  0.00  0.00     0.067 A 
ATOM     22  C22 3P1 d   1      20.908 -11.786   4.927  0.00  0.00    -0.007 A 
ATOM     23  C24 3P1 d   1      19.853 -13.551   3.648  0.00  0.00    -0.054 A 
ATOM     24  C20 3P1 d   1      21.012 -10.440   5.263  0.00  0.00    -0.069 A 
ATOM     25  C27 3P1 d   1      21.765 -12.725   5.508  0.00  0.00    -0.071 A 
ATOM     26  C21 3P1 d   1      20.153  -9.516   4.669  0.00  0.00    -0.057 A 
ATOM     27  H11 3P1 d   1      21.755 -10.112   5.981  0.00  0.00     0.085 H 
ATOM     28  H12 3P1 d   1      20.227  -8.464   4.920  0.00  0.00     0.086 H 
ATOM     29  C26 3P1 d   1      21.664 -14.085   5.159  0.00  0.00    -0.082 A 
ATOM     30  H16 3P1 d   1      22.509 -12.405   6.229  0.00  0.00     0.084 H 
ATOM     31  C25 3P1 d   1      20.706 -14.493   4.230  0.00  0.00    -0.081 A 
ATOM     32  H15 3P1 d   1      22.328 -14.813   5.611  0.00  0.00     0.083 H 
ATOM     33  H14 3P1 d   1      20.623 -15.540   3.960  0.00  0.00     0.083 H 
ATOM     34  H13 3P1 d   1      19.109 -13.867   2.925  0.00  0.00     0.087 H 
ENDBRANCH  16  19
ENDBRANCH  14  16
ENDBRANCH   6  14
BRANCH   5  35
ATOM     35  C10 3P1 d   1      16.323  -6.720   6.367  0.00  0.00     0.156 C 
ATOM     36  O11 3P1 d   1      16.827  -5.779   5.406  0.00  0.00    -0.353 OA
ATOM     37  C12 3P1 d   1      17.745  -4.913   6.184  0.00  0.00     0.088 C 
ATOM     38  C13 3P1 d   1      18.216  -5.780   7.369  0.00  0.00     0.091 C 
ATOM     39  H3  3P1 d   1      17.239  -3.998   6.527  0.00  0.00     0.090 H 
ATOM     40  C14 3P1 d   1      17.538  -7.112   7.141  0.00  0.00     0.105 C 
ATOM     41  H4  3P1 d   1      19.311  -5.881   7.388  0.00  0.00     0.091 H 
ATOM     42  H5  3P1 d   1      18.178  -7.809   6.581  0.00  0.00     0.093 H 
ATOM     43  H2  3P1 d   1      15.544  -6.282   7.008  0.00  0.00     0.123 H 
BRANCH  37  44
ATOM     44  C28 3P1 d   1      18.966  -4.570   5.324  0.00  0.00     0.043 C 
ATOM     45  H17 3P1 d   1      19.737  -4.103   5.955  0.00  0.00     0.078 H 
ATOM     46  H18 3P1 d   1      18.668  -3.870   4.530  0.00  0.00     0.078 H 
BRANCH  44  47
ATOM     47  O29 3P1 d   1      19.499  -5.773   4.727  0.00  0.00    -0.398 OA
ATOM     48  H19 3P1 d   1      18.834  -6.176   4.182  0.00  0.00     0.209 HD
ENDBRANCH  44  47
ENDBRANCH  37  44
BRANCH  38  49
ATOM     49  O30 3P1 d   1      17.750  -5.212   8.575  0.00  0.00    -0.390 OA
ATOM     50  H20 3P1 d   1      17.950  -5.796   9.297  0.00  0.00     0.210 HD
ENDBRANCH  38  49
BRANCH  40  51
ATOM     51  O31 3P1 d   1      17.141  -7.695   8.415  0.00  0.00    -0.388 OA
ATOM     52  H21 3P1 d   1      17.911  -7.825   8.956  0.00  0.00     0.210 HD
ENDBRANCH  40  51
ENDBRANCH   5  35
TORSDOF 8
