REMARK  8 active torsions:
REMARK  status: ('A' for Active; 'I' for Inactive)
REMARK    1  A    between atoms: N5_5  and  C10_10 
REMARK    2  A    between atoms: C6_6  and  N16_16 
REMARK    3  A    between atoms: C12_12  and  C28_28 
REMARK    4  A    between atoms: C13_13  and  O30_30 
REMARK    5  A    between atoms: C14_14  and  O31_31 
REMARK    6  A    between atoms: N16_16  and  C17_17 
REMARK    7  A    between atoms: C17_17  and  C18_18 
REMARK    8  A    between atoms: C28_28  and  O29_29 
ROOT
ATOM      1  N1  3P1 d   1      18.070  -5.589  -2.752  0.00  0.00    -0.222 NA
ATOM      2  C2  3P1 d   1      16.830  -5.694  -2.274  0.00  0.00     0.091 A 
ATOM      3  N3  3P1 d   1      16.446  -5.011  -1.213  0.00  0.00    -0.221 NA
ATOM      4  C4  3P1 d   1      18.978  -4.855  -2.128  0.00  0.00     0.156 A 
ATOM      5  N5  3P1 d   1      17.180  -3.505   0.548  0.00  0.00    -0.132 N 
ATOM      6  C6  3P1 d   1      18.379  -2.919   0.802  0.00  0.00     0.707 A 
ATOM      7  N7  3P1 d   1      19.250  -3.310  -0.178  0.00  0.00    -0.057 NA
ATOM      8  C8  3P1 d   1      18.603  -4.141  -0.990  0.00  0.00     0.168 A 
ATOM      9  C9  3P1 d   1      17.312  -4.241  -0.552  0.00  0.00     0.182 A 
ATOM     10  N15 3P1 d   1      20.255  -4.809  -2.598  0.00  0.00    -0.382 N 
ATOM     11  H1  3P1 d   1      16.124  -6.353  -2.767  0.00  0.00     0.146 H 
ATOM     12  H6  3P1 d   1      20.962  -4.238  -2.113  0.00  0.00     0.157 HD
ATOM     13  H7  3P1 d   1      20.514  -5.345  -3.438  0.00  0.00     0.157 HD
ENDROOT
BRANCH   6  14
ATOM     14  N16 3P1 d   1      18.660  -2.064   1.826  0.00  0.00    -0.218 N 
ATOM     15  H8  3P1 d   1      17.909  -1.764   2.464  0.00  0.00     0.178 HD
BRANCH  14  16
ATOM     16  C17 3P1 d   1      20.040  -1.564   2.026  0.00  0.00     0.049 C 
ATOM     17  H9  3P1 d   1      20.001  -0.564   2.483  0.00  0.00     0.074 H 
ATOM     18  H10 3P1 d   1      20.548  -1.502   1.052  0.00  0.00     0.074 H 
BRANCH  16  19
ATOM     19  C18 3P1 d   1      20.841  -2.533   2.967  0.00  0.00     0.053 A 
ATOM     20  N19 3P1 d   1      22.187  -2.673   2.803  0.00  0.00    -0.251 NA
ATOM     21  C23 3P1 d   1      22.910  -3.489   3.621  0.00  0.00     0.067 A 
ATOM     22  C22 3P1 d   1      22.284  -4.179   4.650  0.00  0.00    -0.007 A 
ATOM     23  C24 3P1 d   1      24.300  -3.634   3.421  0.00  0.00    -0.054 A 
ATOM     24  C20 3P1 d   1      20.911  -4.059   4.828  0.00  0.00    -0.069 A 
ATOM     25  C27 3P1 d   1      23.032  -5.019   5.486  0.00  0.00    -0.071 A 
ATOM     26  C21 3P1 d   1      20.186  -3.226   3.990  0.00  0.00    -0.057 A 
ATOM     27  H11 3P1 d   1      20.411  -4.612   5.615  0.00  0.00     0.085 H 
ATOM     28  H12 3P1 d   1      19.117  -3.112   4.127  0.00  0.00     0.086 H 
ATOM     29  C26 3P1 d   1      24.414  -5.166   5.282  0.00  0.00    -0.082 A 
ATOM     30  H16 3P1 d   1      22.544  -5.556   6.291  0.00  0.00     0.084 H 
ATOM     31  C25 3P1 d   1      25.047  -4.466   4.260  0.00  0.00    -0.081 A 
ATOM     32  H15 3P1 d   1      24.988  -5.826   5.922  0.00  0.00     0.083 H 
ATOM     33  H14 3P1 d   1      26.117  -4.565   4.115  0.00  0.00     0.083 H 
ATOM     34  H13 3P1 d   1      24.789  -3.099   2.615  0.00  0.00     0.087 H 
ENDBRANCH  16  19
ENDBRANCH  14  16
ENDBRANCH   6  14
BRANCH   5  35
ATOM     35  C10 3P1 d   1      15.939  -3.399   1.340  0.00  0.00     0.156 C 
ATOM     36  O11 3P1 d   1      15.605  -2.017   1.578  0.00  0.00    -0.353 OA
ATOM     37  C12 3P1 d   1      14.820  -1.988   2.840  0.00  0.00     0.088 C 
ATOM     38  C13 3P1 d   1      15.011  -3.382   3.507  0.00  0.00     0.091 C 
ATOM     39  H3  3P1 d   1      13.755  -1.790   2.649  0.00  0.00     0.090 H 
ATOM     40  C14 3P1 d   1      16.132  -3.991   2.729  0.00  0.00     0.105 C 
ATOM     41  H4  3P1 d   1      15.266  -3.290   4.573  0.00  0.00     0.091 H 
ATOM     42  H5  3P1 d   1      17.110  -3.718   3.153  0.00  0.00     0.093 H 
ATOM     43  H2  3P1 d   1      15.122  -3.911   0.810  0.00  0.00     0.123 H 
BRANCH  37  44
ATOM     44  C28 3P1 d   1      15.435  -0.872   3.723  0.00  0.00     0.043 C 
ATOM     45  H17 3P1 d   1      14.942  -0.869   4.706  0.00  0.00     0.078 H 
ATOM     46  H18 3P1 d   1      15.289   0.104   3.236  0.00  0.00     0.078 H 
BRANCH  44  47
ATOM     47  O29 3P1 d   1      16.834  -1.117   3.891  0.00  0.00    -0.398 OA
ATOM     48  H19 3P1 d   1      16.959  -1.960   4.311  0.00  0.00     0.209 HD
ENDBRANCH  44  47
ENDBRANCH  37  44
BRANCH  38  49
ATOM     49  O30 3P1 d   1      13.791  -4.165   3.345  0.00  0.00    -0.390 OA
ATOM     50  H20 3P1 d   1      13.940  -5.049   3.658  0.00  0.00     0.210 HD
ENDBRANCH  38  49
BRANCH  40  51
ATOM     51  O31 3P1 d   1      16.000  -5.434   2.679  0.00  0.00    -0.388 OA
ATOM     52  H21 3P1 d   1      16.015  -5.783   3.562  0.00  0.00     0.210 HD
ENDBRANCH  40  51
ENDBRANCH   5  35
TORSDOF 8
