REMARK  5 active torsions:
REMARK  status: ('A' for Active; 'I' for Inactive)
REMARK    1  A    between atoms: C12_12  and  N1_1 
REMARK    2  A    between atoms: C6_6  and  C11_11 
REMARK    3  A    between atoms: C6_6  and  C12_12 
REMARK    4  A    between atoms: C17_17  and  O20_20 
REMARK    5  A    between atoms: O20_20  and  C21_21 
ROOT
ATOM      1  C12 727 d   1       5.593   8.526  22.837  0.00  0.00     0.054 C 
ATOM      2  H4  727 d   1       4.527   8.256  22.831  0.00  0.00     0.072 H 
ATOM      3  H5  727 d   1       6.130   7.913  22.099  0.00  0.00     0.072 H 
ENDROOT
BRANCH   1   4
ATOM      4  N1  727 d   1       6.158   8.344  24.159  0.00  0.00    -0.253 N 
ATOM      5  N2  727 d   1       7.538   8.264  24.353  0.00  0.00    -0.295 N 
ATOM      6  C14 727 d   1       7.649   8.239  25.725  0.00  0.00     0.064 A 
ATOM      7  H1  727 d   1       8.286   8.232  23.646  0.00  0.00     0.187 HD
ATOM      8  C13 727 d   1       6.411   8.309  26.358  0.00  0.00     0.064 A 
ATOM      9  C15 727 d   1       8.858   8.137  26.423  0.00  0.00    -0.052 A 
ATOM     10  C3  727 d   1       5.424   8.370  25.298  0.00  0.00     0.274 A 
ATOM     11  C18 727 d   1       6.287   8.295  27.706  0.00  0.00    -0.033 A 
ATOM     12  O19 727 d   1       4.202   8.424  25.387  0.00  0.00    -0.266 OA
ATOM     13  C17 727 d   1       7.474   8.201  28.410  0.00  0.00     0.069 A 
ATOM     14  H8  727 d   1       5.324   8.353  28.200  0.00  0.00     0.089 H 
ATOM     15  C16 727 d   1       8.756   8.118  27.771  0.00  0.00    -0.049 A 
ATOM     16  H7  727 d   1       9.652   8.039  28.375  0.00  0.00     0.087 H 
ATOM     17  H6  727 d   1       9.814   8.077  25.916  0.00  0.00     0.087 H 
BRANCH  13  18
ATOM     18  O20 727 d   1       7.297   8.194  29.726  0.00  0.00    -0.356 OA
BRANCH  18  19
ATOM     19  C21 727 d   1       8.525   8.072  30.533  0.00  0.00     0.010 C 
ATOM     20  H9  727 d   1       8.264   8.077  31.602  0.00  0.00     0.066 H 
ATOM     21  H10 727 d   1       9.193   8.919  30.315  0.00  0.00     0.066 H 
ATOM     22  H11 727 d   1       9.035   7.130  30.285  0.00  0.00     0.066 H 
ENDBRANCH  18  19
ENDBRANCH  13  18
ENDBRANCH   1   4
BRANCH   1  23
ATOM     23  C6  727 d   1       5.777  10.054  22.524  0.00  0.00     0.161 A 
ATOM     24  C5  727 d   1       7.316  10.289  22.531  0.00  0.00     0.260 A 
ATOM     25  N4  727 d   1       7.598  11.154  23.560  0.00  0.00    -0.277 N 
ATOM     26  O10 727 d   1       8.131   9.635  21.794  0.00  0.00    -0.270 OA
ATOM     27  C8  727 d   1       6.409  11.621  24.181  0.00  0.00     0.324 A 
ATOM     28  H2  727 d   1       8.521  11.421  23.836  0.00  0.00     0.173 HD
ATOM     29  N7  727 d   1       5.360  10.980  23.612  0.00  0.00    -0.319 N 
ATOM     30  O9  727 d   1       6.308  12.511  25.016  0.00  0.00    -0.247 OA
ATOM     31  H3  727 d   1       4.410  11.114  23.892  0.00  0.00     0.166 HD
BRANCH  23  32
ATOM     32  C11 727 d   1       5.089  10.501  21.221  0.00  0.00    -0.019 A 
ATOM     33  C22 727 d   1       5.707  11.486  20.348  0.00  0.00    -0.074 A 
ATOM     34  C23 727 d   1       5.048  11.841  19.132  0.00  0.00    -0.082 A 
ATOM     35  H12 727 d   1       6.653  11.943  20.616  0.00  0.00     0.084 H 
ATOM     36  C24 727 d   1       3.804  11.251  18.789  0.00  0.00    -0.083 A 
ATOM     37  H13 727 d   1       5.501  12.566  18.466  0.00  0.00     0.083 H 
ATOM     38  C25 727 d   1       3.194  10.303  19.629  0.00  0.00    -0.082 A 
ATOM     39  H14 727 d   1       3.316  11.536  17.864  0.00  0.00     0.083 H 
ATOM     40  C26 727 d   1       3.825   9.935  20.842  0.00  0.00    -0.074 A 
ATOM     41  H15 727 d   1       2.247   9.857  19.350  0.00  0.00     0.083 H 
ATOM     42  H16 727 d   1       3.346   9.214  21.495  0.00  0.00     0.084 H 
ENDBRANCH  23  32
ENDBRANCH   1  23
TORSDOF 5
