REMARK  6 active torsions:
REMARK  status: ('A' for Active; 'I' for Inactive)
REMARK    1  A    between atoms: C3_3  and  C8_8 
REMARK    2  A    between atoms: C23_23  and  C3_3 
REMARK    3  A    between atoms: C11_11  and  C14_14 
REMARK    4  A    between atoms: N20_20  and  C23_23 
REMARK    5  A    between atoms: C28_28  and  O31_31 
REMARK    6  A    between atoms: O31_31  and  C32_32 
ROOT
ATOM      1  N1  Z93 d   1      19.353  13.364  -4.810  0.00  0.00    -0.277 N 
ATOM      2  C2  Z93 d   1      18.366  14.073  -5.456  0.00  0.00     0.260 A 
ATOM      3  C3  Z93 d   1      18.368  13.717  -6.979  0.00  0.00     0.159 A 
ATOM      4  N4  Z93 d   1      19.415  12.681  -6.950  0.00  0.00    -0.319 N 
ATOM      5  C5  Z93 d   1      19.989  12.493  -5.651  0.00  0.00     0.324 A 
ATOM      6  O6  Z93 d   1      20.890  11.711  -5.273  0.00  0.00    -0.247 OA
ATOM      7  O7  Z93 d   1      17.643  14.911  -4.939  0.00  0.00    -0.270 OA
ATOM      8  H1  Z93 d   1      19.578  13.473  -3.842  0.00  0.00     0.173 HD
ATOM      9  H2  Z93 d   1      19.697  12.161  -7.756  0.00  0.00     0.166 HD
ENDROOT
BRANCH   3  10
ATOM     10  C8  Z93 d   1      17.062  13.057  -7.361  0.00  0.00    -0.019 A 
ATOM     11  C9  Z93 d   1      16.570  13.133  -8.696  0.00  0.00    -0.073 A 
ATOM     12  C10 Z93 d   1      15.345  12.536  -9.039  0.00  0.00    -0.072 A 
ATOM     13  H3  Z93 d   1      17.145  13.655  -9.453  0.00  0.00     0.084 H 
ATOM     14  C11 Z93 d   1      14.565  11.850  -8.068  0.00  0.00    -0.025 A 
ATOM     15  H4  Z93 d   1      14.989  12.600 -10.061  0.00  0.00     0.084 H 
ATOM     16  C12 Z93 d   1      15.028  11.783  -6.721  0.00  0.00    -0.072 A 
ATOM     17  C13 Z93 d   1      16.264  12.370  -6.367  0.00  0.00    -0.073 A 
ATOM     18  H5  Z93 d   1      14.431  11.281  -5.968  0.00  0.00     0.084 H 
ATOM     19  H6  Z93 d   1      16.617  12.306  -5.344  0.00  0.00     0.084 H 
BRANCH  14  20
ATOM     20  C14 Z93 d   1      13.280  11.214  -8.436  0.00  0.00    -0.008 A 
ATOM     21  C15 Z93 d   1      12.259  10.903  -7.476  0.00  0.00    -0.070 A 
ATOM     22  C16 Z93 d   1      11.044  10.311  -7.861  0.00  0.00    -0.065 A 
ATOM     23  H7  Z93 d   1      12.429  11.130  -6.430  0.00  0.00     0.085 H 
ATOM     24  C17 Z93 d   1      10.844  10.041  -9.211  0.00  0.00     0.002 A 
ATOM     25  H8  Z93 d   1      10.284  10.071  -7.126  0.00  0.00     0.085 H 
ATOM     26  N18 Z93 d   1      11.757  10.322 -10.189  0.00  0.00    -0.272 NA
ATOM     27  H9  Z93 d   1       9.908   9.580  -9.505  0.00  0.00     0.114 H 
ATOM     28  C19 Z93 d   1      12.953  10.903  -9.784  0.00  0.00     0.012 A 
ATOM     29  H10 Z93 d   1      13.686  11.135 -10.548  0.00  0.00     0.116 H 
ENDBRANCH  14  20
ENDBRANCH   3  10
BRANCH   3  30
ATOM     30  C23 Z93 d   1      18.740  15.072  -7.769  0.00  0.00     0.034 C 
ATOM     31  H13 Z93 d   1      17.991  15.850  -7.559  0.00  0.00     0.069 H 
ATOM     32  H14 Z93 d   1      18.776  14.881  -8.852  0.00  0.00     0.069 H 
BRANCH  30  33
ATOM     33  N20 Z93 d   1      20.059  15.499  -7.289  0.00  0.00    -0.341 N 
ATOM     34  C21 Z93 d   1      20.272  16.286  -6.055  0.00  0.00     0.023 A 
ATOM     35  C25 Z93 d   1      21.764  16.282  -5.953  0.00  0.00    -0.024 A 
ATOM     36  H11 Z93 d   1      19.808  15.800  -5.184  0.00  0.00     0.071 H 
ATOM     37  H12 Z93 d   1      19.879  17.308  -6.157  0.00  0.00     0.071 H 
ATOM     38  C24 Z93 d   1      22.360  15.532  -7.034  0.00  0.00     0.042 A 
ATOM     39  C26 Z93 d   1      22.537  16.913  -4.985  0.00  0.00    -0.072 A 
ATOM     40  C22 Z93 d   1      21.247  15.020  -7.870  0.00  0.00     0.254 A 
ATOM     41  C29 Z93 d   1      23.773  15.375  -7.180  0.00  0.00    -0.035 A 
ATOM     42  O30 Z93 d   1      21.349  14.352  -8.881  0.00  0.00    -0.267 OA
ATOM     43  C28 Z93 d   1      24.558  16.013  -6.185  0.00  0.00     0.069 A 
ATOM     44  H17 Z93 d   1      24.213  14.809  -7.993  0.00  0.00     0.089 H 
ATOM     45  C27 Z93 d   1      23.944  16.756  -5.112  0.00  0.00    -0.050 A 
ATOM     46  H16 Z93 d   1      24.585  17.216  -4.368  0.00  0.00     0.087 H 
ATOM     47  H15 Z93 d   1      22.093  17.490  -4.182  0.00  0.00     0.084 H 
BRANCH  43  48
ATOM     48  O31 Z93 d   1      25.948  15.922  -6.358  0.00  0.00    -0.356 OA
BRANCH  48  49
ATOM     49  C32 Z93 d   1      26.808  16.565  -5.376  0.00  0.00     0.010 C 
ATOM     50  H18 Z93 d   1      27.861  16.404  -5.650  0.00  0.00     0.066 H 
ATOM     51  H19 Z93 d   1      26.617  16.133  -4.383  0.00  0.00     0.066 H 
ATOM     52  H20 Z93 d   1      26.596  17.644  -5.353  0.00  0.00     0.066 H 
ENDBRANCH  48  49
ENDBRANCH  43  48
ENDBRANCH  30  33
ENDBRANCH   3  30
TORSDOF 6
