REMARK  3 active torsions:
REMARK  status: ('A' for Active; 'I' for Inactive)
REMARK    1  A    between atoms: C3'_3  and  O3'_4 
REMARK    2  A    between atoms: C2'_5  and  O2'_6 
REMARK    3  A    between atoms: C1'_7  and  N9_8 
ROOT
ATOM      1  C4' SAH d   1      21.580  -7.966   8.514  0.00  0.00     0.048 C 
ATOM      2  O4' SAH d   1      22.084  -9.251   8.897  0.00  0.00    -0.361 OA
ATOM      3  C3' SAH d   1      21.401  -7.164   9.792  0.00  0.00     0.085 C 
ATOM      4  C2' SAH d   1      21.749  -8.108  10.935  0.00  0.00     0.104 C 
ATOM      5  C1' SAH d   1      22.358  -9.341  10.301  0.00  0.00     0.139 C 
ATOM      6  H1  SAH d   1      20.615  -8.076   7.998  0.00  0.00     0.078 H 
ATOM      7  H2  SAH d   1      22.296  -7.462   7.848  0.00  0.00     0.078 H 
ATOM      8  H3  SAH d   1      22.074  -6.294   9.796  0.00  0.00     0.090 H 
ATOM      9  H5  SAH d   1      22.462  -7.632  11.625  0.00  0.00     0.093 H 
ATOM     10  H7  SAH d   1      21.849 -10.229  10.704  0.00  0.00     0.122 H 
ENDROOT
BRANCH   5  11
ATOM     11  N9  SAH d   1      23.822  -9.495  10.586  0.00  0.00    -0.294 N 
ATOM     12  C8  SAH d   1      24.688 -10.208   9.832  0.00  0.00     0.071 A 
ATOM     13  N7  SAH d   1      25.941 -10.174  10.352  0.00  0.00    -0.236 NA
ATOM     14  H8  SAH d   1      24.415 -10.742   8.923  0.00  0.00     0.144 H 
ATOM     15  C5  SAH d   1      25.902  -9.429  11.466  0.00  0.00     0.149 A 
ATOM     16  C6  SAH d   1      26.884  -8.987  12.492  0.00  0.00     0.155 A 
ATOM     17  C4  SAH d   1      24.506  -8.990  11.613  0.00  0.00     0.167 A 
ATOM     18  N6  SAH d   1      28.200  -9.330  12.434  0.00  0.00    -0.382 N 
ATOM     19  N1  SAH d   1      26.427  -8.206  13.492  0.00  0.00    -0.222 NA
ATOM     20  H9  SAH d   1      28.850  -9.004  13.164  0.00  0.00     0.157 HD
ATOM     21  H10 SAH d   1      28.546  -9.915  11.660  0.00  0.00     0.157 HD
ATOM     22  C2  SAH d   1      25.140  -7.843  13.560  0.00  0.00     0.091 A 
ATOM     23  N3  SAH d   1      24.202  -8.212  12.670  0.00  0.00    -0.222 NA
ATOM     24  H11 SAH d   1      24.834  -7.211  14.386  0.00  0.00     0.146 H 
ENDBRANCH   5  11
BRANCH   4  25
ATOM     25  O2' SAH d   1      20.555  -8.486  11.644  0.00  0.00    -0.389 OA
ATOM     26  H6  SAH d   1      19.959  -8.924  11.048  0.00  0.00     0.210 HD
ENDBRANCH   4  25
BRANCH   3  27
ATOM     27  O3' SAH d   1      20.040  -6.720   9.909  0.00  0.00    -0.391 OA
ATOM     28  H4  SAH d   1      19.463  -7.474   9.930  0.00  0.00     0.210 HD
ENDBRANCH   3  27
TORSDOF 3
