REMARK  14 active torsions:
REMARK  status: ('A' for Active; 'I' for Inactive)
REMARK    1  A    between atoms: C2_4  and  C1_1 
REMARK       I    between atoms: C1_1  and  N9_18 
REMARK    2  A    between atoms: N1_2  and  C2_4 
REMARK       I    between atoms: C6_13  and  N1_2 
REMARK    3  A    between atoms: C2_4  and  C3_7 
REMARK    4  A    between atoms: N2_5  and  C7_14 
REMARK       I    between atoms: C11_21  and  N2_5 
REMARK    5  A    between atoms: C3_7  and  C4_9 
REMARK    6  A    between atoms: C4_9  and  C5_11 
REMARK    7  A    between atoms: C7_14  and  C6_13 
REMARK    8  A    between atoms: C7_14  and  C8_15 
REMARK    9  A    between atoms: C8_15  and  C9_17 
REMARK   10  A    between atoms: C9_17  and  C10_20 
REMARK   11  A    between atoms: C12_22  and  C11_21 
REMARK   12  A    between atoms: C13_23  and  C12_22 
REMARK   13  A    between atoms: C13_23  and  C27_32 
REMARK   14  A    between atoms: C16_25  and  C21_26 
ROOT
ATOM      1  C7  EEC d   1       8.664  28.548   5.321  0.00  0.00     0.090 C 
ATOM      2  H8  EEC d   1       9.714  28.320   5.557  0.00  0.00     0.087 H 
ENDROOT
BRANCH   1   3
ATOM      3  N2  EEC d   1       8.015  27.473   4.594  0.00  0.00    -0.348 N 
ATOM      4  C11 EEC d   1       8.679  26.397   4.182  0.00  0.00     0.218 C 
ATOM      5  O2  EEC d   1       9.876  26.183   4.370  0.00  0.00    -0.274 OA
ATOM      6  H3  EEC d   1       7.037  27.544   4.396  0.00  0.00     0.163 HD
BRANCH   4   7
ATOM      7  C12 EEC d   1       7.826  25.395   3.470  0.00  0.00     0.015 C 
ATOM      8  H15 EEC d   1       8.142  25.289   2.422  0.00  0.00     0.047 H 
ATOM      9  H16 EEC d   1       6.767  25.689   3.506  0.00  0.00     0.047 H 
BRANCH   7  10
ATOM     10  C13 EEC d   1       8.049  24.113   4.227  0.00  0.00    -0.010 C 
ATOM     11  H17 EEC d   1       8.847  24.283   4.965  0.00  0.00     0.043 H 
ATOM     12  H18 EEC d   1       8.370  23.342   3.511  0.00  0.00     0.043 H 
BRANCH  10  13
ATOM     13  C27 EEC d   1       6.836  23.602   4.956  0.00  0.00     0.081 A 
ATOM     14  O5  EEC d   1       6.902  22.612   5.879  0.00  0.00    -0.217 OA
ATOM     15  N3  EEC d   1       5.631  22.282   6.415  0.00  0.00    -0.128 NA
ATOM     16  C16 EEC d   1       4.773  23.115   5.793  0.00  0.00     0.097 A 
ATOM     17  C14 EEC d   1       5.476  23.944   4.886  0.00  0.00    -0.021 A 
ATOM     18  H19 EEC d   1       5.040  24.711   4.247  0.00  0.00     0.091 H 
BRANCH  16  19
ATOM     19  C21 EEC d   1       3.315  23.067   6.091  0.00  0.00    -0.005 A 
ATOM     20  C22 EEC d   1       2.393  23.694   5.259  0.00  0.00    -0.071 A 
ATOM     21  C23 EEC d   1       1.041  23.629   5.558  0.00  0.00    -0.082 A 
ATOM     22  H20 EEC d   1       2.731  24.231   4.380  0.00  0.00     0.084 H 
ATOM     23  C24 EEC d   1       0.626  22.925   6.689  0.00  0.00    -0.083 A 
ATOM     24  H21 EEC d   1       0.314  24.119   4.920  0.00  0.00     0.083 H 
ATOM     25  C25 EEC d   1       1.544  22.291   7.522  0.00  0.00    -0.082 A 
ATOM     26  H22 EEC d   1      -0.431  22.871   6.923  0.00  0.00     0.083 H 
ATOM     27  C26 EEC d   1       2.895  22.362   7.220  0.00  0.00    -0.071 A 
ATOM     28  H23 EEC d   1       1.206  21.748   8.397  0.00  0.00     0.083 H 
ATOM     29  H24 EEC d   1       3.622  21.872   7.858  0.00  0.00     0.084 H 
ENDBRANCH  16  19
ENDBRANCH  10  13
ENDBRANCH   7  10
ENDBRANCH   4   7
ENDBRANCH   1   3
BRANCH   1  30
ATOM     30  C6  EEC d   1       7.850  28.863   6.533  0.00  0.00     0.241 C 
ATOM     31  N1  EEC d   1       8.453  29.566   7.488  0.00  0.00    -0.346 N 
ATOM     32  H1  EEC d   1       9.412  29.835   7.393  0.00  0.00     0.163 HD
ATOM     33  O1  EEC d   1       6.673  28.523   6.597  0.00  0.00    -0.271 OA
BRANCH  31  34
ATOM     34  C2  EEC d   1       7.696  29.937   8.671  0.00  0.00     0.089 C 
ATOM     35  H2  EEC d   1       7.161  29.072   9.089  0.00  0.00     0.087 H 
BRANCH  34  36
ATOM     36  C1  EEC d   1       6.724  31.041   8.340  0.00  0.00     0.238 C 
ATOM     37  N9  EEC d   1       7.043  31.818   7.398  0.00  0.00    -0.368 N 
ATOM     38  H13 EEC d   1       6.433  32.567   7.139  0.00  0.00     0.159 HD
ATOM     39  H14 EEC d   1       7.906  31.685   6.911  0.00  0.00     0.159 HD
ATOM     40  O9  EEC d   1       5.680  31.171   8.963  0.00  0.00    -0.271 OA
ENDBRANCH  34  36
BRANCH  34  41
ATOM     41  C3  EEC d   1       8.743  30.462   9.641  0.00  0.00    -0.029 C 
ATOM     42  H4  EEC d   1       8.326  31.314  10.198  0.00  0.00     0.037 H 
ATOM     43  H5  EEC d   1       9.628  30.791   9.076  0.00  0.00     0.037 H 
BRANCH  41  44
ATOM     44  C4  EEC d   1       9.150  29.375  10.621  0.00  0.00     0.018 C 
ATOM     45  H6  EEC d   1       9.650  28.558  10.080  0.00  0.00     0.049 H 
ATOM     46  H7  EEC d   1       8.257  28.984  11.131  0.00  0.00     0.049 H 
BRANCH  44  47
ATOM     47  C5  EEC d   1      10.100  29.966  11.640  0.00  0.00     0.172 C 
ATOM     48  O8  EEC d   1      10.370  31.193  11.593  0.00  0.00    -0.648 OA
ATOM     49  O8E EEC d   1      10.584  29.195  12.501  0.00  0.00    -0.648 OA
ENDBRANCH  44  47
ENDBRANCH  41  44
ENDBRANCH  34  41
ENDBRANCH  31  34
ENDBRANCH   1  30
BRANCH   1  50
ATOM     50  C8  EEC d   1       8.491  29.793   4.461  0.00  0.00    -0.029 C 
ATOM     51  H9  EEC d   1       8.764  30.667   5.070  0.00  0.00     0.037 H 
ATOM     52  H10 EEC d   1       7.431  29.863   4.173  0.00  0.00     0.037 H 
BRANCH  50  53
ATOM     53  C9  EEC d   1       9.325  29.828   3.191  0.00  0.00     0.018 C 
ATOM     54  H11 EEC d   1       8.967  29.078   2.471  0.00  0.00     0.049 H 
ATOM     55  H12 EEC d   1      10.385  29.642   3.417  0.00  0.00     0.049 H 
BRANCH  53  56
ATOM     56  C10 EEC d   1       9.133  31.223   2.647  0.00  0.00     0.172 C 
ATOM     57  O4  EEC d   1       9.736  32.164   3.212  0.00  0.00    -0.648 OA
ATOM     58  O4E EEC d   1       8.364  31.385   1.673  0.00  0.00    -0.648 OA
ENDBRANCH  53  56
ENDBRANCH  50  53
ENDBRANCH   1  50
TORSDOF 14
