REMARK  10 active torsions:
REMARK  status: ('A' for Active; 'I' for Inactive)
REMARK    1  A    between atoms: C9_3  and  N10_4 
REMARK       I    between atoms: N10_4  and  C12_5 
REMARK       I    between atoms: C12_5  and  N13_7 
REMARK    2  A    between atoms: N13_7  and  C14_8 
REMARK    3  A    between atoms: C14_8  and  C26_9 
REMARK    4  A    between atoms: C14_8  and  C15_20 
REMARK       I    between atoms: C26_9  and  N27_11 
REMARK    5  A    between atoms: N27_11  and  C28_12 
REMARK    6  A    between atoms: C28_12  and  C29_13 
REMARK    7  A    between atoms: C29_13  and  C30_14 
REMARK    8  A    between atoms: C15_20  and  C16_21 
REMARK    9  A    between atoms: C19_25  and  C23_26 
REMARK   10  A    between atoms: C23_26  and  N25_27 
ROOT
ATOM      1  C14 RUP d   1      21.813  28.538  22.124  0.00  0.00     0.095 C 
ATOM      2  H7  RUP d   1      21.528  27.605  21.616  0.00  0.00     0.088 H 
ENDROOT
BRANCH   1   3
ATOM      3  N13 RUP d   1      21.009  29.697  21.641  0.00  0.00    -0.330 N 
ATOM      4  C12 RUP d   1      20.935  30.016  20.311  0.00  0.00     0.317 C 
ATOM      5  N10 RUP d   1      20.294  31.175  19.962  0.00  0.00    -0.338 N 
ATOM      6  O17 RUP d   1      21.482  29.310  19.467  0.00  0.00    -0.247 OA
ATOM      7  H5  RUP d   1      19.880  31.729  20.684  0.00  0.00     0.164 HD
ATOM      8  H6  RUP d   1      20.511  30.255  22.305  0.00  0.00     0.165 HD
BRANCH   5   9
ATOM      9  C9  RUP d   1      20.187  31.644  18.559  0.00  0.00     0.021 C 
ATOM     10  C6  RUP d   1      19.392  33.020  18.499  0.00  0.00    -0.033 C 
ATOM     11  C1  RUP d   1      19.256  33.507  16.998  0.00  0.00    -0.056 C 
ATOM     12  C5  RUP d   1      20.164  34.138  19.316  0.00  0.00    -0.056 C 
ATOM     13  H3  RUP d   1      18.390  32.876  18.931  0.00  0.00     0.043 H 
ATOM     14  C2  RUP d   1      20.683  33.726  16.374  0.00  0.00    -0.053 C 
ATOM     15  H1  RUP d   1      18.697  34.454  16.971  0.00  0.00     0.034 H 
ATOM     16  H2  RUP d   1      18.716  32.746  16.415  0.00  0.00     0.034 H 
ATOM     17  C3  RUP d   1      21.463  34.818  17.201  0.00  0.00    -0.058 C 
ATOM     18  C7  RUP d   1      21.485  32.375  16.409  0.00  0.00    -0.056 C 
ATOM     19  H36 RUP d   1      20.578  34.062  15.332  0.00  0.00     0.040 H 
ATOM     20  C4  RUP d   1      21.604  34.341  18.696  0.00  0.00    -0.053 C 
ATOM     21  H34 RUP d   1      22.463  34.963  16.766  0.00  0.00     0.034 H 
ATOM     22  H35 RUP d   1      20.909  35.767  17.169  0.00  0.00     0.034 H 
ATOM     23  C11 RUP d   1      22.405  32.979  18.739  0.00  0.00    -0.056 C 
ATOM     24  H31 RUP d   1      22.147  35.102  19.275  0.00  0.00     0.040 H 
ATOM     25  C8  RUP d   1      21.629  31.886  17.907  0.00  0.00    -0.033 C 
ATOM     26  H29 RUP d   1      23.405  33.128  18.306  0.00  0.00     0.034 H 
ATOM     27  H30 RUP d   1      22.503  32.644  19.782  0.00  0.00     0.034 H 
ATOM     28  H28 RUP d   1      22.195  30.943  17.926  0.00  0.00     0.043 H 
ATOM     29  H37 RUP d   1      20.947  31.614  15.825  0.00  0.00     0.034 H 
ATOM     30  H38 RUP d   1      22.484  32.531  15.976  0.00  0.00     0.034 H 
ATOM     31  H32 RUP d   1      20.258  33.826  20.367  0.00  0.00     0.034 H 
ATOM     32  H33 RUP d   1      19.605  35.084  19.262  0.00  0.00     0.034 H 
ATOM     33  H4  RUP d   1      19.649  30.884  17.974  0.00  0.00     0.073 H 
ENDBRANCH   5   9
ENDBRANCH   1   3
BRANCH   1  34
ATOM     34  C26 RUP d   1      23.269  28.957  21.803  0.00  0.00     0.240 C 
ATOM     35  O31 RUP d   1      23.524  30.127  22.076  0.00  0.00    -0.271 OA
ATOM     36  N27 RUP d   1      24.293  28.238  21.265  0.00  0.00    -0.359 N 
ATOM     37  H8  RUP d   1      25.139  28.757  21.143  0.00  0.00     0.162 HD
BRANCH  36  38
ATOM     38  C28 RUP d   1      24.376  26.847  20.835  0.00  0.00    -0.001 C 
ATOM     39  H9  RUP d   1      24.678  26.833  19.777  0.00  0.00     0.064 H 
ATOM     40  H10 RUP d   1      23.377  26.397  20.937  0.00  0.00     0.064 H 
BRANCH  38  41
ATOM     41  C29 RUP d   1      25.387  25.973  21.641  0.00  0.00    -0.026 C 
ATOM     42  H11 RUP d   1      26.346  25.972  21.102  0.00  0.00     0.042 H 
ATOM     43  H12 RUP d   1      24.993  24.947  21.689  0.00  0.00     0.042 H 
BRANCH  41  44
ATOM     44  C30 RUP d   1      25.645  26.460  23.088  0.00  0.00    -0.057 A 
ATOM     45  C36 RUP d   1      26.431  27.604  23.443  0.00  0.00    -0.077 A 
ATOM     46  C35 RUP d   1      26.592  27.992  24.805  0.00  0.00    -0.082 A 
ATOM     47  H13 RUP d   1      26.911  28.184  22.663  0.00  0.00     0.084 H 
ATOM     48  C34 RUP d   1      25.967  27.240  25.836  0.00  0.00    -0.083 A 
ATOM     49  H14 RUP d   1      27.191  28.860  25.054  0.00  0.00     0.083 H 
ATOM     50  C33 RUP d   1      25.185  26.102  25.500  0.00  0.00    -0.082 A 
ATOM     51  H15 RUP d   1      26.086  27.533  26.873  0.00  0.00     0.083 H 
ATOM     52  C32 RUP d   1      25.029  25.723  24.138  0.00  0.00    -0.077 A 
ATOM     53  H16 RUP d   1      24.707  25.523  26.282  0.00  0.00     0.083 H 
ATOM     54  H17 RUP d   1      24.428  24.854  23.895  0.00  0.00     0.084 H 
ENDBRANCH  41  44
ENDBRANCH  38  41
ENDBRANCH  36  38
ENDBRANCH   1  34
BRANCH   1  55
ATOM     55  C15 RUP d   1      21.679  28.386  23.676  0.00  0.00    -0.014 C 
ATOM     56  H18 RUP d   1      21.962  29.348  24.129  0.00  0.00     0.043 H 
ATOM     57  H19 RUP d   1      22.388  27.608  23.995  0.00  0.00     0.043 H 
BRANCH  55  58
ATOM     58  C16 RUP d   1      20.277  28.000  24.234  0.00  0.00    -0.055 A 
ATOM     59  C22 RUP d   1      19.440  26.976  23.674  0.00  0.00    -0.077 A 
ATOM     60  C21 RUP d   1      18.165  26.696  24.256  0.00  0.00    -0.082 A 
ATOM     61  H20 RUP d   1      19.776  26.415  22.809  0.00  0.00     0.084 H 
ATOM     62  C20 RUP d   1      17.714  27.426  25.395  0.00  0.00    -0.069 A 
ATOM     63  H21 RUP d   1      17.536  25.923  23.829  0.00  0.00     0.083 H 
ATOM     64  C19 RUP d   1      18.542  28.444  25.960  0.00  0.00     0.007 A 
ATOM     65  H22 RUP d   1      16.745  27.209  25.831  0.00  0.00     0.085 H 
ATOM     66  C18 RUP d   1      19.808  28.714  25.370  0.00  0.00    -0.063 A 
ATOM     67  H27 RUP d   1      20.434  29.488  25.800  0.00  0.00     0.085 H 
BRANCH  64  68
ATOM     68  C23 RUP d   1      18.103  29.243  27.177  0.00  0.00     0.102 C 
ATOM     69  N24 RUP d   1      16.873  29.162  27.616  0.00  0.00    -0.385 N 
ATOM     70  H25 RUP d   1      16.191  28.562  27.130  0.00  0.00     0.157 HD
ATOM     71  H26 RUP d   1      16.587  29.698  28.448  0.00  0.00     0.157 HD
BRANCH  68  72
ATOM     72  N25 RUP d   1      18.983  30.000  27.782  0.00  0.00    -0.385 N 
ATOM     73  H23 RUP d   1      18.708  30.550  28.608  0.00  0.00     0.157 HD
ATOM     74  H24 RUP d   1      19.951  30.046  27.432  0.00  0.00     0.157 HD
ENDBRANCH  68  72
ENDBRANCH  64  68
ENDBRANCH  55  58
ENDBRANCH   1  55
TORSDOF 10
