REMARK  14 active torsions:
REMARK  status: ('A' for Active; 'I' for Inactive)
REMARK    1  A    between atoms: C1_1  and  C2_4 
REMARK    2  A    between atoms: C14_20  and  C1_1 
REMARK       I    between atoms: C2_4  and  N1_2 
REMARK    3  A    between atoms: N1_2  and  C3_7 
REMARK       I    between atoms: C9_15  and  N2_5 
REMARK    4  A    between atoms: N2_5  and  C10_16 
REMARK    5  A    between atoms: C3_7  and  C4_9 
REMARK    6  A    between atoms: C3_7  and  C9_15 
REMARK       I    between atoms: C13_19  and  N3_8 
REMARK    7  A    between atoms: C4_9  and  C5_10 
REMARK    8  A    between atoms: C5_10  and  C8_14 
REMARK    9  A    between atoms: C10_16  and  C11_17 
REMARK   10  A    between atoms: C10_16  and  C13_19 
REMARK   11  A    between atoms: C11_17  and  C12_18 
REMARK   12  A    between atoms: C12_18  and  C32_33 
REMARK   13  A    between atoms: C18_24  and  C14_20 
REMARK   14  A    between atoms: C17_23  and  C19_25 
ROOT
ATOM      1  N1  EEF d   1       8.055  27.419   4.365  0.00  0.00    -0.348 N 
ATOM      2  C2  EEF d   1       8.729  26.139   4.180  0.00  0.00     0.218 C 
ATOM      3  O2  EEF d   1       9.818  25.897   4.639  0.00  0.00    -0.274 OA
ATOM      4  H3  EEF d   1       7.152  27.578   3.966  0.00  0.00     0.163 HD
ENDROOT
BRANCH   1   5
ATOM      5  C3  EEF d   1       8.721  28.473   5.146  0.00  0.00     0.090 C 
ATOM      6  H5  EEF d   1       9.780  28.208   5.285  0.00  0.00     0.087 H 
BRANCH   5   7
ATOM      7  C4  EEF d   1       8.628  29.844   4.442  0.00  0.00    -0.029 C 
ATOM      8  H8  EEF d   1       8.952  30.605   5.167  0.00  0.00     0.037 H 
ATOM      9  H9  EEF d   1       7.571  30.008   4.186  0.00  0.00     0.037 H 
BRANCH   7  10
ATOM     10  C5  EEF d   1       9.440  30.059   3.168  0.00  0.00     0.018 C 
ATOM     11  H10 EEF d   1       9.218  29.230   2.480  0.00  0.00     0.049 H 
ATOM     12  H11 EEF d   1      10.506  30.036   3.437  0.00  0.00     0.049 H 
BRANCH  10  13
ATOM     13  C8  EEF d   1       9.168  31.368   2.432  0.00  0.00     0.172 C 
ATOM     14  O6  EEF d   1      10.157  32.348   2.446  0.00  0.00    -0.648 OA
ATOM     15  O7  EEF d   1       8.366  31.406   1.566  0.00  0.00    -0.648 OA
ENDBRANCH  10  13
ENDBRANCH   7  10
ENDBRANCH   5   7
BRANCH   5  16
ATOM     16  C9  EEF d   1       8.029  28.575   6.502  0.00  0.00     0.241 C 
ATOM     17  O1  EEF d   1       6.845  28.412   6.576  0.00  0.00    -0.271 OA
ATOM     18  N2  EEF d   1       8.760  29.175   7.597  0.00  0.00    -0.346 N 
ATOM     19  H4  EEF d   1       9.730  29.402   7.517  0.00  0.00     0.163 HD
BRANCH  18  20
ATOM     20  C10 EEF d   1       8.018  29.430   8.814  0.00  0.00     0.089 C 
ATOM     21  H12 EEF d   1       7.499  28.491   9.058  0.00  0.00     0.087 H 
BRANCH  20  22
ATOM     22  C11 EEF d   1       8.872  29.771  10.040  0.00  0.00    -0.029 C 
ATOM     23  H13 EEF d   1       8.596  30.785  10.366  0.00  0.00     0.037 H 
ATOM     24  H14 EEF d   1       9.926  29.762   9.725  0.00  0.00     0.037 H 
BRANCH  22  25
ATOM     25  C12 EEF d   1       8.742  28.835  11.263  0.00  0.00     0.018 C 
ATOM     26  H15 EEF d   1       9.630  29.009  11.889  0.00  0.00     0.049 H 
ATOM     27  H16 EEF d   1       8.762  27.805  10.876  0.00  0.00     0.049 H 
BRANCH  25  28
ATOM     28  C32 EEF d   1       7.519  28.934  12.193  0.00  0.00     0.172 C 
ATOM     29  O33 EEF d   1       7.407  28.067  13.302  0.00  0.00    -0.648 OA
ATOM     30  O34 EEF d   1       6.799  29.872  12.125  0.00  0.00    -0.648 OA
ENDBRANCH  25  28
ENDBRANCH  22  25
ENDBRANCH  20  22
BRANCH  20  31
ATOM     31  C13 EEF d   1       6.946  30.478   8.579  0.00  0.00     0.238 C 
ATOM     32  N3  EEF d   1       5.697  30.308   9.292  0.00  0.00    -0.368 N 
ATOM     33  H6  EEF d   1       5.558  29.506   9.872  0.00  0.00     0.159 HD
ATOM     34  H7  EEF d   1       4.974  30.993   9.204  0.00  0.00     0.159 HD
ATOM     35  O5  EEF d   1       7.158  31.413   7.879  0.00  0.00    -0.271 OA
ENDBRANCH  20  31
ENDBRANCH  18  20
ENDBRANCH   5  16
ENDBRANCH   1   5
BRANCH   2  36
ATOM     36  C1  EEF d   1       7.942  25.043   3.433  0.00  0.00     0.013 C 
ATOM     37  H1  EEF d   1       8.476  24.797   2.504  0.00  0.00     0.047 H 
ATOM     38  H2  EEF d   1       6.942  25.432   3.189  0.00  0.00     0.047 H 
BRANCH  36  39
ATOM     39  C14 EEF d   1       7.782  23.761   4.261  0.00  0.00    -0.033 C 
ATOM     40  H17 EEF d   1       8.552  23.776   5.046  0.00  0.00     0.040 H 
ATOM     41  H18 EEF d   1       7.960  22.909   3.589  0.00  0.00     0.040 H 
BRANCH  39  42
ATOM     42  C18 EEF d   1       6.419  23.530   4.952  0.00  0.00    -0.058 A 
ATOM     43  C15 EEF d   1       6.337  22.560   5.930  0.00  0.00    -0.076 A 
ATOM     44  C16 EEF d   1       5.075  22.253   6.575  0.00  0.00    -0.072 A 
ATOM     45  H19 EEF d   1       7.230  22.019   6.221  0.00  0.00     0.084 H 
ATOM     46  C17 EEF d   1       3.894  23.005   6.167  0.00  0.00    -0.026 A 
ATOM     47  H20 EEF d   1       5.011  21.486   7.339  0.00  0.00     0.084 H 
ATOM     48  C30 EEF d   1       3.964  24.016   5.159  0.00  0.00    -0.072 A 
ATOM     49  C31 EEF d   1       5.197  24.312   4.529  0.00  0.00    -0.076 A 
ATOM     50  H26 EEF d   1       3.069  24.558   4.876  0.00  0.00     0.084 H 
ATOM     51  H27 EEF d   1       5.263  25.078   3.765  0.00  0.00     0.084 H 
BRANCH  46  52
ATOM     52  C19 EEF d   1       2.564  22.682   6.846  0.00  0.00    -0.026 A 
ATOM     53  C20 EEF d   1       2.569  22.244   8.272  0.00  0.00    -0.072 A 
ATOM     54  C21 EEF d   1       1.378  21.931   8.908  0.00  0.00    -0.082 A 
ATOM     55  H21 EEF d   1       3.506  22.170   8.812  0.00  0.00     0.084 H 
ATOM     56  C27 EEF d   1       0.170  22.030   8.186  0.00  0.00    -0.083 A 
ATOM     57  H22 EEF d   1       1.375  21.615   9.945  0.00  0.00     0.083 H 
ATOM     58  C22 EEF d   1       0.182  22.462   6.824  0.00  0.00    -0.082 A 
ATOM     59  H25 EEF d   1      -0.769  21.778   8.665  0.00  0.00     0.083 H 
ATOM     60  C23 EEF d   1       1.421  22.786   6.160  0.00  0.00    -0.072 A 
ATOM     61  H23 EEF d   1      -0.753  22.547   6.282  0.00  0.00     0.083 H 
ATOM     62  H24 EEF d   1       1.425  23.108   5.125  0.00  0.00     0.084 H 
ENDBRANCH  46  52
ENDBRANCH  39  42
ENDBRANCH  36  39
ENDBRANCH   2  36
TORSDOF 14
