REMARK  8 active torsions:
REMARK  status: ('A' for Active; 'I' for Inactive)
REMARK       I    between atoms: N1_1  and  C14_2 
REMARK    1  A    between atoms: C14_2  and  C15_4 
REMARK    2  A    between atoms: C15_4  and  N5_22 
REMARK    3  A    between atoms: C2_8  and  C7_9 
REMARK       I    between atoms: C7_9  and  N23_10 
REMARK    4  A    between atoms: N23_10  and  C24_11 
REMARK    5  A    between atoms: C24_11  and  C25_12 
REMARK    6  A    between atoms: C28_15  and  C31_16 
REMARK    7  A    between atoms: C31_16  and  N48_18 
REMARK    8  A    between atoms: N5_22  and  C16_23 
ROOT
ATOM      1  N1  11U d   1      17.312  -9.078  12.769  0.00  0.00    -0.337 N 
ATOM      2  C14 11U d   1      18.349  -8.985  11.906  0.00  0.00     0.246 C 
ATOM      3  O32 11U d   1      18.234  -8.262  10.910  0.00  0.00    -0.272 OA
ATOM      4  C5  11U d   1      17.376  -9.880  13.981  0.00  0.00    -0.001 C 
ATOM      5  C4  11U d   1      15.870  -9.927  14.284  0.00  0.00    -0.048 C 
ATOM      6  C3  11U d   1      15.476  -8.446  14.013  0.00  0.00    -0.036 C 
ATOM      7  C2  11U d   1      16.187  -8.138  12.657  0.00  0.00     0.091 C 
ATOM      8  H3  11U d   1      17.947  -9.384  14.780  0.00  0.00     0.064 H 
ATOM      9  H4  11U d   1      17.796 -10.880  13.797  0.00  0.00     0.064 H 
ATOM     10  H5  11U d   1      15.675 -10.214  15.328  0.00  0.00     0.035 H 
ATOM     11  H6  11U d   1      15.342 -10.617  13.609  0.00  0.00     0.035 H 
ATOM     12  H7  11U d   1      15.845  -7.786  14.812  0.00  0.00     0.036 H 
ATOM     13  H8  11U d   1      14.385  -8.337  13.921  0.00  0.00     0.036 H 
ATOM     14  H9  11U d   1      15.553  -8.290  11.771  0.00  0.00     0.087 H 
ENDROOT
BRANCH   2  15
ATOM     15  C15 11U d   1      19.576  -9.863  11.910  0.00  0.00     0.154 C 
ATOM     16  H1  11U d   1      19.445 -10.675  11.180  0.00  0.00     0.090 H 
ATOM     17  H2  11U d   1      19.715 -10.291  12.914  0.00  0.00     0.090 H 
BRANCH  15  18
ATOM     18  N5  11U d   1      20.777  -9.060  11.546  0.00  0.00    -0.063 N 
ATOM     19  H21 11U d   1      20.822  -8.245  12.138  0.00  0.00     0.278 HD
ATOM     20  H22 11U d   1      20.703  -8.772  10.583  0.00  0.00     0.278 HD
BRANCH  18  21
ATOM     21  C16 11U d   1      22.030  -9.867  11.723  0.00  0.00     0.102 C 
ATOM     22  C17 11U d   1      21.858 -11.214  10.957  0.00  0.00    -0.038 C 
ATOM     23  C18 11U d   1      23.180 -11.995  10.818  0.00  0.00    -0.063 C 
ATOM     24  H24 11U d   1      21.469 -10.999   9.951  0.00  0.00     0.036 H 
ATOM     25  H25 11U d   1      21.136 -11.839  11.503  0.00  0.00     0.036 H 
ATOM     26  C19 11U d   1      24.258 -11.053  10.190  0.00  0.00    -0.065 C 
ATOM     27  H26 11U d   1      23.027 -12.868  10.166  0.00  0.00     0.033 H 
ATOM     28  H27 11U d   1      23.516 -12.332  11.810  0.00  0.00     0.033 H 
ATOM     29  C20 11U d   1      24.515  -9.866  11.171  0.00  0.00    -0.063 C 
ATOM     30  H28 11U d   1      23.895 -10.665   9.226  0.00  0.00     0.033 H 
ATOM     31  H29 11U d   1      25.192 -11.612  10.032  0.00  0.00     0.033 H 
ATOM     32  C21 11U d   1      23.246  -9.001  11.304  0.00  0.00    -0.038 C 
ATOM     33  H30 11U d   1      25.338  -9.247  10.784  0.00  0.00     0.033 H 
ATOM     34  H31 11U d   1      24.789 -10.264  12.159  0.00  0.00     0.033 H 
ATOM     35  H32 11U d   1      23.416  -8.226  12.066  0.00  0.00     0.036 H 
ATOM     36  H33 11U d   1      23.032  -8.524  10.336  0.00  0.00     0.036 H 
ATOM     37  H23 11U d   1      22.151 -10.107  12.790  0.00  0.00     0.084 H 
ENDBRANCH  18  21
ENDBRANCH  15  18
ENDBRANCH   2  15
BRANCH   7  38
ATOM     38  C7  11U d   1      16.769  -6.726  12.725  0.00  0.00     0.240 C 
ATOM     39  N23 11U d   1      16.103  -5.824  11.962  0.00  0.00    -0.355 N 
ATOM     40  H10 11U d   1      15.333  -6.122  11.398  0.00  0.00     0.162 HD
ATOM     41  O22 11U d   1      17.732  -6.478  13.427  0.00  0.00    -0.271 OA
BRANCH  39  42
ATOM     42  C24 11U d   1      16.503  -4.424  11.959  0.00  0.00     0.019 C 
ATOM     43  H11 11U d   1      17.184  -4.219  12.798  0.00  0.00     0.071 H 
ATOM     44  H12 11U d   1      15.619  -3.773  12.037  0.00  0.00     0.071 H 
BRANCH  42  45
ATOM     45  C25 11U d   1      17.222  -4.193  10.616  0.00  0.00    -0.040 A 
ATOM     46  C30 11U d   1      18.382  -4.911  10.321  0.00  0.00    -0.074 A 
ATOM     47  C29 11U d   1      19.039  -4.754   9.093  0.00  0.00    -0.069 A 
ATOM     48  H13 11U d   1      18.782  -5.602  11.054  0.00  0.00     0.084 H 
ATOM     49  C28 11U d   1      18.501  -3.855   8.167  0.00  0.00     0.007 A 
ATOM     50  H14 11U d   1      19.939  -5.314   8.867  0.00  0.00     0.085 H 
ATOM     51  C27 11U d   1      17.339  -3.134   8.453  0.00  0.00    -0.069 A 
ATOM     52  C26 11U d   1      16.688  -3.295   9.687  0.00  0.00    -0.074 A 
ATOM     53  H19 11U d   1      16.937  -2.446   7.718  0.00  0.00     0.085 H 
ATOM     54  H20 11U d   1      15.789  -2.734   9.915  0.00  0.00     0.084 H 
BRANCH  49  55
ATOM     55  C31 11U d   1      19.216  -3.625   6.837  0.00  0.00     0.102 C 
ATOM     56  N49 11U d   1      20.420  -3.993   6.565  0.00  0.00    -0.385 N 
ATOM     57  H15 11U d   1      20.822  -3.795   5.638  0.00  0.00     0.157 HD
ATOM     58  H16 11U d   1      20.981  -4.486   7.275  0.00  0.00     0.157 HD
BRANCH  55  59
ATOM     59  N48 11U d   1      18.314  -3.171   5.758  0.00  0.00    -0.385 N 
ATOM     60  H17 11U d   1      17.352  -2.878   5.980  0.00  0.00     0.157 HD
ATOM     61  H18 11U d   1      18.647  -3.148   4.784  0.00  0.00     0.157 HD
ENDBRANCH  55  59
ENDBRANCH  49  55
ENDBRANCH  42  45
ENDBRANCH  39  42
ENDBRANCH   7  38
TORSDOF 8
