REMARK  9 active torsions:
REMARK  status: ('A' for Active; 'I' for Inactive)
REMARK    1  A    between atoms: C3_3  and  C7_7 
REMARK    2  A    between atoms: C8_8  and  C5_5 
REMARK    3  A    between atoms: C17_17  and  C8_8 
REMARK    4  A    between atoms: C18_18  and  C17_17 
REMARK    5  A    between atoms: C17_17  and  C19_19 
REMARK       I    between atoms: N25_25  and  C18_18 
REMARK    6  A    between atoms: C19_19  and  C20_20 
REMARK       I    between atoms: C20_20  and  N22_22 
REMARK    7  A    between atoms: N22_22  and  O23_23 
REMARK    8  A    between atoms: C26_26  and  N25_25 
REMARK    9  A    between atoms: C28_28  and  O29_29 
ROOT
ATOM      1  C17 LA3 d   1      73.720  85.951  48.838  0.00  0.00     0.035 C 
ATOM      2  H12 LA3 d   1      74.285  85.811  47.904  0.00  0.00     0.055 H 
ENDROOT
BRANCH   1   3
ATOM      3  C8  LA3 d   1      72.681  87.045  48.657  0.00  0.00    -0.029 C 
ATOM      4  H5  LA3 d   1      71.751  86.571  48.310  0.00  0.00     0.041 H 
ATOM      5  H6  LA3 d   1      72.510  87.512  49.638  0.00  0.00     0.041 H 
BRANCH   3   6
ATOM      6  C5  LA3 d   1      73.031  88.138  47.683  0.00  0.00    -0.057 A 
ATOM      7  C2  LA3 d   1      72.424  89.365  47.826  0.00  0.00    -0.076 A 
ATOM      8  C6  LA3 d   1      72.696  90.393  46.952  0.00  0.00    -0.072 A 
ATOM      9  H2  LA3 d   1      71.723  89.524  48.637  0.00  0.00     0.084 H 
ATOM     10  C3  LA3 d   1      73.583  90.230  45.904  0.00  0.00    -0.026 A 
ATOM     11  H4  LA3 d   1      72.205  91.350  47.088  0.00  0.00     0.084 H 
ATOM     12  C1  LA3 d   1      74.193  89.003  45.766  0.00  0.00    -0.072 A 
ATOM     13  C4  LA3 d   1      73.922  87.970  46.635  0.00  0.00    -0.076 A 
ATOM     14  H1  LA3 d   1      74.899  88.848  44.959  0.00  0.00     0.084 H 
ATOM     15  H3  LA3 d   1      74.412  87.013  46.498  0.00  0.00     0.084 H 
BRANCH  10  16
ATOM     16  C7  LA3 d   1      73.871  91.311  44.974  0.00  0.00    -0.023 A 
ATOM     17  C10 LA3 d   1      73.275  92.554  45.101  0.00  0.00    -0.037 A 
ATOM     18  C13 LA3 d   1      73.613  93.537  44.197  0.00  0.00     0.105 A 
ATOM     19  H7  LA3 d   1      72.560  92.749  45.892  0.00  0.00     0.089 H 
ATOM     20  C9  LA3 d   1      74.510  93.318  43.193  0.00  0.00     0.105 A 
ATOM     21  O14 LA3 d   1      73.117  94.818  44.180  0.00  0.00    -0.323 OA
ATOM     22  C12 LA3 d   1      75.114  92.100  43.032  0.00  0.00    -0.047 A 
ATOM     23  O15 LA3 d   1      74.710  94.418  42.401  0.00  0.00    -0.323 OA
ATOM     24  C11 LA3 d   1      74.778  91.114  43.942  0.00  0.00    -0.069 A 
ATOM     25  H9  LA3 d   1      75.821  91.917  42.231  0.00  0.00     0.087 H 
ATOM     26  H8  LA3 d   1      75.245  90.141  43.844  0.00  0.00     0.085 H 
ATOM     27  C16 LA3 d   1      73.840  95.367  43.052  0.00  0.00     0.115 A 
ATOM     28  H10 LA3 d   1      74.451  96.210  43.408  0.00  0.00     0.118 H 
ATOM     29  H11 LA3 d   1      73.109  95.730  42.315  0.00  0.00     0.118 H 
ENDBRANCH  10  16
ENDBRANCH   3   6
ENDBRANCH   1   3
BRANCH   1  30
ATOM     30  C18 LA3 d   1      74.631  86.316  49.967  0.00  0.00     0.223 C 
ATOM     31  O24 LA3 d   1      74.227  86.408  51.119  0.00  0.00    -0.273 OA
ATOM     32  N25 LA3 d   1      75.924  86.523  49.553  0.00  0.00    -0.350 N 
ATOM     33  H17 LA3 d   1      76.124  86.715  48.592  0.00  0.00     0.163 HD
BRANCH  32  34
ATOM     34  C26 LA3 d   1      76.997  86.460  50.530  0.00  0.00     0.063 C 
ATOM     35  C27 LA3 d   1      78.280  85.854  50.069  0.00  0.00    -0.027 A 
ATOM     36  C32 LA3 d   1      78.464  84.793  49.206  0.00  0.00    -0.074 A 
ATOM     37  C33 LA3 d   1      79.344  86.498  50.639  0.00  0.00    -0.047 A 
ATOM     38  C35 LA3 d   1      79.762  84.401  48.936  0.00  0.00    -0.082 A 
ATOM     39  H24 LA3 d   1      77.620  84.284  48.755  0.00  0.00     0.084 H 
ATOM     40  C31 LA3 d   1      80.839  85.052  49.510  0.00  0.00    -0.082 A 
ATOM     41  H26 LA3 d   1      79.939  83.570  48.263  0.00  0.00     0.083 H 
ATOM     42  C34 LA3 d   1      80.641  86.117  50.370  0.00  0.00    -0.076 A 
ATOM     43  H23 LA3 d   1      81.847  84.725  49.284  0.00  0.00     0.083 H 
ATOM     44  H25 LA3 d   1      81.480  86.636  50.819  0.00  0.00     0.084 H 
ATOM     45  C30 LA3 d   1      78.907  87.600  51.530  0.00  0.00    -0.014 C 
ATOM     46  C28 LA3 d   1      77.503  87.807  51.009  0.00  0.00     0.063 C 
ATOM     47  H21 LA3 d   1      78.911  87.297  52.588  0.00  0.00     0.044 H 
ATOM     48  H22 LA3 d   1      79.528  88.499  51.404  0.00  0.00     0.044 H 
ATOM     49  H19 LA3 d   1      76.834  88.254  51.759  0.00  0.00     0.087 H 
ATOM     50  H18 LA3 d   1      76.609  85.885  51.384  0.00  0.00     0.084 H 
BRANCH  46  51
ATOM     51  O29 LA3 d   1      77.677  88.633  49.877  0.00  0.00    -0.393 OA
ATOM     52  H20 LA3 d   1      77.994  89.485  50.154  0.00  0.00     0.210 HD
ENDBRANCH  46  51
ENDBRANCH  32  34
ENDBRANCH   1  30
BRANCH   1  53
ATOM     53  C19 LA3 d   1      73.058  84.656  49.265  0.00  0.00     0.023 C 
ATOM     54  H13 LA3 d   1      72.313  84.862  50.048  0.00  0.00     0.048 H 
ATOM     55  H14 LA3 d   1      73.818  83.963  49.655  0.00  0.00     0.048 H 
BRANCH  53  56
ATOM     56  C20 LA3 d   1      72.388  84.050  48.084  0.00  0.00     0.241 C 
ATOM     57  O21 LA3 d   1      72.999  83.744  47.076  0.00  0.00    -0.271 OA
ATOM     58  N22 LA3 d   1      71.036  83.894  48.276  0.00  0.00    -0.237 N 
ATOM     59  H15 LA3 d   1      70.610  83.652  49.148  0.00  0.00     0.197 HD
BRANCH  58  60
ATOM     60  O23 LA3 d   1      70.329  84.123  47.071  0.00  0.00    -0.287 OA
ATOM     61  H16 LA3 d   1      69.398  84.010  47.225  0.00  0.00     0.244 HD
ENDBRANCH  58  60
ENDBRANCH  53  56
ENDBRANCH   1  53
TORSDOF 9
