REMARK  7 active torsions:
REMARK  status: ('A' for Active; 'I' for Inactive)
REMARK       I    between atoms: C8_2  and  N2_3 
REMARK    1  A    between atoms: C8_2  and  C7_5 
REMARK    2  A    between atoms: N2_3  and  O5_4 
REMARK    3  A    between atoms: C7_5  and  N1_6 
REMARK    4  A    between atoms: N1_6  and  S1_7 
REMARK    5  A    between atoms: S1_7  and  C3_10 
REMARK    6  A    between atoms: C4_13  and  O3_14 
REMARK    7  A    between atoms: O3_14  and  C9_15 
ROOT
ATOM      1  C3  Z79 d   1       2.568  -6.178   6.161  0.00  0.00     0.079 A 
ATOM      2  C6  Z79 d   1       2.312  -5.336   7.256  0.00  0.00    -0.058 A 
ATOM      3  C5  Z79 d   1       3.222  -5.236   8.311  0.00  0.00    -0.049 A 
ATOM      4  C4  Z79 d   1       4.394  -5.973   8.285  0.00  0.00     0.068 A 
ATOM      5  C2  Z79 d   1       4.655  -6.833   7.204  0.00  0.00    -0.049 A 
ATOM      6  C1  Z79 d   1       3.743  -6.933   6.150  0.00  0.00    -0.058 A 
ATOM      7  H6  Z79 d   1       1.396  -4.756   7.283  0.00  0.00     0.086 H 
ATOM      8  H7  Z79 d   1       3.011  -4.582   9.149  0.00  0.00     0.087 H 
ATOM      9  H11 Z79 d   1       5.566  -7.420   7.188  0.00  0.00     0.087 H 
ATOM     10  H12 Z79 d   1       3.948  -7.599   5.320  0.00  0.00     0.086 H 
ENDROOT
BRANCH   1  11
ATOM     11  S1  Z79 d   1       1.457  -6.322   5.003  0.00  0.00     0.259 S 
ATOM     12  O1  Z79 d   1       0.181  -5.900   5.565  0.00  0.00    -0.201 OA
ATOM     13  O2  Z79 d   1       1.384  -7.724   4.682  0.00  0.00    -0.201 OA
BRANCH  11  14
ATOM     14  N1  Z79 d   1       1.681  -5.448   3.695  0.00  0.00    -0.307 N 
ATOM     15  H5  Z79 d   1       2.189  -5.824   2.920  0.00  0.00     0.172 HD
BRANCH  14  16
ATOM     16  C7  Z79 d   1       1.146  -4.106   3.632  0.00  0.00     0.078 C 
ATOM     17  H3  Z79 d   1       1.051  -3.804   2.579  0.00  0.00     0.079 H 
ATOM     18  H4  Z79 d   1       0.155  -4.090   4.109  0.00  0.00     0.079 H 
BRANCH  16  19
ATOM     19  C8  Z79 d   1       2.061  -3.130   4.350  0.00  0.00     0.259 C 
ATOM     20  O4  Z79 d   1       3.244  -3.061   4.045  0.00  0.00    -0.270 OA
ATOM     21  N2  Z79 d   1       1.506  -2.371   5.308  0.00  0.00    -0.236 N 
ATOM     22  H1  Z79 d   1       0.524  -2.425   5.489  0.00  0.00     0.197 HD
BRANCH  21  23
ATOM     23  O5  Z79 d   1       2.306  -1.512   6.044  0.00  0.00    -0.287 OA
ATOM     24  H2  Z79 d   1       1.771  -1.048   6.677  0.00  0.00     0.244 HD
ENDBRANCH  21  23
ENDBRANCH  16  19
ENDBRANCH  14  16
ENDBRANCH  11  14
ENDBRANCH   1  11
BRANCH   4  25
ATOM     25  O3  Z79 d   1       5.267  -5.858   9.338  0.00  0.00    -0.356 OA
BRANCH  25  26
ATOM     26  C9  Z79 d   1       6.328  -6.788   9.538  0.00  0.00     0.010 C 
ATOM     27  H8  Z79 d   1       6.899  -6.506  10.435  0.00  0.00     0.066 H 
ATOM     28  H9  Z79 d   1       6.994  -6.779   8.662  0.00  0.00     0.066 H 
ATOM     29  H10 Z79 d   1       5.911  -7.797   9.671  0.00  0.00     0.066 H 
ENDBRANCH  25  26
ENDBRANCH   4  25
TORSDOF 7
