REMARK  5 active torsions:
REMARK  status: ('A' for Active; 'I' for Inactive)
REMARK    1  A    between atoms: N_1  and  CA_2 
REMARK    2  A    between atoms: CA_2  and  C_3 
REMARK    3  A    between atoms: CA_2  and  CB_5 
REMARK    4  A    between atoms: CB_5  and  CG_6 
REMARK    5  A    between atoms: CG_6  and  CD_7 
ROOT
ATOM      1  CA  GLU d   1      21.477  -4.674  11.039  0.00  0.00     0.183 C 
ATOM      2  H4  GLU d   1      21.913  -5.617  10.676  0.00  0.00     0.101 H 
ENDROOT
BRANCH   1   3
ATOM      3  N   GLU d   1      22.407  -4.077  12.033  0.00  0.00    -0.065 N 
ATOM      4  H1  GLU d   1      22.509  -4.703  12.816  0.00  0.00     0.275 HD
ATOM      5  H2  GLU d   1      22.036  -3.196  12.353  0.00  0.00     0.275 HD
ATOM      6  H3  GLU d   1      23.307  -3.927  11.604  0.00  0.00     0.275 HD
ENDBRANCH   1   3
BRANCH   1   7
ATOM      7  C   GLU d   1      21.309  -3.736   9.839  0.00  0.00     0.204 C 
ATOM      8  O   GLU d   1      21.928  -2.669   9.803  0.00  0.00    -0.646 OA
ATOM      9  OXT GLU d   1      20.589  -4.014   8.871  0.00  0.00    -0.646 OA
ENDBRANCH   1   7
BRANCH   1  10
ATOM     10  CB  GLU d   1      20.144  -4.994  11.707  0.00  0.00    -0.020 C 
ATOM     11  H5  GLU d   1      19.459  -5.407  10.952  0.00  0.00     0.037 H 
ATOM     12  H6  GLU d   1      19.721  -4.066  12.118  0.00  0.00     0.037 H 
BRANCH  10  13
ATOM     13  CG  GLU d   1      20.298  -5.999  12.828  0.00  0.00     0.018 C 
ATOM     14  H7  GLU d   1      21.242  -5.794  13.354  0.00  0.00     0.049 H 
ATOM     15  H8  GLU d   1      20.333  -7.008  12.390  0.00  0.00     0.049 H 
BRANCH  13  16
ATOM     16  CD  GLU d   1      19.176  -5.951  13.826  0.00  0.00     0.172 C 
ATOM     17  OE1 GLU d   1      18.489  -6.977  13.984  0.00  0.00    -0.648 OA
ATOM     18  OE2 GLU d   1      18.980  -4.893  14.450  0.00  0.00    -0.648 OA
ENDBRANCH  13  16
ENDBRANCH  10  13
ENDBRANCH   1  10
TORSDOF 5
