REMARK  7 active torsions:
REMARK  status: ('A' for Active; 'I' for Inactive)
REMARK    1  A    between atoms: N_1  and  CA_2 
REMARK    2  A    between atoms: CA_2  and  C_3 
REMARK    3  A    between atoms: CA_2  and  CB_5 
REMARK    4  A    between atoms: CB_5  and  CG_6 
REMARK    5  A    between atoms: CG_6  and  CD_7 
REMARK    6  A    between atoms: CD_7  and  CE_8 
REMARK    7  A    between atoms: CE_8  and  NZ_9 
ROOT
ATOM      1  CG  LYS d   1      25.371 -40.276   5.748  0.00  0.00    -0.061 C 
ATOM      2  H7  LYS d   1      24.366 -40.600   6.058  0.00  0.00     0.033 H 
ATOM      3  H8  LYS d   1      25.367 -40.049   4.672  0.00  0.00     0.033 H 
ENDROOT
BRANCH   1   4
ATOM      4  CB  LYS d   1      26.350 -41.402   6.007  0.00  0.00    -0.029 C 
ATOM      5  H5  LYS d   1      27.351 -41.062   5.703  0.00  0.00     0.036 H 
ATOM      6  H6  LYS d   1      26.348 -41.615   7.086  0.00  0.00     0.036 H 
BRANCH   4   7
ATOM      7  CA  LYS d   1      26.041 -42.718   5.256  0.00  0.00     0.182 C 
ATOM      8  H4  LYS d   1      26.763 -43.485   5.574  0.00  0.00     0.101 H 
BRANCH   7   9
ATOM      9  N   LYS d   1      26.175 -42.493   3.797  0.00  0.00    -0.065 N 
ATOM     10  H1  LYS d   1      27.105 -42.162   3.592  0.00  0.00     0.275 HD
ATOM     11  H2  LYS d   1      25.501 -41.805   3.500  0.00  0.00     0.275 HD
ATOM     12  H3  LYS d   1      26.011 -43.358   3.307  0.00  0.00     0.275 HD
ENDBRANCH   7   9
BRANCH   7  13
ATOM     13  C   LYS d   1      24.623 -43.220   5.552  0.00  0.00     0.204 C 
ATOM     14  O   LYS d   1      24.281 -43.254   6.746  0.00  0.00    -0.646 OA
ATOM     15  OXT LYS d   1      23.883 -43.562   4.592  0.00  0.00    -0.646 OA
ENDBRANCH   7  13
ENDBRANCH   4   7
ENDBRANCH   1   4
BRANCH   1  16
ATOM     16  CD  LYS d   1      25.733 -39.039   6.501  0.00  0.00    -0.043 C 
ATOM     17  H9  LYS d   1      26.727 -38.689   6.186  0.00  0.00     0.035 H 
ATOM     18  H10 LYS d   1      25.744 -39.250   7.580  0.00  0.00     0.035 H 
BRANCH  16  19
ATOM     19  CE  LYS d   1      24.706 -37.990   6.199  0.00  0.00     0.080 C 
ATOM     20  H11 LYS d   1      23.720 -38.363   6.514  0.00  0.00     0.075 H 
ATOM     21  H12 LYS d   1      24.700 -37.807   5.114  0.00  0.00     0.075 H 
BRANCH  19  22
ATOM     22  NZ  LYS d   1      24.971 -36.708   6.894  0.00  0.00    -0.079 N 
ATOM     23  H13 LYS d   1      24.253 -36.042   6.656  0.00  0.00     0.274 HD
ATOM     24  H14 LYS d   1      25.869 -36.350   6.608  0.00  0.00     0.274 HD
ATOM     25  H15 LYS d   1      24.971 -36.860   7.891  0.00  0.00     0.274 HD
ENDBRANCH  19  22
ENDBRANCH  16  19
ENDBRANCH   1  16
TORSDOF 7
