REMARK  17 active torsions:
REMARK  status: ('A' for Active; 'I' for Inactive)
REMARK       I    between atoms: N1_3  and  C7_19 
REMARK    1  A    between atoms: C16_28  and  N1_3 
REMARK    2  A    between atoms: N3_11  and  S1_5 
REMARK    3  A    between atoms: S1_5  and  C29_41 
REMARK    4  A    between atoms: C2_6  and  C8_20 
REMARK       I    between atoms: C8_20  and  N2_8 
REMARK    5  A    between atoms: N2_8  and  C9_21 
REMARK    6  A    between atoms: N2_8  and  C10_22 
REMARK    7  A    between atoms: C7_19  and  C4_13 
REMARK    8  A    between atoms: C17_29  and  O5_17 
REMARK    9  A    between atoms: C6_18  and  C15_27 
REMARK   10  A    between atoms: C9_21  and  C13_25 
REMARK   11  A    between atoms: C10_22  and  C11_23 
REMARK   12  A    between atoms: C11_23  and  C12_24 
REMARK   13  A    between atoms: C13_25  and  C14_26 
REMARK   14  A    between atoms: C16_28  and  C17_29 
REMARK   15  A    between atoms: C19_31  and  C16_28 
REMARK   16  A    between atoms: C17_29  and  C18_30 
REMARK   17  A    between atoms: C20_32  and  C19_31 
ROOT
ATOM      1  C16 Z74 d   1      22.506  10.769  22.990  0.00  0.00     0.043 C 
ATOM      2  H25 Z74 d   1      21.649  11.335  22.595  0.00  0.00     0.077 H 
ENDROOT
BRANCH   1   3
ATOM      3  N1  Z74 d   1      23.552  11.716  23.424  0.00  0.00    -0.349 N 
ATOM      4  C7  Z74 d   1      23.360  13.078  23.468  0.00  0.00     0.252 C 
ATOM      5  O4  Z74 d   1      22.254  13.577  23.284  0.00  0.00    -0.268 OA
ATOM      6  H2  Z74 d   1      24.442  11.351  23.699  0.00  0.00     0.163 HD
BRANCH   4   7
ATOM      7  C4  Z74 d   1      24.568  13.882  23.749  0.00  0.00     0.033 A 
ATOM      8  C3  Z74 d   1      25.860  13.459  23.337  0.00  0.00    -0.052 A 
ATOM      9  C2  Z74 d   1      27.007  14.255  23.618  0.00  0.00     0.033 A 
ATOM     10  H3  Z74 d   1      25.974  12.522  22.804  0.00  0.00     0.086 H 
ATOM     11  C1  Z74 d   1      26.847  15.482  24.323  0.00  0.00    -0.062 A 
ATOM     12  C6  Z74 d   1      25.565  15.921  24.745  0.00  0.00    -0.060 A 
ATOM     13  H1  Z74 d   1      27.718  16.090  24.541  0.00  0.00     0.085 H 
ATOM     14  C5  Z74 d   1      24.429  15.115  24.454  0.00  0.00    -0.062 A 
ATOM     15  H6  Z74 d   1      23.445  15.442  24.772  0.00  0.00     0.085 H 
BRANCH   9  16
ATOM     16  C8  Z74 d   1      28.376  13.835  23.206  0.00  0.00     0.253 C 
ATOM     17  N2  Z74 d   1      28.707  13.523  21.862  0.00  0.00    -0.348 N 
ATOM     18  O3  Z74 d   1      29.229  13.756  24.090  0.00  0.00    -0.267 OA
BRANCH  17  19
ATOM     19  C9  Z74 d   1      29.973  12.757  21.641  0.00  0.00    -0.002 C 
ATOM     20  H8  Z74 d   1      30.491  12.656  22.606  0.00  0.00     0.064 H 
ATOM     21  H9  Z74 d   1      30.605  13.325  20.943  0.00  0.00     0.064 H 
BRANCH  19  22
ATOM     22  C13 Z74 d   1      29.750  11.340  21.055  0.00  0.00    -0.053 C 
ATOM     23  H17 Z74 d   1      30.732  10.869  20.902  0.00  0.00     0.034 H 
ATOM     24  H18 Z74 d   1      29.238  11.441  20.087  0.00  0.00     0.034 H 
BRANCH  22  25
ATOM     25  C14 Z74 d   1      28.908  10.424  21.955  0.00  0.00    -0.075 C 
ATOM     26  H19 Z74 d   1      28.794   9.441  21.474  0.00  0.00     0.027 H 
ATOM     27  H20 Z74 d   1      27.916  10.873  22.110  0.00  0.00     0.027 H 
ATOM     28  H21 Z74 d   1      29.411  10.301  22.926  0.00  0.00     0.027 H 
ENDBRANCH  22  25
ENDBRANCH  19  22
ENDBRANCH  17  19
BRANCH  17  29
ATOM     29  C10 Z74 d   1      27.913  13.906  20.648  0.00  0.00    -0.002 C 
ATOM     30  H10 Z74 d   1      26.933  14.283  20.975  0.00  0.00     0.064 H 
ATOM     31  H11 Z74 d   1      27.772  13.011  20.025  0.00  0.00     0.064 H 
BRANCH  29  32
ATOM     32  C11 Z74 d   1      28.596  14.991  19.798  0.00  0.00    -0.053 C 
ATOM     33  H12 Z74 d   1      28.014  15.133  18.876  0.00  0.00     0.034 H 
ATOM     34  H13 Z74 d   1      29.610  14.650  19.543  0.00  0.00     0.034 H 
BRANCH  32  35
ATOM     35  C12 Z74 d   1      28.701  16.339  20.522  0.00  0.00    -0.075 C 
ATOM     36  H14 Z74 d   1      29.196  17.070  19.866  0.00  0.00     0.027 H 
ATOM     37  H15 Z74 d   1      29.289  16.216  21.443  0.00  0.00     0.027 H 
ATOM     38  H16 Z74 d   1      27.693  16.698  20.776  0.00  0.00     0.027 H 
ENDBRANCH  32  35
ENDBRANCH  29  32
ENDBRANCH  17  29
ENDBRANCH   9  16
BRANCH  12  39
ATOM     39  C15 Z74 d   1      25.421  17.228  25.491  0.00  0.00    -0.051 C 
ATOM     40  H22 Z74 d   1      26.411  17.692  25.612  0.00  0.00     0.033 H 
ATOM     41  H23 Z74 d   1      24.981  17.038  26.481  0.00  0.00     0.033 H 
ATOM     42  H24 Z74 d   1      24.766  17.905  24.922  0.00  0.00     0.033 H 
ENDBRANCH  12  39
ENDBRANCH   4   7
ENDBRANCH   1   3
BRANCH   1  43
ATOM     43  C17 Z74 d   1      22.023   9.931  24.200  0.00  0.00     0.084 C 
ATOM     44  H26 Z74 d   1      22.901   9.427  24.631  0.00  0.00     0.089 H 
BRANCH  43  45
ATOM     45  O5  Z74 d   1      21.096   8.955  23.755  0.00  0.00    -0.391 OA
ATOM     46  H7  Z74 d   1      21.517   8.386  23.121  0.00  0.00     0.210 HD
ENDBRANCH  43  45
BRANCH  43  47
ATOM     47  C18 Z74 d   1      21.338  10.746  25.319  0.00  0.00     0.140 C 
ATOM     48  N4  Z74 d   1      21.058   9.828  26.448  0.00  0.00    -0.066 N 
ATOM     49  C28 Z74 d   1      20.381  10.505  27.575  0.00  0.00     0.094 C 
ATOM     50  H4  Z74 d   1      21.930   9.446  26.778  0.00  0.00     0.277 HD
ATOM     51  H5  Z74 d   1      20.467   9.081  26.118  0.00  0.00     0.277 HD
ATOM     52  C27 Z74 d   1      19.073  11.175  27.119  0.00  0.00     0.016 C 
ATOM     53  H37 Z74 d   1      21.052  11.273  27.987  0.00  0.00     0.077 H 
ATOM     54  H38 Z74 d   1      20.151   9.762  28.353  0.00  0.00     0.077 H 
ATOM     55  N3  Z74 d   1      19.209  12.045  25.910  0.00  0.00    -0.203 NA
ATOM     56  H35 Z74 d   1      18.343  10.384  26.892  0.00  0.00     0.059 H 
ATOM     57  H36 Z74 d   1      18.698  11.794  27.947  0.00  0.00     0.059 H 
ATOM     58  C26 Z74 d   1      20.018  11.422  24.845  0.00  0.00     0.022 C 
ATOM     59  H33 Z74 d   1      20.279  12.203  24.116  0.00  0.00     0.060 H 
ATOM     60  H34 Z74 d   1      19.401  10.655  24.355  0.00  0.00     0.060 H 
ATOM     61  H27 Z74 d   1      22.029  11.534  25.655  0.00  0.00     0.090 H 
BRANCH  55  62
ATOM     62  S1  Z74 d   1      17.746  12.838  25.359  0.00  0.00     0.243 S 
ATOM     63  O1  Z74 d   1      18.161  13.683  24.278  0.00  0.00    -0.206 OA
ATOM     64  O2  Z74 d   1      17.172  13.428  26.536  0.00  0.00    -0.206 OA
BRANCH  62  65
ATOM     65  C29 Z74 d   1      16.683  11.537  24.755  0.00  0.00     0.074 A 
ATOM     66  C30 Z74 d   1      16.654  11.246  23.370  0.00  0.00    -0.061 A 
ATOM     67  C31 Z74 d   1      15.815  10.211  22.889  0.00  0.00    -0.082 A 
ATOM     68  H39 Z74 d   1      17.270  11.812  22.681  0.00  0.00     0.085 H 
ATOM     69  C32 Z74 d   1      15.009   9.470  23.790  0.00  0.00    -0.083 A 
ATOM     70  H40 Z74 d   1      15.789   9.985  21.829  0.00  0.00     0.083 H 
ATOM     71  C33 Z74 d   1      15.039   9.761  25.171  0.00  0.00    -0.082 A 
ATOM     72  H41 Z74 d   1      14.369   8.679  23.418  0.00  0.00     0.083 H 
ATOM     73  C34 Z74 d   1      15.877  10.797  25.658  0.00  0.00    -0.061 A 
ATOM     74  H42 Z74 d   1      14.422   9.194  25.859  0.00  0.00     0.083 H 
ATOM     75  H43 Z74 d   1      15.901  11.023  26.718  0.00  0.00     0.085 H 
ENDBRANCH  62  65
ENDBRANCH  55  62
ENDBRANCH  43  47
ENDBRANCH   1  43
BRANCH   1  76
ATOM     76  C19 Z74 d   1      23.082   9.877  21.850  0.00  0.00    -0.020 C 
ATOM     77  H28 Z74 d   1      22.264   9.267  21.439  0.00  0.00     0.043 H 
ATOM     78  H29 Z74 d   1      23.852   9.218  22.279  0.00  0.00     0.043 H 
BRANCH  76  79
ATOM     79  C20 Z74 d   1      23.705  10.668  20.718  0.00  0.00    -0.050 A 
ATOM     80  C21 Z74 d   1      22.970  11.692  20.040  0.00  0.00    -0.039 A 
ATOM     81  C22 Z74 d   1      23.576  12.416  18.991  0.00  0.00     0.119 A 
ATOM     82  H30 Z74 d   1      21.949  11.911  20.332  0.00  0.00     0.089 H 
ATOM     83  F2  Z74 d   1      22.873  13.369  18.371  0.00  0.00    -0.206 F 
ATOM     84  C23 Z74 d   1      24.904  12.159  18.579  0.00  0.00    -0.009 A 
ATOM     85  C24 Z74 d   1      25.611  11.145  19.262  0.00  0.00     0.119 A 
ATOM     86  H31 Z74 d   1      25.361  12.718  17.771  0.00  0.00     0.092 H 
ATOM     87  F1  Z74 d   1      26.859  10.875  18.907  0.00  0.00    -0.206 F 
ATOM     88  C25 Z74 d   1      25.039  10.400  20.319  0.00  0.00    -0.039 A 
ATOM     89  H32 Z74 d   1      25.615   9.631  20.820  0.00  0.00     0.089 H 
ENDBRANCH  76  79
ENDBRANCH   1  76
TORSDOF 17
