REMARK  15 active torsions:
REMARK  status: ('A' for Active; 'I' for Inactive)
REMARK       I    between atoms: C7_19  and  N1_3 
REMARK    1  A    between atoms: S1_5  and  N4_14 
REMARK    2  A    between atoms: C40_48  and  S1_5 
REMARK    3  A    between atoms: C2_6  and  C7_19 
REMARK       I    between atoms: N2_8  and  C15_27 
REMARK    4  A    between atoms: C16_28  and  N2_8 
REMARK    5  A    between atoms: C17_29  and  O3_12 
REMARK    6  A    between atoms: C15_27  and  C4_13 
REMARK    7  A    between atoms: C12_25  and  O5_16 
REMARK    8  A    between atoms: O5_16  and  C34_42 
REMARK    9  A    between atoms: C6_17  and  C14_26 
REMARK   10  A    between atoms: C8_21  and  C12_25 
REMARK   11  A    between atoms: C17_29  and  C16_28 
REMARK   12  A    between atoms: C16_28  and  C18_30 
REMARK   13  A    between atoms: C29_40  and  C17_29 
REMARK   14  A    between atoms: C18_30  and  C19_31 
REMARK   15  A    between atoms: C38_46  and  C32_41 
ROOT
ATOM      1  C16 Z76 d   1      22.543  10.840  22.871  0.00  0.00     0.043 C 
ATOM      2  H20 Z76 d   1      21.699  11.448  22.512  0.00  0.00     0.077 H 
ENDROOT
BRANCH   1   3
ATOM      3  N2  Z76 d   1      23.644  11.732  23.257  0.00  0.00    -0.349 N 
ATOM      4  C15 Z76 d   1      23.381  13.055  23.368  0.00  0.00     0.252 C 
ATOM      5  O2  Z76 d   1      22.262  13.520  23.162  0.00  0.00    -0.268 OA
ATOM      6  H2  Z76 d   1      24.561  11.373  23.433  0.00  0.00     0.163 HD
BRANCH   4   7
ATOM      7  C4  Z76 d   1      24.540  13.870  23.746  0.00  0.00     0.033 A 
ATOM      8  C3  Z76 d   1      25.840  13.474  23.335  0.00  0.00    -0.052 A 
ATOM      9  C2  Z76 d   1      26.987  14.258  23.681  0.00  0.00     0.033 A 
ATOM     10  H3  Z76 d   1      25.965  12.568  22.753  0.00  0.00     0.086 H 
ATOM     11  C1  Z76 d   1      26.818  15.444  24.454  0.00  0.00    -0.062 A 
ATOM     12  C6  Z76 d   1      25.514  15.846  24.869  0.00  0.00    -0.060 A 
ATOM     13  H1  Z76 d   1      27.681  16.041  24.727  0.00  0.00     0.085 H 
ATOM     14  C5  Z76 d   1      24.374  15.061  24.516  0.00  0.00    -0.062 A 
ATOM     15  H7  Z76 d   1      23.384  15.369  24.832  0.00  0.00     0.085 H 
BRANCH   9  16
ATOM     16  C7  Z76 d   1      28.334  13.831  23.255  0.00  0.00     0.254 C 
ATOM     17  N1  Z76 d   1      28.535  13.702  21.903  0.00  0.00    -0.341 N 
ATOM     18  C8  Z76 d   1      29.847  13.280  21.411  0.00  0.00     0.035 C 
ATOM     19  C9  Z76 d   1      27.574  13.957  20.838  0.00  0.00    -0.002 C 
ATOM     20  C11 Z76 d   1      29.825  13.905  20.009  0.00  0.00    -0.043 C 
ATOM     21  H8  Z76 d   1      30.690  13.633  22.022  0.00  0.00     0.076 H 
ATOM     22  C10 Z76 d   1      28.390  14.235  19.600  0.00  0.00    -0.048 C 
ATOM     23  H13 Z76 d   1      30.254  13.194  19.288  0.00  0.00     0.036 H 
ATOM     24  H14 Z76 d   1      30.423  14.828  20.014  0.00  0.00     0.036 H 
ATOM     25  H11 Z76 d   1      28.302  15.291  19.305  0.00  0.00     0.035 H 
ATOM     26  H12 Z76 d   1      28.065  13.594  18.767  0.00  0.00     0.035 H 
ATOM     27  H9  Z76 d   1      26.949  14.827  21.087  0.00  0.00     0.064 H 
ATOM     28  H10 Z76 d   1      26.932  13.077  20.683  0.00  0.00     0.064 H 
ATOM     29  O1  Z76 d   1      29.240  13.591  24.052  0.00  0.00    -0.267 OA
BRANCH  18  30
ATOM     30  C12 Z76 d   1      29.795  11.745  21.347  0.00  0.00     0.038 C 
ATOM     31  H15 Z76 d   1      29.144  11.439  20.515  0.00  0.00     0.077 H 
ATOM     32  H16 Z76 d   1      30.810  11.354  21.182  0.00  0.00     0.077 H 
BRANCH  30  33
ATOM     33  O5  Z76 d   1      29.282  11.217  22.562  0.00  0.00    -0.394 OA
BRANCH  33  34
ATOM     34  C34 Z76 d   1      29.558   9.825  22.676  0.00  0.00     0.004 C 
ATOM     35  H37 Z76 d   1      29.149   9.447  23.625  0.00  0.00     0.066 H 
ATOM     36  H38 Z76 d   1      30.646   9.664  22.655  0.00  0.00     0.066 H 
ATOM     37  H39 Z76 d   1      29.092   9.289  21.836  0.00  0.00     0.066 H 
ENDBRANCH  33  34
ENDBRANCH  30  33
ENDBRANCH  18  30
ENDBRANCH   9  16
BRANCH  12  38
ATOM     38  C14 Z76 d   1      25.343  17.073  25.664  0.00  0.00    -0.051 C 
ATOM     39  H17 Z76 d   1      26.325  17.539  25.835  0.00  0.00     0.033 H 
ATOM     40  H18 Z76 d   1      24.882  16.822  26.631  0.00  0.00     0.033 H 
ATOM     41  H19 Z76 d   1      24.694  17.775  25.120  0.00  0.00     0.033 H 
ENDBRANCH  12  38
ENDBRANCH   4   7
ENDBRANCH   1   3
BRANCH   1  42
ATOM     42  C17 Z76 d   1      22.072   9.984  24.082  0.00  0.00     0.084 C 
ATOM     43  H21 Z76 d   1      22.947   9.480  24.518  0.00  0.00     0.089 H 
BRANCH  42  44
ATOM     44  O3  Z76 d   1      21.137   8.998  23.620  0.00  0.00    -0.391 OA
ATOM     45  H6  Z76 d   1      21.559   8.440  22.977  0.00  0.00     0.210 HD
ENDBRANCH  42  44
BRANCH  42  46
ATOM     46  C29 Z76 d   1      21.394  10.840  25.180  0.00  0.00     0.140 C 
ATOM     47  N3  Z76 d   1      21.194   9.962  26.342  0.00  0.00    -0.066 N 
ATOM     48  C28 Z76 d   1      20.547  10.728  27.412  0.00  0.00     0.094 C 
ATOM     49  H4  Z76 d   1      20.608   9.184  26.081  0.00  0.00     0.277 HD
ATOM     50  H5  Z76 d   1      22.085   9.618  26.663  0.00  0.00     0.277 HD
ATOM     51  C27 Z76 d   1      19.182  11.194  26.942  0.00  0.00     0.016 C 
ATOM     52  H31 Z76 d   1      21.166  11.601  27.665  0.00  0.00     0.077 H 
ATOM     53  H32 Z76 d   1      20.431  10.091  28.301  0.00  0.00     0.077 H 
ATOM     54  N4  Z76 d   1      19.291  12.085  25.763  0.00  0.00    -0.203 NA
ATOM     55  H29 Z76 d   1      18.577  10.316  26.672  0.00  0.00     0.059 H 
ATOM     56  H30 Z76 d   1      18.690  11.741  27.760  0.00  0.00     0.059 H 
ATOM     57  C25 Z76 d   1      20.045  11.390  24.692  0.00  0.00     0.022 C 
ATOM     58  H27 Z76 d   1      20.230  12.101  23.873  0.00  0.00     0.060 H 
ATOM     59  H28 Z76 d   1      19.437  10.552  24.320  0.00  0.00     0.060 H 
ATOM     60  H33 Z76 d   1      22.048  11.681  25.454  0.00  0.00     0.090 H 
BRANCH  54  61
ATOM     61  S1  Z76 d   1      17.821  12.915  25.269  0.00  0.00     0.243 S 
ATOM     62  O6  Z76 d   1      17.312  13.533  26.456  0.00  0.00    -0.206 OA
ATOM     63  O7  Z76 d   1      18.198  13.717  24.146  0.00  0.00    -0.206 OA
BRANCH  61  64
ATOM     64  C40 Z76 d   1      16.722  11.627  24.751  0.00  0.00     0.075 A 
ATOM     65  C35 Z76 d   1      15.948  10.925  25.720  0.00  0.00    -0.061 A 
ATOM     66  C36 Z76 d   1      15.068   9.883  25.311  0.00  0.00    -0.081 A 
ATOM     67  H40 Z76 d   1      16.029  11.184  26.769  0.00  0.00     0.085 H 
ATOM     68  C37 Z76 d   1      14.963   9.544  23.933  0.00  0.00    -0.077 A 
ATOM     69  H41 Z76 d   1      14.479   9.349  26.048  0.00  0.00     0.083 H 
ATOM     70  C38 Z76 d   1      15.736  10.245  22.965  0.00  0.00    -0.061 A 
ATOM     71  H42 Z76 d   1      14.293   8.751  23.620  0.00  0.00     0.084 H 
ATOM     72  C39 Z76 d   1      16.617  11.287  23.373  0.00  0.00    -0.055 A 
ATOM     73  H43 Z76 d   1      17.206  11.820  22.636  0.00  0.00     0.086 H 
BRANCH  70  74
ATOM     74  C32 Z76 d   1      15.625   9.893  21.544  0.00  0.00    -0.051 C 
ATOM     75  H34 Z76 d   1      14.902   9.073  21.425  0.00  0.00     0.033 H 
ATOM     76  H35 Z76 d   1      16.608   9.573  21.168  0.00  0.00     0.033 H 
ATOM     77  H36 Z76 d   1      15.282  10.770  20.975  0.00  0.00     0.033 H 
ENDBRANCH  70  74
ENDBRANCH  61  64
ENDBRANCH  54  61
ENDBRANCH  42  46
ENDBRANCH   1  42
BRANCH   1  78
ATOM     78  C18 Z76 d   1      23.014   9.906  21.743  0.00  0.00    -0.020 C 
ATOM     79  H22 Z76 d   1      22.153   9.329  21.373  0.00  0.00     0.043 H 
ATOM     80  H23 Z76 d   1      23.773   9.217  22.143  0.00  0.00     0.043 H 
BRANCH  78  81
ATOM     81  C19 Z76 d   1      23.617  10.688  20.588  0.00  0.00    -0.050 A 
ATOM     82  C20 Z76 d   1      24.968  10.449  20.201  0.00  0.00    -0.039 A 
ATOM     83  C21 Z76 d   1      25.538  11.178  19.116  0.00  0.00     0.119 A 
ATOM     84  H24 Z76 d   1      25.562   9.713  20.731  0.00  0.00     0.089 H 
ATOM     85  F1  Z76 d   1      26.800  10.957  18.753  0.00  0.00    -0.206 F 
ATOM     86  C22 Z76 d   1      24.765  12.142  18.418  0.00  0.00    -0.009 A 
ATOM     87  C23 Z76 d   1      23.418  12.383  18.802  0.00  0.00     0.119 A 
ATOM     88  H25 Z76 d   1      25.201  12.694  17.593  0.00  0.00     0.092 H 
ATOM     89  F2  Z76 d   1      22.696  13.292  18.143  0.00  0.00    -0.206 F 
ATOM     90  C24 Z76 d   1      22.840  11.657  19.885  0.00  0.00    -0.039 A 
ATOM     91  H26 Z76 d   1      21.811  11.841  20.174  0.00  0.00     0.089 H 
ENDBRANCH  78  81
ENDBRANCH   1  78
TORSDOF 15
