REMARK  5 active torsions:
REMARK  status: ('A' for Active; 'I' for Inactive)
REMARK    1  A    between atoms: C5A_1  and  C5B_2 
REMARK    2  A    between atoms: C5B_2  and  O5G_3 
REMARK    3  A    between atoms: O5G_3  and  P1_4 
REMARK    4  A    between atoms: P1_4  and  O11_5 
REMARK    5  A    between atoms: O11_5  and  P2_8 
ROOT
ATOM      1  O5G TDP d   1      17.610 -64.667   1.941  0.00  0.00    -0.290 OA
ENDROOT
BRANCH   1   2
ATOM      2  C5B TDP d   1      18.521 -64.229   0.926  0.00  0.00     0.028 C 
ATOM      3  H4  TDP d   1      18.019 -64.284  -0.051  0.00  0.00     0.074 H 
ATOM      4  H5  TDP d   1      18.809 -63.188   1.132  0.00  0.00     0.074 H 
BRANCH   2   5
ATOM      5  C5A TDP d   1      19.783 -65.093   0.884  0.00  0.00    -0.056 C 
ATOM      6  H1  TDP d   1      20.454 -64.724   0.094  0.00  0.00     0.030 H 
ATOM      7  H2  TDP d   1      19.506 -66.136   0.673  0.00  0.00     0.030 H 
ATOM      8  H3  TDP d   1      20.297 -65.040   1.855  0.00  0.00     0.030 H 
ENDBRANCH   2   5
ENDBRANCH   1   2
BRANCH   1   9
ATOM      9  P1  TDP d   1      16.162 -63.967   2.055  0.00  0.00     0.418 P 
ATOM     10  O12 TDP d   1      15.439 -64.603   3.180  0.00  0.00    -0.624 OA
ATOM     11  O13 TDP d   1      16.349 -62.499   2.087  0.00  0.00    -0.624 OA
BRANCH   9  12
ATOM     12  O11 TDP d   1      15.501 -64.353   0.633  0.00  0.00    -0.173 OA
BRANCH  12  13
ATOM     13  P2  TDP d   1      14.750 -65.749   0.342  0.00  0.00     0.431 P 
ATOM     14  O21 TDP d   1      13.413 -65.522  -0.255  0.00  0.00    -0.616 OA
ATOM     15  O22 TDP d   1      15.701 -66.610  -0.630  0.00  0.00    -0.616 OA
ATOM     16  O23 TDP d   1      14.681 -66.545   1.742  0.00  0.00    -0.616 OA
ENDBRANCH  12  13
ENDBRANCH   9  12
ENDBRANCH   1   9
TORSDOF 5
