REMARK  18 active torsions:
REMARK  status: ('A' for Active; 'I' for Inactive)
REMARK    1  A    between atoms: CAL_12  and  OAA_1 
REMARK    2  A    between atoms: CAM_13  and  OAB_2 
REMARK    3  A    between atoms: CAQ_17  and  OAC_3 
REMARK    4  A    between atoms: CAR_18  and  OAD_4 
REMARK    5  A    between atoms: CAS_19  and  OAE_5 
REMARK    6  A    between atoms: CAT_20  and  OAF_6 
REMARK    7  A    between atoms: CAU_21  and  OAG_7 
REMARK    8  A    between atoms: CAV_22  and  OAH_8 
REMARK    9  A    between atoms: CAQ_17  and  CAL_12 
REMARK   10  A    between atoms: CAW_23  and  CAM_13 
REMARK   11  A    between atoms: CAS_19  and  CAO_15 
REMARK   12  A    between atoms: CAO_15  and  SAY_25 
REMARK   13  A    between atoms: CAX_24  and  OAP_16 
REMARK   14  A    between atoms: OAP_16  and  SAZ_26 
REMARK   15  A    between atoms: CAT_20  and  CAQ_17 
REMARK   16  A    between atoms: CAX_24  and  CAS_19 
REMARK   17  A    between atoms: CAV_22  and  CAT_20 
REMARK   18  A    between atoms: CAV_22  and  CAX_24 
ROOT
ATOM      1  CAS KTL d   1      39.080  58.057  78.740  0.00  0.00     0.072 C 
ATOM      2  H19 KTL d   1      39.437  57.040  78.522  0.00  0.00     0.088 H 
ENDROOT
BRANCH   1   3
ATOM      3  OAE KTL d   1      37.651  58.058  78.707  0.00  0.00    -0.392 OA
ATOM      4  H5  KTL d   1      37.331  58.923  78.935  0.00  0.00     0.210 HD
ENDBRANCH   1   3
BRANCH   1   5
ATOM      5  CAO KTL d   1      39.571  58.424  80.145  0.00  0.00    -0.005 C 
ATOM      6  H15 KTL d   1      39.297  59.471  80.340  0.00  0.00     0.051 H 
ATOM      7  H16 KTL d   1      40.666  58.322  80.162  0.00  0.00     0.051 H 
BRANCH   5   8
ATOM      8  SAY KTL d   1      38.944  57.487  81.376  0.00  0.00    -0.206 SA
ATOM      9  CAN KTL d   1      37.415  58.028  81.785  0.00  0.00    -0.005 C 
ATOM     10  CAR KTL d   1      37.670  58.882  83.035  0.00  0.00     0.069 C 
ATOM     11  H13 KTL d   1      36.981  58.633  80.975  0.00  0.00     0.051 H 
ATOM     12  H14 KTL d   1      36.746  57.185  82.013  0.00  0.00     0.051 H 
ATOM     13  CAU KTL d   1      38.724  58.113  83.803  0.00  0.00     0.074 C 
ATOM     14  H18 KTL d   1      38.067  59.861  82.729  0.00  0.00     0.088 H 
ATOM     15  CAW KTL d   1      39.811  57.808  82.777  0.00  0.00     0.030 C 
ATOM     16  H21 KTL d   1      38.308  57.172  84.193  0.00  0.00     0.088 H 
ATOM     17  H23 KTL d   1      40.429  58.705  82.624  0.00  0.00     0.062 H 
BRANCH  10  18
ATOM     18  OAD KTL d   1      36.515  59.109  83.850  0.00  0.00    -0.392 OA
ATOM     19  H4  KTL d   1      35.852  59.559  83.340  0.00  0.00     0.210 HD
ENDBRANCH  10  18
BRANCH  13  20
ATOM     20  OAG KTL d   1      39.176  58.896  84.888  0.00  0.00    -0.392 OA
ATOM     21  H7  KTL d   1      39.837  58.414  85.371  0.00  0.00     0.210 HD
ENDBRANCH  13  20
BRANCH  15  22
ATOM     22  CAM KTL d   1      40.750  56.676  83.194  0.00  0.00     0.030 C 
ATOM     23  H11 KTL d   1      41.117  56.162  82.293  0.00  0.00     0.075 H 
ATOM     24  H12 KTL d   1      41.602  57.099  83.747  0.00  0.00     0.075 H 
BRANCH  22  25
ATOM     25  OAB KTL d   1      40.072  55.735  84.027  0.00  0.00    -0.400 OA
ATOM     26  H2  KTL d   1      39.756  56.175  84.808  0.00  0.00     0.209 HD
ENDBRANCH  22  25
ENDBRANCH  15  22
ENDBRANCH   5   8
ENDBRANCH   1   5
BRANCH   1  27
ATOM     27  CAX KTL d   1      39.588  58.984  77.619  0.00  0.00     0.112 C 
ATOM     28  H24 KTL d   1      39.172  59.988  77.789  0.00  0.00     0.093 H 
BRANCH  27  29
ATOM     29  OAP KTL d   1      41.003  59.056  77.661  0.00  0.00    -0.246 OA
BRANCH  29  30
ATOM     30  SAZ KTL d   1      41.760  60.442  78.057  0.00  0.00     0.252 S 
ATOM     31  OAI KTL d   1      41.645  61.423  76.967  0.00  0.00    -0.572 OA
ATOM     32  OAJ KTL d   1      41.140  61.020  79.273  0.00  0.00    -0.572 OA
ATOM     33  OAK KTL d   1      43.183  60.108  78.300  0.00  0.00    -0.572 OA
ENDBRANCH  29  30
ENDBRANCH  27  29
BRANCH  27  34
ATOM     34  CAV KTL d   1      39.164  58.514  76.217  0.00  0.00     0.091 C 
ATOM     35  H22 KTL d   1      38.064  58.506  76.199  0.00  0.00     0.091 H 
BRANCH  34  36
ATOM     36  OAH KTL d   1      39.616  57.164  75.963  0.00  0.00    -0.390 OA
ATOM     37  H8  KTL d   1      40.565  57.152  75.921  0.00  0.00     0.210 HD
ENDBRANCH  34  36
BRANCH  34  38
ATOM     38  CAT KTL d   1      39.629  59.452  75.093  0.00  0.00     0.089 C 
ATOM     39  H20 KTL d   1      39.610  60.477  75.493  0.00  0.00     0.091 H 
BRANCH  38  40
ATOM     40  OAF KTL d   1      38.703  59.391  73.983  0.00  0.00    -0.390 OA
ATOM     41  H6  KTL d   1      38.943  60.043  73.335  0.00  0.00     0.210 HD
ENDBRANCH  38  40
BRANCH  38  42
ATOM     42  CAQ KTL d   1      41.063  59.177  74.621  0.00  0.00     0.083 C 
ATOM     43  H17 KTL d   1      41.739  59.439  75.448  0.00  0.00     0.090 H 
BRANCH  42  44
ATOM     44  OAC KTL d   1      41.256  57.778  74.325  0.00  0.00    -0.391 OA
ATOM     45  H3  KTL d   1      41.015  57.259  75.083  0.00  0.00     0.210 HD
ENDBRANCH  42  44
BRANCH  42  46
ATOM     46  CAL KTL d   1      41.441  60.052  73.421  0.00  0.00     0.043 C 
ATOM     47  H9  KTL d   1      40.629  60.028  72.680  0.00  0.00     0.078 H 
ATOM     48  H10 KTL d   1      41.599  61.087  73.758  0.00  0.00     0.078 H 
BRANCH  46  49
ATOM     49  OAA KTL d   1      42.647  59.555  72.824  0.00  0.00    -0.398 OA
ATOM     50  H1  KTL d   1      43.348  59.577  73.464  0.00  0.00     0.209 HD
ENDBRANCH  46  49
ENDBRANCH  42  46
ENDBRANCH  38  42
ENDBRANCH  34  38
ENDBRANCH  27  34
ENDBRANCH   1  27
TORSDOF 18
