REMARK  11 active torsions:
REMARK  status: ('A' for Active; 'I' for Inactive)
REMARK    1  A    between atoms: N1_1  and  CA1_2 
REMARK    2  A    between atoms: CA1_2  and  C1_3 
REMARK    3  A    between atoms: CA1_2  and  CB1_6 
REMARK    4  A    between atoms: CB1_6  and  CG1_7 
REMARK    5  A    between atoms: CG1_7  and  CD1_8 
REMARK       I    between atoms: CD1_8  and  N2_10 
REMARK    6  A    between atoms: N2_10  and  CA2_11 
REMARK    7  A    between atoms: CA2_11  and  C2_12 
REMARK    8  A    between atoms: CA2_11  and  CB2_14 
REMARK       I    between atoms: C2_12  and  N3_16 
REMARK    9  A    between atoms: CB2_14  and  SG2_15 
REMARK   10  A    between atoms: N3_16  and  CA3_17 
REMARK   11  A    between atoms: CA3_17  and  C3_18 
ROOT
ATOM      1  CD1 GSH d   1      -0.650  32.468 -18.606  0.00  0.00     0.218 C 
ATOM      2  OE1 GSH d   1      -0.665  31.956 -19.723  0.00  0.00    -0.274 OA
ATOM      3  N2  GSH d   1      -0.379  31.808 -17.491  0.00  0.00    -0.347 N 
ATOM      4  H9  GSH d   1      -0.373  32.312 -16.627  0.00  0.00     0.163 HD
ENDROOT
BRANCH   3   5
ATOM      5  CA2 GSH d   1      -0.093  30.397 -17.467  0.00  0.00     0.097 C 
ATOM      6  H10 GSH d   1       0.319  30.081 -18.437  0.00  0.00     0.088 H 
BRANCH   5   7
ATOM      7  C2  GSH d   1      -1.361  29.639 -17.215  0.00  0.00     0.241 C 
ATOM      8  O2  GSH d   1      -1.552  28.645 -17.873  0.00  0.00    -0.271 OA
ATOM      9  N3  GSH d   1      -2.238  30.093 -16.320  0.00  0.00    -0.349 N 
ATOM     10  H14 GSH d   1      -2.010  30.956 -15.870  0.00  0.00     0.163 HD
BRANCH   9  11
ATOM     11  CA3 GSH d   1      -3.497  29.465 -15.926  0.00  0.00     0.075 C 
ATOM     12  H15 GSH d   1      -3.989  29.012 -16.799  0.00  0.00     0.080 H 
ATOM     13  H16 GSH d   1      -4.169  30.207 -15.470  0.00  0.00     0.080 H 
BRANCH  11  14
ATOM     14  C3  GSH d   1      -3.120  28.382 -14.902  0.00  0.00     0.191 C 
ATOM     15  O31 GSH d   1      -1.953  28.386 -14.402  0.00  0.00    -0.647 OA
ATOM     16  O32 GSH d   1      -3.961  27.498 -14.562  0.00  0.00    -0.647 OA
ENDBRANCH  11  14
ENDBRANCH   9  11
ENDBRANCH   5   7
BRANCH   5  17
ATOM     17  CB2 GSH d   1       0.966  30.178 -16.373  0.00  0.00     0.001 C 
ATOM     18  H11 GSH d   1       0.504  30.404 -15.401  0.00  0.00     0.052 H 
ATOM     19  H12 GSH d   1       1.796  30.877 -16.556  0.00  0.00     0.052 H 
BRANCH  17  20
ATOM     20  SG2 GSH d   1       1.653  28.495 -16.293  0.00  0.00    -0.180 SA
ATOM     21  H13 GSH d   1       2.334  28.446 -15.552  0.00  0.00     0.101 HD
ENDBRANCH  17  20
ENDBRANCH   5  17
ENDBRANCH   3   5
BRANCH   1  22
ATOM     22  CG1 GSH d   1      -0.957  33.943 -18.381  0.00  0.00     0.012 C 
ATOM     23  H7  GSH d   1      -2.034  34.068 -18.195  0.00  0.00     0.047 H 
ATOM     24  H8  GSH d   1      -0.390  34.306 -17.511  0.00  0.00     0.047 H 
BRANCH  22  25
ATOM     25  CB1 GSH d   1      -0.558  34.745 -19.618  0.00  0.00    -0.021 C 
ATOM     26  H5  GSH d   1      -0.924  34.201 -20.501  0.00  0.00     0.037 H 
ATOM     27  H6  GSH d   1      -1.057  35.723 -19.557  0.00  0.00     0.037 H 
BRANCH  25  28
ATOM     28  CA1 GSH d   1       0.940  34.998 -19.815  0.00  0.00     0.183 C 
ATOM     29  H4  GSH d   1       1.440  34.037 -20.004  0.00  0.00     0.101 H 
BRANCH  28  30
ATOM     30  N1  GSH d   1       1.571  35.595 -18.626  0.00  0.00    -0.065 N 
ATOM     31  H1  GSH d   1       1.456  34.976 -17.838  0.00  0.00     0.275 HD
ATOM     32  H2  GSH d   1       1.135  36.481 -18.423  0.00  0.00     0.275 HD
ATOM     33  H3  GSH d   1       2.553  35.736 -18.802  0.00  0.00     0.275 HD
ENDBRANCH  28  30
BRANCH  28  34
ATOM     34  C1  GSH d   1       1.061  35.867 -21.070  0.00  0.00     0.204 C 
ATOM     35  O11 GSH d   1       0.615  35.325 -22.139  0.00  0.00    -0.646 OA
ATOM     36  O12 GSH d   1       1.596  37.051 -21.033  0.00  0.00    -0.646 OA
ENDBRANCH  28  34
ENDBRANCH  25  28
ENDBRANCH  22  25
ENDBRANCH   1  22
TORSDOF 11
