REMARK  5 active torsions:
REMARK  status: ('A' for Active; 'I' for Inactive)
REMARK    1  A    between atoms: C1_1  and  N8_13 
REMARK    2  A    between atoms: C6_5  and  C7_12 
REMARK       I    between atoms: N3_6  and  C20_8 
REMARK    3  A    between atoms: C20_8  and  C22_9 
REMARK    4  A    between atoms: N8_13  and  C9_14 
REMARK    5  A    between atoms: N8_13  and  C10_15 
ROOT
ATOM      1  C22 MI1 d   1       5.322  15.524   6.077  0.00  0.00     0.088 C 
ATOM      2  C23 MI1 d   1       6.430  15.309   5.168  0.00  0.00     0.068 C 
ATOM      3  N24 MI1 d   1       7.299  15.078   4.438  0.00  0.00    -0.197 NA
ATOM      4  H9  MI1 d   1       5.013  14.556   6.498  0.00  0.00     0.069 H 
ATOM      5  H10 MI1 d   1       5.651  16.189   6.889  0.00  0.00     0.069 H 
ENDROOT
BRANCH   1   6
ATOM      6  C20 MI1 d   1       4.144  16.152   5.379  0.00  0.00     0.232 C 
ATOM      7  N3  MI1 d   1       2.987  16.243   6.113  0.00  0.00    -0.349 N 
ATOM      8  C2  MI1 d   1       1.790  16.812   5.512  0.00  0.00     0.017 C 
ATOM      9  C4  MI1 d   1       2.808  15.694   7.429  0.00  0.00    -0.002 C 
ATOM     10  C1  MI1 d   1       0.726  15.735   5.410  0.00  0.00     0.031 C 
ATOM     11  H2  MI1 d   1       1.420  17.637   6.138  0.00  0.00     0.067 H 
ATOM     12  H3  MI1 d   1       2.027  17.192   4.507  0.00  0.00     0.067 H 
ATOM     13  C6  MI1 d   1       0.423  15.179   6.808  0.00  0.00    -0.035 C 
ATOM     14  H1  MI1 d   1       1.091  14.937   4.746  0.00  0.00     0.075 H 
ATOM     15  C5  MI1 d   1       1.700  14.662   7.446  0.00  0.00    -0.045 C 
ATOM     16  H8  MI1 d   1      -0.282  14.342   6.693  0.00  0.00     0.042 H 
ATOM     17  H6  MI1 d   1       1.488  14.387   8.490  0.00  0.00     0.036 H 
ATOM     18  H7  MI1 d   1       2.037  13.772   6.894  0.00  0.00     0.036 H 
ATOM     19  H4  MI1 d   1       3.746  15.218   7.750  0.00  0.00     0.064 H 
ATOM     20  H5  MI1 d   1       2.552  16.507   8.125  0.00  0.00     0.064 H 
ATOM     21  O21 MI1 d   1       4.221  16.572   4.238  0.00  0.00    -0.272 OA
BRANCH  10  22
ATOM     22  N8  MI1 d   1      -0.565  16.235   4.924  0.00  0.00    -0.363 N 
BRANCH  22  23
ATOM     23  C9  MI1 d   1      -0.747  17.627   4.602  0.00  0.00    -0.017 C 
ATOM     24  H14 MI1 d   1      -1.779  17.792   4.258  0.00  0.00     0.056 H 
ATOM     25  H15 MI1 d   1      -0.045  17.914   3.805  0.00  0.00     0.056 H 
ATOM     26  H16 MI1 d   1      -0.556  18.238   5.496  0.00  0.00     0.056 H 
ENDBRANCH  22  23
BRANCH  22  27
ATOM     27  C10 MI1 d   1      -1.394  15.375   4.171  0.00  0.00     0.141 A 
ATOM     28  C15 MI1 d   1      -1.269  13.988   4.041  0.00  0.00     0.057 A 
ATOM     29  C16 MI1 d   1      -0.375  12.958   4.474  0.00  0.00    -0.051 A 
ATOM     30  C14 MI1 d   1      -2.240  13.338   3.307  0.00  0.00     0.142 A 
ATOM     31  C11 MI1 d   1      -0.825  11.758   3.987  0.00  0.00    -0.020 A 
ATOM     32  H17 MI1 d   1       0.513  13.103   5.087  0.00  0.00     0.087 H 
ATOM     33  N12 MI1 d   1      -1.966  12.007   3.291  0.00  0.00    -0.350 N 
ATOM     34  H18 MI1 d   1      -0.356  10.786   4.131  0.00  0.00     0.111 H 
ATOM     35  H19 MI1 d   1      -2.539  11.292   2.821  0.00  0.00     0.166 HD
ATOM     36  N17 MI1 d   1      -3.295  13.865   2.689  0.00  0.00    -0.223 NA
ATOM     37  C18 MI1 d   1      -3.298  15.183   2.883  0.00  0.00     0.091 A 
ATOM     38  N19 MI1 d   1      -2.448  15.953   3.569  0.00  0.00    -0.224 NA
ATOM     39  H20 MI1 d   1      -4.117  15.713   2.411  0.00  0.00     0.146 H 
ENDBRANCH  22  27
ENDBRANCH  10  22
BRANCH  13  40
ATOM     40  C7  MI1 d   1      -0.205  16.206   7.750  0.00  0.00    -0.071 C 
ATOM     41  H11 MI1 d   1      -1.133  16.593   7.304  0.00  0.00     0.028 H 
ATOM     42  H12 MI1 d   1       0.499  17.036   7.909  0.00  0.00     0.028 H 
ATOM     43  H13 MI1 d   1      -0.433  15.728   8.714  0.00  0.00     0.028 H 
ENDBRANCH  13  40
ENDBRANCH   1   6
TORSDOF 5
