REMARK  16 active torsions:
REMARK  status: ('A' for Active; 'I' for Inactive)
REMARK    1  A    between atoms: C2_2  and  N1_1 
REMARK    2  A    between atoms: S8_8  and  C5_5 
REMARK    3  A    between atoms: N11_11  and  S8_8 
REMARK    4  A    between atoms: N11_11  and  C12_12 
REMARK    5  A    between atoms: C16_16  and  N11_11 
REMARK    6  A    between atoms: C12_12  and  C13_13 
REMARK    7  A    between atoms: C13_13  and  C14_14 
REMARK    8  A    between atoms: C13_13  and  C15_15 
REMARK    9  A    between atoms: C17_17  and  C16_16 
REMARK   10  A    between atoms: C17_17  and  O18_18 
REMARK   11  A    between atoms: C19_19  and  C17_17 
REMARK   12  A    between atoms: C19_19  and  N20_20 
REMARK   13  A    between atoms: C32_32  and  C19_19 
REMARK       I    between atoms: N20_20  and  C21_21 
REMARK   14  A    between atoms: C21_21  and  O23_23 
REMARK   15  A    between atoms: O23_23  and  C24_24 
REMARK   16  A    between atoms: C38_38  and  C32_32 
ROOT
ATOM      1  C19 017 d   1     -10.546  16.049   0.436  0.00  0.00     0.044 C 
ATOM      2  H20 017 d   1      -9.755  15.324   0.195  0.00  0.00     0.077 H 
ENDROOT
BRANCH   1   3
ATOM      3  C17 017 d   1     -10.137  17.420  -0.101  0.00  0.00     0.067 C 
ATOM      4  H18 017 d   1      -9.291  17.783   0.501  0.00  0.00     0.088 H 
BRANCH   3   5
ATOM      5  C16 017 d   1      -9.690  17.338  -1.552  0.00  0.00     0.019 C 
ATOM      6  H16 017 d   1     -10.457  16.830  -2.156  0.00  0.00     0.061 H 
ATOM      7  H17 017 d   1      -9.518  18.348  -1.952  0.00  0.00     0.061 H 
BRANCH   5   8
ATOM      8  N11 017 d   1      -8.439  16.567  -1.571  0.00  0.00    -0.204 NA
BRANCH   8   9
ATOM      9  S8  017 d   1      -8.611  15.271  -2.510  0.00  0.00     0.243 S 
ATOM     10  O9  017 d   1      -9.904  14.712  -2.232  0.00  0.00    -0.206 OA
ATOM     11  O10 017 d   1      -7.539  14.382  -2.181  0.00  0.00    -0.206 OA
BRANCH   9  12
ATOM     12  C5  017 d   1      -8.511  15.583  -4.074  0.00  0.00     0.074 A 
ATOM     13  C4  017 d   1      -7.261  15.548  -4.677  0.00  0.00    -0.059 A 
ATOM     14  C3  017 d   1      -7.140  15.818  -6.034  0.00  0.00    -0.056 A 
ATOM     15  H4  017 d   1      -6.381  15.310  -4.090  0.00  0.00     0.086 H 
ATOM     16  C2  017 d   1      -8.268  16.101  -6.788  0.00  0.00     0.025 A 
ATOM     17  H3  017 d   1      -6.163  15.807  -6.504  0.00  0.00     0.086 H 
ATOM     18  C7  017 d   1      -9.525  16.125  -6.191  0.00  0.00    -0.056 A 
ATOM     19  C6  017 d   1      -9.650  15.858  -4.830  0.00  0.00    -0.059 A 
ATOM     20  H6  017 d   1     -10.404  16.351  -6.784  0.00  0.00     0.086 H 
ATOM     21  H5  017 d   1     -10.627  15.864  -4.361  0.00  0.00     0.086 H 
BRANCH  16  22
ATOM     22  N1  017 d   1      -8.129  16.351  -8.113  0.00  0.00    -0.399 N 
ATOM     23  H1  017 d   1      -7.194  16.331  -8.546  0.00  0.00     0.156 HD
ATOM     24  H2  017 d   1      -8.958  16.561  -8.687  0.00  0.00     0.156 HD
ENDBRANCH  16  22
ENDBRANCH   9  12
ENDBRANCH   8   9
BRANCH   8  25
ATOM     25  C12 017 d   1      -7.240  17.372  -1.869  0.00  0.00    -0.004 C 
ATOM     26  H7  017 d   1      -7.493  18.137  -2.618  0.00  0.00     0.058 H 
ATOM     27  H8  017 d   1      -6.452  16.716  -2.267  0.00  0.00     0.058 H 
BRANCH  25  28
ATOM     28  C13 017 d   1      -6.733  18.057  -0.597  0.00  0.00    -0.049 C 
ATOM     29  H9  017 d   1      -7.603  18.505  -0.095  0.00  0.00     0.040 H 
BRANCH  28  30
ATOM     30  C14 017 d   1      -6.074  17.080   0.371  0.00  0.00    -0.072 C 
ATOM     31  H10 017 d   1      -5.730  17.624   1.263  0.00  0.00     0.028 H 
ATOM     32  H11 017 d   1      -5.215  16.601  -0.120  0.00  0.00     0.028 H 
ATOM     33  H12 017 d   1      -6.802  16.311   0.668  0.00  0.00     0.028 H 
ENDBRANCH  28  30
BRANCH  28  34
ATOM     34  C15 017 d   1      -5.730  19.168  -0.905  0.00  0.00    -0.072 C 
ATOM     35  H13 017 d   1      -6.183  19.887  -1.603  0.00  0.00     0.028 H 
ATOM     36  H14 017 d   1      -4.829  18.732  -1.361  0.00  0.00     0.028 H 
ATOM     37  H15 017 d   1      -5.457  19.684   0.027  0.00  0.00     0.028 H 
ENDBRANCH  28  34
ENDBRANCH  25  28
ENDBRANCH   8  25
ENDBRANCH   5   8
ENDBRANCH   3   5
BRANCH   3  38
ATOM     38  O18 017 d   1     -11.211  18.357   0.017  0.00  0.00    -0.392 OA
ATOM     39  H19 017 d   1     -11.939  18.072  -0.523  0.00  0.00     0.210 HD
ENDBRANCH   3  38
ENDBRANCH   1   3
BRANCH   1  40
ATOM     40  N20 017 d   1     -10.674  16.160   1.875  0.00  0.00    -0.329 N 
ATOM     41  C21 017 d   1      -9.940  15.496   2.753  0.00  0.00     0.361 C 
ATOM     42  O22 017 d   1      -9.053  14.704   2.469  0.00  0.00    -0.238 OA
ATOM     43  H21 017 d   1     -11.369  16.785   2.231  0.00  0.00     0.165 HD
BRANCH  41  44
ATOM     44  O23 017 d   1     -10.323  15.745   4.133  0.00  0.00    -0.296 OA
BRANCH  44  45
ATOM     45  C24 017 d   1      -9.638  14.989   5.121  0.00  0.00     0.078 C 
ATOM     46  C25 017 d   1      -9.242  15.987   6.189  0.00  0.00     0.048 C 
ATOM     47  O26 017 d   1     -10.479  16.238   6.846  0.00  0.00    -0.358 OA
ATOM     48  H23 017 d   1      -8.835  16.906   5.743  0.00  0.00     0.078 H 
ATOM     49  H24 017 d   1      -8.504  15.557   6.882  0.00  0.00     0.078 H 
ATOM     50  C27 017 d   1     -11.296  15.053   6.802  0.00  0.00     0.137 C 
ATOM     51  O28 017 d   1     -12.624  15.276   6.291  0.00  0.00    -0.361 OA
ATOM     52  C31 017 d   1     -10.624  14.093   5.843  0.00  0.00     0.023 C 
ATOM     53  H25 017 d   1     -11.361  14.618   7.810  0.00  0.00     0.129 H 
ATOM     54  C29 017 d   1     -12.925  14.430   5.186  0.00  0.00     0.023 C 
ATOM     55  C30 017 d   1     -11.737  13.498   5.000  0.00  0.00    -0.035 C 
ATOM     56  H26 017 d   1     -13.077  15.034   4.279  0.00  0.00     0.074 H 
ATOM     57  H27 017 d   1     -13.834  13.846   5.394  0.00  0.00     0.074 H 
ATOM     58  H28 017 d   1     -11.440  13.459   3.942  0.00  0.00     0.037 H 
ATOM     59  H29 017 d   1     -11.984  12.485   5.349  0.00  0.00     0.037 H 
ATOM     60  H30 017 d   1     -10.089  13.286   6.366  0.00  0.00     0.051 H 
ATOM     61  H22 017 d   1      -8.787  14.432   4.702  0.00  0.00     0.088 H 
ENDBRANCH  44  45
ENDBRANCH  41  44
ENDBRANCH   1  40
BRANCH   1  62
ATOM     62  C32 017 d   1     -11.859  15.547  -0.165  0.00  0.00    -0.020 C 
ATOM     63  H31 017 d   1     -11.727  15.403  -1.248  0.00  0.00     0.043 H 
ATOM     64  H32 017 d   1     -12.645  16.296   0.012  0.00  0.00     0.043 H 
BRANCH  62  65
ATOM     65  C38 017 d   1     -12.279  14.233   0.461  0.00  0.00    -0.056 A 
ATOM     66  C33 017 d   1     -13.416  14.178   1.266  0.00  0.00    -0.077 A 
ATOM     67  C34 017 d   1     -13.818  12.981   1.852  0.00  0.00    -0.082 A 
ATOM     68  H33 017 d   1     -13.994  15.079   1.438  0.00  0.00     0.084 H 
ATOM     69  C35 017 d   1     -13.083  11.822   1.635  0.00  0.00    -0.083 A 
ATOM     70  H34 017 d   1     -14.703  12.953   2.477  0.00  0.00     0.083 H 
ATOM     71  C36 017 d   1     -11.953  11.874   0.818  0.00  0.00    -0.082 A 
ATOM     72  H35 017 d   1     -13.384  10.888   2.095  0.00  0.00     0.083 H 
ATOM     73  C37 017 d   1     -11.553  13.070   0.232  0.00  0.00    -0.077 A 
ATOM     74  H36 017 d   1     -11.380  10.972   0.638  0.00  0.00     0.083 H 
ATOM     75  H37 017 d   1     -10.675  13.095  -0.403  0.00  0.00     0.084 H 
ENDBRANCH  62  65
ENDBRANCH   1  62
TORSDOF 16
