REMARK  16 active torsions:
REMARK  status: ('A' for Active; 'I' for Inactive)
REMARK    1  A    between atoms: C2_2  and  N1_1 
REMARK    2  A    between atoms: S8_8  and  C5_5 
REMARK    3  A    between atoms: N11_11  and  S8_8 
REMARK    4  A    between atoms: N11_11  and  C12_12 
REMARK    5  A    between atoms: C16_16  and  N11_11 
REMARK    6  A    between atoms: C12_12  and  C13_13 
REMARK    7  A    between atoms: C13_13  and  C14_14 
REMARK    8  A    between atoms: C13_13  and  C15_15 
REMARK    9  A    between atoms: C17_17  and  C16_16 
REMARK   10  A    between atoms: C17_17  and  O18_18 
REMARK   11  A    between atoms: C19_19  and  C17_17 
REMARK   12  A    between atoms: C19_19  and  N20_20 
REMARK   13  A    between atoms: C32_32  and  C19_19 
REMARK       I    between atoms: N20_20  and  C21_21 
REMARK   14  A    between atoms: C21_21  and  O23_23 
REMARK   15  A    between atoms: O23_23  and  C24_24 
REMARK   16  A    between atoms: C38_38  and  C32_32 
ROOT
ATOM      1  C19 017 d   1      10.438 -15.772   0.632  0.00  0.00     0.044 C 
ATOM      2  H20 017 d   1       9.678 -15.023   0.365  0.00  0.00     0.077 H 
ENDROOT
BRANCH   1   3
ATOM      3  C17 017 d   1       9.982 -17.141   0.144  0.00  0.00     0.067 C 
ATOM      4  H18 017 d   1       9.123 -17.457   0.753  0.00  0.00     0.088 H 
BRANCH   3   5
ATOM      5  C16 017 d   1       9.551 -17.145  -1.322  0.00  0.00     0.019 C 
ATOM      6  H16 017 d   1      10.341 -16.701  -1.946  0.00  0.00     0.061 H 
ATOM      7  H17 017 d   1       9.359 -18.176  -1.653  0.00  0.00     0.061 H 
BRANCH   5   8
ATOM      8  N11 017 d   1       8.316 -16.344  -1.431  0.00  0.00    -0.204 NA
BRANCH   8   9
ATOM      9  S8  017 d   1       8.470 -15.048  -2.395  0.00  0.00     0.243 S 
ATOM     10  O9  017 d   1       9.671 -14.346  -2.059  0.00  0.00    -0.206 OA
ATOM     11  O10 017 d   1       7.310 -14.251  -2.140  0.00  0.00    -0.206 OA
BRANCH   9  12
ATOM     12  C5  017 d   1       8.540 -15.388  -3.949  0.00  0.00     0.074 A 
ATOM     13  C4  017 d   1       7.398 -15.500  -4.736  0.00  0.00    -0.059 A 
ATOM     14  C3  017 d   1       7.534 -15.813  -6.087  0.00  0.00    -0.056 A 
ATOM     15  H4  017 d   1       6.416 -15.346  -4.304  0.00  0.00     0.086 H 
ATOM     16  C2  017 d   1       8.803 -16.001  -6.624  0.00  0.00     0.025 A 
ATOM     17  H3  017 d   1       6.656 -15.909  -6.715  0.00  0.00     0.086 H 
ATOM     18  C7  017 d   1       9.937 -15.882  -5.844  0.00  0.00    -0.056 A 
ATOM     19  C6  017 d   1       9.798 -15.571  -4.504  0.00  0.00    -0.059 A 
ATOM     20  H6  017 d   1      10.920 -16.030  -6.276  0.00  0.00     0.086 H 
ATOM     21  H5  017 d   1      10.680 -15.469  -3.882  0.00  0.00     0.086 H 
BRANCH  16  22
ATOM     22  N1  017 d   1       8.963 -16.291  -7.931  0.00  0.00    -0.399 N 
ATOM     23  H1  017 d   1       8.139 -16.387  -8.542  0.00  0.00     0.156 HD
ATOM     24  H2  017 d   1       9.909 -16.416  -8.319  0.00  0.00     0.156 HD
ENDBRANCH  16  22
ENDBRANCH   9  12
ENDBRANCH   8   9
BRANCH   8  25
ATOM     25  C12 017 d   1       7.174 -17.187  -1.827  0.00  0.00    -0.004 C 
ATOM     26  H7  017 d   1       7.502 -17.900  -2.597  0.00  0.00     0.058 H 
ATOM     27  H8  017 d   1       6.378 -16.547  -2.235  0.00  0.00     0.058 H 
BRANCH  25  28
ATOM     28  C13 017 d   1       6.631 -17.959  -0.629  0.00  0.00    -0.049 C 
ATOM     29  H9  017 d   1       7.418 -18.644  -0.281  0.00  0.00     0.040 H 
BRANCH  28  30
ATOM     30  C14 017 d   1       6.275 -17.020   0.516  0.00  0.00    -0.072 C 
ATOM     31  H10 017 d   1       5.887 -17.605   1.363  0.00  0.00     0.028 H 
ATOM     32  H11 017 d   1       5.507 -16.307   0.181  0.00  0.00     0.028 H 
ATOM     33  H12 017 d   1       7.173 -16.469   0.832  0.00  0.00     0.028 H 
ENDBRANCH  28  30
BRANCH  28  34
ATOM     34  C15 017 d   1       5.409 -18.790  -1.016  0.00  0.00    -0.072 C 
ATOM     35  H13 017 d   1       5.672 -19.466  -1.843  0.00  0.00     0.028 H 
ATOM     36  H14 017 d   1       4.596 -18.121  -1.334  0.00  0.00     0.028 H 
ATOM     37  H15 017 d   1       5.079 -19.382  -0.150  0.00  0.00     0.028 H 
ENDBRANCH  28  34
ENDBRANCH  25  28
ENDBRANCH   8  25
ENDBRANCH   5   8
ENDBRANCH   3   5
BRANCH   3  38
ATOM     38  O18 017 d   1      11.055 -18.065   0.335  0.00  0.00    -0.392 OA
ATOM     39  H19 017 d   1      11.790 -17.811  -0.210  0.00  0.00     0.210 HD
ENDBRANCH   3  38
ENDBRANCH   1   3
BRANCH   1  40
ATOM     40  N20 017 d   1      10.584 -15.855   2.068  0.00  0.00    -0.329 N 
ATOM     41  C21 017 d   1       9.769 -15.250   2.920  0.00  0.00     0.361 C 
ATOM     42  O22 017 d   1       8.796 -14.557   2.630  0.00  0.00    -0.238 OA
ATOM     43  H21 017 d   1      11.339 -16.397   2.437  0.00  0.00     0.165 HD
BRANCH  41  44
ATOM     44  O23 017 d   1      10.167 -15.504   4.290  0.00  0.00    -0.296 OA
BRANCH  44  45
ATOM     45  C24 017 d   1       9.501 -14.707   5.253  0.00  0.00     0.078 C 
ATOM     46  C25 017 d   1       9.103 -15.618   6.395  0.00  0.00     0.048 C 
ATOM     47  O26 017 d   1      10.311 -15.714   7.145  0.00  0.00    -0.358 OA
ATOM     48  H23 017 d   1       8.785 -16.604   6.025  0.00  0.00     0.078 H 
ATOM     49  H24 017 d   1       8.296 -15.174   6.996  0.00  0.00     0.078 H 
ATOM     50  C27 017 d   1      11.048 -14.496   7.040  0.00  0.00     0.137 C 
ATOM     51  O28 017 d   1      12.422 -14.810   6.809  0.00  0.00    -0.361 OA
ATOM     52  C31 017 d   1      10.534 -13.755   5.825  0.00  0.00     0.023 C 
ATOM     53  H25 017 d   1      10.933 -13.889   7.950  0.00  0.00     0.129 H 
ATOM     54  C29 017 d   1      12.765 -14.584   5.451  0.00  0.00     0.023 C 
ATOM     55  C30 017 d   1      11.767 -13.541   4.961  0.00  0.00    -0.035 C 
ATOM     56  H26 017 d   1      12.671 -15.512   4.869  0.00  0.00     0.074 H 
ATOM     57  H27 017 d   1      13.794 -14.203   5.370  0.00  0.00     0.074 H 
ATOM     58  H28 017 d   1      11.529 -13.700   3.899  0.00  0.00     0.037 H 
ATOM     59  H29 017 d   1      12.167 -12.526   5.099  0.00  0.00     0.037 H 
ATOM     60  H30 017 d   1      10.072 -12.789   6.077  0.00  0.00     0.051 H 
ATOM     61  H22 017 d   1       8.638 -14.177   4.824  0.00  0.00     0.088 H 
ENDBRANCH  44  45
ENDBRANCH  41  44
ENDBRANCH   1  40
BRANCH   1  62
ATOM     62  C32 017 d   1      11.787 -15.336   0.070  0.00  0.00    -0.020 C 
ATOM     63  H31 017 d   1      11.701 -15.206  -1.019  0.00  0.00     0.043 H 
ATOM     64  H32 017 d   1      12.538 -16.110   0.289  0.00  0.00     0.043 H 
BRANCH  62  65
ATOM     65  C38 017 d   1      12.221 -14.034   0.692  0.00  0.00    -0.056 A 
ATOM     66  C33 017 d   1      13.283 -14.006   1.594  0.00  0.00    -0.077 A 
ATOM     67  C34 017 d   1      13.680 -12.806   2.166  0.00  0.00    -0.082 A 
ATOM     68  H33 017 d   1      13.800 -14.924   1.849  0.00  0.00     0.084 H 
ATOM     69  C35 017 d   1      13.020 -11.629   1.839  0.00  0.00    -0.083 A 
ATOM     70  H34 017 d   1      14.505 -12.787   2.868  0.00  0.00     0.083 H 
ATOM     71  C36 017 d   1      11.962 -11.659   0.941  0.00  0.00    -0.082 A 
ATOM     72  H35 017 d   1      13.330 -10.690   2.283  0.00  0.00     0.083 H 
ATOM     73  C37 017 d   1      11.565 -12.859   0.366  0.00  0.00    -0.077 A 
ATOM     74  H36 017 d   1      11.443 -10.742   0.687  0.00  0.00     0.083 H 
ATOM     75  H37 017 d   1      10.741 -12.876  -0.338  0.00  0.00     0.084 H 
ENDBRANCH  62  65
ENDBRANCH   1  62
TORSDOF 16
