REMARK  9 active torsions:
REMARK  status: ('A' for Active; 'I' for Inactive)
REMARK    1  A    between atoms: PB_1  and  O3A_5 
REMARK    2  A    between atoms: O3A_5  and  PA_6 
REMARK    3  A    between atoms: PA_6  and  O5'_9 
REMARK    4  A    between atoms: O5'_9  and  C5'_10 
REMARK    5  A    between atoms: C5'_10  and  C4'_11 
REMARK    6  A    between atoms: C3'_13  and  O3'_14 
REMARK    7  A    between atoms: C2'_15  and  O2'_16 
REMARK    8  A    between atoms: C1'_17  and  N9_18 
REMARK    9  A    between atoms: C2_25  and  N2_26 
ROOT
ATOM      1  C4' GDP d   1     -24.704  -8.267   9.680  0.00  0.00     0.089 C 
ATOM      2  O4' GDP d   1     -25.875  -8.455   8.910  0.00  0.00    -0.353 OA
ATOM      3  C3' GDP d   1     -23.854  -7.248   8.945  0.00  0.00     0.091 C 
ATOM      4  C2' GDP d   1     -24.500  -7.216   7.579  0.00  0.00     0.105 C 
ATOM      5  C1' GDP d   1     -25.339  -8.455   7.621  0.00  0.00     0.139 C 
ATOM      6  H3  GDP d   1     -24.147  -9.211   9.769  0.00  0.00     0.090 H 
ATOM      7  H4  GDP d   1     -23.893  -6.264   9.435  0.00  0.00     0.091 H 
ATOM      8  H6  GDP d   1     -25.083  -6.302   7.391  0.00  0.00     0.093 H 
ATOM      9  H8  GDP d   1     -24.636  -9.300   7.583  0.00  0.00     0.122 H 
ENDROOT
BRANCH   5  10
ATOM     10  N9  GDP d   1     -26.245  -8.717   6.503  0.00  0.00    -0.295 N 
ATOM     11  C8  GDP d   1     -27.464  -9.235   6.474  0.00  0.00     0.071 A 
ATOM     12  N7  GDP d   1     -27.877  -9.351   5.203  0.00  0.00    -0.234 NA
ATOM     13  H9  GDP d   1     -28.043  -9.523   7.350  0.00  0.00     0.144 H 
ATOM     14  C5  GDP d   1     -26.893  -8.943   4.399  0.00  0.00     0.171 A 
ATOM     15  C6  GDP d   1     -26.601  -8.772   2.954  0.00  0.00     0.292 A 
ATOM     16  C4  GDP d   1     -25.846  -8.537   5.299  0.00  0.00     0.161 A 
ATOM     17  O6  GDP d   1     -27.374  -9.055   2.073  0.00  0.00    -0.265 OA
ATOM     18  N1  GDP d   1     -25.446  -8.280   2.609  0.00  0.00    -0.154 N 
ATOM     19  C2  GDP d   1     -24.547  -7.948   3.532  0.00  0.00     0.680 A 
ATOM     20  H10 GDP d   1     -25.232  -8.150   1.641  0.00  0.00     0.187 HD
ATOM     21  N3  GDP d   1     -24.727  -8.073   4.825  0.00  0.00    -0.174 N 
ATOM     22  H13 GDP d   1     -23.974  -7.801   5.473  0.00  0.00     0.186 HD
BRANCH  19  23
ATOM     23  N2  GDP d   1     -23.361  -7.453   3.198  0.00  0.00    -0.234 N 
ATOM     24  H11 GDP d   1     -22.682  -7.204   3.931  0.00  0.00     0.174 HD
ATOM     25  H12 GDP d   1     -23.120  -7.319   2.206  0.00  0.00     0.174 HD
ENDBRANCH  19  23
ENDBRANCH   5  10
BRANCH   4  26
ATOM     26  O2' GDP d   1     -23.490  -7.397   6.631  0.00  0.00    -0.388 OA
ATOM     27  H7  GDP d   1     -23.066  -8.234   6.778  0.00  0.00     0.210 HD
ENDBRANCH   4  26
BRANCH   1  28
ATOM     28  C5' GDP d   1     -25.120  -7.810  11.045  0.00  0.00     0.058 C 
ATOM     29  H1  GDP d   1     -25.291  -6.723  11.038  0.00  0.00     0.079 H 
ATOM     30  H2  GDP d   1     -26.045  -8.325  11.344  0.00  0.00     0.079 H 
BRANCH  28  31
ATOM     31  O5' GDP d   1     -24.091  -8.122  11.944  0.00  0.00    -0.287 OA
BRANCH  31  32
ATOM     32  PA  GDP d   1     -24.646  -8.739  13.277  0.00  0.00     0.418 P 
ATOM     33  O1A GDP d   1     -26.123  -8.487  13.239  0.00  0.00    -0.624 OA
ATOM     34  O2A GDP d   1     -24.269 -10.202  13.284  0.00  0.00    -0.624 OA
BRANCH  32  35
ATOM     35  O3A GDP d   1     -24.009  -7.904  14.498  0.00  0.00    -0.173 OA
BRANCH  35  36
ATOM     36  PB  GDP d   1     -24.958  -7.418  15.694  0.00  0.00     0.431 P 
ATOM     37  O1B GDP d   1     -26.125  -8.361  15.775  0.00  0.00    -0.616 OA
ATOM     38  O2B GDP d   1     -25.453  -6.014  15.463  0.00  0.00    -0.616 OA
ATOM     39  O3B GDP d   1     -24.223  -7.477  16.994  0.00  0.00    -0.616 OA
ENDBRANCH  35  36
ENDBRANCH  32  35
ENDBRANCH  31  32
ENDBRANCH  28  31
ENDBRANCH   1  28
BRANCH   3  40
ATOM     40  O3' GDP d   1     -22.492  -7.688   8.842  0.00  0.00    -0.390 OA
ATOM     41  H5  GDP d   1     -21.983  -7.033   8.379  0.00  0.00     0.210 HD
ENDBRANCH   3  40
TORSDOF 9
