REMARK  2 active torsions:
REMARK  status: ('A' for Active; 'I' for Inactive)
REMARK    1  A    between atoms: N2_4  and  O8_5 
REMARK    2  A    between atoms: C1_7  and  S7_8 
ROOT
ATOM      1  C4  BEW d   1      16.034   5.362  14.162  0.00  0.00    -0.084 A 
ATOM      2  C5  BEW d   1      15.237   5.781  15.224  0.00  0.00    -0.082 A 
ATOM      3  C6  BEW d   1      14.883   4.819  16.193  0.00  0.00    -0.049 A 
ATOM      4  N2  BEW d   1      16.143   3.134  14.952  0.00  0.00    -0.251 N 
ATOM      5  C3  BEW d   1      16.483   4.038  14.031  0.00  0.00     0.036 A 
ATOM      6  C1  BEW d   1      15.364   3.535  15.996  0.00  0.00     0.091 A 
ATOM      7  H1  BEW d   1      16.320   6.089  13.404  0.00  0.00     0.079 H 
ATOM      8  H2  BEW d   1      14.899   6.813  15.304  0.00  0.00     0.083 H 
ATOM      9  H3  BEW d   1      14.263   5.073  17.052  0.00  0.00     0.087 H 
ATOM     10  H5  BEW d   1      17.582   4.074  14.009  0.00  0.00     0.074 H 
ATOM     11  H6  BEW d   1      16.108   3.667  13.066  0.00  0.00     0.074 H 
ENDROOT
BRANCH   4  12
ATOM     12  O8  BEW d   1      16.594   1.709  14.862  0.00  0.00    -0.286 OA
ATOM     13  H4  BEW d   1      16.270   1.326  14.055  0.00  0.00     0.244 HD
ENDBRANCH   4  12
BRANCH   6  14
ATOM     14  S7  BEW d   1      15.019   2.195  17.113  0.00  0.00    -0.123 SA
ATOM     15  H7  BEW d   1      14.534   1.463  16.618  0.00  0.00     0.108 HD
ENDBRANCH   6  14
TORSDOF 2
