REMARK  9 active torsions:
REMARK  status: ('A' for Active; 'I' for Inactive)
REMARK    1  A    between atoms: N1_3  and  C4_11 
REMARK    2  A    between atoms: S1_4  and  C9_21 
REMARK    3  A    between atoms: C21_32  and  S1_4 
REMARK    4  A    between atoms: C20_31  and  N3_9 
REMARK    5  A    between atoms: C7_19  and  N5_15 
REMARK       I    between atoms: N5_15  and  C8_20 
REMARK    6  A    between atoms: C6_17  and  C20_31 
REMARK    7  A    between atoms: C8_20  and  C13_25 
REMARK    8  A    between atoms: C10_22  and  C11_23 
REMARK    9  A    between atoms: C17_29  and  C16_28 
ROOT
ATOM      1  O3  M35 d   1      18.865  70.974  23.245  0.00  0.00    -0.266 OA
ATOM      2  N5  M35 d   1      20.310  72.208  22.045  0.00  0.00    -0.319 N 
ATOM      3  C8  M35 d   1      19.829  71.013  22.494  0.00  0.00     0.275 C 
ATOM      4  H8  M35 d   1      21.101  72.199  21.433  0.00  0.00     0.169 HD
ENDROOT
BRANCH   2   5
ATOM      5  C7  M35 d   1      19.764  73.434  22.389  0.00  0.00     0.074 A 
ATOM      6  C22 M35 d   1      20.571  74.344  23.178  0.00  0.00    -0.053 A 
ATOM      7  C18 M35 d   1      19.969  75.595  23.589  0.00  0.00    -0.070 A 
ATOM      8  H18 M35 d   1      21.590  74.096  23.451  0.00  0.00     0.087 H 
ATOM      9  C16 M35 d   1      18.596  75.975  23.248  0.00  0.00    -0.021 A 
ATOM     10  H15 M35 d   1      20.563  76.284  24.178  0.00  0.00     0.084 H 
ATOM     11  C14 M35 d   1      17.797  75.069  22.434  0.00  0.00    -0.033 A 
ATOM     12  C44 M35 d   1      18.404  73.820  22.019  0.00  0.00     0.143 A 
ATOM     13  H13 M35 d   1      16.782  75.321  22.148  0.00  0.00     0.089 H 
ATOM     14  F4  M35 d   1      17.698  72.981  21.264  0.00  0.00    -0.204 F 
BRANCH   9  15
ATOM     15  C17 M35 d   1      18.055  77.329  23.668  0.00  0.00    -0.004 A 
ATOM     16  C15 M35 d   1      17.304  77.467  24.925  0.00  0.00    -0.071 A 
ATOM     17  C23 M35 d   1      16.851  78.785  25.369  0.00  0.00    -0.082 A 
ATOM     18  H14 M35 d   1      17.086  76.590  25.524  0.00  0.00     0.084 H 
ATOM     19  C26 M35 d   1      17.106  80.012  24.626  0.00  0.00    -0.082 A 
ATOM     20  H19 M35 d   1      16.297  78.852  26.298  0.00  0.00     0.083 H 
ATOM     21  C24 M35 d   1      17.812  79.883  23.364  0.00  0.00    -0.061 A 
ATOM     22  H21 M35 d   1      16.783  80.977  24.999  0.00  0.00     0.083 H 
ATOM     23  C21 M35 d   1      18.268  78.563  22.898  0.00  0.00     0.070 A 
ATOM     24  H20 M35 d   1      18.004  80.763  22.762  0.00  0.00     0.085 H 
BRANCH  23  25
ATOM     25  S1  M35 d   1      18.997  78.593  21.264  0.00  0.00     0.172 S 
ATOM     26  O4  M35 d   1      20.071  77.648  21.206  0.00  0.00    -0.223 OA
ATOM     27  O5  M35 d   1      19.322  79.957  20.960  0.00  0.00    -0.223 OA
BRANCH  25  28
ATOM     28  C9  M35 d   1      17.602  78.073  20.254  0.00  0.00     0.020 C 
ATOM     29  H9  M35 d   1      17.351  77.027  20.486  0.00  0.00     0.049 H 
ATOM     30  H10 M35 d   1      17.867  78.159  19.190  0.00  0.00     0.049 H 
ATOM     31  H11 M35 d   1      16.735  78.714  20.469  0.00  0.00     0.049 H 
ENDBRANCH  25  28
ENDBRANCH  23  25
ENDBRANCH   9  15
ENDBRANCH   2   5
BRANCH   3  32
ATOM     32  C13 M35 d   1      20.431  69.795  22.103  0.00  0.00     0.129 A 
ATOM     33  N1  M35 d   1      20.071  68.520  22.470  0.00  0.00    -0.228 N 
ATOM     34  N6  M35 d   1      20.920  67.634  21.863  0.00  0.00    -0.162 NA
ATOM     35  C10 M35 d   1      21.825  68.291  21.134  0.00  0.00     0.163 A 
ATOM     36  C12 M35 d   1      21.556  69.685  21.246  0.00  0.00    -0.015 A 
ATOM     37  H12 M35 d   1      22.102  70.499  20.771  0.00  0.00     0.091 H 
BRANCH  33  38
ATOM     38  C4  M35 d   1      19.146  68.098  23.416  0.00  0.00     0.059 A 
ATOM     39  C3  M35 d   1      17.833  67.539  23.063  0.00  0.00    -0.055 A 
ATOM     40  C2  M35 d   1      16.883  67.063  24.077  0.00  0.00    -0.080 A 
ATOM     41  H3  M35 d   1      17.556  67.476  22.017  0.00  0.00     0.087 H 
ATOM     42  C1  M35 d   1      17.243  67.150  25.492  0.00  0.00    -0.075 A 
ATOM     43  H2  M35 d   1      15.925  66.652  23.780  0.00  0.00     0.083 H 
ATOM     44  C6  M35 d   1      18.551  67.724  25.838  0.00  0.00    -0.031 A 
ATOM     45  H1  M35 d   1      16.565  66.801  26.263  0.00  0.00     0.084 H 
ATOM     46  C5  M35 d   1      19.499  68.198  24.829  0.00  0.00    -0.048 A 
ATOM     47  H7  M35 d   1      20.453  68.619  25.127  0.00  0.00     0.087 H 
BRANCH  44  48
ATOM     48  C20 M35 d   1      18.945  67.837  27.295  0.00  0.00     0.103 C 
ATOM     49  H16 M35 d   1      19.061  68.902  27.544  0.00  0.00     0.082 H 
ATOM     50  H17 M35 d   1      18.143  67.402  27.909  0.00  0.00     0.082 H 
BRANCH  48  51
ATOM     51  N3  M35 d   1      20.205  67.142  27.609  0.00  0.00    -0.075 N 
ATOM     52  H4  M35 d   1      20.414  67.252  28.589  0.00  0.00     0.274 HD
ATOM     53  H5  M35 d   1      20.952  67.537  27.059  0.00  0.00     0.274 HD
ATOM     54  H6  M35 d   1      20.111  66.162  27.394  0.00  0.00     0.274 HD
ENDBRANCH  48  51
ENDBRANCH  44  48
ENDBRANCH  33  38
BRANCH  35  55
ATOM     55  C11 M35 d   1      23.003  67.662  20.389  0.00  0.00     0.436 C 
ATOM     56  F1  M35 d   1      24.095  67.916  21.068  0.00  0.00    -0.165 F 
ATOM     57  F2  M35 d   1      22.845  66.348  20.272  0.00  0.00    -0.165 F 
ATOM     58  F3  M35 d   1      23.093  68.179  19.197  0.00  0.00    -0.165 F 
ENDBRANCH  35  55
ENDBRANCH   3  32
TORSDOF 9
