REMARK  9 active torsions:
REMARK  status: ('A' for Active; 'I' for Inactive)
REMARK    1  A    between atoms: N1_3  and  C4_11 
REMARK    2  A    between atoms: S1_4  and  C9_21 
REMARK    3  A    between atoms: C21_32  and  S1_4 
REMARK    4  A    between atoms: C20_31  and  N3_9 
REMARK    5  A    between atoms: C7_19  and  N5_15 
REMARK       I    between atoms: N5_15  and  C8_20 
REMARK    6  A    between atoms: C6_17  and  C20_31 
REMARK    7  A    between atoms: C8_20  and  C13_25 
REMARK    8  A    between atoms: C10_22  and  C11_23 
REMARK    9  A    between atoms: C17_29  and  C16_28 
ROOT
ATOM      1  O3  M35 d   1       8.169  29.567  16.373  0.00  0.00    -0.266 OA
ATOM      2  N5  M35 d   1       6.209  30.479  16.973  0.00  0.00    -0.319 N 
ATOM      3  C8  M35 d   1       6.959  29.612  16.233  0.00  0.00     0.275 C 
ATOM      4  H8  M35 d   1       5.213  30.387  16.948  0.00  0.00     0.169 HD
ENDROOT
BRANCH   2   5
ATOM      5  C7  M35 d   1       6.763  31.487  17.762  0.00  0.00     0.074 A 
ATOM      6  C22 M35 d   1       6.630  32.892  17.393  0.00  0.00    -0.053 A 
ATOM      7  C18 M35 d   1       7.240  33.898  18.275  0.00  0.00    -0.070 A 
ATOM      8  H18 M35 d   1       6.098  33.186  16.496  0.00  0.00     0.087 H 
ATOM      9  C16 M35 d   1       7.961  33.542  19.516  0.00  0.00    -0.021 A 
ATOM     10  H15 M35 d   1       7.158  34.944  18.004  0.00  0.00     0.084 H 
ATOM     11  C14 M35 d   1       8.084  32.130  19.871  0.00  0.00    -0.033 A 
ATOM     12  C44 M35 d   1       7.482  31.175  18.973  0.00  0.00     0.143 A 
ATOM     13  H13 M35 d   1       8.604  31.814  20.768  0.00  0.00     0.089 H 
ATOM     14  F4  M35 d   1       7.582  29.880  19.217  0.00  0.00    -0.204 F 
BRANCH   9  15
ATOM     15  C17 M35 d   1       8.505  34.584  20.496  0.00  0.00    -0.004 A 
ATOM     16  C15 M35 d   1       9.838  35.170  20.280  0.00  0.00    -0.071 A 
ATOM     17  C23 M35 d   1      10.409  36.090  21.283  0.00  0.00    -0.082 A 
ATOM     18  H14 M35 d   1      10.399  34.926  19.385  0.00  0.00     0.084 H 
ATOM     19  C26 M35 d   1       9.700  36.476  22.525  0.00  0.00    -0.082 A 
ATOM     20  H19 M35 d   1      11.395  36.503  21.102  0.00  0.00     0.083 H 
ATOM     21  C24 M35 d   1       8.360  35.903  22.714  0.00  0.00    -0.061 A 
ATOM     22  H21 M35 d   1      10.145  37.144  23.254  0.00  0.00     0.083 H 
ATOM     23  C21 M35 d   1       7.788  34.993  21.713  0.00  0.00     0.070 A 
ATOM     24  H20 M35 d   1       7.788  36.154  23.600  0.00  0.00     0.085 H 
BRANCH  23  25
ATOM     25  S1  M35 d   1       6.122  34.448  22.114  0.00  0.00     0.172 S 
ATOM     26  O4  M35 d   1       5.401  34.426  20.894  0.00  0.00    -0.223 OA
ATOM     27  O5  M35 d   1       5.633  35.320  23.136  0.00  0.00    -0.223 OA
BRANCH  25  28
ATOM     28  C9  M35 d   1       6.085  32.832  22.788  0.00  0.00     0.020 C 
ATOM     29  H9  M35 d   1       6.453  32.114  22.040  0.00  0.00     0.049 H 
ATOM     30  H10 M35 d   1       5.053  32.574  23.066  0.00  0.00     0.049 H 
ATOM     31  H11 M35 d   1       6.726  32.792  23.681  0.00  0.00     0.049 H 
ENDBRANCH  25  28
ENDBRANCH  23  25
ENDBRANCH   9  15
ENDBRANCH   2   5
BRANCH   3  32
ATOM     32  C13 M35 d   1       6.383  28.740  15.286  0.00  0.00     0.129 A 
ATOM     33  N1  M35 d   1       7.038  27.891  14.405  0.00  0.00    -0.228 N 
ATOM     34  N6  M35 d   1       6.101  27.248  13.652  0.00  0.00    -0.162 NA
ATOM     35  C10 M35 d   1       4.876  27.677  14.008  0.00  0.00     0.163 A 
ATOM     36  C12 M35 d   1       4.984  28.627  15.060  0.00  0.00    -0.015 A 
ATOM     37  H12 M35 d   1       4.179  29.149  15.575  0.00  0.00     0.091 H 
BRANCH  33  38
ATOM     38  C4  M35 d   1       8.400  27.784  14.071  0.00  0.00     0.059 A 
ATOM     39  C3  M35 d   1       9.343  26.821  14.697  0.00  0.00    -0.055 A 
ATOM     40  C2  M35 d   1      10.770  26.768  14.308  0.00  0.00    -0.080 A 
ATOM     41  H3  M35 d   1       8.977  26.141  15.457  0.00  0.00     0.087 H 
ATOM     42  C1  M35 d   1      11.284  27.668  13.270  0.00  0.00    -0.075 A 
ATOM     43  H2  M35 d   1      11.437  26.063  14.791  0.00  0.00     0.083 H 
ATOM     44  C6  M35 d   1      10.318  28.595  12.661  0.00  0.00    -0.031 A 
ATOM     45  H1  M35 d   1      12.325  27.651  12.967  0.00  0.00     0.084 H 
ATOM     46  C5  M35 d   1       8.900  28.676  13.039  0.00  0.00    -0.048 A 
ATOM     47  H7  M35 d   1       8.240  29.388  12.557  0.00  0.00     0.087 H 
BRANCH  44  48
ATOM     48  C20 M35 d   1      10.844  29.532  11.590  0.00  0.00     0.103 C 
ATOM     49  H16 M35 d   1      10.961  30.529  12.039  0.00  0.00     0.082 H 
ATOM     50  H17 M35 d   1      11.826  29.158  11.265  0.00  0.00     0.082 H 
BRANCH  48  51
ATOM     51  N3  M35 d   1       9.987  29.670  10.389  0.00  0.00    -0.075 N 
ATOM     52  H4  M35 d   1      10.419  30.309   9.740  0.00  0.00     0.274 HD
ATOM     53  H5  M35 d   1       9.084  30.026  10.660  0.00  0.00     0.274 HD
ATOM     54  H6  M35 d   1       9.876  28.769   9.950  0.00  0.00     0.274 HD
ENDBRANCH  48  51
ENDBRANCH  44  48
ENDBRANCH  33  38
BRANCH  35  55
ATOM     55  C11 M35 d   1       3.582  27.281  13.320  0.00  0.00     0.436 C 
ATOM     56  F1  M35 d   1       2.713  26.839  14.213  0.00  0.00    -0.165 F 
ATOM     57  F2  M35 d   1       3.109  28.298  12.694  0.00  0.00    -0.165 F 
ATOM     58  F3  M35 d   1       3.876  26.386  12.404  0.00  0.00    -0.165 F 
ENDBRANCH  35  55
ENDBRANCH   3  32
TORSDOF 9
