REMARK  9 active torsions:
REMARK  status: ('A' for Active; 'I' for Inactive)
REMARK    1  A    between atoms: N1_3  and  C4_12 
REMARK    2  A    between atoms: S1_4  and  N2_7 
REMARK    3  A    between atoms: C21_32  and  S1_4 
REMARK    4  A    between atoms: C9_22  and  N3_10 
REMARK    5  A    between atoms: C5_15  and  C9_22 
REMARK    6  A    between atoms: C7_20  and  N5_16 
REMARK       I    between atoms: N5_16  and  C8_21 
REMARK    7  A    between atoms: C8_21  and  C13_26 
REMARK    8  A    between atoms: C10_23  and  C11_24 
REMARK    9  A    between atoms: C17_30  and  C16_29 
ROOT
ATOM      1  O3  M37 d   1       8.367  42.815  62.505  0.00  0.00    -0.266 OA
ATOM      2  N5  M37 d   1       6.434  41.657  62.176  0.00  0.00    -0.319 N 
ATOM      3  C8  M37 d   1       7.181  42.637  62.769  0.00  0.00     0.275 C 
ATOM      4  H9  M37 d   1       5.473  41.560  62.434  0.00  0.00     0.169 HD
ENDROOT
BRANCH   3   5
ATOM      5  C13 M37 d   1       6.579  43.470  63.713  0.00  0.00     0.129 A 
ATOM      6  N1  M37 d   1       7.172  44.447  64.472  0.00  0.00    -0.227 N 
ATOM      7  N6  M37 d   1       6.224  45.022  65.260  0.00  0.00    -0.162 NA
ATOM      8  C10 M37 d   1       5.035  44.432  65.030  0.00  0.00     0.163 A 
ATOM      9  C12 M37 d   1       5.192  43.430  64.034  0.00  0.00    -0.015 A 
ATOM     10  H13 M37 d   1       4.426  42.780  63.613  0.00  0.00     0.091 H 
BRANCH   6  11
ATOM     11  C4  M37 d   1       8.503  44.826  64.603  0.00  0.00     0.067 A 
ATOM     12  C3  M37 d   1       9.041  45.879  63.747  0.00  0.00    -0.054 A 
ATOM     13  C2  M37 d   1      10.437  46.258  63.936  0.00  0.00    -0.081 A 
ATOM     14  H5  M37 d   1       8.425  46.362  62.997  0.00  0.00     0.087 H 
ATOM     15  C1  M37 d   1      11.315  45.647  64.924  0.00  0.00    -0.082 A 
ATOM     16  H2  M37 d   1      10.844  47.039  63.305  0.00  0.00     0.083 H 
ATOM     17  C6  M37 d   1      10.773  44.608  65.768  0.00  0.00    -0.073 A 
ATOM     18  H1  M37 d   1      12.347  45.963  65.023  0.00  0.00     0.083 H 
ATOM     19  C5  M37 d   1       9.360  44.210  65.599  0.00  0.00    -0.004 A 
ATOM     20  H10 M37 d   1      11.394  44.127  66.515  0.00  0.00     0.084 H 
BRANCH  19  21
ATOM     21  C9  M37 d   1       8.775  43.104  66.472  0.00  0.00     0.105 C 
ATOM     22  H11 M37 d   1       7.756  43.411  66.749  0.00  0.00     0.082 H 
ATOM     23  H12 M37 d   1       8.729  42.193  65.858  0.00  0.00     0.082 H 
BRANCH  21  24
ATOM     24  N3  M37 d   1       9.488  42.756  67.726  0.00  0.00    -0.075 N 
ATOM     25  H6  M37 d   1       8.994  42.015  68.199  0.00  0.00     0.274 HD
ATOM     26  H7  M37 d   1       9.531  43.566  68.324  0.00  0.00     0.274 HD
ATOM     27  H8  M37 d   1      10.423  42.450  67.507  0.00  0.00     0.274 HD
ENDBRANCH  21  24
ENDBRANCH  19  21
ENDBRANCH   6  11
BRANCH   8  28
ATOM     28  C11 M37 d   1       3.750  44.758  65.762  0.00  0.00     0.436 C 
ATOM     29  F1  M37 d   1       2.826  44.964  64.854  0.00  0.00    -0.165 F 
ATOM     30  F2  M37 d   1       3.399  43.771  66.554  0.00  0.00    -0.165 F 
ATOM     31  F3  M37 d   1       3.954  45.843  66.504  0.00  0.00    -0.165 F 
ENDBRANCH   8  28
ENDBRANCH   3   5
BRANCH   2  32
ATOM     32  C7  M37 d   1       6.958  40.800  61.238  0.00  0.00     0.074 A 
ATOM     33  C22 M37 d   1       6.857  39.374  61.495  0.00  0.00    -0.053 A 
ATOM     34  C18 M37 d   1       7.445  38.475  60.529  0.00  0.00    -0.070 A 
ATOM     35  H17 M37 d   1       6.358  38.998  62.381  0.00  0.00     0.087 H 
ATOM     36  C16 M37 d   1       8.118  38.953  59.329  0.00  0.00    -0.021 A 
ATOM     37  H16 M37 d   1       7.383  37.407  60.703  0.00  0.00     0.084 H 
ATOM     38  C14 M37 d   1       8.215  40.377  59.065  0.00  0.00    -0.033 A 
ATOM     39  C44 M37 d   1       7.626  41.269  60.032  0.00  0.00     0.143 A 
ATOM     40  H14 M37 d   1       8.710  40.754  58.177  0.00  0.00     0.089 H 
ATOM     41  F4  M37 d   1       7.722  42.581  59.821  0.00  0.00    -0.204 F 
BRANCH  36  42
ATOM     42  C17 M37 d   1       8.704  38.010  58.310  0.00  0.00    -0.003 A 
ATOM     43  C15 M37 d   1      10.023  37.415  58.573  0.00  0.00    -0.071 A 
ATOM     44  C23 M37 d   1      10.635  36.542  57.579  0.00  0.00    -0.082 A 
ATOM     45  H15 M37 d   1      10.539  37.625  59.503  0.00  0.00     0.084 H 
ATOM     46  C26 M37 d   1       9.990  36.213  56.315  0.00  0.00    -0.081 A 
ATOM     47  H18 M37 d   1      11.611  36.120  57.789  0.00  0.00     0.083 H 
ATOM     48  C24 M37 d   1       8.689  36.794  56.045  0.00  0.00    -0.059 A 
ATOM     49  H20 M37 d   1      10.468  35.554  55.599  0.00  0.00     0.083 H 
ATOM     50  C21 M37 d   1       8.062  37.677  57.037  0.00  0.00     0.090 A 
ATOM     51  H19 M37 d   1       8.180  36.577  55.113  0.00  0.00     0.085 H 
BRANCH  50  52
ATOM     52  S1  M37 d   1       6.445  38.302  56.573  0.00  0.00     0.257 S 
ATOM     53  O4  M37 d   1       5.575  38.082  57.677  0.00  0.00    -0.201 OA
ATOM     54  O5  M37 d   1       6.080  37.786  55.284  0.00  0.00    -0.201 OA
BRANCH  52  55
ATOM     55  N2  M37 d   1       6.594  39.892  56.390  0.00  0.00    -0.324 N 
ATOM     56  H3  M37 d   1       6.846  40.464  57.171  0.00  0.00     0.169 HD
ATOM     57  H4  M37 d   1       6.434  40.309  55.495  0.00  0.00     0.169 HD
ENDBRANCH  52  55
ENDBRANCH  50  52
ENDBRANCH  36  42
ENDBRANCH   2  32
TORSDOF 9
