REMARK  15 active torsions:
REMARK  status: ('A' for Active; 'I' for Inactive)
REMARK    1  A    between atoms: O3_17  and  C1_1 
REMARK    2  A    between atoms: C2_2  and  O2_7 
REMARK    3  A    between atoms: C3_3  and  O3_8 
REMARK    4  A    between atoms: C4_4  and  O4_9 
REMARK    5  A    between atoms: C5_5  and  C6_6 
REMARK    6  A    between atoms: C6_6  and  O6_11 
REMARK    7  A    between atoms: OH_32  and  C1_13 
REMARK    8  A    between atoms: C2_14  and  N2_15 
REMARK    9  A    between atoms: C3_16  and  O3_17 
REMARK   10  A    between atoms: C4_18  and  O4_19 
REMARK   11  A    between atoms: C5_20  and  C6_21 
REMARK   12  A    between atoms: C6_21  and  O6_22 
REMARK   13  A    between atoms: C7_23  and  C8_25 
REMARK   14  A    between atoms: C1_26  and  N1_33 
REMARK   15  A    between atoms: C4_29  and  OH_32 
ROOT
ATOM      1  H12 GAL d   1     -15.163  11.982 -34.603  0.00  0.00     0.133 H 
ATOM      2  H13 GAL d   1     -13.650  10.604 -33.151  0.00  0.00     0.084 H 
ATOM      3  H15 GAL d   1     -16.043  10.696 -31.212  0.00  0.00     0.091 H 
ATOM      4  H16 GAL d   1     -14.421  11.890 -29.766  0.00  0.00     0.091 H 
ATOM      5  H18 GAL d   1     -15.837  13.248 -31.244  0.00  0.00     0.090 H 
ATOM      6  O   A2G d   1     -14.635  13.088 -32.932  0.00  0.00    -0.349 OA
ATOM      7  C1  A2G d   1     -15.303  11.956 -33.512  0.00  0.00     0.159 C 
ATOM      8  C2  A2G d   1     -14.728  10.659 -32.940  0.00  0.00     0.086 C 
ATOM      9  C3  A2G d   1     -14.967  10.628 -31.430  0.00  0.00     0.092 C 
ATOM     10  C4  A2G d   1     -14.245  11.845 -30.851  0.00  0.00     0.089 C 
ATOM     11  C5  A2G d   1     -14.774  13.127 -31.501  0.00  0.00     0.089 C 
ENDROOT
BRANCH   9  12
ATOM     12  O3  A2G d   1     -14.454   9.396 -30.901  0.00  0.00    -0.348 OA
BRANCH  12  13
ATOM     13  C1  GAL d   1     -14.887   9.193 -29.547  0.00  0.00     0.159 C 
ATOM     14  C2  GAL d   1     -14.948   7.682 -29.313  0.00  0.00     0.110 C 
ATOM     15  C3  GAL d   1     -15.265   7.364 -27.851  0.00  0.00     0.092 C 
ATOM     16  H2  GAL d   1     -13.965   7.253 -29.558  0.00  0.00     0.094 H 
ATOM     17  C4  GAL d   1     -14.260   8.092 -26.957  0.00  0.00     0.090 C 
ATOM     18  H3  GAL d   1     -16.285   7.697 -27.610  0.00  0.00     0.091 H 
ATOM     19  C5  GAL d   1     -14.288   9.587 -27.281  0.00  0.00     0.089 C 
ATOM     20  H4  GAL d   1     -14.525   7.938 -25.901  0.00  0.00     0.091 H 
ATOM     21  O5  GAL d   1     -13.929   9.791 -28.657  0.00  0.00    -0.348 OA
ATOM     22  H5  GAL d   1     -15.302   9.977 -27.110  0.00  0.00     0.090 H 
ATOM     23  H1  GAL d   1     -15.878   9.643 -29.388  0.00  0.00     0.133 H 
BRANCH  14  24
ATOM     24  O2  GAL d   1     -15.932   7.088 -30.165  0.00  0.00    -0.388 OA
ATOM     25  H8  GAL d   1     -15.930   6.146 -30.041  0.00  0.00     0.210 HD
ENDBRANCH  14  24
BRANCH  15  26
ATOM     26  O3  GAL d   1     -15.159   5.953 -27.644  0.00  0.00    -0.390 OA
ATOM     27  H9  GAL d   1     -15.785   5.505 -28.201  0.00  0.00     0.210 HD
ENDBRANCH  15  26
BRANCH  17  28
ATOM     28  O4  GAL d   1     -12.949   7.576 -27.203  0.00  0.00    -0.390 OA
ATOM     29  H10 GAL d   1     -12.322   8.032 -26.653  0.00  0.00     0.210 HD
ENDBRANCH  17  28
BRANCH  19  30
ATOM     30  C6  GAL d   1     -13.304  10.325 -26.372  0.00  0.00     0.043 C 
ATOM     31  H6  GAL d   1     -12.287   9.941 -26.542  0.00  0.00     0.078 H 
ATOM     32  H7  GAL d   1     -13.585  10.166 -25.320  0.00  0.00     0.078 H 
BRANCH  30  33
ATOM     33  O6  GAL d   1     -13.342  11.723 -26.670  0.00  0.00    -0.398 OA
ATOM     34  H11 GAL d   1     -13.100  11.859 -27.578  0.00  0.00     0.209 HD
ENDBRANCH  30  33
ENDBRANCH  19  30
ENDBRANCH  12  13
ENDBRANCH   9  12
BRANCH   8  35
ATOM     35  N2  A2G d   1     -15.416   9.511 -33.547  0.00  0.00    -0.360 N 
ATOM     36  C7  A2G d   1     -14.874   8.800 -34.532  0.00  0.00     0.147 C 
ATOM     37  O7  A2G d   1     -13.645   9.129 -35.011  0.00  0.00    -0.178 OA
ATOM     38  H14 GAL d   1     -16.322   9.256 -33.208  0.00  0.00     0.162 HD
BRANCH  36  39
ATOM     39  C8  A2G d   1     -15.564   7.717 -35.065  0.00  0.00    -0.015 C 
ATOM     40  H22 GAL d   1     -14.963   7.256 -35.863  0.00  0.00     0.038 H 
ATOM     41  H23 GAL d   1     -16.523   8.061 -35.480  0.00  0.00     0.038 H 
ATOM     42  H24 GAL d   1     -15.752   6.977 -34.273  0.00  0.00     0.038 H 
ENDBRANCH  36  39
ENDBRANCH   8  35
BRANCH  10  43
ATOM     43  O4  A2G d   1     -12.843  11.720 -31.100  0.00  0.00    -0.390 OA
ATOM     44  H17 GAL d   1     -12.390  12.475 -30.742  0.00  0.00     0.210 HD
ENDBRANCH  10  43
BRANCH   7  45
ATOM     45  OH  NPO d   1     -16.706  11.933 -33.208  0.00  0.00    -0.318 OA
BRANCH  45  46
ATOM     46  C4  NPO d   1     -17.441  12.889 -33.838  0.00  0.00     0.072 A 
ATOM     47  C3  NPO d   1     -18.739  13.115 -33.395  0.00  0.00    -0.048 A 
ATOM     48  C2  NPO d   1     -19.582  13.967 -34.099  0.00  0.00    -0.048 A 
ATOM     49  H26 GAL d   1     -19.096  12.625 -32.496  0.00  0.00     0.087 H 
ATOM     50  C1  NPO d   1     -19.124  14.599 -35.249  0.00  0.00     0.103 A 
ATOM     51  H25 GAL d   1     -20.595  14.138 -33.752  0.00  0.00     0.087 H 
ATOM     52  C6  NPO d   1     -17.822  14.385 -35.687  0.00  0.00    -0.048 A 
ATOM     53  C5  NPO d   1     -16.980  13.530 -34.983  0.00  0.00    -0.048 A 
ATOM     54  H28 GAL d   1     -17.462  14.885 -36.579  0.00  0.00     0.087 H 
ATOM     55  H27 GAL d   1     -15.966  13.364 -35.327  0.00  0.00     0.087 H 
BRANCH  50  56
ATOM     56  N1  NPO d   1     -19.955  15.373 -35.943  0.00  0.00    -0.116 N 
ATOM     57  O2  NPO d   1     -19.528  15.987 -37.151  0.00  0.00    -0.532 OA
ATOM     58  O3  NPO d   1     -21.282  15.576 -35.479  0.00  0.00    -0.532 OA
ENDBRANCH  50  56
ENDBRANCH  45  46
ENDBRANCH   7  45
BRANCH  11  59
ATOM     59  C6  A2G d   1     -13.978  14.320 -30.971  0.00  0.00     0.043 C 
ATOM     60  H19 GAL d   1     -12.918  14.201 -31.239  0.00  0.00     0.078 H 
ATOM     61  H20 GAL d   1     -14.076  14.368 -29.876  0.00  0.00     0.078 H 
BRANCH  59  62
ATOM     62  O6  A2G d   1     -14.483  15.528 -31.548  0.00  0.00    -0.398 OA
ATOM     63  H21 GAL d   1     -14.398  15.486 -32.493  0.00  0.00     0.209 HD
ENDBRANCH  59  62
ENDBRANCH  11  59
TORSDOF 15
