REMARK  10 active torsions:
REMARK  status: ('A' for Active; 'I' for Inactive)
REMARK    1  A    between atoms: C4_4  and  N10_10 
REMARK    2  A    between atoms: N5_5  and  C11_11 
REMARK    3  A    between atoms: C6_6  and  N20_20 
REMARK    4  A    between atoms: C13_13  and  C16_16 
REMARK    5  A    between atoms: C14_14  and  O19_19 
REMARK    6  A    between atoms: C15_15  and  O18_18 
REMARK    7  A    between atoms: C16_16  and  O17_17 
REMARK    8  A    between atoms: O17_17  and  C22_22 
REMARK    9  A    between atoms: N20_20  and  C21_21 
REMARK   10  A    between atoms: C22_22  and  C23_23 
REMARK       I    between atoms: C23_23  and  N25_25 
ROOT
ATOM      1  C11 3F5 d   1      16.025  -3.340   1.510  0.00  0.00     0.156 C 
ATOM      2  O12 3F5 d   1      15.871  -1.936   1.775  0.00  0.00    -0.353 OA
ATOM      3  C13 3F5 d   1      14.921  -1.853   2.865  0.00  0.00     0.089 C 
ATOM      4  C14 3F5 d   1      14.988  -3.223   3.584  0.00  0.00     0.091 C 
ATOM      5  C15 3F5 d   1      16.085  -3.949   2.875  0.00  0.00     0.105 C 
ATOM      6  H4  3F5 d   1      15.181  -3.746   0.934  0.00  0.00     0.123 H 
ATOM      7  H5  3F5 d   1      13.903  -1.645   2.504  0.00  0.00     0.090 H 
ATOM      8  H6  3F5 d   1      15.207  -3.109   4.656  0.00  0.00     0.091 H 
ATOM      9  H7  3F5 d   1      17.062  -3.791   3.354  0.00  0.00     0.093 H 
ENDROOT
BRANCH   1  10
ATOM     10  N5  3F5 d   1      17.255  -3.512   0.780  0.00  0.00    -0.132 N 
ATOM     11  C6  3F5 d   1      18.461  -2.896   1.034  0.00  0.00     0.706 A 
ATOM     12  N7  3F5 d   1      19.325  -3.247   0.082  0.00  0.00    -0.057 NA
ATOM     13  C8  3F5 d   1      18.675  -4.012  -0.783  0.00  0.00     0.168 A 
ATOM     14  C4  3F5 d   1      19.073  -4.670  -1.879  0.00  0.00     0.156 A 
ATOM     15  C9  3F5 d   1      17.367  -4.169  -0.332  0.00  0.00     0.182 A 
ATOM     16  N1  3F5 d   1      18.148  -5.430  -2.575  0.00  0.00    -0.222 NA
ATOM     17  C2  3F5 d   1      16.842  -5.524  -2.123  0.00  0.00     0.091 A 
ATOM     18  N3  3F5 d   1      16.475  -4.927  -1.032  0.00  0.00    -0.221 NA
ATOM     19  H1  3F5 d   1      16.119  -6.103  -2.687  0.00  0.00     0.146 H 
BRANCH  11  20
ATOM     20  N20 3F5 d   1      18.674  -2.095   2.085  0.00  0.00    -0.228 N 
ATOM     21  H12 3F5 d   1      17.941  -1.973   2.799  0.00  0.00     0.177 HD
BRANCH  20  22
ATOM     22  C21 3F5 d   1      19.981  -1.376   2.220  0.00  0.00    -0.005 C 
ATOM     23  H13 3F5 d   1      19.973  -0.770   3.138  0.00  0.00     0.057 H 
ATOM     24  H14 3F5 d   1      20.131  -0.721   1.349  0.00  0.00     0.057 H 
ATOM     25  H15 3F5 d   1      20.799  -2.109   2.272  0.00  0.00     0.057 H 
ENDBRANCH  20  22
ENDBRANCH  11  20
BRANCH  14  26
ATOM     26  N10 3F5 d   1      20.368  -4.572  -2.307  0.00  0.00    -0.382 N 
ATOM     27  H2  3F5 d   1      21.044  -4.003  -1.778  0.00  0.00     0.157 HD
ATOM     28  H3  3F5 d   1      20.668  -5.068  -3.159  0.00  0.00     0.157 HD
ENDBRANCH  14  26
ENDBRANCH   1  10
BRANCH   5  29
ATOM     29  O18 3F5 d   1      15.781  -5.360   2.806  0.00  0.00    -0.388 OA
ATOM     30  H10 3F5 d   1      14.967  -5.485   2.333  0.00  0.00     0.210 HD
ENDBRANCH   5  29
BRANCH   3  31
ATOM     31  C16 3F5 d   1      15.401  -0.750   3.790  0.00  0.00     0.046 C 
ATOM     32  H8  3F5 d   1      14.762  -0.708   4.684  0.00  0.00     0.078 H 
ATOM     33  H9  3F5 d   1      15.365   0.217   3.268  0.00  0.00     0.078 H 
BRANCH  31  34
ATOM     34  O17 3F5 d   1      16.740  -1.044   4.168  0.00  0.00    -0.379 OA
BRANCH  34  35
ATOM     35  C22 3F5 d   1      17.163  -0.200   5.231  0.00  0.00     0.093 C 
ATOM     36  H16 3F5 d   1      16.301   0.069   5.860  0.00  0.00     0.089 H 
ATOM     37  H17 3F5 d   1      17.618   0.714   4.823  0.00  0.00     0.089 H 
BRANCH  35  38
ATOM     38  C23 3F5 d   1      18.187  -0.961   6.058  0.00  0.00     0.239 C 
ATOM     39  O24 3F5 d   1      18.028  -2.160   6.281  0.00  0.00    -0.271 OA
ATOM     40  N25 3F5 d   1      19.255  -0.345   6.511  0.00  0.00    -0.368 N 
ATOM     41  H18 3F5 d   1      19.928  -0.846   7.055  0.00  0.00     0.159 HD
ATOM     42  H19 3F5 d   1      19.395   0.625   6.312  0.00  0.00     0.159 HD
ENDBRANCH  35  38
ENDBRANCH  34  35
ENDBRANCH  31  34
ENDBRANCH   3  31
BRANCH   4  43
ATOM     43  O19 3F5 d   1      13.757  -3.906   3.399  0.00  0.00    -0.390 OA
ATOM     44  H11 3F5 d   1      13.829  -4.786   3.750  0.00  0.00     0.210 HD
ENDBRANCH   4  43
TORSDOF 10
