REMARK  5 active torsions:
REMARK  status: ('A' for Active; 'I' for Inactive)
REMARK    1  A    between atoms: C4_4  and  N7_7 
REMARK    2  A    between atoms: C5_5  and  N18_18 
REMARK    3  A    between atoms: N7_7  and  C8_8 
REMARK    4  A    between atoms: C11_11  and  S14_14 
REMARK    5  A    between atoms: S14_14  and  N17_17 
ROOT
ATOM      1  C8  J45 d   1      -4.349   4.386  14.590  0.00  0.00     0.033 A 
ATOM      2  C9  J45 d   1      -3.501   3.409  15.089  0.00  0.00    -0.056 A 
ATOM      3  C10 J45 d   1      -4.042   2.357  15.799  0.00  0.00    -0.058 A 
ATOM      4  C11 J45 d   1      -5.408   2.254  16.009  0.00  0.00     0.079 A 
ATOM      5  C12 J45 d   1      -6.256   3.222  15.490  0.00  0.00    -0.058 A 
ATOM      6  C13 J45 d   1      -5.731   4.292  14.719  0.00  0.00    -0.056 A 
ATOM      7  H3  J45 d   1      -2.431   3.471  14.924  0.00  0.00     0.087 H 
ATOM      8  H4  J45 d   1      -3.385   1.595  16.201  0.00  0.00     0.086 H 
ATOM      9  H5  J45 d   1      -7.322   3.161  15.674  0.00  0.00     0.086 H 
ATOM     10  H6  J45 d   1      -6.387   5.014  14.245  0.00  0.00     0.087 H 
ENDROOT
BRANCH   1  11
ATOM     11  N7  J45 d   1      -3.762   5.436  13.872  0.00  0.00    -0.339 N 
ATOM     12  H2  J45 d   1      -2.739   5.550  13.916  0.00  0.00     0.167 HD
BRANCH  11  13
ATOM     13  C4  J45 d   1      -4.523   6.365  13.074  0.00  0.00     0.166 C 
ATOM     14  N3  J45 d   1      -5.837   6.160  12.774  0.00  0.00    -0.222 NA
ATOM     15  C2  J45 d   1      -6.542   6.908  11.930  0.00  0.00     0.090 C 
ATOM     16  N1  J45 d   1      -5.930   7.837  11.248  0.00  0.00    -0.227 NA
ATOM     17  H1  J45 d   1      -7.607   6.748  11.811  0.00  0.00     0.146 H 
ATOM     18  C6  J45 d   1      -4.661   8.093  11.395  0.00  0.00     0.164 C 
ATOM     19  C5  J45 d   1      -3.836   7.333  12.288  0.00  0.00     0.189 C 
ATOM     20 CL21 J45 d   1      -4.188   9.421  10.389  0.00  0.00    -0.059 Cl
BRANCH  19  21
ATOM     21  N18 J45 d   1      -2.370   7.457  12.516  0.00  0.00    -0.108 N 
ATOM     22  O19 J45 d   1      -2.151   7.569  13.674  0.00  0.00    -0.532 OA
ATOM     23  O20 J45 d   1      -1.891   7.325  11.439  0.00  0.00    -0.532 OA
ENDBRANCH  19  21
ENDBRANCH  11  13
ENDBRANCH   1  11
BRANCH   4  24
ATOM     24  S14 J45 d   1      -6.015   0.883  16.873  0.00  0.00     0.256 S 
ATOM     25  O15 J45 d   1      -5.448   0.949  18.235  0.00  0.00    -0.201 OA
ATOM     26  O16 J45 d   1      -7.498   0.885  16.742  0.00  0.00    -0.201 OA
BRANCH  24  27
ATOM     27  N17 J45 d   1      -5.333  -0.487  16.138  0.00  0.00    -0.324 N 
ATOM     28  H7  J45 d   1      -5.551  -1.400  16.483  0.00  0.00     0.169 HD
ATOM     29  H8  J45 d   1      -4.713  -0.381  15.361  0.00  0.00     0.169 HD
ENDBRANCH  24  27
ENDBRANCH   4  24
TORSDOF 5
