REMARK  8 active torsions:
REMARK  status: ('A' for Active; 'I' for Inactive)
REMARK    1  A    between atoms: C2_2  and  S21_21 
REMARK    2  A    between atoms: N7_7  and  C4_4 
REMARK    3  A    between atoms: C5_5  and  C18_18 
REMARK    4  A    between atoms: C23_23  and  N7_7 
REMARK    5  A    between atoms: C8_8  and  C23_23 
REMARK    6  A    between atoms: C11_11  and  S14_14 
REMARK    7  A    between atoms: S14_14  and  N17_17 
REMARK    8  A    between atoms: S21_21  and  C22_22 
ROOT
ATOM      1  C23 JDR d   1      -3.694   5.565  13.858  0.00  0.00     0.018 C 
ATOM      2  H12 JDR d   1      -3.324   6.287  14.601  0.00  0.00     0.071 H 
ATOM      3  H13 JDR d   1      -2.843   5.131  13.313  0.00  0.00     0.071 H 
ENDROOT
BRANCH   1   4
ATOM      4  N7  JDR d   1      -4.523   6.279  12.908  0.00  0.00    -0.370 N 
ATOM      5  H1  JDR d   1      -5.272   5.766  12.422  0.00  0.00     0.161 HD
BRANCH   4   6
ATOM      6  C4  JDR d   1      -4.341   7.676  12.617  0.00  0.00     0.143 A 
ATOM      7  N3  JDR d   1      -3.325   8.348  13.161  0.00  0.00    -0.204 NA
ATOM      8  C2  JDR d   1      -3.170   9.642  12.892  0.00  0.00     0.191 A 
ATOM      9  N1  JDR d   1      -3.992  10.307  12.091  0.00  0.00    -0.210 NA
ATOM     10  C6  JDR d   1      -5.016   9.686  11.523  0.00  0.00     0.146 A 
ATOM     11  C5  JDR d   1      -5.230   8.334  11.769  0.00  0.00     0.088 A 
ATOM     12 CL20 JDR d   1      -6.067  10.593  10.499  0.00  0.00    -0.061 Cl
BRANCH   8  13
ATOM     13  S21 JDR d   1      -1.824  10.471  13.659  0.00  0.00    -0.095 SA
BRANCH  13  14
ATOM     14  C22 JDR d   1      -1.103   9.460  14.994  0.00  0.00    -0.027 C 
ATOM     15  H9  JDR d   1      -0.265  10.004  15.454  0.00  0.00     0.042 H 
ATOM     16  H10 JDR d   1      -0.739   8.509  14.578  0.00  0.00     0.042 H 
ATOM     17  H11 JDR d   1      -1.870   9.257  15.755  0.00  0.00     0.042 H 
ENDBRANCH  13  14
ENDBRANCH   8  13
BRANCH  11  18
ATOM     18  C18 JDR d   1      -6.372   7.633  11.140  0.00  0.00     0.125 C 
ATOM     19  O19 JDR d   1      -6.810   6.592  11.635  0.00  0.00    -0.301 OA
ATOM     20  H8  JDR d   1      -6.827   8.038  10.237  0.00  0.00     0.152 H 
ENDBRANCH  11  18
ENDBRANCH   4   6
ENDBRANCH   1   4
BRANCH   1  21
ATOM     21  C8  JDR d   1      -4.393   4.464  14.585  0.00  0.00    -0.041 A 
ATOM     22  C9  JDR d   1      -5.758   4.446  14.879  0.00  0.00    -0.074 A 
ATOM     23  C10 JDR d   1      -6.299   3.353  15.567  0.00  0.00    -0.060 A 
ATOM     24  H2  JDR d   1      -6.393   5.271  14.577  0.00  0.00     0.084 H 
ATOM     25  C11 JDR d   1      -5.455   2.300  15.946  0.00  0.00     0.079 A 
ATOM     26  H3  JDR d   1      -7.356   3.322  15.803  0.00  0.00     0.085 H 
ATOM     27  C12 JDR d   1      -4.102   2.332  15.644  0.00  0.00    -0.060 A 
ATOM     28  C13 JDR d   1      -3.571   3.419  14.965  0.00  0.00    -0.074 A 
ATOM     29  H4  JDR d   1      -3.460   1.509  15.938  0.00  0.00     0.085 H 
ATOM     30  H5  JDR d   1      -2.513   3.449  14.732  0.00  0.00     0.084 H 
BRANCH  25  31
ATOM     31  S14 JDR d   1      -6.050   0.910  16.802  0.00  0.00     0.256 S 
ATOM     32  O15 JDR d   1      -5.529   0.982  18.215  0.00  0.00    -0.201 OA
ATOM     33  O16 JDR d   1      -7.563   0.898  16.634  0.00  0.00    -0.201 OA
BRANCH  31  34
ATOM     34  N17 JDR d   1      -5.395  -0.492  16.058  0.00  0.00    -0.324 N 
ATOM     35  H6  JDR d   1      -5.623  -1.399  16.412  0.00  0.00     0.169 HD
ATOM     36  H7  JDR d   1      -4.785  -0.402  15.271  0.00  0.00     0.169 HD
ENDBRANCH  31  34
ENDBRANCH  25  31
ENDBRANCH   1  21
TORSDOF 8
