REMARK  6 active torsions:
REMARK  status: ('A' for Active; 'I' for Inactive)
REMARK    1  A    between atoms: C10_10  and  S14_14 
REMARK    2  A    between atoms: S14_14  and  C15_15 
REMARK    3  A    between atoms: C15_15  and  C16_16 
REMARK    4  A    between atoms: C16_16  and  C18_18 
REMARK    5  A    between atoms: C20_20  and  S24_24 
REMARK    6  A    between atoms: S24_24  and  N28_28 
ROOT
ATOM      1  S14 E36 d   1      -1.700   2.664  10.859  0.00  0.00    -0.084 SA
ENDROOT
BRANCH   1   2
ATOM      2  C10 E36 d   1      -1.548   4.362  11.453  0.00  0.00     0.167 A 
ATOM      3  N9  E36 d   1      -1.329   5.438  10.757  0.00  0.00    -0.333 N 
ATOM      4  C8  E36 d   1      -1.332   6.511  11.728  0.00  0.00     0.066 A 
ATOM      5  H6  E36 d   1      -1.185   5.511   9.740  0.00  0.00     0.168 HD
ATOM      6  C7  E36 d   1      -1.111   7.958  11.516  0.00  0.00    -0.020 A 
ATOM      7  C12 E36 d   1      -1.562   6.027  12.932  0.00  0.00     0.089 A 
ATOM      8  C6  E36 d   1      -1.138   8.725  12.627  0.00  0.00     0.104 A 
ATOM      9  H5  E36 d   1      -0.938   8.376  10.531  0.00  0.00     0.091 H 
ATOM     10  O1  E36 d   1      -0.927  10.103  12.631  0.00  0.00    -0.346 OA
ATOM     11  C5  E36 d   1      -1.400   8.126  13.974  0.00  0.00     0.104 A 
ATOM     12  C2  E36 d   1      -0.093  10.655  13.650  0.00  0.00     0.046 C 
ATOM     13  C3  E36 d   1      -0.227   9.852  14.991  0.00  0.00     0.046 C 
ATOM     14  H1  E36 d   1      -0.387  11.700  13.827  0.00  0.00     0.078 H 
ATOM     15  H2  E36 d   1       0.954  10.620  13.314  0.00  0.00     0.078 H 
ATOM     16  O4  E36 d   1      -1.362   9.005  15.023  0.00  0.00    -0.346 OA
ATOM     17  H3  E36 d   1      -0.302  10.569  15.822  0.00  0.00     0.078 H 
ATOM     18  H4  E36 d   1       0.674   9.234  15.120  0.00  0.00     0.078 H 
ATOM     19  C13 E36 d   1      -1.609   6.834  14.151  0.00  0.00    -0.018 A 
ATOM     20  H7  E36 d   1      -1.801   6.404  15.127  0.00  0.00     0.091 H 
ATOM     21  N11 E36 d   1      -1.721   4.676  12.849  0.00  0.00    -0.222 NA
ENDBRANCH   1   2
BRANCH   1  22
ATOM     22  C15 E36 d   1      -2.838   2.091  12.203  0.00  0.00     0.043 C 
ATOM     23  H8  E36 d   1      -2.298   2.092  13.161  0.00  0.00     0.061 H 
ATOM     24  H9  E36 d   1      -3.183   1.071  11.977  0.00  0.00     0.061 H 
BRANCH  22  25
ATOM     25  C16 E36 d   1      -4.081   3.048  12.307  0.00  0.00     0.169 C 
ATOM     26  O17 E36 d   1      -4.505   3.623  11.221  0.00  0.00    -0.291 OA
BRANCH  25  27
ATOM     27  C18 E36 d   1      -4.775   3.260  13.659  0.00  0.00     0.012 A 
ATOM     28  C19 E36 d   1      -4.980   2.146  14.602  0.00  0.00    -0.045 A 
ATOM     29  C20 E36 d   1      -5.586   2.366  15.788  0.00  0.00     0.101 A 
ATOM     30  H10 E36 d   1      -4.644   1.149  14.343  0.00  0.00     0.087 H 
ATOM     31  C21 E36 d   1      -6.025   3.732  16.069  0.00  0.00     0.057 A 
ATOM     32  C22 E36 d   1      -5.882   4.760  15.219  0.00  0.00    -0.059 A 
ATOM     33 CL26 E36 d   1      -6.794   3.929  17.581  0.00  0.00    -0.083 Cl
ATOM     34  C23 E36 d   1      -5.235   4.505  13.951  0.00  0.00    -0.068 A 
ATOM     35  H11 E36 d   1      -6.240   5.751  15.475  0.00  0.00     0.086 H 
ATOM     36  H12 E36 d   1      -5.117   5.308  13.232  0.00  0.00     0.085 H 
BRANCH  29  37
ATOM     37  S24 E36 d   1      -5.886   0.930  16.856  0.00  0.00     0.258 S 
ATOM     38  O25 E36 d   1      -7.441   0.899  16.855  0.00  0.00    -0.201 OA
ATOM     39  O27 E36 d   1      -5.270   1.143  18.233  0.00  0.00    -0.201 OA
BRANCH  37  40
ATOM     40  N28 E36 d   1      -5.190  -0.377  16.007  0.00  0.00    -0.324 N 
ATOM     41  H13 E36 d   1      -5.223  -1.299  16.393  0.00  0.00     0.169 HD
ATOM     42  H14 E36 d   1      -4.749  -0.221  15.123  0.00  0.00     0.169 HD
ENDBRANCH  37  40
ENDBRANCH  29  37
ENDBRANCH  25  27
ENDBRANCH  22  25
ENDBRANCH   1  22
TORSDOF 6
