REMARK  16 active torsions:
REMARK  status: ('A' for Active; 'I' for Inactive)
REMARK    1  A    between atoms: C5_1  and  C3_2 
REMARK    2  A    between atoms: C5_1  and  C6_6 
REMARK       I    between atoms: C3_2  and  N1_4 
REMARK    3  A    between atoms: N1_4  and  O2_5 
REMARK    4  A    between atoms: C6_6  and  C12_7 
REMARK    5  A    between atoms: C6_6  and  C7_9 
REMARK       I    between atoms: C12_7  and  N14_14 
REMARK    6  A    between atoms: C7_9  and  C8_10 
REMARK    7  A    between atoms: C8_10  and  C9_11 
REMARK    8  A    between atoms: C9_11  and  C10_12 
REMARK    9  A    between atoms: C10_12  and  C11_13 
REMARK   10  A    between atoms: N14_14  and  C15_15 
REMARK   11  A    between atoms: C15_15  and  C16_16 
REMARK   12  A    between atoms: C15_15  and  C19_19 
REMARK   13  A    between atoms: C16_16  and  C18_17 
REMARK   14  A    between atoms: C16_16  and  C17_18 
REMARK       I    between atoms: C19_19  and  N21_21 
REMARK   15  A    between atoms: C22_22  and  C26_26 
REMARK   16  A    between atoms: C26_26  and  O27_27 
ROOT
ATOM      1  C12 BB2 d   1     -16.889   6.308 -30.643  0.00  0.00     0.223 C 
ATOM      2  O13 BB2 d   1     -17.038   7.540 -30.723  0.00  0.00    -0.273 OA
ATOM      3  N14 BB2 d   1     -17.762   5.294 -30.974  0.00  0.00    -0.347 N 
ATOM      4  H17 BB2 d   1     -17.518   4.394 -31.336  0.00  0.00     0.163 HD
ENDROOT
BRANCH   3   5
ATOM      5  C15 BB2 d   1     -19.139   5.791 -30.690  0.00  0.00     0.092 C 
ATOM      6  H18 BB2 d   1     -19.104   6.843 -30.371  0.00  0.00     0.088 H 
BRANCH   5   7
ATOM      7  C16 BB2 d   1     -19.889   5.629 -32.089  0.00  0.00    -0.033 C 
ATOM      8  H19 BB2 d   1     -20.969   5.602 -31.880  0.00  0.00     0.042 H 
BRANCH   7   9
ATOM      9  C18 BB2 d   1     -19.612   6.817 -33.046  0.00  0.00    -0.071 C 
ATOM     10  H20 BB2 d   1     -20.149   6.658 -33.993  0.00  0.00     0.028 H 
ATOM     11  H21 BB2 d   1     -18.532   6.884 -33.244  0.00  0.00     0.028 H 
ATOM     12  H22 BB2 d   1     -19.958   7.752 -32.580  0.00  0.00     0.028 H 
ENDBRANCH   7   9
BRANCH   7  13
ATOM     13  C17 BB2 d   1     -19.501   4.295 -32.833  0.00  0.00    -0.071 C 
ATOM     14  H23 BB2 d   1     -19.690   3.437 -32.171  0.00  0.00     0.028 H 
ATOM     15  H24 BB2 d   1     -18.435   4.322 -33.102  0.00  0.00     0.028 H 
ATOM     16  H25 BB2 d   1     -20.107   4.194 -33.745  0.00  0.00     0.028 H 
ENDBRANCH   7  13
ENDBRANCH   5   7
BRANCH   5  17
ATOM     17  C19 BB2 d   1     -19.916   4.954 -29.624  0.00  0.00     0.243 C 
ATOM     18  O20 BB2 d   1     -19.412   3.961 -29.146  0.00  0.00    -0.271 OA
ATOM     19  N21 BB2 d   1     -21.254   5.728 -29.363  0.00  0.00    -0.344 N 
ATOM     20  C22 BB2 d   1     -22.222   5.202 -28.352  0.00  0.00     0.035 C 
ATOM     21  C23 BB2 d   1     -21.852   7.011 -29.896  0.00  0.00    -0.002 C 
ATOM     22  C25 BB2 d   1     -23.398   6.200 -28.314  0.00  0.00    -0.043 C 
ATOM     23  H26 BB2 d   1     -21.741   5.134 -27.365  0.00  0.00     0.076 H 
ATOM     24  C24 BB2 d   1     -22.732   7.525 -28.740  0.00  0.00    -0.048 C 
ATOM     25  H31 BB2 d   1     -23.821   6.276 -27.302  0.00  0.00     0.036 H 
ATOM     26  H32 BB2 d   1     -24.189   5.908 -29.021  0.00  0.00     0.036 H 
ATOM     27  H29 BB2 d   1     -23.471   8.263 -29.085  0.00  0.00     0.035 H 
ATOM     28  H30 BB2 d   1     -22.130   7.960 -27.929  0.00  0.00     0.035 H 
ATOM     29  H27 BB2 d   1     -22.459   6.816 -30.792  0.00  0.00     0.064 H 
ATOM     30  H28 BB2 d   1     -21.063   7.738 -30.139  0.00  0.00     0.064 H 
BRANCH  20  31
ATOM     31  C26 BB2 d   1     -22.753   3.812 -28.768  0.00  0.00     0.036 C 
ATOM     32  H33 BB2 d   1     -21.905   3.118 -28.866  0.00  0.00     0.077 H 
ATOM     33  H34 BB2 d   1     -23.269   3.899 -29.736  0.00  0.00     0.077 H 
BRANCH  31  34
ATOM     34  O27 BB2 d   1     -23.665   3.299 -27.799  0.00  0.00    -0.399 OA
ATOM     35  H35 BB2 d   1     -23.223   3.218 -26.962  0.00  0.00     0.209 HD
ENDBRANCH  31  34
ENDBRANCH  20  31
ENDBRANCH   5  17
ENDBRANCH   3   5
BRANCH   1  36
ATOM     36  C6  BB2 d   1     -15.539   5.747 -30.075  0.00  0.00     0.032 C 
ATOM     37  H5  BB2 d   1     -15.449   4.658 -30.201  0.00  0.00     0.055 H 
BRANCH  36  38
ATOM     38  C5  BB2 d   1     -14.493   6.538 -30.945  0.00  0.00     0.022 C 
ATOM     39  H1  BB2 d   1     -14.602   6.296 -32.013  0.00  0.00     0.048 H 
ATOM     40  H2  BB2 d   1     -14.599   7.623 -30.802  0.00  0.00     0.048 H 
BRANCH  38  41
ATOM     41  C3  BB2 d   1     -13.076   6.010 -30.369  0.00  0.00     0.241 C 
ATOM     42  O4  BB2 d   1     -12.910   5.071 -31.158  0.00  0.00    -0.271 OA
ATOM     43  N1  BB2 d   1     -12.166   6.295 -29.445  0.00  0.00    -0.237 N 
ATOM     44  H3  BB2 d   1     -12.307   7.082 -28.845  0.00  0.00     0.197 HD
BRANCH  43  45
ATOM     45  O2  BB2 d   1     -11.026   5.523 -29.297  0.00  0.00    -0.287 OA
ATOM     46  H4  BB2 d   1     -10.528   5.537 -30.106  0.00  0.00     0.244 HD
ENDBRANCH  43  45
ENDBRANCH  38  41
ENDBRANCH  36  38
BRANCH  36  47
ATOM     47  C7  BB2 d   1     -15.402   6.140 -28.577  0.00  0.00    -0.053 C 
ATOM     48  H6  BB2 d   1     -15.606   7.213 -28.448  0.00  0.00     0.034 H 
ATOM     49  H7  BB2 d   1     -14.387   5.914 -28.218  0.00  0.00     0.034 H 
BRANCH  47  50
ATOM     50  C8  BB2 d   1     -16.443   5.302 -27.791  0.00  0.00    -0.064 C 
ATOM     51  H8  BB2 d   1     -16.217   4.236 -27.941  0.00  0.00     0.033 H 
ATOM     52  H9  BB2 d   1     -17.443   5.524 -28.192  0.00  0.00     0.033 H 
BRANCH  50  53
ATOM     53  C9  BB2 d   1     -16.448   5.584 -26.319  0.00  0.00    -0.065 C 
ATOM     54  H10 BB2 d   1     -16.849   6.590 -26.126  0.00  0.00     0.033 H 
ATOM     55  H11 BB2 d   1     -15.428   5.512 -25.914  0.00  0.00     0.033 H 
BRANCH  53  56
ATOM     56  C10 BB2 d   1     -17.345   4.526 -25.681  0.00  0.00    -0.069 C 
ATOM     57  H12 BB2 d   1     -17.042   4.378 -24.634  0.00  0.00     0.032 H 
ATOM     58  H13 BB2 d   1     -17.237   3.580 -26.232  0.00  0.00     0.032 H 
BRANCH  56  59
ATOM     59  C11 BB2 d   1     -18.804   4.968 -25.723  0.00  0.00    -0.077 C 
ATOM     60  H14 BB2 d   1     -19.435   4.195 -25.260  0.00  0.00     0.027 H 
ATOM     61  H15 BB2 d   1     -19.113   5.115 -26.768  0.00  0.00     0.027 H 
ATOM     62  H16 BB2 d   1     -18.917   5.913 -25.171  0.00  0.00     0.027 H 
ENDBRANCH  56  59
ENDBRANCH  53  56
ENDBRANCH  50  53
ENDBRANCH  47  50
ENDBRANCH  36  47
ENDBRANCH   1  36
TORSDOF 16
