REMARK  23 active torsions:
REMARK  status: ('A' for Active; 'I' for Inactive)
REMARK    1  A    between atoms: CA1_2  and  N1_1 
REMARK    2  A    between atoms: CA1_2  and  C1_3 
REMARK    3  A    between atoms: CB1_6  and  CA1_2 
REMARK    4  A    between atoms: CG1_7  and  CB1_6 
REMARK    5  A    between atoms: CD1_8  and  CG1_7 
REMARK       I    between atoms: N2_10  and  CD1_8 
REMARK    6  A    between atoms: CA2_11  and  N2_10 
REMARK    7  A    between atoms: CA2_11  and  C2_12 
REMARK    8  A    between atoms: CB2_14  and  CA2_11 
REMARK       I    between atoms: C2_12  and  N3_16 
REMARK    9  A    between atoms: SG2_15  and  CB2_14 
REMARK   10  A    between atoms: SG5_31  and  SG2_15 
REMARK   11  A    between atoms: N3_16  and  CA3_17 
REMARK   12  A    between atoms: CA3_17  and  C3_18 
REMARK   13  A    between atoms: N4_21  and  CA4_22 
REMARK       I    between atoms: C5_26  and  N4_21 
REMARK   14  A    between atoms: CA4_22  and  C4_23 
REMARK   15  A    between atoms: CA5_28  and  C5_26 
REMARK   16  A    between atoms: N5_29  and  CA5_28 
REMARK   17  A    between atoms: CA5_28  and  CB5_30 
REMARK       I    between atoms: CD6_39  and  N5_29 
REMARK   18  A    between atoms: CB5_30  and  SG5_31 
REMARK   19  A    between atoms: CA6_32  and  C6_33 
REMARK   20  A    between atoms: CA6_32  and  N6_36 
REMARK   21  A    between atoms: CB6_37  and  CA6_32 
REMARK   22  A    between atoms: CG6_38  and  CB6_37 
REMARK   23  A    between atoms: CG6_38  and  CD6_39 
ROOT
ATOM      1  SG2 GDS d   1      15.418 -14.911 -15.544  0.00  0.00    -0.095 SA
ENDROOT
BRANCH   1   2
ATOM      2  CB2 GDS d   1      15.141 -13.681 -14.295  0.00  0.00     0.013 C 
ATOM      3  H11 GDS d   1      15.826 -12.841 -14.481  0.00  0.00     0.053 H 
ATOM      4  H12 GDS d   1      14.101 -13.332 -14.380  0.00  0.00     0.053 H 
BRANCH   2   5
ATOM      5  CA2 GDS d   1      15.368 -14.179 -12.851  0.00  0.00     0.098 C 
ATOM      6  H10 GDS d   1      14.781 -15.088 -12.653  0.00  0.00     0.088 H 
BRANCH   5   7
ATOM      7  N2  GDS d   1      14.963 -13.088 -12.002  0.00  0.00    -0.347 N 
ATOM      8  CD1 GDS d   1      13.814 -13.213 -11.126  0.00  0.00     0.218 C 
ATOM      9  O1  GDS d   1      13.381 -14.334 -10.805  0.00  0.00    -0.274 OA
ATOM     10  H9  GDS d   1      15.481 -12.233 -12.017  0.00  0.00     0.163 HD
BRANCH   8  11
ATOM     11  CG1 GDS d   1      13.290 -11.939 -10.361  0.00  0.00     0.012 C 
ATOM     12  H7  GDS d   1      13.369 -12.108  -9.277  0.00  0.00     0.047 H 
ATOM     13  H8  GDS d   1      13.902 -11.069 -10.642  0.00  0.00     0.047 H 
BRANCH  11  14
ATOM     14  CB1 GDS d   1      11.857 -11.674 -10.719  0.00  0.00    -0.021 C 
ATOM     15  H5  GDS d   1      11.293 -12.619 -10.713  0.00  0.00     0.037 H 
ATOM     16  H6  GDS d   1      11.416 -10.979  -9.989  0.00  0.00     0.037 H 
BRANCH  14  17
ATOM     17  CA1 GDS d   1      11.808 -11.072 -12.075  0.00  0.00     0.183 C 
ATOM     18  H4  GDS d   1      12.446 -11.656 -12.755  0.00  0.00     0.101 H 
BRANCH  17  19
ATOM     19  N1  GDS d   1      12.274  -9.717 -11.995  0.00  0.00    -0.065 N 
ATOM     20  H1  GDS d   1      13.215  -9.706 -11.634  0.00  0.00     0.275 HD
ATOM     21  H2  GDS d   1      11.672  -9.190 -11.381  0.00  0.00     0.275 HD
ATOM     22  H3  GDS d   1      12.262  -9.303 -12.914  0.00  0.00     0.275 HD
ENDBRANCH  17  19
BRANCH  17  23
ATOM     23  C1  GDS d   1      10.427 -11.021 -12.610  0.00  0.00     0.204 C 
ATOM     24  OE1 GDS d   1       9.818  -9.922 -12.611  0.00  0.00    -0.646 OA
ATOM     25  OE2 GDS d   1       9.777 -12.070 -12.799  0.00  0.00    -0.646 OA
ENDBRANCH  17  23
ENDBRANCH  14  17
ENDBRANCH  11  14
ENDBRANCH   8  11
ENDBRANCH   5   7
BRANCH   5  26
ATOM     26  C2  GDS d   1      16.803 -14.422 -12.591  0.00  0.00     0.241 C 
ATOM     27  O2  GDS d   1      17.580 -13.455 -12.517  0.00  0.00    -0.271 OA
ATOM     28  N3  GDS d   1      17.297 -15.715 -12.388  0.00  0.00    -0.349 N 
ATOM     29  H13 GDS d   1      16.690 -16.503 -12.287  0.00  0.00     0.163 HD
BRANCH  28  30
ATOM     30  CA3 GDS d   1      18.735 -15.846 -12.333  0.00  0.00     0.075 C 
ATOM     31  H14 GDS d   1      19.065 -15.819 -11.284  0.00  0.00     0.080 H 
ATOM     32  H15 GDS d   1      19.200 -15.016 -12.885  0.00  0.00     0.080 H 
BRANCH  30  33
ATOM     33  C3  GDS d   1      19.149 -17.162 -12.958  0.00  0.00     0.191 C 
ATOM     34  OE3 GDS d   1      18.369 -17.721 -13.772  0.00  0.00    -0.647 OA
ATOM     35  OE4 GDS d   1      20.290 -17.641 -12.706  0.00  0.00    -0.647 OA
ENDBRANCH  30  33
ENDBRANCH  28  30
ENDBRANCH   5  26
ENDBRANCH   2   5
ENDBRANCH   1   2
BRANCH   1  36
ATOM     36  SG5 GDS d   1      13.760 -16.074 -15.823  0.00  0.00    -0.095 SA
BRANCH  36  37
ATOM     37  CB5 GDS d   1      13.762 -17.214 -14.480  0.00  0.00     0.013 C 
ATOM     38  H21 GDS d   1      13.777 -16.659 -13.530  0.00  0.00     0.053 H 
ATOM     39  H22 GDS d   1      12.856 -17.836 -14.528  0.00  0.00     0.053 H 
BRANCH  37  40
ATOM     40  CA5 GDS d   1      15.012 -18.121 -14.564  0.00  0.00     0.098 C 
ATOM     41  H19 GDS d   1      15.886 -17.503 -14.817  0.00  0.00     0.088 H 
BRANCH  40  42
ATOM     42  C5  GDS d   1      15.283 -18.813 -13.252  0.00  0.00     0.241 C 
ATOM     43  N4  GDS d   1      15.063 -20.222 -13.099  0.00  0.00    -0.349 N 
ATOM     44  H16 GDS d   1      14.579 -20.719 -13.819  0.00  0.00     0.163 HD
ATOM     45  O5  GDS d   1      15.554 -18.127 -12.236  0.00  0.00    -0.271 OA
BRANCH  43  46
ATOM     46  CA4 GDS d   1      15.518 -20.939 -11.941  0.00  0.00     0.075 C 
ATOM     47  H17 GDS d   1      16.444 -20.467 -11.580  0.00  0.00     0.080 H 
ATOM     48  H18 GDS d   1      15.726 -21.979 -12.234  0.00  0.00     0.080 H 
BRANCH  46  49
ATOM     49  C4  GDS d   1      14.511 -20.951 -10.808  0.00  0.00     0.191 C 
ATOM     50  OE5 GDS d   1      14.908 -21.188  -9.640  0.00  0.00    -0.647 OA
ATOM     51  OE6 GDS d   1      13.280 -20.677 -11.005  0.00  0.00    -0.647 OA
ENDBRANCH  46  49
ENDBRANCH  43  46
ENDBRANCH  40  42
BRANCH  40  52
ATOM     52  N5  GDS d   1      14.790 -19.074 -15.615  0.00  0.00    -0.347 N 
ATOM     53  CD6 GDS d   1      15.871 -19.815 -16.268  0.00  0.00     0.218 C 
ATOM     54  O6  GDS d   1      17.050 -19.685 -15.875  0.00  0.00    -0.274 OA
ATOM     55  H20 GDS d   1      13.851 -19.240 -15.916  0.00  0.00     0.163 HD
BRANCH  53  56
ATOM     56  CG6 GDS d   1      15.529 -20.599 -17.531  0.00  0.00     0.012 C 
ATOM     57  H29 GDS d   1      14.466 -20.881 -17.493  0.00  0.00     0.047 H 
ATOM     58  H30 GDS d   1      15.707 -19.954 -18.404  0.00  0.00     0.047 H 
BRANCH  56  59
ATOM     59  CB6 GDS d   1      16.366 -21.868 -17.682  0.00  0.00    -0.021 C 
ATOM     60  H27 GDS d   1      16.384 -22.158 -18.743  0.00  0.00     0.037 H 
ATOM     61  H28 GDS d   1      17.391 -21.660 -17.342  0.00  0.00     0.037 H 
BRANCH  59  62
ATOM     62  CA6 GDS d   1      15.797 -23.033 -16.859  0.00  0.00     0.183 C 
ATOM     63  H23 GDS d   1      16.392 -23.924 -17.107  0.00  0.00     0.101 H 
BRANCH  62  64
ATOM     64  C6  GDS d   1      15.911 -22.818 -15.387  0.00  0.00     0.204 C 
ATOM     65  OE7 GDS d   1      14.904 -22.513 -14.697  0.00  0.00    -0.646 OA
ATOM     66  OE8 GDS d   1      17.016 -22.995 -14.811  0.00  0.00    -0.646 OA
ENDBRANCH  62  64
BRANCH  62  67
ATOM     67  N6  GDS d   1      14.405 -23.313 -17.219  0.00  0.00    -0.065 N 
ATOM     68  H24 GDS d   1      14.338 -23.457 -18.214  0.00  0.00     0.275 HD
ATOM     69  H25 GDS d   1      13.825 -22.533 -16.952  0.00  0.00     0.275 HD
ATOM     70  H26 GDS d   1      14.094 -24.142 -16.738  0.00  0.00     0.275 HD
ENDBRANCH  62  67
ENDBRANCH  59  62
ENDBRANCH  56  59
ENDBRANCH  53  56
ENDBRANCH  40  52
ENDBRANCH  37  40
ENDBRANCH  36  37
ENDBRANCH   1  36
TORSDOF 23
