REMARK  5 active torsions:
REMARK  status: ('A' for Active; 'I' for Inactive)
REMARK    1  A    between atoms: S1_9  and  N1_1 
REMARK    2  A    between atoms: C5_5  and  O3_15 
REMARK    3  A    between atoms: O3_15  and  C8_6 
REMARK    4  A    between atoms: C8_6  and  C9_16 
REMARK    5  A    between atoms: C1_10  and  S1_9 
ROOT
ATOM      1  C2  EZL d   1      15.248   7.893  81.744  0.00  0.00     0.076 A 
ATOM      2  C3  EZL d   1      14.087   7.646  80.960  0.00  0.00     0.039 A 
ATOM      3  C4  EZL d   1      13.412   6.461  81.085  0.00  0.00    -0.032 A 
ATOM      4  C5  EZL d   1      13.801   5.470  81.976  0.00  0.00     0.070 A 
ATOM      5  C1  EZL d   1      15.185   9.845  80.520  0.00  0.00     0.214 A 
ATOM      6  N2  EZL d   1      15.837   9.119  81.475  0.00  0.00    -0.227 NA
ATOM      7  S2  EZL d   1      13.763   8.993  79.928  0.00  0.00    -0.054 SA
ATOM      8  C6  EZL d   1      14.926   5.680  82.796  0.00  0.00    -0.049 A 
ATOM      9  C7  EZL d   1      15.629   6.879  82.662  0.00  0.00    -0.051 A 
ATOM     10  H3  EZL d   1      12.540   6.290  80.464  0.00  0.00     0.090 H 
ATOM     11  H6  EZL d   1      15.239   4.930  83.513  0.00  0.00     0.087 H 
ATOM     12  H7  EZL d   1      16.501   7.042  83.284  0.00  0.00     0.087 H 
ENDROOT
BRANCH   4  13
ATOM     13  O3  EZL d   1      12.992   4.358  82.000  0.00  0.00    -0.351 OA
BRANCH  13  14
ATOM     14  C8  EZL d   1      13.689   3.106  82.251  0.00  0.00     0.023 C 
ATOM     15  H4  EZL d   1      14.035   3.048  83.293  0.00  0.00     0.074 H 
ATOM     16  H5  EZL d   1      14.547   2.987  81.573  0.00  0.00     0.074 H 
BRANCH  14  17
ATOM     17  C9  EZL d   1      12.601   2.043  81.965  0.00  0.00    -0.056 C 
ATOM     18  H8  EZL d   1      13.019   1.038  82.124  0.00  0.00     0.030 H 
ATOM     19  H9  EZL d   1      12.261   2.137  80.923  0.00  0.00     0.030 H 
ATOM     20  H10 EZL d   1      11.750   2.198  82.644  0.00  0.00     0.030 H 
ENDBRANCH  14  17
ENDBRANCH  13  14
ENDBRANCH   4  13
BRANCH   5  21
ATOM     21  S1  EZL d   1      15.586  11.404  79.861  0.00  0.00     0.281 S 
ATOM     22  O1  EZL d   1      16.772  11.279  79.028  0.00  0.00    -0.199 OA
ATOM     23  O2  EZL d   1      14.411  11.696  79.005  0.00  0.00    -0.199 OA
BRANCH  21  24
ATOM     24  N1  EZL d   1      15.873  12.573  80.978  0.00  0.00    -0.323 N 
ATOM     25  H1  EZL d   1      16.642  12.482  81.611  0.00  0.00     0.169 HD
ATOM     26  H2  EZL d   1      15.279  13.376  81.025  0.00  0.00     0.169 HD
ENDBRANCH  21  24
ENDBRANCH   5  21
TORSDOF 5
