REMARK  4 active torsions:
REMARK  status: ('A' for Active; 'I' for Inactive)
REMARK    1  A    between atoms: C4_4  and  C8_8 
REMARK    2  A    between atoms: C5_5  and  C7_7 
REMARK    3  A    between atoms: C11_11  and  C21_21 
REMARK    4  A    between atoms: C24_24  and  C27_27 
ROOT
ATOM      1  C8  HJZ d   1      77.758  33.667 -11.739  0.00  0.00    -0.018 A 
ATOM      2  C11 HJZ d   1      77.757  35.038 -11.917  0.00  0.00    -0.043 A 
ATOM      3  C12 HJZ d   1      78.434  34.750 -14.340  0.00  0.00    -0.082 A 
ATOM      4  C13 HJZ d   1      78.426  33.316 -14.145  0.00  0.00    -0.082 A 
ATOM      5  C14 HJZ d   1      78.083  35.618 -13.230  0.00  0.00    -0.076 A 
ATOM      6  C15 HJZ d   1      78.090  32.761 -12.858  0.00  0.00    -0.072 A 
ATOM      7  H2  HJZ d   1      78.699  35.171 -15.303  0.00  0.00     0.083 H 
ATOM      8  H3  HJZ d   1      78.674  32.657 -14.970  0.00  0.00     0.083 H 
ATOM      9  H4  HJZ d   1      78.061  36.693 -13.368  0.00  0.00     0.084 H 
ATOM     10  H5  HJZ d   1      78.081  31.687 -12.712  0.00  0.00     0.084 H 
ENDROOT
BRANCH   1  11
ATOM     11  C4  HJZ d   1      77.425  32.978 -10.491  0.00  0.00    -0.000 A 
ATOM     12  C3  HJZ d   1      76.154  32.677 -10.247  0.00  0.00    -0.053 A 
ATOM     13  C2  HJZ d   1      75.966  32.019  -9.073  0.00  0.00     0.017 A 
ATOM     14  H1  HJZ d   1      75.340  32.933 -10.924  0.00  0.00     0.087 H 
ATOM     15  S1  HJZ d   1      77.474  31.808  -8.286  0.00  0.00    -0.082 SA
ATOM     16  C6  HJZ d   1      74.803  31.571  -8.373  0.00  0.00    -0.019 A 
ATOM     17  C5  HJZ d   1      78.329  32.601  -9.558  0.00  0.00     0.093 A 
ATOM     18  C16 HJZ d   1      73.618  32.391  -8.596  0.00  0.00    -0.072 A 
ATOM     19  C20 HJZ d   1      74.771  30.418  -7.426  0.00  0.00    -0.072 A 
ATOM     20  C19 HJZ d   1      72.436  32.025  -7.885  0.00  0.00    -0.082 A 
ATOM     21  H6  HJZ d   1      73.634  33.239  -9.271  0.00  0.00     0.084 H 
ATOM     22  C17 HJZ d   1      72.418  30.883  -6.971  0.00  0.00    -0.083 A 
ATOM     23  H9  HJZ d   1      71.532  32.606  -8.025  0.00  0.00     0.083 H 
ATOM     24  C18 HJZ d   1      73.577  30.084  -6.722  0.00  0.00    -0.082 A 
ATOM     25  H7  HJZ d   1      71.493  30.634  -6.464  0.00  0.00     0.083 H 
ATOM     26  H8  HJZ d   1      73.549  29.255  -6.024  0.00  0.00     0.083 H 
ATOM     27  H10 HJZ d   1      75.667  29.827  -7.271  0.00  0.00     0.084 H 
BRANCH  17  28
ATOM     28  C7  HJZ d   1      79.753  32.767  -9.486  0.00  0.00     0.217 C 
ATOM     29  O9  HJZ d   1      80.344  32.296  -8.488  0.00  0.00    -0.643 OA
ATOM     30  O10 HJZ d   1      80.508  33.305 -10.232  0.00  0.00    -0.643 OA
ENDBRANCH  17  28
ENDBRANCH   1  11
BRANCH   2  31
ATOM     31  C21 HJZ d   1      77.384  35.928 -10.747  0.00  0.00    -0.028 C 
ATOM     32  C22 HJZ d   1      78.300  37.108 -10.495  0.00  0.00    -0.058 C 
ATOM     33  C23 HJZ d   1      77.686  37.950  -9.323  0.00  0.00    -0.061 C 
ATOM     34  H12 HJZ d   1      78.372  37.726 -11.402  0.00  0.00     0.034 H 
ATOM     35  H13 HJZ d   1      79.302  36.751 -10.214  0.00  0.00     0.034 H 
ATOM     36  C24 HJZ d   1      76.255  38.404  -9.634  0.00  0.00    -0.058 C 
ATOM     37  H14 HJZ d   1      78.313  38.839  -9.157  0.00  0.00     0.033 H 
ATOM     38  H15 HJZ d   1      77.674  37.334  -8.411  0.00  0.00     0.033 H 
ATOM     39  C25 HJZ d   1      75.246  37.266 -10.081  0.00  0.00    -0.061 C 
ATOM     40  H16 HJZ d   1      76.353  39.055 -10.515  0.00  0.00     0.039 H 
ATOM     41  C26 HJZ d   1      75.887  36.303 -11.135  0.00  0.00    -0.058 C 
ATOM     42  H17 HJZ d   1      74.354  37.734 -10.523  0.00  0.00     0.033 H 
ATOM     43  H18 HJZ d   1      74.954  36.682  -9.196  0.00  0.00     0.033 H 
ATOM     44  H19 HJZ d   1      75.289  35.381 -11.187  0.00  0.00     0.034 H 
ATOM     45  H20 HJZ d   1      75.885  36.797 -12.118  0.00  0.00     0.034 H 
ATOM     46  H11 HJZ d   1      77.383  35.331  -9.823  0.00  0.00     0.047 H 
BRANCH  36  47
ATOM     47  C27 HJZ d   1      75.665  39.301  -8.522  0.00  0.00    -0.073 C 
ATOM     48  H21 HJZ d   1      76.398  40.073  -8.246  0.00  0.00     0.028 H 
ATOM     49  H22 HJZ d   1      75.430  38.686  -7.641  0.00  0.00     0.028 H 
ATOM     50  H23 HJZ d   1      74.746  39.783  -8.888  0.00  0.00     0.028 H 
ENDBRANCH  36  47
ENDBRANCH   2  31
TORSDOF 4
