REMARK  5 active torsions:
REMARK  status: ('A' for Active; 'I' for Inactive)
REMARK    1  A    between atoms: N_1  and  CA_2 
REMARK    2  A    between atoms: CA_2  and  CB_3 
REMARK    3  A    between atoms: CA_2  and  C_10 
REMARK    4  A    between atoms: CB_3  and  CG_4 
REMARK    5  A    between atoms: CE1_7  and  NT_9 
ROOT
ATOM      1  CB  B3U d   1       4.485  24.313  29.035  0.00  0.00     0.011 C 
ATOM      2  H5  B3U d   1       5.054  23.471  29.455  0.00  0.00     0.046 H 
ATOM      3  H6  B3U d   1       4.714  24.412  27.964  0.00  0.00     0.046 H 
ENDROOT
BRANCH   1   4
ATOM      4  CA  B3U d   1       4.909  25.579  29.738  0.00  0.00     0.187 C 
ATOM      5  H4  B3U d   1       5.946  25.770  29.426  0.00  0.00     0.101 H 
BRANCH   4   6
ATOM      6  N   B3U d   1       4.906  25.474  31.204  0.00  0.00    -0.065 N 
ATOM      7  H1  B3U d   1       5.446  24.671  31.484  0.00  0.00     0.275 HD
ATOM      8  H2  B3U d   1       3.958  25.372  31.532  0.00  0.00     0.275 HD
ATOM      9  H3  B3U d   1       5.312  26.307  31.601  0.00  0.00     0.275 HD
ENDBRANCH   4   6
BRANCH   4  10
ATOM     10  C   B3U d   1       4.078  26.812  29.345  0.00  0.00     0.204 C 
ATOM     11  OXT B3U d   1       3.801  27.103  28.178  0.00  0.00    -0.646 OA
ATOM     12  O   B3U d   1       3.696  27.496  30.312  0.00  0.00    -0.646 OA
ENDBRANCH   4  10
ENDBRANCH   1   4
BRANCH   1  13
ATOM     13  CG  B3U d   1       3.036  24.028  29.185  0.00  0.00     0.047 A 
ATOM     14  CD2 B3U d   1       2.119  24.301  30.139  0.00  0.00     0.043 A 
ATOM     15  NE2 B3U d   1       0.948  23.768  29.688  0.00  0.00    -0.075 NA
ATOM     16  H7  B3U d   1       2.281  24.836  31.074  0.00  0.00     0.118 H 
ATOM     17  CE1 B3U d   1       1.128  23.198  28.512  0.00  0.00     0.698 A 
ATOM     18  ND1 B3U d   1       2.396  23.337  28.179  0.00  0.00    -0.193 N 
ATOM     19  H8  B3U d   1       2.834  22.988  27.314  0.00  0.00     0.184 HD
BRANCH  17  20
ATOM     20  NT  B3U d   1       0.192  22.525  27.679  0.00  0.00    -0.233 N 
ATOM     21  H9  B3U d   1      -0.791  22.437  27.975  0.00  0.00     0.174 HD
ATOM     22  H10 B3U d   1       0.497  22.125  26.780  0.00  0.00     0.174 HD
ENDBRANCH  17  20
ENDBRANCH   1  13
TORSDOF 5
