REMARK  4 active torsions:
REMARK  status: ('A' for Active; 'I' for Inactive)
REMARK    1  A    between atoms: SAV_22  and  NAA_1 
REMARK       I    between atoms: NAM_13  and  CAO_15 
REMARK    2  A    between atoms: CAP_16  and  NAM_13 
REMARK    3  A    between atoms: CAO_15  and  CAU_21 
REMARK    4  A    between atoms: CAQ_17  and  SAV_22 
ROOT
ATOM      1  CAE ARZ d   1      -3.929   8.160   9.766  0.00  0.00    -0.058 C 
ATOM      2  CAF ARZ d   1      -6.290   7.974   9.234  0.00  0.00    -0.058 C 
ATOM      3  CAG ARZ d   1      -5.464   9.384  10.829  0.00  0.00    -0.058 C 
ATOM      4  CAH ARZ d   1      -4.828   6.428  10.547  0.00  0.00    -0.046 C 
ATOM      5  CAI ARZ d   1      -3.997   7.691  12.038  0.00  0.00    -0.046 C 
ATOM      6  CAJ ARZ d   1      -6.503   7.617  11.728  0.00  0.00    -0.046 C 
ATOM      7  CAR ARZ d   1      -4.973   7.191   9.307  0.00  0.00    -0.052 C 
ATOM      8  CAS ARZ d   1      -4.164   8.823  11.096  0.00  0.00    -0.052 C 
ATOM      9  CAT ARZ d   1      -6.623   8.612  10.614  0.00  0.00    -0.052 C 
ATOM     10  CAU ARZ d   1      -5.220   6.870  11.852  0.00  0.00     0.042 C 
ATOM     11  H3  ARZ d   1      -3.852   8.952   9.007  0.00  0.00     0.034 H 
ATOM     12  H4  ARZ d   1      -2.974   7.617   9.828  0.00  0.00     0.034 H 
ATOM     13  H5  ARZ d   1      -7.102   7.290   8.946  0.00  0.00     0.034 H 
ATOM     14  H6  ARZ d   1      -6.197   8.770   8.480  0.00  0.00     0.034 H 
ATOM     15  H7  ARZ d   1      -5.344  10.000   9.926  0.00  0.00     0.034 H 
ATOM     16  H8  ARZ d   1      -5.692  10.032  11.688  0.00  0.00     0.034 H 
ATOM     17  H9  ARZ d   1      -3.753   6.207  10.627  0.00  0.00     0.035 H 
ATOM     18  H10 ARZ d   1      -5.383   5.494  10.379  0.00  0.00     0.035 H 
ATOM     19  H11 ARZ d   1      -3.926   8.054  13.074  0.00  0.00     0.035 H 
ATOM     20  H12 ARZ d   1      -3.097   7.109  11.791  0.00  0.00     0.035 H 
ATOM     21  H13 ARZ d   1      -7.304   6.875  11.594  0.00  0.00     0.035 H 
ATOM     22  H14 ARZ d   1      -6.660   8.160  12.672  0.00  0.00     0.035 H 
ATOM     23  H16 ARZ d   1      -4.765   6.633   8.382  0.00  0.00     0.040 H 
ATOM     24  H17 ARZ d   1      -3.447   9.620  11.342  0.00  0.00     0.040 H 
ATOM     25  H18 ARZ d   1      -7.574   9.164  10.622  0.00  0.00     0.040 H 
ENDROOT
BRANCH  10  26
ATOM     26  CAO ARZ d   1      -5.330   5.936  13.198  0.00  0.00     0.232 C 
ATOM     27  OAB ARZ d   1      -6.472   5.778  13.458  0.00  0.00    -0.272 OA
ATOM     28  NAM ARZ d   1      -4.109   5.246  13.615  0.00  0.00    -0.304 N 
ATOM     29  H15 ARZ d   1      -3.153   5.463  13.419  0.00  0.00     0.171 HD
BRANCH  28  30
ATOM     30  CAP ARZ d   1      -4.641   4.222  14.348  0.00  0.00     0.197 A 
ATOM     31  NAK ARZ d   1      -3.531   3.530  14.810  0.00  0.00    -0.122 NA
ATOM     32  NAL ARZ d   1      -3.732   2.367  15.668  0.00  0.00    -0.126 NA
ATOM     33  CAQ ARZ d   1      -5.080   2.261  15.799  0.00  0.00     0.237 A 
ATOM     34  SAN ARZ d   1      -5.859   3.443  14.965  0.00  0.00    -0.015 SA
BRANCH  33  35
ATOM     35  SAV ARZ d   1      -5.848   0.885  16.614  0.00  0.00     0.282 S 
ATOM     36  OAC ARZ d   1      -5.259   1.153  17.992  0.00  0.00    -0.199 OA
ATOM     37  OAD ARZ d   1      -7.199   1.126  16.513  0.00  0.00    -0.199 OA
BRANCH  35  38
ATOM     38  NAA ARZ d   1      -5.324  -0.342  16.132  0.00  0.00    -0.323 N 
ATOM     39  H1  ARZ d   1      -4.344  -0.528  16.200  0.00  0.00     0.169 HD
ATOM     40  H2  ARZ d   1      -5.935  -1.021  15.724  0.00  0.00     0.169 HD
ENDBRANCH  35  38
ENDBRANCH  33  35
ENDBRANCH  28  30
ENDBRANCH  10  26
TORSDOF 4
