REMARK  7 active torsions:
REMARK  status: ('A' for Active; 'I' for Inactive)
REMARK    1  A    between atoms: N7_7  and  C4_4 
REMARK    2  A    between atoms: C5_5  and  N18_18 
REMARK    3  A    between atoms: C6_6  and  O21_21 
REMARK    4  A    between atoms: C22_22  and  N7_7 
REMARK    5  A    between atoms: C8_8  and  C22_22 
REMARK    6  A    between atoms: C11_11  and  S14_14 
REMARK    7  A    between atoms: S14_14  and  N17_17 
ROOT
ATOM      1  C22 J90 d   1      -4.267   5.929  13.768  0.00  0.00     0.018 C 
ATOM      2  H10 J90 d   1      -4.846   5.963  12.834  0.00  0.00     0.071 H 
ATOM      3  H11 J90 d   1      -4.493   6.820  14.372  0.00  0.00     0.071 H 
ENDROOT
BRANCH   1   4
ATOM      4  N7  J90 d   1      -2.890   5.936  13.448  0.00  0.00    -0.368 N 
ATOM      5  H2  J90 d   1      -2.497   5.126  12.948  0.00  0.00     0.161 HD
BRANCH   4   6
ATOM      6  C4  J90 d   1      -2.029   7.004  13.783  0.00  0.00     0.163 A 
ATOM      7  N3  J90 d   1      -2.308   7.805  14.825  0.00  0.00    -0.222 NA
ATOM      8  C2  J90 d   1      -1.548   8.802  15.237  0.00  0.00     0.091 A 
ATOM      9  N1  J90 d   1      -0.405   9.072  14.654  0.00  0.00    -0.216 NA
ATOM     10  H1  J90 d   1      -1.875   9.409  16.073  0.00  0.00     0.146 H 
ATOM     11  C6  J90 d   1      -0.031   8.268  13.622  0.00  0.00     0.201 A 
ATOM     12  C5  J90 d   1      -0.809   7.200  13.129  0.00  0.00     0.200 A 
BRANCH  11  13
ATOM     13  O21 J90 d   1       1.157   8.545  12.978  0.00  0.00    -0.343 OA
ATOM     14  H9  J90 d   1       1.295   7.911  12.284  0.00  0.00     0.219 HD
ENDBRANCH  11  13
BRANCH  12  15
ATOM     15  N18 J90 d   1      -0.340   6.341  11.953  0.00  0.00    -0.107 N 
ATOM     16  O19 J90 d   1       0.746   6.701  11.608  0.00  0.00    -0.531 OA
ATOM     17  O20 J90 d   1      -1.160   5.549  11.686  0.00  0.00    -0.531 OA
ENDBRANCH  12  15
ENDBRANCH   4   6
ENDBRANCH   1   4
BRANCH   1  18
ATOM     18  C8  J90 d   1      -4.679   4.685  14.556  0.00  0.00    -0.041 A 
ATOM     19  C9  J90 d   1      -3.705   3.668  14.877  0.00  0.00    -0.074 A 
ATOM     20  C10 J90 d   1      -4.117   2.495  15.606  0.00  0.00    -0.060 A 
ATOM     21  H3  J90 d   1      -2.672   3.786  14.572  0.00  0.00     0.084 H 
ATOM     22  C11 J90 d   1      -5.461   2.375  15.928  0.00  0.00     0.079 A 
ATOM     23  H4  J90 d   1      -3.401   1.733  15.893  0.00  0.00     0.085 H 
ATOM     24  C12 J90 d   1      -6.374   3.359  15.577  0.00  0.00    -0.060 A 
ATOM     25  C13 J90 d   1      -6.012   4.549  14.880  0.00  0.00    -0.074 A 
ATOM     26  H5  J90 d   1      -7.414   3.216  15.846  0.00  0.00     0.085 H 
ATOM     27  H6  J90 d   1      -6.744   5.305  14.619  0.00  0.00     0.084 H 
BRANCH  22  28
ATOM     28  S14 J90 d   1      -6.073   0.908  16.770  0.00  0.00     0.256 S 
ATOM     29  O15 J90 d   1      -5.491   0.983  18.141  0.00  0.00    -0.201 OA
ATOM     30  O16 J90 d   1      -7.560   0.925  16.601  0.00  0.00    -0.201 OA
BRANCH  28  31
ATOM     31  N17 J90 d   1      -5.293  -0.371  16.035  0.00  0.00    -0.324 N 
ATOM     32  H7  J90 d   1      -5.473  -1.307  16.337  0.00  0.00     0.169 HD
ATOM     33  H8  J90 d   1      -4.645  -0.202  15.292  0.00  0.00     0.169 HD
ENDBRANCH  28  31
ENDBRANCH  22  28
ENDBRANCH   1  18
TORSDOF 7
