REMARK  8 active torsions:
REMARK  status: ('A' for Active; 'I' for Inactive)
REMARK    1  A    between atoms: N7_7  and  C4_4 
REMARK    2  A    between atoms: C5_5  and  N18_18 
REMARK    3  A    between atoms: C6_6  and  O21_21 
REMARK    4  A    between atoms: C23_23  and  N7_7 
REMARK    5  A    between atoms: C8_8  and  C23_23 
REMARK    6  A    between atoms: C11_11  and  S14_14 
REMARK    7  A    between atoms: S14_14  and  N17_17 
REMARK    8  A    between atoms: O21_21  and  C22_22 
ROOT
ATOM      1  C23 J71 d   1      -3.392   5.404  13.393  0.00  0.00     0.018 C 
ATOM      2  H12 J71 d   1      -2.905   6.114  14.078  0.00  0.00     0.071 H 
ATOM      3  H13 J71 d   1      -2.631   4.928  12.757  0.00  0.00     0.071 H 
ENDROOT
BRANCH   1   4
ATOM      4  N7  J71 d   1      -4.288   6.113  12.570  0.00  0.00    -0.368 N 
ATOM      5  H2  J71 d   1      -5.201   5.691  12.349  0.00  0.00     0.161 HD
BRANCH   4   6
ATOM      6  C4  J71 d   1      -3.975   7.392  12.033  0.00  0.00     0.163 A 
ATOM      7  N3  J71 d   1      -2.759   7.936  12.313  0.00  0.00    -0.222 NA
ATOM      8  C2  J71 d   1      -2.437   9.148  11.818  0.00  0.00     0.091 A 
ATOM      9  N1  J71 d   1      -3.301   9.857  11.059  0.00  0.00    -0.216 NA
ATOM     10  H1  J71 d   1      -1.460   9.564  12.034  0.00  0.00     0.146 H 
ATOM     11  C6  J71 d   1      -4.527   9.411  10.698  0.00  0.00     0.203 A 
ATOM     12  C5  J71 d   1      -4.908   8.106  11.201  0.00  0.00     0.200 A 
BRANCH  11  13
ATOM     13  O21 J71 d   1      -5.276  10.385   9.814  0.00  0.00    -0.337 OA
BRANCH  13  14
ATOM     14  C22 J71 d   1      -5.704  11.698  10.190  0.00  0.00     0.012 C 
ATOM     15  H9  J71 d   1      -6.223  12.171   9.343  0.00  0.00     0.067 H 
ATOM     16  H10 J71 d   1      -4.829  12.303  10.468  0.00  0.00     0.067 H 
ATOM     17  H11 J71 d   1      -6.390  11.629  11.047  0.00  0.00     0.067 H 
ENDBRANCH  13  14
ENDBRANCH  11  13
BRANCH  12  18
ATOM     18  N18 J71 d   1      -6.219   7.391  10.946  0.00  0.00    -0.107 N 
ATOM     19  O19 J71 d   1      -6.274   6.399  10.325  0.00  0.00    -0.531 OA
ATOM     20  O20 J71 d   1      -7.377   7.866  11.383  0.00  0.00    -0.531 OA
ENDBRANCH  12  18
ENDBRANCH   4   6
ENDBRANCH   1   4
BRANCH   1  21
ATOM     21  C8  J71 d   1      -4.082   4.329  14.215  0.00  0.00    -0.041 A 
ATOM     22  C9  J71 d   1      -5.445   4.327  14.596  0.00  0.00    -0.074 A 
ATOM     23  C10 J71 d   1      -5.895   3.215  15.396  0.00  0.00    -0.060 A 
ATOM     24  H3  J71 d   1      -6.119   5.123  14.300  0.00  0.00     0.084 H 
ATOM     25  C11 J71 d   1      -5.013   2.135  15.674  0.00  0.00     0.079 A 
ATOM     26  H4  J71 d   1      -6.906   3.202  15.786  0.00  0.00     0.085 H 
ATOM     27  C12 J71 d   1      -3.674   2.164  15.304  0.00  0.00    -0.060 A 
ATOM     28  C13 J71 d   1      -3.229   3.251  14.537  0.00  0.00    -0.074 A 
ATOM     29  H5  J71 d   1      -2.995   1.372  15.599  0.00  0.00     0.085 H 
ATOM     30  H6  J71 d   1      -2.205   3.264  14.183  0.00  0.00     0.084 H 
BRANCH  25  31
ATOM     31  S14 J71 d   1      -5.634   0.851  16.648  0.00  0.00     0.256 S 
ATOM     32  O15 J71 d   1      -5.120   0.910  17.966  0.00  0.00    -0.201 OA
ATOM     33  O16 J71 d   1      -7.090   0.859  16.460  0.00  0.00    -0.201 OA
BRANCH  31  34
ATOM     34  N17 J71 d   1      -4.920  -0.492  15.945  0.00  0.00    -0.324 N 
ATOM     35  H7  J71 d   1      -5.103  -1.405  16.311  0.00  0.00     0.169 HD
ATOM     36  H8  J71 d   1      -4.311  -0.381  15.160  0.00  0.00     0.169 HD
ENDBRANCH  31  34
ENDBRANCH  25  31
ENDBRANCH   1  21
TORSDOF 8
