REMARK  9 active torsions:
REMARK  status: ('A' for Active; 'I' for Inactive)
REMARK    1  A    between atoms: N7_7  and  C4_4 
REMARK    2  A    between atoms: C5_5  and  N18_18 
REMARK    3  A    between atoms: C6_6  and  N21_21 
REMARK    4  A    between atoms: C29_29  and  N7_7 
REMARK    5  A    between atoms: C8_8  and  C29_29 
REMARK    6  A    between atoms: C11_11  and  S14_14 
REMARK    7  A    between atoms: S14_14  and  N17_17 
REMARK    8  A    between atoms: N21_21  and  C22_22 
REMARK    9  A    between atoms: C22_22  and  C23_23 
ROOT
ATOM      1  N1  J75 d   1      -3.343   9.914  11.121  0.00  0.00    -0.222 NA
ATOM      2  C2  J75 d   1      -2.422   9.254  11.864  0.00  0.00     0.091 A 
ATOM      3  N3  J75 d   1      -2.735   8.069  12.487  0.00  0.00    -0.222 NA
ATOM      4  C4  J75 d   1      -3.979   7.508  12.382  0.00  0.00     0.162 A 
ATOM      5  C5  J75 d   1      -4.971   8.177  11.595  0.00  0.00     0.193 A 
ATOM      6  C6  J75 d   1      -4.613   9.405  10.968  0.00  0.00     0.162 A 
ATOM      7  H1  J75 d   1      -1.425   9.666  11.969  0.00  0.00     0.146 H 
ENDROOT
BRANCH   4   8
ATOM      8  N7  J75 d   1      -4.296   6.276  13.047  0.00  0.00    -0.368 N 
ATOM      9  H2  J75 d   1      -5.232   5.864  12.924  0.00  0.00     0.161 HD
BRANCH   8  10
ATOM     10  C29 J75 d   1      -3.344   5.609  13.874  0.00  0.00     0.018 C 
ATOM     11  H17 J75 d   1      -2.932   6.322  14.604  0.00  0.00     0.071 H 
ATOM     12  H18 J75 d   1      -2.531   5.213  13.248  0.00  0.00     0.071 H 
BRANCH  10  13
ATOM     13  C8  J75 d   1      -4.014   4.465  14.611  0.00  0.00    -0.041 A 
ATOM     14  C9  J75 d   1      -3.250   3.333  14.972  0.00  0.00    -0.074 A 
ATOM     15  C10 J75 d   1      -3.801   2.233  15.674  0.00  0.00    -0.060 A 
ATOM     16  H3  J75 d   1      -2.201   3.305  14.701  0.00  0.00     0.084 H 
ATOM     17  C11 J75 d   1      -5.167   2.230  16.011  0.00  0.00     0.079 A 
ATOM     18  H4  J75 d   1      -3.171   1.395  15.951  0.00  0.00     0.085 H 
ATOM     19  C12 J75 d   1      -5.977   3.333  15.638  0.00  0.00    -0.060 A 
ATOM     20  C13 J75 d   1      -5.402   4.419  14.914  0.00  0.00    -0.074 A 
ATOM     21  H5  J75 d   1      -7.028   3.350  15.902  0.00  0.00     0.085 H 
ATOM     22  H6  J75 d   1      -6.041   5.231  14.586  0.00  0.00     0.084 H 
BRANCH  17  23
ATOM     23  S14 J75 d   1      -5.809   0.764  16.899  0.00  0.00     0.256 S 
ATOM     24  O15 J75 d   1      -7.337   0.827  16.711  0.00  0.00    -0.201 OA
ATOM     25  O16 J75 d   1      -5.366   0.830  18.305  0.00  0.00    -0.201 OA
BRANCH  23  26
ATOM     26  N17 J75 d   1      -5.250  -0.493  16.021  0.00  0.00    -0.324 N 
ATOM     27  H7  J75 d   1      -5.463  -1.430  16.297  0.00  0.00     0.169 HD
ATOM     28  H8  J75 d   1      -4.694  -0.326  15.207  0.00  0.00     0.169 HD
ENDBRANCH  23  26
ENDBRANCH  17  23
ENDBRANCH  10  13
ENDBRANCH   8  10
ENDBRANCH   4   8
BRANCH   5  29
ATOM     29  N18 J75 d   1      -6.333   7.682  11.433  0.00  0.00    -0.108 N 
ATOM     30  O19 J75 d   1      -7.041   8.160  10.575  0.00  0.00    -0.532 OA
ATOM     31  O20 J75 d   1      -6.867   6.786  12.240  0.00  0.00    -0.532 OA
ENDBRANCH   5  29
BRANCH   6  32
ATOM     32  N21 J75 d   1      -5.614  10.043  10.192  0.00  0.00    -0.368 N 
ATOM     33  H9  J75 d   1      -6.499   9.540  10.036  0.00  0.00     0.161 HD
BRANCH  32  34
ATOM     34  C22 J75 d   1      -5.470  11.337   9.616  0.00  0.00     0.018 C 
ATOM     35  H10 J75 d   1      -6.136  11.361   8.741  0.00  0.00     0.071 H 
ATOM     36  H11 J75 d   1      -4.424  11.412   9.284  0.00  0.00     0.071 H 
BRANCH  34  37
ATOM     37  C23 J75 d   1      -5.758  12.604  10.404  0.00  0.00    -0.041 A 
ATOM     38  C24 J75 d   1      -4.709  13.277  11.104  0.00  0.00    -0.075 A 
ATOM     39  C25 J75 d   1      -4.942  14.506  11.798  0.00  0.00    -0.082 A 
ATOM     40  H12 J75 d   1      -3.714  12.846  11.109  0.00  0.00     0.084 H 
ATOM     41  C26 J75 d   1      -6.224  15.081  11.812  0.00  0.00    -0.083 A 
ATOM     42  H13 J75 d   1      -4.125  14.996  12.316  0.00  0.00     0.083 H 
ATOM     43  C27 J75 d   1      -7.280  14.443  11.079  0.00  0.00    -0.082 A 
ATOM     44  H14 J75 d   1      -6.412  15.992  12.368  0.00  0.00     0.083 H 
ATOM     45  C28 J75 d   1      -7.035  13.216  10.378  0.00  0.00    -0.075 A 
ATOM     46  H15 J75 d   1      -8.267  14.890  11.055  0.00  0.00     0.083 H 
ATOM     47  H16 J75 d   1      -7.839  12.750   9.820  0.00  0.00     0.084 H 
ENDBRANCH  34  37
ENDBRANCH  32  34
ENDBRANCH   6  32
TORSDOF 9
