REMARK  1 active torsions:
REMARK  status: ('A' for Active; 'I' for Inactive)
REMARK    1  A    between atoms: C7_10  and  N2_5 
ROOT
ATOM      1  C1  ABV d   1     -29.579 -17.600   9.043  0.00  0.00    -0.064 A 
ATOM      2  N1  ABV d   1     -30.403 -19.804  11.635  0.00  0.00    -0.224 NA
ATOM      3  S1  ABV d   1     -31.613 -19.142   9.499  0.00  0.00    -0.051 SA
ATOM      4  C2  ABV d   1     -28.424 -17.088   9.469  0.00  0.00    -0.082 A 
ATOM      5  C3  ABV d   1     -27.851 -17.460  10.627  0.00  0.00    -0.081 A 
ATOM      6  C4  ABV d   1     -28.428 -18.402  11.404  0.00  0.00    -0.054 A 
ATOM      7  C5  ABV d   1     -29.595 -18.918  11.010  0.00  0.00     0.076 A 
ATOM      8  C6  ABV d   1     -30.159 -18.492   9.840  0.00  0.00     0.037 A 
ATOM      9  C7  ABV d   1     -31.492 -20.071  10.895  0.00  0.00     0.165 A 
ATOM     10  H1  ABV d   1     -30.021 -17.305   8.098  0.00  0.00     0.085 H 
ATOM     11  H2  ABV d   1     -27.928 -16.343   8.858  0.00  0.00     0.083 H 
ATOM     12  H5  ABV d   1     -26.920 -17.001  10.939  0.00  0.00     0.083 H 
ATOM     13  H6  ABV d   1     -27.956 -18.730  12.323  0.00  0.00     0.087 H 
ENDROOT
BRANCH   9  14
ATOM     14  N2  ABV d   1     -32.430 -20.914  11.240  0.00  0.00    -0.378 N 
ATOM     15  H3  ABV d   1     -32.331 -21.471  12.101  0.00  0.00     0.158 HD
ATOM     16  H4  ABV d   1     -33.268 -21.021  10.651  0.00  0.00     0.158 HD
ENDBRANCH   9  14
TORSDOF 1
