REMARK  8 active torsions:
REMARK  status: ('A' for Active; 'I' for Inactive)
REMARK    1  A    between atoms: O5'_22  and  P_1 
REMARK    2  A    between atoms: C1'_11  and  C1_2 
REMARK    3  A    between atoms: C2_5  and  O1_4 
REMARK    4  A    between atoms: C3_8  and  C4_10 
REMARK       I    between atoms: C4_10  and  N3_9 
REMARK    5  A    between atoms: C2'_13  and  O2'_14 
REMARK    6  A    between atoms: C3'_16  and  O3'_17 
REMARK    7  A    between atoms: C5'_21  and  C4'_19 
REMARK    8  A    between atoms: C5'_21  and  O5'_22 
ROOT
ATOM      1  C1' PFU d   1      23.624  -8.182  16.141  0.00  0.00     0.112 C 
ATOM      2  C2' PFU d   1      23.373  -9.310  17.137  0.00  0.00     0.093 C 
ATOM      3  C3' PFU d   1      24.759  -9.820  17.474  0.00  0.00     0.090 C 
ATOM      4  C4' PFU d   1      25.531  -9.562  16.193  0.00  0.00     0.087 C 
ATOM      5  O4' PFU d   1      24.944  -8.402  15.599  0.00  0.00    -0.367 OA
ATOM      6  H5  PFU d   1      23.561  -7.209  16.650  0.00  0.00     0.097 H 
ATOM      7  H6  PFU d   1      22.762 -10.105  16.683  0.00  0.00     0.091 H 
ATOM      8  H8  PFU d   1      24.747 -10.886  17.744  0.00  0.00     0.091 H 
ATOM      9  H10 PFU d   1      26.592  -9.386  16.422  0.00  0.00     0.090 H 
ENDROOT
BRANCH   1  10
ATOM     10  C1  PFU d   1      22.691  -8.218  15.015  0.00  0.00     0.121 A 
ATOM     11  C2  PFU d   1      21.889  -7.140  14.491  0.00  0.00     0.128 A 
ATOM     12  C3  PFU d   1      21.103  -7.559  13.359  0.00  0.00     0.153 A 
ATOM     13  N1  PFU d   1      21.452  -8.865  13.209  0.00  0.00    -0.270 N 
ATOM     14  N2  PFU d   1      22.381  -9.247  14.192  0.00  0.00    -0.173 NA
ATOM     15  H1  PFU d   1      21.086  -9.489  12.476  0.00  0.00     0.189 HD
BRANCH  11  16
ATOM     16  O1  PFU d   1      21.864  -5.794  14.971  0.00  0.00    -0.356 OA
ATOM     17  H2  PFU d   1      22.733  -5.417  14.898  0.00  0.00     0.218 HD
ENDBRANCH  11  16
BRANCH  12  18
ATOM     18  C4  PFU d   1      20.250  -6.709  12.540  0.00  0.00     0.270 C 
ATOM     19  O2  PFU d   1      19.987  -5.537  12.895  0.00  0.00    -0.266 OA
ATOM     20  N3  PFU d   1      19.877  -7.235  11.418  0.00  0.00    -0.365 N 
ATOM     21  H3  PFU d   1      20.125  -8.179  11.202  0.00  0.00     0.159 HD
ATOM     22  H4  PFU d   1      19.341  -6.697  10.767  0.00  0.00     0.159 HD
ENDBRANCH  12  18
ENDBRANCH   1  10
BRANCH   2  23
ATOM     23  O2' PFU d   1      22.715  -8.810  18.318  0.00  0.00    -0.390 OA
ATOM     24  H7  PFU d   1      21.882  -8.423  18.075  0.00  0.00     0.210 HD
ENDBRANCH   2  23
BRANCH   3  25
ATOM     25  O3' PFU d   1      25.344  -9.040  18.526  0.00  0.00    -0.390 OA
ATOM     26  H9  PFU d   1      26.211  -9.375  18.722  0.00  0.00     0.210 HD
ENDBRANCH   3  25
BRANCH   4  27
ATOM     27  C5' PFU d   1      25.406 -10.725  15.211  0.00  0.00     0.059 C 
ATOM     28  H11 PFU d   1      25.872 -10.465  14.249  0.00  0.00     0.079 H 
ATOM     29  H12 PFU d   1      24.348 -10.977  15.049  0.00  0.00     0.079 H 
BRANCH  27  30
ATOM     30  O5' PFU d   1      26.086 -11.814  15.810  0.00  0.00    -0.280 OA
BRANCH  30  31
ATOM     31  P   PFU d   1      26.499 -13.177  15.051  0.00  0.00     0.422 P 
ATOM     32  O1P PFU d   1      27.494 -12.801  14.002  0.00  0.00    -0.617 OA
ATOM     33  O2P PFU d   1      25.228 -13.753  14.494  0.00  0.00    -0.617 OA
ATOM     34  O3P PFU d   1      27.129 -13.932  16.153  0.00  0.00    -0.617 OA
ENDBRANCH  30  31
ENDBRANCH  27  30
ENDBRANCH   4  27
TORSDOF 8
