REMARK  7 active torsions:
REMARK  status: ('A' for Active; 'I' for Inactive)
REMARK    1  A    between atoms: N_1  and  CA_2 
REMARK    2  A    between atoms: CA_2  and  C_3 
REMARK    3  A    between atoms: CA_2  and  CB_5 
REMARK    4  A    between atoms: CB_5  and  CG_6 
REMARK    5  A    between atoms: CG_6  and  CD_7 
REMARK    6  A    between atoms: CD_7  and  CE_8 
REMARK    7  A    between atoms: CE_8  and  NZ_9 
ROOT
ATOM      1  CG  LYS d   1     -46.780   8.913 -17.166  0.00  0.00    -0.061 C 
ATOM      2  H7  LYS d   1     -46.842   9.751 -17.876  0.00  0.00     0.033 H 
ATOM      3  H8  LYS d   1     -47.478   9.085 -16.334  0.00  0.00     0.033 H 
ENDROOT
BRANCH   1   4
ATOM      4  CB  LYS d   1     -45.357   8.814 -16.621  0.00  0.00    -0.029 C 
ATOM      5  H5  LYS d   1     -45.339   8.001 -15.880  0.00  0.00     0.036 H 
ATOM      6  H6  LYS d   1     -44.694   8.559 -17.461  0.00  0.00     0.036 H 
BRANCH   4   7
ATOM      7  CA  LYS d   1     -44.791  10.075 -15.945  0.00  0.00     0.182 C 
ATOM      8  H4  LYS d   1     -44.725  10.886 -16.685  0.00  0.00     0.101 H 
BRANCH   7   9
ATOM      9  N   LYS d   1     -43.447   9.792 -15.368  0.00  0.00    -0.065 N 
ATOM     10  H1  LYS d   1     -42.820   9.505 -16.103  0.00  0.00     0.275 HD
ATOM     11  H2  LYS d   1     -43.523   9.055 -14.684  0.00  0.00     0.275 HD
ATOM     12  H3  LYS d   1     -43.089  10.624 -14.927  0.00  0.00     0.275 HD
ENDBRANCH   7   9
BRANCH   7  13
ATOM     13  C   LYS d   1     -45.666  10.496 -14.786  0.00  0.00     0.204 C 
ATOM     14  O   LYS d   1     -45.320  10.190 -13.632  0.00  0.00    -0.646 OA
ATOM     15  OXT LYS d   1     -46.706  11.132 -14.962  0.00  0.00    -0.646 OA
ENDBRANCH   7  13
ENDBRANCH   4   7
ENDBRANCH   1   4
BRANCH   1  16
ATOM     16  CD  LYS d   1     -47.151   7.620 -17.878  0.00  0.00    -0.043 C 
ATOM     17  H9  LYS d   1     -47.200   6.810 -17.135  0.00  0.00     0.035 H 
ATOM     18  H10 LYS d   1     -46.372   7.390 -18.620  0.00  0.00     0.035 H 
BRANCH  16  19
ATOM     19  CE  LYS d   1     -48.496   7.709 -18.593  0.00  0.00     0.080 C 
ATOM     20  H11 LYS d   1     -48.486   8.579 -19.266  0.00  0.00     0.075 H 
ATOM     21  H12 LYS d   1     -49.291   7.834 -17.844  0.00  0.00     0.075 H 
BRANCH  19  22
ATOM     22  NZ  LYS d   1     -48.778   6.460 -19.407  0.00  0.00    -0.079 N 
ATOM     23  H13 LYS d   1     -49.671   6.552 -19.865  0.00  0.00     0.274 HD
ATOM     24  H14 LYS d   1     -48.794   5.658 -18.797  0.00  0.00     0.274 HD
ATOM     25  H15 LYS d   1     -48.056   6.341 -20.100  0.00  0.00     0.274 HD
ENDBRANCH  19  22
ENDBRANCH  16  19
ENDBRANCH   1  16
TORSDOF 7
