REMARK  11 active torsions:
REMARK  status: ('A' for Active; 'I' for Inactive)
REMARK    1  A    between atoms: C14_13  and  C4_1 
REMARK    2  A    between atoms: C13_5  and  C3_11 
REMARK    3  A    between atoms: C19_16  and  C22_10 
REMARK       I    between atoms: C22_10  and  N25_19 
REMARK    4  A    between atoms: C18_15  and  C12_12 
REMARK    5  A    between atoms: N25_19  and  C171_23 
REMARK    6  A    between atoms: C171_23  and  C181_24 
REMARK    7  A    between atoms: C181_24  and  N4_25 
REMARK    8  A    between atoms: N4_25  and  C191_26 
REMARK    9  A    between atoms: N4_25  and  C201_27 
REMARK   10  A    between atoms: C191_26  and  C221_29 
REMARK   11  A    between atoms: C201_27  and  C211_28 
ROOT
ATOM      1  C13 B49 d   1       7.942 -11.512  -0.190  0.00  0.00    -0.018 A 
ATOM      2  C14 B49 d   1       9.345 -11.588  -1.949  0.00  0.00     0.022 A 
ATOM      3  C18 B49 d   1       7.206 -11.512  -1.363  0.00  0.00     0.040 A 
ATOM      4  C19 B49 d   1       9.310 -11.565  -0.557  0.00  0.00     0.062 A 
ATOM      5  N23 B49 d   1       8.087 -11.554  -2.419  0.00  0.00    -0.359 N 
ATOM      6  H11 B49 d   1       7.823 -11.559  -3.415  0.00  0.00     0.166 HD
ENDROOT
BRANCH   4   7
ATOM      7  C22 B49 d   1      10.469 -11.592   0.373  0.00  0.00     0.254 C 
ATOM      8  N25 B49 d   1      11.628 -12.185   0.004  0.00  0.00    -0.355 N 
ATOM      9  H13 B49 d   1      11.693 -12.602  -0.902  0.00  0.00     0.162 HD
ATOM     10  O28 B49 d   1      10.371 -11.087   1.477  0.00  0.00    -0.268 OA
BRANCH   8  11
ATOM     11  C17 B49 d   1      12.794 -12.233   0.897  0.00  0.00     0.018 C 
ATOM     12  H14 B49 d   1      13.408 -13.111   0.650  0.00  0.00     0.066 H 
ATOM     13  H15 B49 d   1      12.453 -12.305   1.940  0.00  0.00     0.066 H 
BRANCH  11  14
ATOM     14  C18 B49 d   1      13.629 -10.961   0.720  0.00  0.00     0.098 C 
ATOM     15  H16 B49 d   1      14.175 -10.750   1.651  0.00  0.00     0.078 H 
ATOM     16  H17 B49 d   1      12.964 -10.117   0.486  0.00  0.00     0.078 H 
BRANCH  14  17
ATOM     17  N4  B49 d   1      14.591 -11.147  -0.381  0.00  0.00    -0.070 N 
ATOM     18  H18 B49 d   1      14.564 -12.133  -0.587  0.00  0.00     0.279 HD
BRANCH  17  19
ATOM     19  C19 B49 d   1      14.244 -10.484  -1.656  0.00  0.00     0.080 C 
ATOM     20  H19 B49 d   1      13.646 -11.183  -2.259  0.00  0.00     0.075 H 
ATOM     21  H20 B49 d   1      15.176 -10.245  -2.188  0.00  0.00     0.075 H 
BRANCH  19  22
ATOM     22  C22 B49 d   1      13.442  -9.188  -1.478  0.00  0.00    -0.053 C 
ATOM     23  H26 B49 d   1      13.222  -8.754  -2.465  0.00  0.00     0.029 H 
ATOM     24  H27 B49 d   1      14.030  -8.472  -0.885  0.00  0.00     0.029 H 
ATOM     25  H28 B49 d   1      12.499  -9.409  -0.956  0.00  0.00     0.029 H 
ENDBRANCH  19  22
ENDBRANCH  17  19
BRANCH  17  26
ATOM     26  C20 B49 d   1      15.971 -10.869   0.044  0.00  0.00     0.080 C 
ATOM     27  H21 B49 d   1      15.964 -10.447   1.060  0.00  0.00     0.075 H 
ATOM     28  H22 B49 d   1      16.430 -10.149  -0.649  0.00  0.00     0.075 H 
BRANCH  26  29
ATOM     29  C21 B49 d   1      16.778 -12.171   0.037  0.00  0.00    -0.053 C 
ATOM     30  H23 B49 d   1      17.811 -11.964   0.355  0.00  0.00     0.029 H 
ATOM     31  H24 B49 d   1      16.785 -12.593  -0.979  0.00  0.00     0.029 H 
ATOM     32  H25 B49 d   1      16.318 -12.891   0.730  0.00  0.00     0.029 H 
ENDBRANCH  26  29
ENDBRANCH  17  26
ENDBRANCH  14  17
ENDBRANCH  11  14
ENDBRANCH   8  11
ENDBRANCH   4   7
BRANCH   1  33
ATOM     33  C3  B49 d   1       7.361 -11.477   1.205  0.00  0.00    -0.048 C 
ATOM     34  H7  B49 d   1       6.263 -11.438   1.144  0.00  0.00     0.033 H 
ATOM     35  H8  B49 d   1       7.731 -10.586   1.734  0.00  0.00     0.033 H 
ATOM     36  H9  B49 d   1       7.666 -12.381   1.752  0.00  0.00     0.033 H 
ENDBRANCH   1  33
BRANCH   2  37
ATOM     37  C4  B49 d   1      10.561 -11.635  -2.836  0.00  0.00    -0.036 C 
ATOM     38  H1  B49 d   1      10.246 -11.643  -3.890  0.00  0.00     0.035 H 
ATOM     39  H2  B49 d   1      11.138 -12.546  -2.619  0.00  0.00     0.035 H 
ATOM     40  H3  B49 d   1      11.187 -10.750  -2.647  0.00  0.00     0.035 H 
ENDBRANCH   2  37
BRANCH   3  41
ATOM     41  C12 B49 d   1       5.795 -11.462  -1.424  0.00  0.00    -0.041 C 
ATOM     42  C20 B49 d   1       5.005 -11.470  -2.561  0.00  0.00     0.047 A 
ATOM     43  C17 B49 d   1       3.530 -11.389  -2.525  0.00  0.00     0.009 A 
ATOM     44  C21 B49 d   1       5.346 -11.542  -3.998  0.00  0.00     0.257 A 
ATOM     45  C7  B49 d   1       2.610 -11.298  -1.479  0.00  0.00    -0.033 A 
ATOM     46  C16 B49 d   1       3.093 -11.383  -3.858  0.00  0.00     0.046 A 
ATOM     47  C15 B49 d   1       1.257 -11.220  -1.764  0.00  0.00     0.117 A 
ATOM     48  H6  B49 d   1       2.952 -11.289  -0.451  0.00  0.00     0.089 H 
ATOM     49  C5  B49 d   1       0.818 -11.226  -3.083  0.00  0.00    -0.043 A 
ATOM     50  F29 B49 d   1       0.361 -11.137  -0.756  0.00  0.00    -0.206 F 
ATOM     51  C6  B49 d   1       1.727 -11.309  -4.125  0.00  0.00    -0.053 A 
ATOM     52  H4  B49 d   1      -0.243 -11.165  -3.298  0.00  0.00     0.088 H 
ATOM     53  H5  B49 d   1       1.375 -11.316  -5.150  0.00  0.00     0.087 H 
ATOM     54  N24 B49 d   1       4.197 -11.479  -4.694  0.00  0.00    -0.322 N 
ATOM     55  H12 B49 d   1       4.144 -11.499  -5.692  0.00  0.00     0.169 HD
ATOM     56  O27 B49 d   1       6.454 -11.645  -4.499  0.00  0.00    -0.267 OA
ATOM     57  H10 B49 d   1       5.271 -11.412  -0.471  0.00  0.00     0.088 H 
ENDBRANCH   3  41
TORSDOF 11
