REMARK  1 active torsions:
REMARK  status: ('A' for Active; 'I' for Inactive)
REMARK    1  A    between atoms: CE1_4  and  NT_6 
ROOT
ATOM      1  CG  2AI d   1      -3.414 -24.290  -4.863  0.00  0.00     0.012 A 
ATOM      2  CD2 2AI d   1      -2.177 -24.737  -4.551  0.00  0.00     0.036 A 
ATOM      3  NE2 2AI d   1      -1.318 -24.018  -5.334  0.00  0.00    -0.076 NA
ATOM      4  CE1 2AI d   1      -1.983 -23.169  -6.088  0.00  0.00     0.697 A 
ATOM      5  ND1 2AI d   1      -3.274 -23.328  -5.834  0.00  0.00    -0.199 N 
ATOM      6  H1  2AI d   1      -4.351 -24.630  -4.425  0.00  0.00     0.114 H 
ATOM      7  H2  2AI d   1      -1.919 -25.509  -3.827  0.00  0.00     0.117 H 
ATOM      8  H3  2AI d   1      -4.044 -22.816  -6.288  0.00  0.00     0.183 HD
ENDROOT
BRANCH   4   9
ATOM      9  NT  2AI d   1      -1.362 -22.289  -6.990  0.00  0.00    -0.233 N 
ATOM     10  H4  2AI d   1      -0.336 -22.281  -7.077  0.00  0.00     0.174 HD
ATOM     11  H5  2AI d   1      -1.933 -21.652  -7.564  0.00  0.00     0.174 HD
ENDBRANCH   4   9
TORSDOF 1
