REMARK  7 active torsions:
REMARK  status: ('A' for Active; 'I' for Inactive)
REMARK    1  A    between atoms: C1_1  and  S1_4 
REMARK    2  A    between atoms: S1_4  and  N1_2 
REMARK    3  A    between atoms: N7_14  and  C4_9 
REMARK       I    between atoms: C7_13  and  N7_14 
REMARK    4  A    between atoms: C8_15  and  C7_13 
REMARK    5  A    between atoms: C9_16  and  C8_15 
REMARK    6  A    between atoms: C15_22  and  O19_26 
REMARK    7  A    between atoms: O19_26  and  C20_27 
ROOT
ATOM      1  C8  SU0 d   1      -2.382   7.399  11.887  0.00  0.00     0.034 C 
ATOM      2  H8  SU0 d   1      -2.820   7.722  10.931  0.00  0.00     0.054 H 
ATOM      3  H9  SU0 d   1      -1.498   6.773  11.693  0.00  0.00     0.054 H 
ENDROOT
BRANCH   1   4
ATOM      4  C7  SU0 d   1      -3.410   6.597  12.671  0.00  0.00     0.226 C 
ATOM      5  O3  SU0 d   1      -4.598   6.903  12.810  0.00  0.00    -0.273 OA
ATOM      6  N7  SU0 d   1      -2.885   5.547  13.481  0.00  0.00    -0.327 N 
ATOM      7  H7  SU0 d   1      -1.894   5.438  13.560  0.00  0.00     0.169 HD
BRANCH   6   8
ATOM      8  C4  SU0 d   1      -3.754   4.640  14.187  0.00  0.00     0.034 A 
ATOM      9  C3  SU0 d   1      -2.984   3.510  14.714  0.00  0.00    -0.056 A 
ATOM     10  C2  SU0 d   1      -3.617   2.550  15.446  0.00  0.00    -0.058 A 
ATOM     11  H4  SU0 d   1      -1.919   3.438  14.523  0.00  0.00     0.087 H 
ATOM     12  C1  SU0 d   1      -5.075   2.680  15.691  0.00  0.00     0.079 A 
ATOM     13  H3  SU0 d   1      -3.065   1.706  15.842  0.00  0.00     0.086 H 
ATOM     14  C6  SU0 d   1      -5.811   3.719  15.186  0.00  0.00    -0.058 A 
ATOM     15  C5  SU0 d   1      -5.117   4.765  14.378  0.00  0.00    -0.056 A 
ATOM     16  H6  SU0 d   1      -6.878   3.781  15.370  0.00  0.00     0.086 H 
ATOM     17  H5  SU0 d   1      -5.666   5.598  13.954  0.00  0.00     0.087 H 
BRANCH  12  18
ATOM     18  S1  SU0 d   1      -5.798   1.374  16.636  0.00  0.00     0.256 S 
ATOM     19  O1  SU0 d   1      -7.210   1.406  16.513  0.00  0.00    -0.201 OA
ATOM     20  O2  SU0 d   1      -5.303   1.577  17.974  0.00  0.00    -0.201 OA
BRANCH  18  21
ATOM     21  N1  SU0 d   1      -5.106   0.091  15.993  0.00  0.00    -0.324 N 
ATOM     22  H1  SU0 d   1      -5.328  -0.822  16.336  0.00  0.00     0.169 HD
ATOM     23  H2  SU0 d   1      -4.449   0.198  15.246  0.00  0.00     0.169 HD
ENDBRANCH  18  21
ENDBRANCH  12  18
ENDBRANCH   6   8
ENDBRANCH   1   4
BRANCH   1  24
ATOM     24  C9  SU0 d   1      -1.977   8.605  12.685  0.00  0.00    -0.031 C 
ATOM     25  C10 SU0 d   1      -1.224   8.534  13.861  0.00  0.00    -0.003 C 
ATOM     26  C11 SU0 d   1      -0.776   9.709  14.483  0.00  0.00     0.288 C 
ATOM     27  H10 SU0 d   1      -0.985   7.564  14.295  0.00  0.00     0.093 H 
ATOM     28  O4  SU0 d   1      -0.088   9.664  15.499  0.00  0.00    -0.260 OA
ATOM     29  O12 SU0 d   1      -1.007  11.000  14.025  0.00  0.00    -0.275 OA
ATOM     30  C13 SU0 d   1      -1.897  11.092  12.923  0.00  0.00     0.092 A 
ATOM     31  C14 SU0 d   1      -2.348  12.446  12.552  0.00  0.00    -0.017 A 
ATOM     32  C18 SU0 d   1      -2.427   9.960  12.289  0.00  0.00     0.005 A 
ATOM     33  C15 SU0 d   1      -3.237  12.617  11.522  0.00  0.00     0.070 A 
ATOM     34  H11 SU0 d   1      -1.976  13.308  13.094  0.00  0.00     0.092 H 
ATOM     35  C16 SU0 d   1      -3.810  11.406  10.833  0.00  0.00    -0.050 A 
ATOM     36  C17 SU0 d   1      -3.409  10.137  11.183  0.00  0.00    -0.067 A 
ATOM     37  H12 SU0 d   1      -4.549  11.536  10.050  0.00  0.00     0.087 H 
ATOM     38  H13 SU0 d   1      -3.804   9.274  10.659  0.00  0.00     0.085 H 
BRANCH  33  39
ATOM     39  O19 SU0 d   1      -3.618  13.911  11.119  0.00  0.00    -0.356 OA
BRANCH  39  40
ATOM     40  C20 SU0 d   1      -2.772  15.080  11.216  0.00  0.00     0.010 C 
ATOM     41  H14 SU0 d   1      -3.314  15.957  10.833  0.00  0.00     0.066 H 
ATOM     42  H15 SU0 d   1      -1.860  14.923  10.621  0.00  0.00     0.066 H 
ATOM     43  H16 SU0 d   1      -2.498  15.248  12.268  0.00  0.00     0.066 H 
ENDBRANCH  39  40
ENDBRANCH  33  39
ENDBRANCH   1  24
TORSDOF 7
