REMARK  4 active torsions:
REMARK  status: ('A' for Active; 'I' for Inactive)
REMARK    1  A    between atoms: C1_1  and  S1_12 
REMARK    2  A    between atoms: N4_8  and  C2_2 
REMARK    3  A    between atoms: C3_3  and  C4_4 
REMARK       I    between atoms: C3_3  and  N4_8 
REMARK    4  A    between atoms: S1_12  and  N1_5 
ROOT
ATOM      1  C1  AZM d   1      -2.546  -2.796  19.609  0.00  0.00     0.237 A 
ATOM      2  C2  AZM d   1      -4.519  -2.424  20.815  0.00  0.00     0.197 A 
ATOM      3  N2  AZM d   1      -3.763  -3.340  21.367  0.00  0.00    -0.122 NA
ATOM      4  N3  AZM d   1      -2.611  -3.552  20.656  0.00  0.00    -0.126 NA
ATOM      5  S2  AZM d   1      -3.880  -1.733  19.357  0.00  0.00    -0.015 SA
ENDROOT
BRANCH   2   6
ATOM      6  N4  AZM d   1      -5.718  -2.067  21.391  0.00  0.00    -0.305 N 
ATOM      7  C3  AZM d   1      -6.604  -1.110  20.909  0.00  0.00     0.219 C 
ATOM      8  O3  AZM d   1      -6.429  -0.565  19.837  0.00  0.00    -0.274 OA
ATOM      9  H6  AZM d   1      -5.975  -2.540  22.234  0.00  0.00     0.171 HD
BRANCH   7  10
ATOM     10  C4  AZM d   1      -7.759  -0.820  21.810  0.00  0.00    -0.002 C 
ATOM     11  H1  AZM d   1      -8.401  -0.056  21.348  0.00  0.00     0.040 H 
ATOM     12  H2  AZM d   1      -7.386  -0.450  22.777  0.00  0.00     0.040 H 
ATOM     13  H3  AZM d   1      -8.340  -1.740  21.969  0.00  0.00     0.040 H 
ENDBRANCH   7  10
ENDBRANCH   2   6
BRANCH   1  14
ATOM     14  S1  AZM d   1      -1.159  -2.848  18.496  0.00  0.00     0.282 S 
ATOM     15  O1  AZM d   1      -1.047  -4.219  18.103  0.00  0.00    -0.199 OA
ATOM     16  O2  AZM d   1      -1.403  -1.826  17.528  0.00  0.00    -0.199 OA
BRANCH  14  17
ATOM     17  N1  AZM d   1       0.122  -2.465  19.325  0.00  0.00    -0.323 N 
ATOM     18  H4  AZM d   1       1.016  -2.436  18.878  0.00  0.00     0.169 HD
ATOM     19  H5  AZM d   1       0.042  -2.251  20.299  0.00  0.00     0.169 HD
ENDBRANCH  14  17
ENDBRANCH   1  14
TORSDOF 4
