REMARK  8 active torsions:
REMARK  status: ('A' for Active; 'I' for Inactive)
REMARK    1  A    between atoms: C1_1  and  S1_4 
REMARK    2  A    between atoms: S1_4  and  N1_2 
REMARK    3  A    between atoms: C4_8  and  N7_11 
REMARK    4  A    between atoms: N7_11  and  C8_12 
REMARK    5  A    between atoms: C10_14  and  N11_15 
REMARK    6  A    between atoms: N11_15  and  C15_20 
REMARK    7  A    between atoms: C15_20  and  C16_21 
REMARK    8  A    between atoms: C16_21  and  O17_22 
ROOT
ATOM      1  N7  D9H d   1      -3.613   5.178  13.545  0.00  0.00    -0.188 N 
ATOM      2  H7  D9H d   1      -2.588   5.202  13.641  0.00  0.00     0.184 HD
ENDROOT
BRANCH   1   3
ATOM      3  C4  D9H d   1      -4.287   4.177  14.251  0.00  0.00     0.049 A 
ATOM      4  C3  D9H d   1      -5.609   4.218  14.590  0.00  0.00    -0.055 A 
ATOM      5  C2  D9H d   1      -6.136   3.094  15.383  0.00  0.00    -0.058 A 
ATOM      6  H4  D9H d   1      -6.244   5.043  14.288  0.00  0.00     0.087 H 
ATOM      7  C1  D9H d   1      -5.332   2.058  15.770  0.00  0.00     0.079 A 
ATOM      8  H3  D9H d   1      -7.183   3.088  15.665  0.00  0.00     0.086 H 
ATOM      9  C6  D9H d   1      -3.924   2.048  15.376  0.00  0.00    -0.058 A 
ATOM     10  C5  D9H d   1      -3.421   3.080  14.658  0.00  0.00    -0.055 A 
ATOM     11  H6  D9H d   1      -3.286   1.218  15.657  0.00  0.00     0.086 H 
ATOM     12  H5  D9H d   1      -2.372   3.089  14.386  0.00  0.00     0.087 H 
BRANCH   7  13
ATOM     13  S1  D9H d   1      -5.926   0.733  16.756  0.00  0.00     0.256 S 
ATOM     14  O1  D9H d   1      -7.395   0.877  16.648  0.00  0.00    -0.201 OA
ATOM     15  O2  D9H d   1      -5.362   0.963  18.038  0.00  0.00    -0.201 OA
BRANCH  13  16
ATOM     16  N1  D9H d   1      -5.428  -0.591  16.078  0.00  0.00    -0.324 N 
ATOM     17  H1  D9H d   1      -5.658  -1.476  16.482  0.00  0.00     0.169 HD
ATOM     18  H2  D9H d   1      -4.881  -0.549  15.242  0.00  0.00     0.169 HD
ENDBRANCH  13  16
ENDBRANCH   7  13
ENDBRANCH   1   3
BRANCH   1  19
ATOM     19  C8  D9H d   1      -4.186   6.140  12.730  0.00  0.00     0.745 A 
ATOM     20  N9  D9H d   1      -3.310   6.974  12.147  0.00  0.00     0.130 NA
ATOM     21  C10 D9H d   1      -3.765   7.952  11.366  0.00  0.00     0.741 A 
ATOM     22  N12 D9H d   1      -5.079   8.111  11.203  0.00  0.00    -0.030 NA
ATOM     23  C13 D9H d   1      -5.924   7.263  11.792  0.00  0.00     0.259 A 
ATOM     24 CL13 D9H d   1      -7.581   7.530  11.611  0.00  0.00    -0.040 Cl
ATOM     25  N14 D9H d   1      -5.498   6.274  12.573  0.00  0.00    -0.030 NA
BRANCH  21  26
ATOM     26  N11 D9H d   1      -2.854   8.852  10.741  0.00  0.00    -0.220 N 
ATOM     27  H8  D9H d   1      -3.200   9.715  10.298  0.00  0.00     0.177 HD
BRANCH  26  28
ATOM     28  C15 D9H d   1      -1.451   8.549  10.732  0.00  0.00     0.029 C 
ATOM     29  H9  D9H d   1      -1.191   7.965  11.627  0.00  0.00     0.068 H 
ATOM     30  H10 D9H d   1      -0.869   9.482  10.721  0.00  0.00     0.068 H 
BRANCH  28  31
ATOM     31  C16 D9H d   1      -1.151   7.751   9.502  0.00  0.00     0.032 C 
ATOM     32  H11 D9H d   1      -1.291   8.386   8.615  0.00  0.00     0.076 H 
ATOM     33  H12 D9H d   1      -1.837   6.893   9.451  0.00  0.00     0.076 H 
BRANCH  31  34
ATOM     34  O17 D9H d   1       0.154   7.291   9.532  0.00  0.00    -0.399 OA
ATOM     35  H13 D9H d   1       0.329   6.787   8.746  0.00  0.00     0.209 HD
ENDBRANCH  31  34
ENDBRANCH  28  31
ENDBRANCH  26  28
ENDBRANCH  21  26
ENDBRANCH   1  19
TORSDOF 8
