REMARK  9 active torsions:
REMARK  status: ('A' for Active; 'I' for Inactive)
REMARK    1  A    between atoms: C1_1  and  S1_4 
REMARK    2  A    between atoms: S1_4  and  N1_2 
REMARK    3  A    between atoms: C4_8  and  N7_11 
REMARK    4  A    between atoms: N7_11  and  C8_12 
REMARK    5  A    between atoms: C10_14  and  N11_15 
REMARK    6  A    between atoms: N11_15  and  C15_20 
REMARK    7  A    between atoms: C15_20  and  C16_21 
REMARK    8  A    between atoms: C16_21  and  O17_23 
REMARK    9  A    between atoms: O17_23  and  C17_22 
ROOT
ATOM      1  C8  DWH d   1      -4.128   6.613  12.613  0.00  0.00     0.745 A 
ATOM      2  N9  DWH d   1      -3.245   7.602  12.120  0.00  0.00     0.130 NA
ATOM      3  C10 DWH d   1      -3.708   8.489  11.303  0.00  0.00     0.741 A 
ATOM      4  N12 DWH d   1      -5.070   8.484  10.934  0.00  0.00    -0.030 NA
ATOM      5  C13 DWH d   1      -5.854   7.560  11.410  0.00  0.00     0.259 A 
ATOM      6 CL13 DWH d   1      -7.477   7.549  10.919  0.00  0.00    -0.040 Cl
ATOM      7  N14 DWH d   1      -5.386   6.577  12.318  0.00  0.00    -0.030 NA
ENDROOT
BRANCH   1   8
ATOM      8  N7  DWH d   1      -3.524   5.751  13.514  0.00  0.00    -0.188 N 
ATOM      9  H7  DWH d   1      -2.514   5.867  13.678  0.00  0.00     0.184 HD
BRANCH   8  10
ATOM     10  C4  DWH d   1      -4.178   4.737  14.218  0.00  0.00     0.049 A 
ATOM     11  C3  DWH d   1      -5.600   4.762  14.553  0.00  0.00    -0.055 A 
ATOM     12  C2  DWH d   1      -6.100   3.745  15.294  0.00  0.00    -0.058 A 
ATOM     13  H4  DWH d   1      -6.237   5.572  14.218  0.00  0.00     0.087 H 
ATOM     14  C1  DWH d   1      -5.220   2.639  15.754  0.00  0.00     0.079 A 
ATOM     15  H3  DWH d   1      -7.152   3.737  15.554  0.00  0.00     0.086 H 
ATOM     16  C6  DWH d   1      -3.897   2.656  15.417  0.00  0.00    -0.058 A 
ATOM     17  C5  DWH d   1      -3.363   3.742  14.619  0.00  0.00    -0.055 A 
ATOM     18  H6  DWH d   1      -3.244   1.856  15.747  0.00  0.00     0.086 H 
ATOM     19  H5  DWH d   1      -2.314   3.753  14.347  0.00  0.00     0.087 H 
BRANCH  14  20
ATOM     20  S1  DWH d   1      -5.886   1.335  16.747  0.00  0.00     0.256 S 
ATOM     21  O1  DWH d   1      -7.331   1.510  16.635  0.00  0.00    -0.201 OA
ATOM     22  O2  DWH d   1      -5.327   1.524  18.071  0.00  0.00    -0.201 OA
BRANCH  20  23
ATOM     23  N1  DWH d   1      -5.395  -0.015  16.079  0.00  0.00    -0.324 N 
ATOM     24  H1  DWH d   1      -5.656  -0.894  16.478  0.00  0.00     0.169 HD
ATOM     25  H2  DWH d   1      -4.824   0.012  15.258  0.00  0.00     0.169 HD
ENDBRANCH  20  23
ENDBRANCH  14  20
ENDBRANCH   8  10
ENDBRANCH   1   8
BRANCH   3  26
ATOM     26  N11 DWH d   1      -2.858   9.503  10.812  0.00  0.00    -0.213 N 
ATOM     27  H8  DWH d   1      -3.240  10.321  10.316  0.00  0.00     0.178 HD
BRANCH  26  28
ATOM     28  C15 DWH d   1      -1.451   9.360  11.024  0.00  0.00     0.089 C 
ATOM     29  H9  DWH d   1      -1.266   8.839  11.975  0.00  0.00     0.080 H 
ATOM     30  H10 DWH d   1      -0.973  10.351  11.050  0.00  0.00     0.080 H 
BRANCH  28  31
ATOM     31  C16 DWH d   1      -0.902   8.561   9.892  0.00  0.00     0.276 C 
ATOM     32  O18 DWH d   1      -1.647   7.785   9.235  0.00  0.00    -0.263 OA
BRANCH  31  33
ATOM     33  O17 DWH d   1       0.304   8.685   9.559  0.00  0.00    -0.325 OA
BRANCH  33  34
ATOM     34  C17 DWH d   1       0.780   7.960   8.480  0.00  0.00     0.013 C 
ATOM     35  H11 DWH d   1       1.846   8.186   8.328  0.00  0.00     0.067 H 
ATOM     36  H12 DWH d   1       0.215   8.233   7.577  0.00  0.00     0.067 H 
ATOM     37  H13 DWH d   1       0.658   6.885   8.678  0.00  0.00     0.067 H 
ENDBRANCH  33  34
ENDBRANCH  31  33
ENDBRANCH  28  31
ENDBRANCH  26  28
ENDBRANCH   3  26
TORSDOF 9
