REMARK  4 active torsions:
REMARK  status: ('A' for Active; 'I' for Inactive)
REMARK    1  A    between atoms: C5_4  and  N18_12 
REMARK    2  A    between atoms: C6_5  and  C11_8 
REMARK    3  A    between atoms: C11_8  and  O13_10 
REMARK    4  A    between atoms: O13_10  and  C14_11 
ROOT
ATOM      1 CL1  MS9 d   1       0.727  59.339  30.665  0.00  0.00    -0.084 Cl
ATOM      2  C2  MS9 d   1      -1.009  59.587  30.649  0.00  0.00     0.036 A 
ATOM      3  C3  MS9 d   1      -1.535  60.768  31.130  0.00  0.00    -0.036 A 
ATOM      4  C5  MS9 d   1      -2.946  61.021  31.133  0.00  0.00     0.043 A 
ATOM      5  C6  MS9 d   1      -3.814  59.985  30.673  0.00  0.00     0.065 A 
ATOM      6  C7  MS9 d   1      -3.254  58.733  30.247  0.00  0.00    -0.063 A 
ATOM      7  C9  MS9 d   1      -1.840  58.537  30.177  0.00  0.00    -0.061 A 
ATOM      8  H1  MS9 d   1      -0.863  61.526  31.516  0.00  0.00     0.089 H 
ATOM      9  H2  MS9 d   1      -3.917  57.920  29.973  0.00  0.00     0.085 H 
ATOM     10  H3  MS9 d   1      -1.418  57.621  29.779  0.00  0.00     0.086 H 
ENDROOT
BRANCH   5  11
ATOM     11  C11 MS9 d   1      -5.318  60.128  30.722  0.00  0.00     0.295 C 
ATOM     12  O12 MS9 d   1      -5.787  61.206  31.188  0.00  0.00    -0.259 OA
BRANCH  11  13
ATOM     13  O13 MS9 d   1      -6.054  59.004  30.385  0.00  0.00    -0.322 OA
BRANCH  13  14
ATOM     14  C14 MS9 d   1      -7.453  59.367  30.302  0.00  0.00     0.013 C 
ATOM     15  H4  MS9 d   1      -8.047  58.480  30.035  0.00  0.00     0.067 H 
ATOM     16  H5  MS9 d   1      -7.586  60.142  29.533  0.00  0.00     0.067 H 
ATOM     17  H6  MS9 d   1      -7.790  59.754  31.275  0.00  0.00     0.067 H 
ENDBRANCH  13  14
ENDBRANCH  11  13
ENDBRANCH   5  11
BRANCH   4  18
ATOM     18  N18 MS9 d   1      -3.382  62.227  31.619  0.00  0.00    -0.398 N 
ATOM     19  H7  MS9 d   1      -2.700  62.932  31.935  0.00  0.00     0.156 HD
ATOM     20  H8  MS9 d   1      -4.391  62.428  31.668  0.00  0.00     0.156 HD
ENDBRANCH   4  18
TORSDOF 4
