REMARK  5 active torsions:
REMARK  status: ('A' for Active; 'I' for Inactive)
REMARK    1  A    between atoms: C2_2  and  O2_8 
REMARK    2  A    between atoms: C3_3  and  O3_9 
REMARK    3  A    between atoms: C4_4  and  O4_10 
REMARK    4  A    between atoms: C5_5  and  C6_6 
REMARK    5  A    between atoms: C6_6  and  O6_12 
ROOT
ATOM      1  C1  149 d   1     -10.846 -27.577 -26.265  0.00  0.00     0.291 C 
ATOM      2  C2  149 d   1      -9.873 -28.630 -25.700  0.00  0.00     0.146 C 
ATOM      3  C3  149 d   1      -8.999 -29.224 -26.820  0.00  0.00     0.096 C 
ATOM      4  C4  149 d   1      -9.875 -29.648 -28.002  0.00  0.00     0.090 C 
ATOM      5  C5  149 d   1     -10.474 -28.368 -28.640  0.00  0.00     0.095 C 
ATOM      6  O1  149 d   1     -11.403 -26.814 -25.515  0.00  0.00    -0.262 OA
ATOM      7  O5  149 d   1     -11.086 -27.484 -27.622  0.00  0.00    -0.309 OA
ATOM      8  H1  149 d   1     -10.451 -29.437 -25.226  0.00  0.00     0.103 H 
ATOM      9  H2  149 d   1      -8.276 -28.467 -27.158  0.00  0.00     0.091 H 
ATOM     10  H3  149 d   1      -9.265 -30.185 -28.744  0.00  0.00     0.091 H 
ATOM     11  H4  149 d   1      -9.671 -27.822 -29.156  0.00  0.00     0.091 H 
ENDROOT
BRANCH   5  12
ATOM     12  C6  149 d   1     -11.566 -28.744 -29.648  0.00  0.00     0.044 C 
ATOM     13  H5  149 d   1     -12.091 -27.835 -29.976  0.00  0.00     0.078 H 
ATOM     14  H6  149 d   1     -12.283 -29.430 -29.173  0.00  0.00     0.078 H 
BRANCH  12  15
ATOM     15  O6  149 d   1     -10.972 -29.383 -30.777  0.00  0.00    -0.398 OA
ATOM     16  H10 149 d   1     -10.354 -28.790 -31.186  0.00  0.00     0.209 HD
ENDBRANCH  12  15
ENDBRANCH   5  12
BRANCH   4  17
ATOM     17  O4  149 d   1     -10.939 -30.504 -27.544  0.00  0.00    -0.390 OA
ATOM     18  H9  149 d   1     -11.489 -30.745 -28.280  0.00  0.00     0.210 HD
ENDBRANCH   4  17
BRANCH   3  19
ATOM     19  O3  149 d   1      -8.297 -30.357 -26.310  0.00  0.00    -0.390 OA
ATOM     20  H8  149 d   1      -7.755 -30.089 -25.577  0.00  0.00     0.210 HD
ENDBRANCH   3  19
BRANCH   2  21
ATOM     21  O2  149 d   1      -9.023 -28.013 -24.723  0.00  0.00    -0.383 OA
ATOM     22  H7  149 d   1      -8.517 -27.323 -25.136  0.00  0.00     0.210 HD
ENDBRANCH   2  21
TORSDOF 5
