REMARK  16 active torsions:
REMARK  status: ('A' for Active; 'I' for Inactive)
REMARK    1  A    between atoms: S8_7  and  C5_4 
REMARK    2  A    between atoms: N11_10  and  S8_7 
REMARK    3  A    between atoms: N11_10  and  C12_11 
REMARK    4  A    between atoms: C16_15  and  N11_10 
REMARK    5  A    between atoms: C12_11  and  C13_12 
REMARK    6  A    between atoms: C13_12  and  C14_13 
REMARK    7  A    between atoms: C13_12  and  C15_14 
REMARK    8  A    between atoms: C17_16  and  C16_15 
REMARK    9  A    between atoms: C17_16  and  O18_18 
REMARK   10  A    between atoms: C19_19  and  C17_16 
REMARK   11  A    between atoms: N20_21  and  C19_19 
REMARK   12  A    between atoms: C19_19  and  C32_31 
REMARK       I    between atoms: C21_22  and  N20_21 
REMARK   13  A    between atoms: C29_29  and  C21_22 
REMARK   14  A    between atoms: C43_41  and  N24_24 
REMARK   15  A    between atoms: C32_31  and  C38_37 
REMARK   16  A    between atoms: C42_40  and  O46_44 
ROOT
ATOM      1  C19 K53 d   1      19.690  28.993  14.171  0.00  0.00     0.042 C 
ATOM      2  H19 K53 d   1      19.590  29.927  13.598  0.00  0.00     0.077 H 
ENDROOT
BRANCH   1   3
ATOM      3  C17 K53 d   1      20.024  29.367  15.618  0.00  0.00     0.067 C 
ATOM      4  H15 K53 d   1      21.053  29.756  15.628  0.00  0.00     0.088 H 
BRANCH   3   5
ATOM      5  C16 K53 d   1      19.104  30.462  16.177  0.00  0.00     0.019 C 
ATOM      6  H13 K53 d   1      18.052  30.189  16.007  0.00  0.00     0.061 H 
ATOM      7  H14 K53 d   1      19.281  30.584  17.256  0.00  0.00     0.061 H 
BRANCH   5   8
ATOM      8  N11 K53 d   1      19.417  31.728  15.468  0.00  0.00    -0.204 NA
BRANCH   8   9
ATOM      9  S8  K53 d   1      18.132  32.395  14.733  0.00  0.00     0.243 S 
ATOM     10  O9  K53 d   1      17.407  31.306  14.144  0.00  0.00    -0.206 OA
ATOM     11  O10 K53 d   1      18.661  33.266  13.725  0.00  0.00    -0.206 OA
BRANCH   9  12
ATOM     12  C5  K53 d   1      17.188  33.220  15.769  0.00  0.00     0.077 A 
ATOM     13  C4  K53 d   1      17.385  34.592  15.982  0.00  0.00    -0.026 A 
ATOM     14  C3  K53 d   1      16.583  35.270  16.893  0.00  0.00     0.106 A 
ATOM     15  H1  K53 d   1      18.159  35.122  15.439  0.00  0.00     0.090 H 
ATOM     16  C2  K53 d   1      15.594  34.628  17.578  0.00  0.00     0.105 A 
ATOM     17  O29 K53 d   1      16.605  36.594  17.246  0.00  0.00    -0.323 OA
ATOM     18  C7  K53 d   1      15.359  33.275  17.400  0.00  0.00    -0.046 A 
ATOM     19  O19 K53 d   1      14.979  35.516  18.407  0.00  0.00    -0.323 OA
ATOM     20  C6  K53 d   1      16.167  32.570  16.485  0.00  0.00    -0.058 A 
ATOM     21  H3  K53 d   1      14.573  32.770  17.951  0.00  0.00     0.087 H 
ATOM     22  H2  K53 d   1      15.999  31.510  16.331  0.00  0.00     0.086 H 
ATOM     23  C18 K53 d   1      15.629  36.802  18.274  0.00  0.00     0.115 A 
ATOM     24  H16 K53 d   1      16.112  37.095  19.218  0.00  0.00     0.118 H 
ATOM     25  H17 K53 d   1      14.906  37.576  17.976  0.00  0.00     0.118 H 
ENDBRANCH   9  12
ENDBRANCH   8   9
BRANCH   8  26
ATOM     26  C12 K53 d   1      20.159  32.699  16.317  0.00  0.00    -0.004 C 
ATOM     27  H4  K53 d   1      19.792  32.626  17.351  0.00  0.00     0.058 H 
ATOM     28  H5  K53 d   1      19.983  33.716  15.937  0.00  0.00     0.058 H 
BRANCH  26  29
ATOM     29  C13 K53 d   1      21.666  32.411  16.299  0.00  0.00    -0.049 C 
ATOM     30  H6  K53 d   1      21.816  31.410  16.730  0.00  0.00     0.040 H 
BRANCH  29  31
ATOM     31  C14 K53 d   1      22.249  32.390  14.883  0.00  0.00    -0.072 C 
ATOM     32  H7  K53 d   1      23.328  32.180  14.934  0.00  0.00     0.028 H 
ATOM     33  H8  K53 d   1      22.088  33.368  14.406  0.00  0.00     0.028 H 
ATOM     34  H9  K53 d   1      21.750  31.607  14.293  0.00  0.00     0.028 H 
ENDBRANCH  29  31
BRANCH  29  35
ATOM     35  C15 K53 d   1      22.409  33.418  17.183  0.00  0.00    -0.072 C 
ATOM     36  H10 K53 d   1      21.971  33.413  18.192  0.00  0.00     0.028 H 
ATOM     37  H11 K53 d   1      22.318  34.425  16.749  0.00  0.00     0.028 H 
ATOM     38  H12 K53 d   1      23.471  33.139  17.243  0.00  0.00     0.028 H 
ENDBRANCH  29  35
ENDBRANCH  26  29
ENDBRANCH   8  26
ENDBRANCH   5   8
ENDBRANCH   3   5
BRANCH   3  39
ATOM     39  O18 K53 d   1      19.974  28.215  16.476  0.00  0.00    -0.392 OA
ATOM     40  H18 K53 d   1      20.263  28.458  17.348  0.00  0.00     0.210 HD
ENDBRANCH   3  39
ENDBRANCH   1   3
BRANCH   1  41
ATOM     41  N20 K53 d   1      20.797  28.228  13.603  0.00  0.00    -0.351 N 
ATOM     42  C21 K53 d   1      21.554  28.634  12.573  0.00  0.00     0.249 C 
ATOM     43  O22 K53 d   1      21.453  29.731  12.045  0.00  0.00    -0.271 OA
ATOM     44  H20 K53 d   1      21.005  27.339  14.011  0.00  0.00     0.163 HD
BRANCH  42  45
ATOM     45  C29 K53 d   1      22.572  27.653  12.049  0.00  0.00     0.142 C 
ATOM     46  C25 K53 d   1      22.621  27.595  10.519  0.00  0.00     0.038 C 
ATOM     47  N24 K53 d   1      22.540  26.159  10.240  0.00  0.00    -0.288 N 
ATOM     48  H21 K53 d   1      21.770  28.132  10.076  0.00  0.00     0.069 H 
ATOM     49  H22 K53 d   1      23.561  28.019  10.137  0.00  0.00     0.069 H 
ATOM     50  C26 K53 d   1      22.300  25.465  11.338  0.00  0.00     0.368 C 
ATOM     51  O27 K53 d   1      22.206  24.253  11.427  0.00  0.00    -0.238 OA
ATOM     52  O28 K53 d   1      22.220  26.324  12.474  0.00  0.00    -0.287 OA
ATOM     53  H23 K53 d   1      23.563  27.929  12.439  0.00  0.00     0.102 H 
BRANCH  47  54
ATOM     54  C43 K53 d   1      22.768  25.582   8.987  0.00  0.00     0.072 A 
ATOM     55  C42 K53 d   1      24.032  25.100   8.718  0.00  0.00     0.092 A 
ATOM     56  C41 K53 d   1      24.298  24.514   7.480  0.00  0.00    -0.049 A 
ATOM     57  C40 K53 d   1      23.292  24.437   6.516  0.00  0.00    -0.080 A 
ATOM     58  H32 K53 d   1      25.285  24.119   7.267  0.00  0.00     0.087 H 
ATOM     59  C45 K53 d   1      22.015  24.931   6.795  0.00  0.00    -0.081 A 
ATOM     60  H31 K53 d   1      23.501  23.993   5.549  0.00  0.00     0.083 H 
ATOM     61  C44 K53 d   1      21.759  25.510   8.027  0.00  0.00    -0.054 A 
ATOM     62  H34 K53 d   1      21.229  24.861   6.051  0.00  0.00     0.083 H 
ATOM     63  H33 K53 d   1      20.774  25.907   8.245  0.00  0.00     0.087 H 
BRANCH  55  64
ATOM     64  O46 K53 d   1      25.007  25.183   9.675  0.00  0.00    -0.358 OA
ATOM     65  H35 K53 d   1      25.813  24.811   9.337  0.00  0.00     0.217 HD
ENDBRANCH  55  64
ENDBRANCH  47  54
ENDBRANCH  42  45
ENDBRANCH   1  41
BRANCH   1  66
ATOM     66  C32 K53 d   1      18.364  28.229  14.037  0.00  0.00    -0.020 C 
ATOM     67  H24 K53 d   1      17.534  28.864  14.380  0.00  0.00     0.043 H 
ATOM     68  H25 K53 d   1      18.401  27.313  14.645  0.00  0.00     0.043 H 
BRANCH  66  69
ATOM     69  C38 K53 d   1      18.163  27.869  12.583  0.00  0.00    -0.056 A 
ATOM     70  C33 K53 d   1      18.527  26.604  12.123  0.00  0.00    -0.077 A 
ATOM     71  C34 K53 d   1      18.385  26.274  10.787  0.00  0.00    -0.082 A 
ATOM     72  H26 K53 d   1      18.924  25.873  12.818  0.00  0.00     0.084 H 
ATOM     73  C35 K53 d   1      17.868  27.209   9.900  0.00  0.00    -0.083 A 
ATOM     74  H27 K53 d   1      18.676  25.291  10.435  0.00  0.00     0.083 H 
ATOM     75  C36 K53 d   1      17.512  28.475  10.352  0.00  0.00    -0.082 A 
ATOM     76  H28 K53 d   1      17.742  26.952   8.854  0.00  0.00     0.083 H 
ATOM     77  C37 K53 d   1      17.654  28.802  11.692  0.00  0.00    -0.077 A 
ATOM     78  H29 K53 d   1      17.122  29.208   9.655  0.00  0.00     0.083 H 
ATOM     79  H30 K53 d   1      17.367  29.787  12.043  0.00  0.00     0.084 H 
ENDBRANCH  66  69
ENDBRANCH   1  66
TORSDOF 16
