REMARK  16 active torsions:
REMARK  status: ('A' for Active; 'I' for Inactive)
REMARK    1  A    between atoms: S8_13  and  C5_10 
REMARK    2  A    between atoms: N11_16  and  S8_13 
REMARK    3  A    between atoms: N11_16  and  C12_17 
REMARK    4  A    between atoms: C16_21  and  N11_16 
REMARK    5  A    between atoms: C12_17  and  C13_18 
REMARK    6  A    between atoms: C13_18  and  C14_19 
REMARK    7  A    between atoms: C13_18  and  C15_20 
REMARK    8  A    between atoms: C17_22  and  C16_21 
REMARK    9  A    between atoms: C17_22  and  O18_23 
REMARK   10  A    between atoms: C19_24  and  C17_22 
REMARK   11  A    between atoms: N20_25  and  C19_24 
REMARK   12  A    between atoms: C19_24  and  C32_34 
REMARK       I    between atoms: C21_26  and  N20_25 
REMARK   13  A    between atoms: C29_33  and  C21_26 
REMARK   14  A    between atoms: C43_44  and  N24_28 
REMARK   15  A    between atoms: C32_34  and  C38_40 
REMARK   16  A    between atoms: C42_43  and  C46_47 
ROOT
ATOM      1  C19 K54 d   1      19.638  29.026  14.052  0.00  0.00     0.042 C 
ATOM      2  H18 K54 d   1      19.552  29.977  13.505  0.00  0.00     0.077 H 
ENDROOT
BRANCH   1   3
ATOM      3  C17 K54 d   1      20.028  29.332  15.491  0.00  0.00     0.067 C 
ATOM      4  H16 K54 d   1      21.078  29.661  15.499  0.00  0.00     0.088 H 
BRANCH   3   5
ATOM      5  C16 K54 d   1      19.171  30.461  16.082  0.00  0.00     0.019 C 
ATOM      6  H14 K54 d   1      18.106  30.204  15.986  0.00  0.00     0.061 H 
ATOM      7  H15 K54 d   1      19.421  30.595  17.145  0.00  0.00     0.061 H 
BRANCH   5   8
ATOM      8  N11 K54 d   1      19.447  31.720  15.343  0.00  0.00    -0.204 NA
BRANCH   8   9
ATOM      9  S8  K54 d   1      18.146  32.367  14.623  0.00  0.00     0.243 S 
ATOM     10  O9  K54 d   1      17.390  31.278  14.062  0.00  0.00    -0.206 OA
ATOM     11  O10 K54 d   1      18.656  33.230  13.608  0.00  0.00    -0.206 OA
BRANCH   9  12
ATOM     12  C5  K54 d   1      17.252  33.241  15.679  0.00  0.00     0.076 A 
ATOM     13  C4  K54 d   1      17.429  34.635  15.920  0.00  0.00    -0.042 A 
ATOM     14  C3  K54 d   1      16.641  35.345  16.859  0.00  0.00     0.036 A 
ATOM     15  H2  K54 d   1      18.192  35.170  15.366  0.00  0.00     0.088 H 
ATOM     16  S1  K54 d   1      16.783  37.020  17.227  0.00  0.00    -0.081 SA
ATOM     17  C2  K54 d   1      15.665  34.652  17.571  0.00  0.00     0.074 A 
ATOM     18  C1  K54 d   1      15.490  36.759  18.347  0.00  0.00     0.041 A 
ATOM     19  N1  K54 d   1      15.030  35.496  18.429  0.00  0.00    -0.253 NA
ATOM     20  H1  K54 d   1      15.074  37.566  18.948  0.00  0.00     0.126 H 
ATOM     21  C7  K54 d   1      15.480  33.292  17.333  0.00  0.00    -0.052 A 
ATOM     22  C6  K54 d   1      16.255  32.591  16.399  0.00  0.00    -0.059 A 
ATOM     23  H4  K54 d   1      14.714  32.760  17.886  0.00  0.00     0.087 H 
ATOM     24  H3  K54 d   1      16.076  31.534  16.236  0.00  0.00     0.086 H 
ENDBRANCH   9  12
ENDBRANCH   8   9
BRANCH   8  25
ATOM     25  C12 K54 d   1      20.236  32.712  16.107  0.00  0.00    -0.004 C 
ATOM     26  H5  K54 d   1      19.846  32.763  17.134  0.00  0.00     0.058 H 
ATOM     27  H6  K54 d   1      20.132  33.696  15.627  0.00  0.00     0.058 H 
BRANCH  25  28
ATOM     28  C13 K54 d   1      21.720  32.339  16.158  0.00  0.00    -0.049 C 
ATOM     29  H7  K54 d   1      21.811  31.338  16.606  0.00  0.00     0.040 H 
BRANCH  28  30
ATOM     30  C14 K54 d   1      22.341  32.306  14.760  0.00  0.00    -0.072 C 
ATOM     31  H8  K54 d   1      23.404  32.035  14.838  0.00  0.00     0.028 H 
ATOM     32  H9  K54 d   1      22.248  33.298  14.294  0.00  0.00     0.028 H 
ATOM     33  H10 K54 d   1      21.817  31.561  14.143  0.00  0.00     0.028 H 
ENDBRANCH  28  30
BRANCH  28  34
ATOM     34  C15 K54 d   1      22.486  33.339  17.023  0.00  0.00    -0.072 C 
ATOM     35  H11 K54 d   1      22.044  33.367  18.030  0.00  0.00     0.028 H 
ATOM     36  H12 K54 d   1      22.426  34.339  16.568  0.00  0.00     0.028 H 
ATOM     37  H13 K54 d   1      23.540  33.031  17.094  0.00  0.00     0.028 H 
ENDBRANCH  28  34
ENDBRANCH  25  28
ENDBRANCH   8  25
ENDBRANCH   5   8
ENDBRANCH   3   5
BRANCH   3  38
ATOM     38  O18 K54 d   1      19.919  28.147  16.292  0.00  0.00    -0.392 OA
ATOM     39  H17 K54 d   1      20.219  28.334  17.174  0.00  0.00     0.210 HD
ENDBRANCH   3  38
ENDBRANCH   1   3
BRANCH   1  40
ATOM     40  N20 K54 d   1      20.642  28.169  13.427  0.00  0.00    -0.351 N 
ATOM     41  C21 K54 d   1      21.363  28.592  12.378  0.00  0.00     0.249 C 
ATOM     42  O22 K54 d   1      21.325  29.719  11.912  0.00  0.00    -0.271 OA
ATOM     43  H19 K54 d   1      20.795  27.249  13.788  0.00  0.00     0.163 HD
BRANCH  41  44
ATOM     44  C29 K54 d   1      22.283  27.610  11.743  0.00  0.00     0.142 C 
ATOM     45  C25 K54 d   1      21.899  27.440  10.256  0.00  0.00     0.038 C 
ATOM     46  N24 K54 d   1      22.205  26.016  10.057  0.00  0.00    -0.290 N 
ATOM     47  H20 K54 d   1      20.833  27.653  10.086  0.00  0.00     0.069 H 
ATOM     48  H21 K54 d   1      22.510  28.081   9.604  0.00  0.00     0.069 H 
ATOM     49  C26 K54 d   1      22.173  25.343  11.287  0.00  0.00     0.368 C 
ATOM     50  O27 K54 d   1      22.190  24.132  11.440  0.00  0.00    -0.238 OA
ATOM     51  O28 K54 d   1      22.156  26.315  12.356  0.00  0.00    -0.287 OA
ATOM     52  H22 K54 d   1      23.320  27.968  11.832  0.00  0.00     0.102 H 
BRANCH  46  53
ATOM     53  C43 K54 d   1      22.038  25.216   8.914  0.00  0.00     0.054 A 
ATOM     54  C42 K54 d   1      23.202  24.772   8.313  0.00  0.00     0.074 A 
ATOM     55  C41 K54 d   1      23.114  23.960   7.176  0.00  0.00    -0.066 A 
ATOM     56  C40 K54 d   1      21.872  23.604   6.657  0.00  0.00    -0.082 A 
ATOM     57  H31 K54 d   1      24.019  23.606   6.696  0.00  0.00     0.084 H 
ATOM     58  C45 K54 d   1      20.702  24.054   7.262  0.00  0.00    -0.081 A 
ATOM     59  H30 K54 d   1      21.816  22.973   5.777  0.00  0.00     0.083 H 
ATOM     60  C44 K54 d   1      20.792  24.862   8.402  0.00  0.00    -0.056 A 
ATOM     61  H33 K54 d   1      19.734  23.783   6.856  0.00  0.00     0.083 H 
ATOM     62  H32 K54 d   1      19.889  25.213   8.888  0.00  0.00     0.086 H 
BRANCH  54  63
ATOM     63  C46 K54 d   1      24.526  25.175   8.891  0.00  0.00     0.419 C 
ATOM     64  F1  K54 d   1      24.543  26.489   8.997  0.00  0.00    -0.166 F 
ATOM     65  F2  K54 d   1      24.722  24.658  10.102  0.00  0.00    -0.166 F 
ATOM     66  F3  K54 d   1      25.493  24.810   8.068  0.00  0.00    -0.166 F 
ENDBRANCH  54  63
ENDBRANCH  46  53
ENDBRANCH  41  44
ENDBRANCH   1  40
BRANCH   1  67
ATOM     67  C32 K54 d   1      18.325  28.229  13.915  0.00  0.00    -0.020 C 
ATOM     68  H23 K54 d   1      17.487  28.850  14.264  0.00  0.00     0.043 H 
ATOM     69  H24 K54 d   1      18.388  27.319  14.530  0.00  0.00     0.043 H 
BRANCH  67  70
ATOM     70  C38 K54 d   1      18.088  27.838  12.466  0.00  0.00    -0.056 A 
ATOM     71  C33 K54 d   1      18.274  26.518  12.056  0.00  0.00    -0.077 A 
ATOM     72  C34 K54 d   1      18.072  26.171  10.722  0.00  0.00    -0.082 A 
ATOM     73  H25 K54 d   1      18.575  25.764  12.774  0.00  0.00     0.084 H 
ATOM     74  C35 K54 d   1      17.691  27.126   9.791  0.00  0.00    -0.083 A 
ATOM     75  H26 K54 d   1      18.214  25.143  10.408  0.00  0.00     0.083 H 
ATOM     76  C36 K54 d   1      17.507  28.441  10.200  0.00  0.00    -0.082 A 
ATOM     77  H27 K54 d   1      17.538  26.849   8.754  0.00  0.00     0.083 H 
ATOM     78  C37 K54 d   1      17.705  28.794  11.538  0.00  0.00    -0.077 A 
ATOM     79  H28 K54 d   1      17.209  29.195   9.480  0.00  0.00     0.083 H 
ATOM     80  H29 K54 d   1      17.558  29.821  11.852  0.00  0.00     0.084 H 
ENDBRANCH  67  70
ENDBRANCH   1  67
TORSDOF 16
