REMARK  6 active torsions:
REMARK  status: ('A' for Active; 'I' for Inactive)
REMARK    1  A    between atoms: C2_2  and  S14_14 
REMARK    2  A    between atoms: S14_14  and  C15_15 
REMARK    3  A    between atoms: C15_15  and  C16_16 
REMARK    4  A    between atoms: C16_16  and  C18_18 
REMARK    5  A    between atoms: C20_20  and  S24_24 
REMARK    6  A    between atoms: S24_24  and  N28_28 
ROOT
ATOM      1  C15 E27 d   1      -4.334   3.455  10.862  0.00  0.00     0.043 C 
ATOM      2  H7  E27 d   1      -5.140   2.909  10.349  0.00  0.00     0.061 H 
ATOM      3  H8  E27 d   1      -4.693   4.455  11.147  0.00  0.00     0.061 H 
ENDROOT
BRANCH   1   4
ATOM      4  S14 E27 d   1      -2.973   3.667   9.688  0.00  0.00    -0.084 SA
BRANCH   4   5
ATOM      5  C2  E27 d   1      -1.932   4.912  10.397  0.00  0.00     0.168 A 
ATOM      6  N1  E27 d   1      -2.232   5.546  11.540  0.00  0.00    -0.333 N 
ATOM      7  C9  E27 d   1      -1.244   6.394  11.749  0.00  0.00     0.077 A 
ATOM      8  H1  E27 d   1      -3.062   5.401  12.132  0.00  0.00     0.168 HD
ATOM      9  C4  E27 d   1      -0.341   6.278  10.735  0.00  0.00     0.104 A 
ATOM     10  C8  E27 d   1      -1.037   7.295  12.775  0.00  0.00     0.022 A 
ATOM     11  N3  E27 d   1      -0.773   5.355   9.894  0.00  0.00    -0.221 NA
ATOM     12  C5  E27 d   1       0.805   7.057  10.704  0.00  0.00     0.033 A 
ATOM     13  N6  E27 d   1       0.993   7.925  11.702  0.00  0.00    -0.258 NA
ATOM     14  H2  E27 d   1       1.524   6.965   9.898  0.00  0.00     0.118 H 
ATOM     15  C7  E27 d   1       0.124   8.063  12.713  0.00  0.00     0.069 A 
ATOM     16  C10 E27 d   1       0.377   8.984  13.723  0.00  0.00    -0.054 A 
ATOM     17  C11 E27 d   1      -0.522   9.132  14.774  0.00  0.00    -0.081 A 
ATOM     18  H3  E27 d   1       1.277   9.588  13.691  0.00  0.00     0.087 H 
ATOM     19  C12 E27 d   1      -1.678   8.359  14.825  0.00  0.00    -0.082 A 
ATOM     20  H4  E27 d   1      -0.321   9.854  15.558  0.00  0.00     0.083 H 
ATOM     21  C13 E27 d   1      -1.940   7.434  13.820  0.00  0.00    -0.069 A 
ATOM     22  H5  E27 d   1      -2.374   8.478  15.648  0.00  0.00     0.083 H 
ATOM     23  H6  E27 d   1      -2.839   6.829  13.852  0.00  0.00     0.085 H 
ENDBRANCH   4   5
ENDBRANCH   1   4
BRANCH   1  24
ATOM     24  C16 E27 d   1      -3.984   2.670  12.188  0.00  0.00     0.169 C 
ATOM     25  O17 E27 d   1      -3.128   1.723  12.240  0.00  0.00    -0.291 OA
BRANCH  24  26
ATOM     26  C18 E27 d   1      -4.646   2.928  13.566  0.00  0.00     0.012 A 
ATOM     27  C19 E27 d   1      -4.921   1.898  14.442  0.00  0.00    -0.045 A 
ATOM     28  C20 E27 d   1      -5.523   2.127  15.630  0.00  0.00     0.101 A 
ATOM     29  H9  E27 d   1      -4.649   0.884  14.172  0.00  0.00     0.087 H 
ATOM     30  C21 E27 d   1      -5.937   3.403  15.937  0.00  0.00     0.057 A 
ATOM     31  C22 E27 d   1      -5.719   4.471  15.075  0.00  0.00    -0.059 A 
ATOM     32 CL26 E27 d   1      -6.776   3.831  17.405  0.00  0.00    -0.083 Cl
ATOM     33  C23 E27 d   1      -5.100   4.195  13.903  0.00  0.00    -0.068 A 
ATOM     34  H10 E27 d   1      -6.030   5.478  15.329  0.00  0.00     0.086 H 
ATOM     35  H11 E27 d   1      -4.952   5.002  13.194  0.00  0.00     0.085 H 
BRANCH  28  36
ATOM     36  S24 E27 d   1      -5.946   0.802  16.741  0.00  0.00     0.258 S 
ATOM     37  O25 E27 d   1      -7.433   0.774  16.738  0.00  0.00    -0.201 OA
ATOM     38  O27 E27 d   1      -5.310   1.107  18.023  0.00  0.00    -0.201 OA
BRANCH  36  39
ATOM     39  N28 E27 d   1      -5.374  -0.555  16.047  0.00  0.00    -0.324 N 
ATOM     40  H12 E27 d   1      -5.498  -1.438  16.499  0.00  0.00     0.169 HD
ATOM     41  H13 E27 d   1      -4.899  -0.505  15.168  0.00  0.00     0.169 HD
ENDBRANCH  36  39
ENDBRANCH  28  36
ENDBRANCH  24  26
ENDBRANCH   1  24
TORSDOF 6
