REMARK  11 active torsions:
REMARK  status: ('A' for Active; 'I' for Inactive)
REMARK    1  A    between atoms: C13_2  and  C14_3 
REMARK       I    between atoms: C13_2  and  N12_12 
REMARK    2  A    between atoms: C17_6  and  N20_7 
REMARK    3  A    between atoms: N20_7  and  C22_8 
REMARK    4  A    between atoms: N20_7  and  C21_9 
REMARK    5  A    between atoms: N12_12  and  C10_13 
REMARK    6  A    between atoms: C10_13  and  C9_14 
REMARK    7  A    between atoms: C9_14  and  C8_15 
REMARK    8  A    between atoms: C8_15  and  C7_16 
REMARK    9  A    between atoms: C7_16  and  C6_17 
REMARK   10  A    between atoms: C6_17  and  C5_18 
REMARK   11  A    between atoms: C5_18  and  C1_19 
REMARK       I    between atoms: C1_19  and  N3_21 
ROOT
ATOM      1  O23 B3N d   1      -0.542  43.610   0.586  0.00  0.00    -0.268 OA
ATOM      2  C13 B3N d   1      -0.481  43.926   1.531  0.00  0.00     0.251 C 
ATOM      3  N12 B3N d   1      -0.216  43.086   2.573  0.00  0.00    -0.357 N 
ATOM      4  H11 B3N d   1      -0.195  43.525   3.471  0.00  0.00     0.162 HD
ENDROOT
BRANCH   3   5
ATOM      5  C10 B3N d   1       0.046  41.623   2.586  0.00  0.00    -0.004 C 
ATOM      6  H12 B3N d   1      -0.908  41.116   2.792  0.00  0.00     0.064 H 
ATOM      7  H13 B3N d   1       0.754  41.419   3.403  0.00  0.00     0.064 H 
BRANCH   5   8
ATOM      8  C9  B3N d   1       0.631  41.009   1.298  0.00  0.00    -0.050 C 
ATOM      9  H14 B3N d   1       1.067  41.811   0.684  0.00  0.00     0.035 H 
ATOM     10  H15 B3N d   1      -0.176  40.515   0.737  0.00  0.00     0.035 H 
BRANCH   8  11
ATOM     11  C8  B3N d   1       1.724  39.973   1.623  0.00  0.00    -0.064 C 
ATOM     12  H16 B3N d   1       2.413  40.418   2.355  0.00  0.00     0.033 H 
ATOM     13  H17 B3N d   1       2.270  39.747   0.696  0.00  0.00     0.033 H 
BRANCH  11  14
ATOM     14  C7  B3N d   1       1.201  38.671   2.195  0.00  0.00    -0.065 C 
ATOM     15  H18 B3N d   1       0.103  38.669   2.133  0.00  0.00     0.033 H 
ATOM     16  H19 B3N d   1       1.509  38.593   3.248  0.00  0.00     0.033 H 
BRANCH  14  17
ATOM     17  C6  B3N d   1       1.744  37.468   1.429  0.00  0.00    -0.057 C 
ATOM     18  H20 B3N d   1       2.489  37.804   0.693  0.00  0.00     0.033 H 
ATOM     19  H21 B3N d   1       0.919  36.958   0.909  0.00  0.00     0.033 H 
BRANCH  17  20
ATOM     20  C5  B3N d   1       2.397  36.509   2.416  0.00  0.00     0.013 C 
ATOM     21  H22 B3N d   1       2.217  36.886   3.433  0.00  0.00     0.047 H 
ATOM     22  H23 B3N d   1       3.479  36.494   2.217  0.00  0.00     0.047 H 
BRANCH  20  23
ATOM     23  C1  B3N d   1       1.874  35.069   2.338  0.00  0.00     0.269 C 
ATOM     24  O2  B3N d   1       0.768  34.776   2.796  0.00  0.00    -0.269 OA
ATOM     25  N3  B3N d   1       2.606  34.127   1.768  0.00  0.00    -0.059 NA
ATOM     26  O4  B3N d   1       2.154  32.979   1.712  0.00  0.00    -0.058 OA
ENDBRANCH  20  23
ENDBRANCH  17  20
ENDBRANCH  14  17
ENDBRANCH  11  14
ENDBRANCH   8  11
ENDBRANCH   5   8
ENDBRANCH   3   5
BRANCH   2  27
ATOM     27  C14 B3N d   1      -0.710  45.425   1.812  0.00  0.00     0.032 A 
ATOM     28  C15 B3N d   1       0.078  46.153   2.794  0.00  0.00    -0.066 A 
ATOM     29  C16 B3N d   1      -0.154  47.562   3.050  0.00  0.00    -0.056 A 
ATOM     30  H1  B3N d   1       0.853  45.633   3.345  0.00  0.00     0.085 H 
ATOM     31  C17 B3N d   1      -1.188  48.295   2.329  0.00  0.00     0.029 A 
ATOM     32  H2  B3N d   1       0.450  48.077   3.788  0.00  0.00     0.086 H 
ATOM     33  C18 B3N d   1      -1.993  47.530   1.346  0.00  0.00    -0.056 A 
ATOM     34  C19 B3N d   1      -1.737  46.151   1.090  0.00  0.00    -0.066 A 
ATOM     35  H9  B3N d   1      -2.793  48.030   0.811  0.00  0.00     0.086 H 
ATOM     36  H10 B3N d   1      -2.323  45.634   0.339  0.00  0.00     0.085 H 
BRANCH  31  37
ATOM     37  N20 B3N d   1      -1.458  49.709   2.566  0.00  0.00    -0.390 N 
BRANCH  37  38
ATOM     38  C22 B3N d   1      -2.569  50.401   1.900  0.00  0.00    -0.019 C 
ATOM     39  H3  B3N d   1      -2.590  51.453   2.220  0.00  0.00     0.056 H 
ATOM     40  H4  B3N d   1      -3.518  49.916   2.171  0.00  0.00     0.056 H 
ATOM     41  H5  B3N d   1      -2.431  50.352   0.810  0.00  0.00     0.056 H 
ENDBRANCH  37  38
BRANCH  37  42
ATOM     42  C21 B3N d   1      -0.696  50.520   3.516  0.00  0.00    -0.019 C 
ATOM     43  H6  B3N d   1       0.107  49.911   3.956  0.00  0.00     0.056 H 
ATOM     44  H7  B3N d   1      -1.365  50.876   4.313  0.00  0.00     0.056 H 
ATOM     45  H8  B3N d   1      -0.258  51.383   2.993  0.00  0.00     0.056 H 
ENDBRANCH  37  42
ENDBRANCH  31  37
ENDBRANCH   2  27
TORSDOF 11
