REMARK  4 active torsions:
REMARK  status: ('A' for Active; 'I' for Inactive)
REMARK    1  A    between atoms: C1_1  and  S1_4 
REMARK    2  A    between atoms: S1_4  and  N1_2 
REMARK    3  A    between atoms: C4_8  and  N7_11 
REMARK       I    between atoms: N7_11  and  C8_12 
REMARK       I    between atoms: C8_12  and  N9_14 
REMARK    4  A    between atoms: N9_14  and  C10_15 
ROOT
ATOM      1  N7  S6I d   1      -2.926   5.123  13.677  0.00  0.00    -0.309 N 
ATOM      2  C8  S6I d   1      -3.245   6.455  13.369  0.00  0.00     0.321 C 
ATOM      3  O8  S6I d   1      -4.304   6.934  13.648  0.00  0.00    -0.247 OA
ATOM      4  N9  S6I d   1      -2.096   7.207  12.961  0.00  0.00    -0.338 N 
ATOM      5  H7  S6I d   1      -2.019   4.803  13.403  0.00  0.00     0.170 HD
ATOM      6  H8  S6I d   1      -1.259   6.717  12.717  0.00  0.00     0.164 HD
ENDROOT
BRANCH   1   7
ATOM      7  C4  S6I d   1      -3.775   4.169  14.349  0.00  0.00     0.036 A 
ATOM      8  C3  S6I d   1      -5.127   4.298  14.612  0.00  0.00    -0.056 A 
ATOM      9  C2  S6I d   1      -5.765   3.308  15.332  0.00  0.00    -0.058 A 
ATOM     10  H4  S6I d   1      -5.677   5.163  14.258  0.00  0.00     0.087 H 
ATOM     11  C1  S6I d   1      -5.069   2.228  15.797  0.00  0.00     0.079 A 
ATOM     12  H3  S6I d   1      -6.828   3.388  15.530  0.00  0.00     0.086 H 
ATOM     13  C6  S6I d   1      -3.702   2.145  15.509  0.00  0.00    -0.058 A 
ATOM     14  C5  S6I d   1      -3.090   3.103  14.808  0.00  0.00    -0.056 A 
ATOM     15  H6  S6I d   1      -3.132   1.292  15.860  0.00  0.00     0.086 H 
ATOM     16  H5  S6I d   1      -2.028   3.022  14.605  0.00  0.00     0.087 H 
BRANCH  11  17
ATOM     17  S1  S6I d   1      -5.862   0.976  16.770  0.00  0.00     0.256 S 
ATOM     18  O1  S6I d   1      -7.310   1.161  16.655  0.00  0.00    -0.201 OA
ATOM     19  O2  S6I d   1      -5.353   1.105  18.137  0.00  0.00    -0.201 OA
BRANCH  17  20
ATOM     20  N1  S6I d   1      -5.385  -0.490  16.147  0.00  0.00    -0.324 N 
ATOM     21  H1  S6I d   1      -5.721  -1.339  16.554  0.00  0.00     0.169 HD
ATOM     22  H2  S6I d   1      -4.762  -0.522  15.365  0.00  0.00     0.169 HD
ENDBRANCH  17  20
ENDBRANCH  11  17
ENDBRANCH   1   7
BRANCH   4  23
ATOM     23  C10 S6I d   1      -2.106   8.558  12.895  0.00  0.00     0.014 C 
ATOM     24  C11 S6I d   1      -2.123   9.087  14.270  0.00  0.00    -0.046 C 
ATOM     25  C12 S6I d   1      -0.718   9.112  14.770  0.00  0.00    -0.063 C 
ATOM     26  H10 S6I d   1      -2.737   8.438  14.912  0.00  0.00     0.035 H 
ATOM     27  H11 S6I d   1      -2.539  10.105  14.273  0.00  0.00     0.035 H 
ATOM     28  C13 S6I d   1       0.150   9.057  13.539  0.00  0.00    -0.063 C 
ATOM     29  H12 S6I d   1      -0.524   8.243  15.416  0.00  0.00     0.033 H 
ATOM     30  H13 S6I d   1      -0.527  10.037  15.334  0.00  0.00     0.033 H 
ATOM     31  C14 S6I d   1      -0.797   9.004  12.339  0.00  0.00    -0.046 C 
ATOM     32  H14 S6I d   1       0.784   8.159  13.562  0.00  0.00     0.033 H 
ATOM     33  H15 S6I d   1       0.785   9.953  13.482  0.00  0.00     0.033 H 
ATOM     34  H16 S6I d   1      -0.892   9.998  11.878  0.00  0.00     0.035 H 
ATOM     35  H17 S6I d   1      -0.431   8.286  11.590  0.00  0.00     0.035 H 
ATOM     36  H9  S6I d   1      -2.955   8.924  12.300  0.00  0.00     0.072 H 
ENDBRANCH   4  23
TORSDOF 4
