REMARK  8 active torsions:
REMARK  status: ('A' for Active; 'I' for Inactive)
REMARK    1  A    between atoms: O1_1  and  C1_2 
REMARK    2  A    between atoms: C1_2  and  C2_3 
REMARK    3  A    between atoms: C2_3  and  O2_4 
REMARK    4  A    between atoms: C3_5  and  O3_6 
REMARK    5  A    between atoms: C4_7  and  O4_8 
REMARK    6  A    between atoms: C5_9  and  C6_11 
REMARK    7  A    between atoms: C6_11  and  O6_12 
REMARK    8  A    between atoms: O6_12  and  P_13 
ROOT
ATOM      1  C2  F6P d   1      39.032 -25.560  40.367  0.00  0.00     0.213 C 
ATOM      2  C3  F6P d   1      39.451 -24.502  41.398  0.00  0.00     0.118 C 
ATOM      3  C4  F6P d   1      40.557 -23.649  40.896  0.00  0.00     0.092 C 
ATOM      4  C5  F6P d   1      40.533 -23.803  39.395  0.00  0.00     0.090 C 
ATOM      5  O5  F6P d   1      39.459 -24.779  39.158  0.00  0.00    -0.341 OA
ATOM      6  H5  F6P d   1      38.622 -23.787  41.291  0.00  0.00     0.095 H 
ATOM      7  H7  F6P d   1      41.390 -24.334  41.112  0.00  0.00     0.091 H 
ATOM      8  H9  F6P d   1      40.283 -22.842  38.922  0.00  0.00     0.090 H 
ENDROOT
BRANCH   4   9
ATOM      9  C6  F6P d   1      41.879 -24.287  38.831  0.00  0.00     0.059 C 
ATOM     10  H10 F6P d   1      42.106 -25.293  39.215  0.00  0.00     0.079 H 
ATOM     11  H11 F6P d   1      42.679 -23.593  39.126  0.00  0.00     0.079 H 
BRANCH   9  12
ATOM     12  O6  F6P d   1      41.771 -24.324  37.430  0.00  0.00    -0.280 OA
BRANCH  12  13
ATOM     13  P   F6P d   1      42.909 -25.056  36.478  0.00  0.00     0.422 P 
ATOM     14  O1P F6P d   1      43.078 -26.650  36.877  0.00  0.00    -0.617 OA
ATOM     15  O2P F6P d   1      44.374 -24.330  36.654  0.00  0.00    -0.617 OA
ATOM     16  O3P F6P d   1      42.473 -24.983  35.089  0.00  0.00    -0.617 OA
ENDBRANCH  12  13
ENDBRANCH   9  12
ENDBRANCH   4   9
BRANCH   3  17
ATOM     17  O4  F6P d   1      41.130 -22.564  41.575  0.00  0.00    -0.390 OA
ATOM     18  H8  F6P d   1      41.496 -22.865  42.398  0.00  0.00     0.210 HD
ENDBRANCH   3  17
BRANCH   2  19
ATOM     19  O3  F6P d   1      39.266 -24.811  42.746  0.00  0.00    -0.387 OA
ATOM     20  H6  F6P d   1      39.561 -24.083  43.280  0.00  0.00     0.210 HD
ENDBRANCH   2  19
BRANCH   1  21
ATOM     21  C1  F6P d   1      37.603 -25.496  39.742  0.00  0.00     0.071 C 
ATOM     22  H2  F6P d   1      36.858 -25.805  40.490  0.00  0.00     0.082 H 
ATOM     23  H3  F6P d   1      37.388 -24.469  39.413  0.00  0.00     0.082 H 
BRANCH  21  24
ATOM     24  O1  F6P d   1      37.556 -26.359  38.648  0.00  0.00    -0.395 OA
ATOM     25  H1  F6P d   1      37.744 -27.244  38.936  0.00  0.00     0.209 HD
ENDBRANCH  21  24
ENDBRANCH   1  21
BRANCH   1  26
ATOM     26  O2  F6P d   1      40.007 -26.546  39.959  0.00  0.00    -0.362 OA
ATOM     27  H4  F6P d   1      39.787 -26.868  39.093  0.00  0.00     0.213 HD
ENDBRANCH   1  26
TORSDOF 8
