REMARK  16 active torsions:
REMARK  status: ('A' for Active; 'I' for Inactive)
REMARK    1  A    between atoms: O10_23  and  C1_1 
REMARK       I    between atoms: C3_8  and  N1_2 
REMARK    2  A    between atoms: N1_2  and  O11_25 
REMARK    3  A    between atoms: S1_4  and  N2_6 
REMARK    4  A    between atoms: C12_26  and  S1_4 
REMARK    5  A    between atoms: C2_5  and  O4_11 
REMARK    6  A    between atoms: N2_6  and  C9_20 
REMARK    7  A    between atoms: N2_6  and  C10_22 
REMARK    8  A    between atoms: C10_22  and  C3_8 
REMARK    9  A    between atoms: C5_12  and  C4_10 
REMARK   10  A    between atoms: C4_10  and  O9_21 
REMARK   11  A    between atoms: C7_16  and  O5_13 
REMARK   12  A    between atoms: C6_14  and  O6_15 
REMARK   13  A    between atoms: C16_30  and  O7_17 
REMARK   14  A    between atoms: O7_17  and  C17_31 
REMARK   15  A    between atoms: C9_20  and  C8_18 
REMARK   16  A    between atoms: C8_18  and  O10_23 
ROOT
ATOM      1  C9  D3X d   1       2.592  -5.359   2.635  0.00  0.00     0.026 C 
ATOM      2  H14 D3X d   1       2.556  -6.450   2.497  0.00  0.00     0.068 H 
ATOM      3  H15 D3X d   1       3.622  -5.053   2.871  0.00  0.00     0.068 H 
ENDROOT
BRANCH   1   4
ATOM      4  N2  D3X d   1       1.705  -4.975   3.732  0.00  0.00    -0.296 N 
BRANCH   4   5
ATOM      5  S1  D3X d   1       1.480  -5.975   4.886  0.00  0.00     0.261 S 
ATOM      6  O2  D3X d   1       0.228  -5.670   5.519  0.00  0.00    -0.200 OA
ATOM      7  O3  D3X d   1       1.435  -7.332   4.416  0.00  0.00    -0.200 OA
BRANCH   5   8
ATOM      8  C12 D3X d   1       2.622  -5.895   6.018  0.00  0.00     0.079 A 
ATOM      9  C13 D3X d   1       3.794  -6.682   5.953  0.00  0.00    -0.058 A 
ATOM     10  C15 D3X d   1       4.753  -6.610   6.977  0.00  0.00    -0.049 A 
ATOM     11  H21 D3X d   1       3.954  -7.344   5.109  0.00  0.00     0.086 H 
ATOM     12  C16 D3X d   1       4.532  -5.771   8.082  0.00  0.00     0.068 A 
ATOM     13  H23 D3X d   1       5.660  -7.200   6.915  0.00  0.00     0.087 H 
ATOM     14  C11 D3X d   1       3.364  -5.006   8.151  0.00  0.00    -0.049 A 
ATOM     15  C14 D3X d   1       2.419  -5.059   7.126  0.00  0.00    -0.058 A 
ATOM     16  H19 D3X d   1       3.191  -4.366   9.009  0.00  0.00     0.087 H 
ATOM     17  H22 D3X d   1       1.524  -4.451   7.186  0.00  0.00     0.086 H 
BRANCH  12  18
ATOM     18  O7  D3X d   1       5.419  -5.680   9.132  0.00  0.00    -0.356 OA
BRANCH  18  19
ATOM     19  C17 D3X d   1       6.451  -6.647   9.383  0.00  0.00     0.010 C 
ATOM     20  H24 D3X d   1       7.022  -6.350  10.275  0.00  0.00     0.066 H 
ATOM     21  H25 D3X d   1       7.125  -6.697   8.515  0.00  0.00     0.066 H 
ATOM     22  H26 D3X d   1       5.996  -7.634   9.551  0.00  0.00     0.066 H 
ENDBRANCH  18  19
ENDBRANCH  12  18
ENDBRANCH   5   8
ENDBRANCH   4   5
BRANCH   4  23
ATOM     23  C10 D3X d   1       1.068  -3.654   3.783  0.00  0.00     0.081 C 
ATOM     24  H17 D3X d   1       0.126  -3.709   4.348  0.00  0.00     0.080 H 
ATOM     25  H18 D3X d   1       0.864  -3.292   2.765  0.00  0.00     0.080 H 
BRANCH  23  26
ATOM     26  C3  D3X d   1       2.039  -2.732   4.479  0.00  0.00     0.259 C 
ATOM     27  N1  D3X d   1       1.568  -2.023   5.505  0.00  0.00    -0.236 N 
ATOM     28  H2  D3X d   1       0.605  -2.048   5.772  0.00  0.00     0.197 HD
ATOM     29  O1  D3X d   1       3.215  -2.663   4.117  0.00  0.00    -0.270 OA
BRANCH  27  30
ATOM     30  O11 D3X d   1       2.499  -1.250   6.177  0.00  0.00    -0.287 OA
ATOM     31  H20 D3X d   1       2.071  -0.785   6.886  0.00  0.00     0.244 HD
ENDBRANCH  27  30
ENDBRANCH  23  26
ENDBRANCH   4  23
ENDBRANCH   1   4
BRANCH   1  32
ATOM     32  C8  D3X d   1       2.135  -4.667   1.353  0.00  0.00     0.038 C 
ATOM     33  H12 D3X d   1       1.037  -4.688   1.286  0.00  0.00     0.077 H 
ATOM     34  H13 D3X d   1       2.566  -5.176   0.478  0.00  0.00     0.077 H 
BRANCH  32  35
ATOM     35  O10 D3X d   1       2.593  -3.319   1.406  0.00  0.00    -0.357 OA
BRANCH  35  36
ATOM     36  C1  D3X d   1       2.561  -2.624   0.161  0.00  0.00     0.158 C 
ATOM     37  C2  D3X d   1       2.125  -1.197   0.431  0.00  0.00     0.110 C 
ATOM     38  C7  D3X d   1       2.161  -0.353  -0.836  0.00  0.00     0.092 C 
ATOM     39  H3  D3X d   1       2.795  -0.743   1.175  0.00  0.00     0.094 H 
ATOM     40  C6  D3X d   1       3.515  -0.475  -1.556  0.00  0.00     0.090 C 
ATOM     41  H11 D3X d   1       1.383  -0.719  -1.522  0.00  0.00     0.091 H 
ATOM     42  C5  D3X d   1       3.962  -1.936  -1.663  0.00  0.00     0.089 C 
ATOM     43  H9  D3X d   1       4.270   0.106  -1.006  0.00  0.00     0.091 H 
ATOM     44  O8  D3X d   1       3.878  -2.607  -0.395  0.00  0.00    -0.348 OA
ATOM     45  H7  D3X d   1       3.273  -2.433  -2.361  0.00  0.00     0.090 H 
ATOM     46  H1  D3X d   1       1.862  -3.114  -0.533  0.00  0.00     0.133 H 
BRANCH  37  47
ATOM     47  O4  D3X d   1       0.808  -1.268   0.956  0.00  0.00    -0.388 OA
ATOM     48  H6  D3X d   1       0.815  -1.778   1.757  0.00  0.00     0.210 HD
ENDBRANCH  37  47
BRANCH  38  49
ATOM     49  O5  D3X d   1       1.852   1.002  -0.486  0.00  0.00    -0.390 OA
ATOM     50  H8  D3X d   1       0.987   1.038  -0.096  0.00  0.00     0.210 HD
ENDBRANCH  38  49
BRANCH  40  51
ATOM     51  O6  D3X d   1       3.397   0.010  -2.878  0.00  0.00    -0.390 OA
ATOM     52  H10 D3X d   1       3.120   0.918  -2.857  0.00  0.00     0.210 HD
ENDBRANCH  40  51
BRANCH  42  53
ATOM     53  C4  D3X d   1       5.384  -2.120  -2.203  0.00  0.00     0.043 C 
ATOM     54  H4  D3X d   1       5.398  -1.852  -3.270  0.00  0.00     0.078 H 
ATOM     55  H5  D3X d   1       5.677  -3.174  -2.085  0.00  0.00     0.078 H 
BRANCH  53  56
ATOM     56  O9  D3X d   1       6.325  -1.294  -1.503  0.00  0.00    -0.398 OA
ATOM     57  H16 D3X d   1       6.322  -1.523  -0.581  0.00  0.00     0.209 HD
ENDBRANCH  53  56
ENDBRANCH  42  53
ENDBRANCH  35  36
ENDBRANCH  32  35
ENDBRANCH   1  32
TORSDOF 16
