REMARK  9 active torsions:
REMARK  status: ('A' for Active; 'I' for Inactive)
REMARK    1  A    between atoms: C3_1  and  C4_2 
REMARK       I    between atoms: C3_1  and  N2_4 
REMARK    2  A    between atoms: C4_2  and  N6_7 
REMARK    3  A    between atoms: N6_7  and  C8_3 
REMARK    4  A    between atoms: C8_3  and  C9_9 
REMARK    5  A    between atoms: N2_4  and  O1_5 
REMARK    6  A    between atoms: N6_7  and  S7_8 
REMARK    7  A    between atoms: S7_8  and  C12_12 
REMARK    8  A    between atoms: C9_9  and  O10_10 
REMARK    9  A    between atoms: C16_16  and  C19_19 
ROOT
ATOM      1  C12 JT5 d   1       2.000  -5.315   5.224  0.00  0.00     0.079 A 
ATOM      2  C14 JT5 d   1       3.109  -6.071   4.839  0.00  0.00    -0.059 A 
ATOM      3  C15 JT5 d   1       4.195  -6.305   5.655  0.00  0.00    -0.071 A 
ATOM      4  C16 JT5 d   1       4.137  -5.788   6.972  0.00  0.00    -0.026 A 
ATOM      5  C17 JT5 d   1       3.054  -4.982   7.367  0.00  0.00    -0.071 A 
ATOM      6  C18 JT5 d   1       1.984  -4.729   6.503  0.00  0.00    -0.059 A 
ATOM      7  H10 JT5 d   1       3.116  -6.498   3.843  0.00  0.00     0.085 H 
ATOM      8  H11 JT5 d   1       5.057  -6.861   5.303  0.00  0.00     0.084 H 
ATOM      9  H12 JT5 d   1       3.049  -4.548   8.361  0.00  0.00     0.084 H 
ATOM     10  H13 JT5 d   1       1.160  -4.095   6.812  0.00  0.00     0.085 H 
ENDROOT
BRANCH   1  11
ATOM     11  S7  JT5 d   1       0.740  -5.124   4.205  0.00  0.00     0.261 S 
ATOM     12  O11 JT5 d   1       0.569  -6.393   3.461  0.00  0.00    -0.200 OA
ATOM     13  O13 JT5 d   1      -0.421  -4.926   5.077  0.00  0.00    -0.200 OA
BRANCH  11  14
ATOM     14  N6  JT5 d   1       1.020  -3.971   3.220  0.00  0.00    -0.296 N 
BRANCH  14  15
ATOM     15  C4  JT5 d   1       0.584  -2.610   3.357  0.00  0.00     0.081 C 
ATOM     16  H1  JT5 d   1       0.447  -2.134   2.375  0.00  0.00     0.080 H 
ATOM     17  H2  JT5 d   1      -0.354  -2.547   3.928  0.00  0.00     0.080 H 
BRANCH  15  18
ATOM     18  C3  JT5 d   1       1.748  -1.972   4.127  0.00  0.00     0.259 C 
ATOM     19  N2  JT5 d   1       1.356  -1.385   5.219  0.00  0.00    -0.236 N 
ATOM     20  H5  JT5 d   1       0.390  -1.348   5.475  0.00  0.00     0.197 HD
ATOM     21  O5  JT5 d   1       2.948  -1.990   3.844  0.00  0.00    -0.270 OA
BRANCH  19  22
ATOM     22  O1  JT5 d   1       2.308  -0.830   5.988  0.00  0.00    -0.287 OA
ATOM     23  H6  JT5 d   1       1.905  -0.434   6.752  0.00  0.00     0.244 HD
ENDBRANCH  19  22
ENDBRANCH  15  18
ENDBRANCH  14  15
BRANCH  14  24
ATOM     24  C8  JT5 d   1       2.091  -4.234   2.205  0.00  0.00     0.025 C 
ATOM     25  H3  JT5 d   1       2.566  -5.195   2.451  0.00  0.00     0.068 H 
ATOM     26  H4  JT5 d   1       2.836  -3.428   2.277  0.00  0.00     0.068 H 
BRANCH  24  27
ATOM     27  C9  JT5 d   1       1.609  -4.301   0.777  0.00  0.00     0.032 C 
ATOM     28  H7  JT5 d   1       0.951  -5.174   0.654  0.00  0.00     0.076 H 
ATOM     29  H8  JT5 d   1       2.474  -4.397   0.104  0.00  0.00     0.076 H 
BRANCH  27  30
ATOM     30  O10 JT5 d   1       0.881  -3.105   0.451  0.00  0.00    -0.399 OA
ATOM     31  H9  JT5 d   1       1.450  -2.351   0.556  0.00  0.00     0.209 HD
ENDBRANCH  27  30
ENDBRANCH  24  27
ENDBRANCH  14  24
ENDBRANCH  11  14
ENDBRANCH   1  11
BRANCH   4  32
ATOM     32  C19 JT5 d   1       5.269  -6.091   7.896  0.00  0.00    -0.026 A 
ATOM     33  C20 JT5 d   1       4.976  -6.403   9.264  0.00  0.00    -0.072 A 
ATOM     34  C21 JT5 d   1       6.022  -6.696  10.174  0.00  0.00    -0.082 A 
ATOM     35  H14 JT5 d   1       3.947  -6.415   9.605  0.00  0.00     0.084 H 
ATOM     36  C22 JT5 d   1       7.362  -6.773   9.721  0.00  0.00    -0.083 A 
ATOM     37  H15 JT5 d   1       5.796  -6.862  11.221  0.00  0.00     0.083 H 
ATOM     38  C23 JT5 d   1       7.626  -6.549   8.348  0.00  0.00    -0.082 A 
ATOM     39  H16 JT5 d   1       8.168  -6.998  10.410  0.00  0.00     0.083 H 
ATOM     40  C24 JT5 d   1       6.586  -6.227   7.453  0.00  0.00    -0.072 A 
ATOM     41  H17 JT5 d   1       8.643  -6.626   7.980  0.00  0.00     0.083 H 
ATOM     42  H18 JT5 d   1       6.812  -6.082   6.403  0.00  0.00     0.084 H 
ENDBRANCH   4  32
TORSDOF 9
