REMARK  7 active torsions:
REMARK  status: ('A' for Active; 'I' for Inactive)
REMARK    1  A    between atoms: C1_2  and  O1_3 
REMARK    2  A    between atoms: C2_4  and  N2_5 
REMARK       I    between atoms: N2_5  and  C7_13 
REMARK    3  A    between atoms: C3_6  and  O3_7 
REMARK    4  A    between atoms: C4_8  and  O4_9 
REMARK    5  A    between atoms: C5_10  and  C6_11 
REMARK    6  A    between atoms: C6_11  and  O6_12 
REMARK    7  A    between atoms: C7_13  and  C8_15 
ROOT
ATOM      1  O   A2G d   1     -38.142 -30.968  -4.499  0.00  0.00    -0.349 OA
ATOM      2  C1  A2G d   1     -39.571 -31.037  -4.482  0.00  0.00     0.151 C 
ATOM      3  C2  A2G d   1     -40.101 -29.657  -4.058  0.00  0.00     0.086 C 
ATOM      4  C3  A2G d   1     -39.582 -28.581  -5.016  0.00  0.00     0.086 C 
ATOM      5  C4  A2G d   1     -38.060 -28.661  -5.153  0.00  0.00     0.089 C 
ATOM      6  C5  A2G d   1     -37.637 -30.081  -5.503  0.00  0.00     0.089 C 
ATOM      7  H1  A2G d   1     -39.909 -31.802  -3.767  0.00  0.00     0.132 H 
ATOM      8  H3  A2G d   1     -39.813 -29.431  -3.021  0.00  0.00     0.084 H 
ATOM      9  H5  A2G d   1     -40.038 -28.737  -6.005  0.00  0.00     0.090 H 
ATOM     10  H7  A2G d   1     -37.717 -27.966  -5.933  0.00  0.00     0.091 H 
ATOM     11  H9  A2G d   1     -38.059 -30.351  -6.482  0.00  0.00     0.090 H 
ENDROOT
BRANCH   3  12
ATOM     12  N2  A2G d   1     -41.546 -29.686  -4.215  0.00  0.00    -0.349 N 
ATOM     13  C7  A2G d   1     -42.366 -29.198  -3.266  0.00  0.00     0.214 C 
ATOM     14  O7  A2G d   1     -41.958 -28.705  -2.226  0.00  0.00    -0.274 OA
ATOM     15  H4  A2G d   1     -41.940 -30.077  -5.047  0.00  0.00     0.163 HD
BRANCH  13  16
ATOM     16  C8  A2G d   1     -43.837 -29.293  -3.550  0.00  0.00    -0.003 C 
ATOM     17  H13 A2G d   1     -44.401 -28.865  -2.708  0.00  0.00     0.040 H 
ATOM     18  H14 A2G d   1     -44.118 -30.349  -3.681  0.00  0.00     0.040 H 
ATOM     19  H15 A2G d   1     -44.070 -28.735  -4.469  0.00  0.00     0.040 H 
ENDBRANCH  13  16
ENDBRANCH   3  12
BRANCH   2  20
ATOM     20  O1  A2G d   1     -40.024 -31.378  -5.810  0.00  0.00    -0.369 OA
ATOM     21  H2  A2G d   1     -39.660 -32.218  -6.062  0.00  0.00     0.212 HD
ENDBRANCH   2  20
BRANCH   4  22
ATOM     22  O3  A2G d   1     -39.942 -27.292  -4.534  0.00  0.00    -0.391 OA
ATOM     23  H6  A2G d   1     -39.617 -26.629  -5.132  0.00  0.00     0.210 HD
ENDBRANCH   4  22
BRANCH   5  24
ATOM     24  O4  A2G d   1     -37.480 -28.316  -3.890  0.00  0.00    -0.390 OA
ATOM     25  H8  A2G d   1     -37.742 -27.434  -3.653  0.00  0.00     0.210 HD
ENDBRANCH   5  24
BRANCH   6  26
ATOM     26  C6  A2G d   1     -36.123 -30.221  -5.558  0.00  0.00     0.043 C 
ATOM     27  H10 A2G d   1     -35.751 -30.704  -4.643  0.00  0.00     0.078 H 
ATOM     28  H11 A2G d   1     -35.652 -29.233  -5.668  0.00  0.00     0.078 H 
BRANCH  26  29
ATOM     29  O6  A2G d   1     -35.842 -31.031  -6.693  0.00  0.00    -0.398 OA
ATOM     30  H12 A2G d   1     -34.903 -31.149  -6.772  0.00  0.00     0.209 HD
ENDBRANCH  26  29
ENDBRANCH   6  26
TORSDOF 7
