REMARK  8 active torsions:
REMARK  status: ('A' for Active; 'I' for Inactive)
REMARK    1  A    between atoms: C7_7  and  C2_2 
REMARK    2  A    between atoms: C9_9  and  C20_20 
REMARK    3  A    between atoms: O13_13  and  C10_10 
REMARK    4  A    between atoms: C14_14  and  O13_13 
REMARK    5  A    between atoms: C15_15  and  C14_14 
REMARK    6  A    between atoms: C16_16  and  C15_15 
REMARK    7  A    between atoms: N17_17  and  C16_16 
REMARK    8  A    between atoms: N25_25  and  C29_29 
ROOT
ATOM      1  N1  93N d   1      13.864  -7.199  19.240  0.00  0.00    -0.237 NA
ATOM      2  C2  93N d   1      12.593  -7.264  18.755  0.00  0.00     0.068 A 
ATOM      3  C3  93N d   1      11.609  -6.390  19.219  0.00  0.00    -0.054 A 
ATOM      4  C4  93N d   1      11.943  -5.427  20.168  0.00  0.00    -0.078 A 
ATOM      5  C5  93N d   1      13.245  -5.348  20.653  0.00  0.00    -0.045 A 
ATOM      6  C6  93N d   1      14.171  -6.253  20.162  0.00  0.00     0.137 A 
ATOM      7  C18 93N d   1      15.539  -6.253  20.572  0.00  0.00     0.119 C 
ATOM      8  N19 93N d   1      16.671  -6.308  20.805  0.00  0.00    -0.190 NA
ATOM      9  H1  93N d   1      10.594  -6.460  18.844  0.00  0.00     0.087 H 
ATOM     10  H2  93N d   1      11.188  -4.738  20.529  0.00  0.00     0.083 H 
ATOM     11  H3  93N d   1      13.525  -4.604  21.390  0.00  0.00     0.088 H 
ENDROOT
BRANCH   2  12
ATOM     12  C7  93N d   1      12.370  -8.343  17.769  0.00  0.00    -0.006 A 
ATOM     13  C8  93N d   1      11.094  -8.874  17.504  0.00  0.00    -0.053 A 
ATOM     14  C9  93N d   1      10.897  -9.927  16.568  0.00  0.00     0.082 A 
ATOM     15  H4  93N d   1      10.236  -8.469  18.028  0.00  0.00     0.086 H 
ATOM     16  C10 93N d   1      12.020 -10.476  15.901  0.00  0.00     0.083 A 
ATOM     17  C11 93N d   1      13.286  -9.952  16.163  0.00  0.00    -0.049 A 
ATOM     18  C12 93N d   1      13.455  -8.917  17.083  0.00  0.00    -0.068 A 
ATOM     19  H5  93N d   1      14.149 -10.354  15.645  0.00  0.00     0.087 H 
ATOM     20  H6  93N d   1      14.454  -8.543  17.275  0.00  0.00     0.085 H 
BRANCH  14  21
ATOM     21  C20 93N d   1       9.486 -10.441  16.346  0.00  0.00     0.420 C 
ATOM     22  F21 93N d   1       9.057 -10.511  15.061  0.00  0.00    -0.166 F 
ATOM     23  F22 93N d   1       8.527  -9.705  16.954  0.00  0.00    -0.166 F 
ATOM     24  F23 93N d   1       9.297 -11.684  16.835  0.00  0.00    -0.166 F 
ENDBRANCH  14  21
BRANCH  16  25
ATOM     25  O13 93N d   1      11.814 -11.492  14.999  0.00  0.00    -0.350 OA
BRANCH  25  26
ATOM     26  C14 93N d   1      12.547 -12.707  15.163  0.00  0.00     0.028 C 
ATOM     27  H7  93N d   1      12.049 -13.323  15.926  0.00  0.00     0.075 H 
ATOM     28  H8  93N d   1      13.567 -12.465  15.496  0.00  0.00     0.075 H 
BRANCH  26  29
ATOM     29  C15 93N d   1      12.628 -13.505  13.857  0.00  0.00    -0.022 C 
ATOM     30  H9  93N d   1      13.509 -14.163  13.896  0.00  0.00     0.038 H 
ATOM     31  H10 93N d   1      12.731 -12.803  13.016  0.00  0.00     0.038 H 
BRANCH  29  32
ATOM     32  C16 93N d   1      11.388 -14.355  13.639  0.00  0.00     0.086 C 
ATOM     33  H11 93N d   1      11.285 -15.043  14.491  0.00  0.00     0.076 H 
ATOM     34  H12 93N d   1      11.523 -14.934  12.714  0.00  0.00     0.076 H 
BRANCH  32  35
ATOM     35  N17 93N d   1      10.115 -13.553  13.518  0.00  0.00    -0.068 N 
ATOM     36  C27 93N d   1      10.176 -12.541  12.389  0.00  0.00     0.106 C 
ATOM     37  C26 93N d   1       8.879 -11.725  12.351  0.00  0.00     0.105 C 
ATOM     38  H19 93N d   1      10.303 -13.069  11.432  0.00  0.00     0.078 H 
ATOM     39  H20 93N d   1      11.028 -11.864  12.551  0.00  0.00     0.078 H 
ATOM     40  N25 93N d   1       7.721 -12.677  12.136  0.00  0.00    -0.072 N 
ATOM     41  H17 93N d   1       8.748 -11.191  13.303  0.00  0.00     0.078 H 
ATOM     42  H18 93N d   1       8.921 -10.999  11.526  0.00  0.00     0.078 H 
ATOM     43  C24 93N d   1       7.624 -13.526  13.398  0.00  0.00     0.105 C 
ATOM     44  H16 93N d   1       7.950 -13.284  11.365  0.00  0.00     0.279 HD
ATOM     45  C28 93N d   1       8.873 -14.416  13.487  0.00  0.00     0.106 C 
ATOM     46  H14 93N d   1       6.723 -14.155  13.353  0.00  0.00     0.078 H 
ATOM     47  H15 93N d   1       7.571 -12.872  14.281  0.00  0.00     0.078 H 
ATOM     48  H21 93N d   1       8.826 -15.021  14.404  0.00  0.00     0.078 H 
ATOM     49  H22 93N d   1       8.911 -15.080  12.611  0.00  0.00     0.078 H 
ATOM     50  H13 93N d   1      10.049 -13.013  14.366  0.00  0.00     0.280 HD
BRANCH  40  51
ATOM     51  C29 93N d   1       6.426 -11.973  11.773  0.00  0.00     0.066 C 
ATOM     52  H23 93N d   1       5.630 -12.719  11.632  0.00  0.00     0.068 H 
ATOM     53  H24 93N d   1       6.566 -11.405  10.841  0.00  0.00     0.068 H 
ATOM     54  H25 93N d   1       6.143 -11.285  12.583  0.00  0.00     0.068 H 
ENDBRANCH  40  51
ENDBRANCH  32  35
ENDBRANCH  29  32
ENDBRANCH  26  29
ENDBRANCH  25  26
ENDBRANCH  16  25
ENDBRANCH   2  12
TORSDOF 8
