REMARK  7 active torsions:
REMARK  status: ('A' for Active; 'I' for Inactive)
REMARK    1  A    between atoms: C1_1  and  S1_4 
REMARK    2  A    between atoms: S1_4  and  N1_2 
REMARK    3  A    between atoms: C4_8  and  N7_11 
REMARK       I    between atoms: N7_11  and  C8_12 
REMARK       I    between atoms: C8_12  and  N9_14 
REMARK    4  A    between atoms: N9_14  and  C10_15 
REMARK    5  A    between atoms: C11_16  and  C16_21 
REMARK    6  A    between atoms: C16_21  and  C17_22 
REMARK    7  A    between atoms: C16_21  and  C18_23 
ROOT
ATOM      1  N7  WWV d   1      -2.917   5.045  13.494  0.00  0.00    -0.309 N 
ATOM      2  C8  WWV d   1      -3.277   6.213  12.980  0.00  0.00     0.325 C 
ATOM      3  O8  WWV d   1      -4.453   6.573  12.933  0.00  0.00    -0.247 OA
ATOM      4  N9  WWV d   1      -2.252   6.924  12.467  0.00  0.00    -0.308 N 
ATOM      5  H7  WWV d   1      -1.961   4.779  13.372  0.00  0.00     0.170 HD
ATOM      6  H8  WWV d   1      -1.341   6.512  12.443  0.00  0.00     0.170 HD
ENDROOT
BRANCH   4   7
ATOM      7  C10 WWV d   1      -2.422   8.209  11.972  0.00  0.00     0.043 A 
ATOM      8  C11 WWV d   1      -1.808   9.271  12.648  0.00  0.00    -0.028 A 
ATOM      9  C12 WWV d   1      -1.976  10.572  12.172  0.00  0.00    -0.074 A 
ATOM     10  C13 WWV d   1      -2.737  10.796  11.015  0.00  0.00    -0.082 A 
ATOM     11  H9  WWV d   1      -1.520  11.406  12.694  0.00  0.00     0.084 H 
ATOM     12  C14 WWV d   1      -3.353   9.729  10.350  0.00  0.00    -0.081 A 
ATOM     13  H10 WWV d   1      -2.849  11.804  10.633  0.00  0.00     0.083 H 
ATOM     14  C15 WWV d   1      -3.200   8.425  10.828  0.00  0.00    -0.057 A 
ATOM     15  H11 WWV d   1      -3.949   9.915   9.464  0.00  0.00     0.083 H 
ATOM     16  H12 WWV d   1      -3.676   7.593  10.321  0.00  0.00     0.086 H 
BRANCH   8  17
ATOM     17  C16 WWV d   1      -0.967   9.006  13.932  0.00  0.00    -0.033 C 
ATOM     18  H13 WWV d   1      -0.391   8.088  13.743  0.00  0.00     0.046 H 
BRANCH  17  19
ATOM     19  C17 WWV d   1       0.048  10.128  14.209  0.00  0.00    -0.069 C 
ATOM     20  H14 WWV d   1       0.614   9.893  15.123  0.00  0.00     0.028 H 
ATOM     21  H15 WWV d   1      -0.486  11.081  14.343  0.00  0.00     0.028 H 
ATOM     22  H16 WWV d   1       0.742  10.213  13.360  0.00  0.00     0.028 H 
ENDBRANCH  17  19
BRANCH  17  23
ATOM     23  C18 WWV d   1      -1.822   8.747  15.188  0.00  0.00    -0.069 C 
ATOM     24  H17 WWV d   1      -2.544   7.944  14.981  0.00  0.00     0.028 H 
ATOM     25  H18 WWV d   1      -2.363   9.666  15.459  0.00  0.00     0.028 H 
ATOM     26  H19 WWV d   1      -1.169   8.447  16.021  0.00  0.00     0.028 H 
ENDBRANCH  17  23
ENDBRANCH   8  17
ENDBRANCH   4   7
BRANCH   1  27
ATOM     27  C4  WWV d   1      -3.749   4.126  14.203  0.00  0.00     0.036 A 
ATOM     28  C3  WWV d   1      -5.136   4.252  14.389  0.00  0.00    -0.056 A 
ATOM     29  C2  WWV d   1      -5.799   3.267  15.141  0.00  0.00    -0.058 A 
ATOM     30  H4  WWV d   1      -5.681   5.087  13.964  0.00  0.00     0.087 H 
ATOM     31  C1  WWV d   1      -5.088   2.169  15.670  0.00  0.00     0.079 A 
ATOM     32  H3  WWV d   1      -6.865   3.352  15.316  0.00  0.00     0.086 H 
ATOM     33  C6  WWV d   1      -3.705   2.060  15.476  0.00  0.00    -0.058 A 
ATOM     34  C5  WWV d   1      -3.054   3.038  14.723  0.00  0.00    -0.056 A 
ATOM     35  H6  WWV d   1      -3.151   1.232  15.903  0.00  0.00     0.086 H 
ATOM     36  H5  WWV d   1      -1.989   2.949  14.540  0.00  0.00     0.087 H 
BRANCH  31  37
ATOM     37  S1  WWV d   1      -5.896   0.965  16.641  0.00  0.00     0.256 S 
ATOM     38  O1  WWV d   1      -7.366   1.215  16.518  0.00  0.00    -0.201 OA
ATOM     39  O2  WWV d   1      -5.403   1.089  18.071  0.00  0.00    -0.201 OA
BRANCH  37  40
ATOM     40  N1  WWV d   1      -5.498  -0.446  16.027  0.00  0.00    -0.324 N 
ATOM     41  H1  WWV d   1      -5.854  -1.287  16.434  0.00  0.00     0.169 HD
ATOM     42  H2  WWV d   1      -4.891  -0.493  15.233  0.00  0.00     0.169 HD
ENDBRANCH  37  40
ENDBRANCH  31  37
ENDBRANCH   1  27
TORSDOF 7
