REMARK  4 active torsions:
REMARK  status: ('A' for Active; 'I' for Inactive)
REMARK    1  A    between atoms: C1_1  and  S1_4 
REMARK    2  A    between atoms: S1_4  and  N1_2 
REMARK    3  A    between atoms: C4_8  and  N7_11 
REMARK       I    between atoms: N7_11  and  C8_12 
REMARK       I    between atoms: C8_12  and  N9_14 
REMARK    4  A    between atoms: N9_14  and  C10_15 
ROOT
ATOM      1  N7  WWZ d   1      -3.211   5.294  13.750  0.00  0.00    -0.309 N 
ATOM      2  C8  WWZ d   1      -3.831   6.117  12.771  0.00  0.00     0.325 C 
ATOM      3  O8  WWZ d   1      -4.911   5.845  12.272  0.00  0.00    -0.247 OA
ATOM      4  N9  WWZ d   1      -3.143   7.274  12.347  0.00  0.00    -0.309 N 
ATOM      5  H7  WWZ d   1      -2.245   5.437  13.967  0.00  0.00     0.170 HD
ATOM      6  H8  WWZ d   1      -3.391   7.695  11.475  0.00  0.00     0.170 HD
ENDROOT
BRANCH   1   7
ATOM      7  C4  WWZ d   1      -3.928   4.277  14.425  0.00  0.00     0.036 A 
ATOM      8  C3  WWZ d   1      -3.187   3.203  14.881  0.00  0.00    -0.056 A 
ATOM      9  C2  WWZ d   1      -3.792   2.188  15.579  0.00  0.00    -0.058 A 
ATOM     10  H4  WWZ d   1      -2.121   3.162  14.686  0.00  0.00     0.087 H 
ATOM     11  C1  WWZ d   1      -5.151   2.250  15.827  0.00  0.00     0.079 A 
ATOM     12  H3  WWZ d   1      -3.210   1.345  15.933  0.00  0.00     0.086 H 
ATOM     13  C6  WWZ d   1      -5.911   3.326  15.399  0.00  0.00    -0.058 A 
ATOM     14  C5  WWZ d   1      -5.300   4.341  14.682  0.00  0.00    -0.056 A 
ATOM     15  H6  WWZ d   1      -6.971   3.373  15.623  0.00  0.00     0.086 H 
ATOM     16  H5  WWZ d   1      -5.883   5.181  14.322  0.00  0.00     0.087 H 
BRANCH  11  17
ATOM     17  S1  WWZ d   1      -5.818   0.935  16.796  0.00  0.00     0.256 S 
ATOM     18  O1  WWZ d   1      -7.261   1.078  16.684  0.00  0.00    -0.201 OA
ATOM     19  O2  WWZ d   1      -5.391   1.036  18.180  0.00  0.00    -0.201 OA
BRANCH  17  20
ATOM     20  N1  WWZ d   1      -5.360  -0.423  16.192  0.00  0.00    -0.324 N 
ATOM     21  H1  WWZ d   1      -5.647  -1.282  16.617  0.00  0.00     0.169 HD
ATOM     22  H2  WWZ d   1      -4.778  -0.438  15.379  0.00  0.00     0.169 HD
ENDBRANCH  17  20
ENDBRANCH  11  17
ENDBRANCH   1   7
BRANCH   4  23
ATOM     23  C10 WWZ d   1      -2.108   7.856  13.125  0.00  0.00     0.036 A 
ATOM     24  C11 WWZ d   1      -1.016   8.513  12.377  0.00  0.00    -0.054 A 
ATOM     25  C12 WWZ d   1      -0.041   9.171  13.061  0.00  0.00    -0.044 A 
ATOM     26  H9  WWZ d   1      -0.992   8.471  11.294  0.00  0.00     0.087 H 
ATOM     27  C13 WWZ d   1      -0.094   9.233  14.547  0.00  0.00     0.116 A 
ATOM     28  H10 WWZ d   1       0.772   9.648  12.525  0.00  0.00     0.088 H 
ATOM     29  F13 WWZ d   1       0.840   9.912  15.203  0.00  0.00    -0.206 F 
ATOM     30  C14 WWZ d   1      -1.108   8.638  15.234  0.00  0.00    -0.044 A 
ATOM     31  C15 WWZ d   1      -2.176   7.914  14.487  0.00  0.00    -0.054 A 
ATOM     32  H11 WWZ d   1      -1.139   8.690  16.316  0.00  0.00     0.088 H 
ATOM     33  H12 WWZ d   1      -2.994   7.441  15.018  0.00  0.00     0.087 H 
ENDBRANCH   4  23
TORSDOF 4
