REMARK  8 active torsions:
REMARK  status: ('A' for Active; 'I' for Inactive)
REMARK    1  A    between atoms: C7_2  and  C1_4 
REMARK    2  A    between atoms: C1_4  and  O3_5 
REMARK    3  A    between atoms: C3_7  and  C8_13 
REMARK    4  A    between atoms: C4_8  and  O4_9 
REMARK    5  A    between atoms: C5_10  and  O5_11 
REMARK    6  A    between atoms: C9_14  and  C10_15 
REMARK    7  A    between atoms: C10_15  and  O11_16 
REMARK    8  A    between atoms: O11_16  and  C12_17 
ROOT
ATOM      1  C1  CA2 d   1     -38.952 -60.816 -51.635  0.00  0.00     0.166 C 
ATOM      2  C2  CA2 d   1     -38.756 -60.522 -50.268  0.00  0.00    -0.051 C 
ATOM      3  C3  CA2 d   1     -39.833 -60.274 -49.393  0.00  0.00    -0.028 C 
ATOM      4  C4  CA2 d   1     -41.331 -60.496 -49.765  0.00  0.00     0.085 C 
ATOM      5  C5  CA2 d   1     -41.461 -60.647 -51.294  0.00  0.00     0.068 C 
ATOM      6  C6  CA2 d   1     -40.304 -61.527 -51.791  0.00  0.00     0.003 C 
ATOM      7  H2  CA2 d   1     -37.740 -60.486 -49.877  0.00  0.00     0.083 H 
ATOM      8  H3  CA2 d   1     -41.623 -61.458 -49.319  0.00  0.00     0.094 H 
ATOM      9  H5  CA2 d   1     -41.416 -59.656 -51.769  0.00  0.00     0.087 H 
ATOM     10  H7  CA2 d   1     -40.287 -62.459 -51.208  0.00  0.00     0.042 H 
ATOM     11  H8  CA2 d   1     -40.464 -61.762 -52.854  0.00  0.00     0.042 H 
ENDROOT
BRANCH   3  12
ATOM     12  C8  CA2 d   1     -39.361 -60.137 -48.101  0.00  0.00    -0.076 C 
ATOM     13  C9  CA2 d   1     -40.046 -59.934 -46.929  0.00  0.00    -0.080 C 
ATOM     14  H10 CA2 d   1     -41.128 -59.933 -46.806  0.00  0.00     0.080 H 
ATOM     15  H9  CA2 d   1     -38.279 -60.200 -47.997  0.00  0.00     0.084 H 
BRANCH  13  16
ATOM     16  C10 CA2 d   1     -39.105 -59.731 -45.932  0.00  0.00     0.041 C 
ATOM     17  H11 CA2 d   1     -39.230 -58.705 -45.556  0.00  0.00     0.081 H 
ATOM     18  H12 CA2 d   1     -38.108 -59.837 -46.384  0.00  0.00     0.081 H 
BRANCH  16  19
ATOM     19  O11 CA2 d   1     -39.171 -60.577 -44.865  0.00  0.00    -0.347 OA
BRANCH  19  20
ATOM     20  C12 CA2 d   1     -38.043 -61.009 -44.249  0.00  0.00     0.069 A 
ATOM     21  C17 CA2 d   1     -36.825 -61.131 -44.898  0.00  0.00    -0.051 A 
ATOM     22  C16 CA2 d   1     -35.689 -61.626 -44.226  0.00  0.00    -0.080 A 
ATOM     23  H13 CA2 d   1     -36.744 -60.841 -45.939  0.00  0.00     0.087 H 
ATOM     24  C15 CA2 d   1     -35.821 -62.026 -42.901  0.00  0.00    -0.083 A 
ATOM     25  H14 CA2 d   1     -34.733 -61.693 -44.732  0.00  0.00     0.083 H 
ATOM     26  C14 CA2 d   1     -37.069 -61.910 -42.242  0.00  0.00    -0.080 A 
ATOM     27  H15 CA2 d   1     -34.965 -62.428 -42.370  0.00  0.00     0.083 H 
ATOM     28  C13 CA2 d   1     -38.180 -61.406 -42.915  0.00  0.00    -0.051 A 
ATOM     29  H16 CA2 d   1     -37.161 -62.216 -41.206  0.00  0.00     0.083 H 
ATOM     30  H17 CA2 d   1     -39.137 -61.323 -42.412  0.00  0.00     0.087 H 
ENDBRANCH  19  20
ENDBRANCH  16  19
ENDBRANCH  13  16
ENDBRANCH   3  12
BRANCH   4  31
ATOM     31  O4  CA2 d   1     -42.278 -59.493 -49.222  0.00  0.00    -0.388 OA
ATOM     32  H4  CA2 d   1     -42.233 -59.498 -48.273  0.00  0.00     0.210 HD
ENDBRANCH   4  31
BRANCH   1  33
ATOM     33  C7  CA2 d   1     -37.728 -61.687 -52.001  0.00  0.00     0.213 C 
ATOM     34  O2  CA2 d   1     -37.919 -62.907 -52.359  0.00  0.00    -0.645 OA
ATOM     35  O1  CA2 d   1     -36.597 -61.107 -51.923  0.00  0.00    -0.645 OA
ENDBRANCH   1  33
BRANCH   1  36
ATOM     36  O3  CA2 d   1     -39.028 -59.636 -52.502  0.00  0.00    -0.375 OA
ATOM     37  H1  CA2 d   1     -39.108 -59.914 -53.407  0.00  0.00     0.211 HD
ENDBRANCH   1  36
BRANCH   5  38
ATOM     38  O5  CA2 d   1     -42.686 -61.292 -51.642  0.00  0.00    -0.393 OA
ATOM     39  H6  CA2 d   1     -42.743 -61.373 -52.587  0.00  0.00     0.210 HD
ENDBRANCH   5  38
TORSDOF 8
