REMARK  6 active torsions:
REMARK  status: ('A' for Active; 'I' for Inactive)
REMARK    1  A    between atoms: C11_16  and  C10_1 
REMARK    2  A    between atoms: P02_8  and  C01_7 
REMARK    3  A    between atoms: C05_11  and  P02_8 
REMARK    4  A    between atoms: C06_12  and  C05_11 
REMARK    5  A    between atoms: C05_11  and  C19_23 
REMARK       I    between atoms: N08_14  and  C06_12 
REMARK    6  A    between atoms: C09_15  and  N08_14 
ROOT
ATOM      1  C05 N7O d   1     -13.902 -44.768 -56.307  0.00  0.00     0.125 C 
ATOM      2  H8  N7O d   1     -13.711 -44.606 -55.236  0.00  0.00     0.078 H 
ENDROOT
BRANCH   1   3
ATOM      3  P02 N7O d   1     -14.663 -43.209 -56.906  0.00  0.00     0.120 P 
ATOM      4  O03 N7O d   1     -15.690 -42.746 -55.934  0.00  0.00    -0.667 OA
ATOM      5  O04 N7O d   1     -13.554 -42.114 -57.118  0.00  0.00    -0.667 OA
BRANCH   3   6
ATOM      6  C01 N7O d   1     -15.366 -43.443 -58.524  0.00  0.00    -0.004 C 
ATOM      7  H5  N7O d   1     -16.161 -44.202 -58.472  0.00  0.00     0.041 H 
ATOM      8  H6  N7O d   1     -14.583 -43.780 -59.219  0.00  0.00     0.041 H 
ATOM      9  H7  N7O d   1     -15.789 -42.492 -58.881  0.00  0.00     0.041 H 
ENDBRANCH   3   6
ENDBRANCH   1   3
BRANCH   1  10
ATOM     10  C06 N7O d   1     -12.485 -44.943 -56.967  0.00  0.00     0.240 C 
ATOM     11  O07 N7O d   1     -12.319 -45.264 -58.118  0.00  0.00    -0.272 OA
ATOM     12  N08 N7O d   1     -11.455 -45.092 -55.993  0.00  0.00    -0.336 N 
ATOM     13  H9  N7O d   1     -11.713 -45.053 -55.028  0.00  0.00     0.168 HD
BRANCH  12  14
ATOM     14  C09 N7O d   1     -10.079 -45.293 -56.311  0.00  0.00    -0.019 C 
ATOM     15  C10 N7O d   1      -9.171 -45.255 -55.324  0.00  0.00    -0.058 C 
ATOM     16  H1  N7O d   1      -9.534 -45.264 -54.297  0.00  0.00     0.086 H 
ATOM     17  H10 N7O d   1      -9.770 -45.475 -57.339  0.00  0.00     0.111 H 
BRANCH  15  18
ATOM     18  C11 N7O d   1      -7.709 -45.202 -55.541  0.00  0.00    -0.032 A 
ATOM     19  C12 N7O d   1      -6.784 -45.215 -54.484  0.00  0.00    -0.070 A 
ATOM     20  C13 N7O d   1      -5.416 -45.175 -54.711  0.00  0.00    -0.042 A 
ATOM     21  H11 N7O d   1      -7.149 -45.257 -53.464  0.00  0.00     0.084 H 
ATOM     22  C14 N7O d   1      -4.969 -45.147 -56.028  0.00  0.00     0.154 A 
ATOM     23  H2  N7O d   1      -4.715 -45.166 -53.885  0.00  0.00     0.088 H 
ATOM     24  F15 N7O d   1      -3.666 -45.112 -56.279  0.00  0.00    -0.203 F 
ATOM     25  C16 N7O d   1      -5.867 -45.129 -57.091  0.00  0.00     0.155 A 
ATOM     26  F17 N7O d   1      -5.387 -45.084 -58.343  0.00  0.00    -0.203 F 
ATOM     27  C18 N7O d   1      -7.237 -45.166 -56.860  0.00  0.00    -0.033 A 
ATOM     28  H12 N7O d   1      -7.933 -45.167 -57.691  0.00  0.00     0.089 H 
ENDBRANCH  15  18
ENDBRANCH  12  14
ENDBRANCH   1  10
BRANCH   1  29
ATOM     29  C19 N7O d   1     -14.791 -46.004 -56.347  0.00  0.00    -0.017 A 
ATOM     30  C20 N7O d   1     -14.929 -46.892 -57.361  0.00  0.00    -0.036 A 
ATOM     31  S21 N7O d   1     -15.977 -48.205 -57.010  0.00  0.00    -0.101 SA
ATOM     32  H3  N7O d   1     -14.419 -46.782 -58.317  0.00  0.00     0.095 H 
ATOM     33  C22 N7O d   1     -16.317 -47.628 -55.424  0.00  0.00     0.015 A 
ATOM     34  C28 N7O d   1     -15.611 -46.431 -55.179  0.00  0.00    -0.009 A 
ATOM     35  C23 N7O d   1     -17.150 -48.237 -54.480  0.00  0.00    -0.064 A 
ATOM     36  C27 N7O d   1     -15.798 -45.852 -53.926  0.00  0.00    -0.050 A 
ATOM     37  C25 N7O d   1     -16.618 -46.462 -53.008  0.00  0.00     0.035 A 
ATOM     38  H14 N7O d   1     -15.298 -44.923 -53.676  0.00  0.00     0.087 H 
ATOM     39  C24 N7O d   1     -17.322 -47.649 -53.236  0.00  0.00    -0.061 A 
ATOM     40 CL26 N7O d   1     -16.766 -45.741 -51.442  0.00  0.00    -0.084 Cl
ATOM     41  H4  N7O d   1     -17.967 -48.085 -52.482  0.00  0.00     0.086 H 
ATOM     42  H13 N7O d   1     -17.659 -49.164 -54.719  0.00  0.00     0.085 H 
ENDBRANCH   1  29
TORSDOF 6
