REMARK  2 active torsions:
REMARK  status: ('A' for Active; 'I' for Inactive)
REMARK    1  A    between atoms: CAI_9  and  OAD_4 
REMARK    2  A    between atoms: CAH_8  and  CAJ_10 
ROOT
ATOM      1  OAB D1X d   1     -37.297   9.308  -7.312  0.00  0.00    -0.268 OA
ATOM      2  CAE D1X d   1     -39.073  11.006 -10.505  0.00  0.00    -0.017 A 
ATOM      3  CAF D1X d   1     -38.753   9.097  -9.050  0.00  0.00    -0.001 A 
ATOM      4  NAG D1X d   1     -37.539  11.152  -8.634  0.00  0.00    -0.304 N 
ATOM      5  CAI D1X d   1     -38.160  11.740  -9.749  0.00  0.00     0.143 A 
ATOM      6  CAJ D1X d   1     -39.370   9.685 -10.158  0.00  0.00     0.050 A 
ATOM      7  CAK D1X d   1     -37.841   9.826  -8.286  0.00  0.00     0.248 A 
ATOM      8  H2  D1X d   1     -39.556  11.463 -11.368  0.00  0.00     0.091 H 
ATOM      9  H3  D1X d   1     -38.985   8.067  -8.782  0.00  0.00     0.093 H 
ATOM     10  H4  D1X d   1     -36.884  11.677  -8.090  0.00  0.00     0.171 HD
ENDROOT
BRANCH   6  11
ATOM     11  CAH D1X d   1     -40.381   8.883 -10.993  0.00  0.00     0.209 C 
ATOM     12  OAA D1X d   1     -41.389   9.486 -11.425  0.00  0.00    -0.644 OA
ATOM     13  OAC D1X d   1     -40.154   7.670 -11.194  0.00  0.00    -0.644 OA
ENDBRANCH   6  11
BRANCH   5  14
ATOM     14  OAD D1X d   1     -37.871  13.024 -10.086  0.00  0.00    -0.346 OA
ATOM     15  H1  D1X d   1     -36.942  13.100 -10.272  0.00  0.00     0.219 HD
ENDBRANCH   5  14
TORSDOF 2
