REMARK  9 active torsions:
REMARK  status: ('A' for Active; 'I' for Inactive)
REMARK    1  A    between atoms: O01_1  and  N02_2 
REMARK    2  A    between atoms: N02_2  and  C03_3 
REMARK       I    between atoms: N02_2  and  C12_8 
REMARK    3  A    between atoms: C03_3  and  C04_4 
REMARK    4  A    between atoms: C04_4  and  C05_5 
REMARK    5  A    between atoms: C05_5  and  C06_6 
REMARK    6  A    between atoms: C06_6  and  O07_7 
REMARK    7  A    between atoms: C12_8  and  C14_10 
REMARK    8  A    between atoms: C14_10  and  O15_11 
REMARK    9  A    between atoms: O15_11  and  P16_12 
ROOT
ATOM      1  C03 TD3 d   1      -9.445  -6.637 -42.284  0.00  0.00     0.024 C 
ATOM      2  H2  TD3 d   1      -8.867  -6.611 -41.349  0.00  0.00     0.068 H 
ATOM      3  H3  TD3 d   1     -10.154  -5.796 -42.300  0.00  0.00     0.068 H 
ENDROOT
BRANCH   1   4
ATOM      4  N02 TD3 d   1     -10.221  -7.869 -42.290  0.00  0.00    -0.227 N 
ATOM      5  C12 TD3 d   1     -11.661  -7.841 -42.515  0.00  0.00     0.267 C 
ATOM      6  O13 TD3 d   1     -12.224  -8.859 -42.804  0.00  0.00    -0.269 OA
BRANCH   4   7
ATOM      7  O01 TD3 d   1      -9.524  -9.085 -42.239  0.00  0.00    -0.285 OA
ATOM      8  H1  TD3 d   1     -10.144  -9.805 -42.249  0.00  0.00     0.245 HD
ENDBRANCH   4   7
BRANCH   5   9
ATOM      9  C14 TD3 d   1     -12.260  -6.498 -42.947  0.00  0.00     0.108 C 
ATOM     10  H11 TD3 d   1     -11.861  -5.712 -42.289  0.00  0.00     0.090 H 
ATOM     11  H12 TD3 d   1     -13.353  -6.553 -42.832  0.00  0.00     0.090 H 
BRANCH   9  12
ATOM     12  O15 TD3 d   1     -11.974  -6.153 -44.265  0.00  0.00    -0.273 OA
BRANCH  12  13
ATOM     13  P16 TD3 d   1     -12.269  -4.648 -44.881  0.00  0.00     0.422 P 
ATOM     14  O17 TD3 d   1     -13.649  -4.752 -45.737  0.00  0.00    -0.617 OA
ATOM     15  O18 TD3 d   1     -10.995  -4.232 -45.814  0.00  0.00    -0.617 OA
ATOM     16  O19 TD3 d   1     -12.394  -3.665 -43.806  0.00  0.00    -0.617 OA
ENDBRANCH  12  13
ENDBRANCH   9  12
ENDBRANCH   5   9
ENDBRANCH   1   4
BRANCH   1  17
ATOM     17  C04 TD3 d   1      -8.463  -6.440 -43.444  0.00  0.00    -0.046 C 
ATOM     18  H4  TD3 d   1      -8.838  -7.043 -44.285  0.00  0.00     0.035 H 
ATOM     19  H5  TD3 d   1      -7.493  -6.838 -43.111  0.00  0.00     0.035 H 
BRANCH  17  20
ATOM     20  C05 TD3 d   1      -8.202  -5.036 -43.988  0.00  0.00    -0.044 C 
ATOM     21  H6  TD3 d   1      -7.506  -4.532 -43.301  0.00  0.00     0.036 H 
ATOM     22  H7  TD3 d   1      -9.160  -4.496 -44.002  0.00  0.00     0.036 H 
BRANCH  20  23
ATOM     23  C06 TD3 d   1      -7.604  -4.969 -45.396  0.00  0.00     0.017 C 
ATOM     24  H8  TD3 d   1      -8.314  -4.410 -46.023  0.00  0.00     0.073 H 
ATOM     25  H9  TD3 d   1      -7.526  -6.003 -45.764  0.00  0.00     0.073 H 
BRANCH  23  26
ATOM     26  O07 TD3 d   1      -6.347  -4.375 -45.568  0.00  0.00    -0.401 OA
ATOM     27  H10 TD3 d   1      -6.107  -4.405 -46.486  0.00  0.00     0.209 HD
ENDBRANCH  23  26
ENDBRANCH  20  23
ENDBRANCH  17  20
ENDBRANCH   1  17
TORSDOF 9
