REMARK  10 active torsions:
REMARK  status: ('A' for Active; 'I' for Inactive)
REMARK    1  A    between atoms: O01_1  and  N02_2 
REMARK    2  A    between atoms: N02_2  and  C03_3 
REMARK       I    between atoms: N02_2  and  C12_12 
REMARK    3  A    between atoms: C03_3  and  C04_4 
REMARK    4  A    between atoms: C04_4  and  C05_5 
REMARK    5  A    between atoms: C05_5  and  C06_6 
REMARK    6  A    between atoms: C06_6  and  O07_7 
REMARK    7  A    between atoms: O07_7  and  P08_8 
REMARK    8  A    between atoms: C12_12  and  C14_14 
REMARK    9  A    between atoms: C14_14  and  O15_15 
REMARK   10  A    between atoms: O15_15  and  P16_16 
ROOT
ATOM      1  C03 TD4 d   1      -7.972  24.764 -24.295  0.00  0.00     0.024 C 
ATOM      2  H2  TD4 d   1      -8.456  23.789 -24.455  0.00  0.00     0.068 H 
ATOM      3  H3  TD4 d   1      -7.339  25.006 -25.161  0.00  0.00     0.068 H 
ENDROOT
BRANCH   1   4
ATOM      4  N02 TD4 d   1      -7.137  24.677 -23.125  0.00  0.00    -0.227 N 
ATOM      5  C12 TD4 d   1      -6.084  25.651 -22.961  0.00  0.00     0.267 C 
ATOM      6  O13 TD4 d   1      -5.449  25.678 -21.948  0.00  0.00    -0.269 OA
BRANCH   4   7
ATOM      7  O01 TD4 d   1      -7.671  24.027 -22.006  0.00  0.00    -0.285 OA
ATOM      8  H1  TD4 d   1      -7.884  23.130 -22.234  0.00  0.00     0.245 HD
ENDBRANCH   4   7
BRANCH   5   9
ATOM      9  C14 TD4 d   1      -5.639  26.436 -24.198  0.00  0.00     0.108 C 
ATOM     10  H10 TD4 d   1      -6.539  26.836 -24.688  0.00  0.00     0.090 H 
ATOM     11  H11 TD4 d   1      -5.131  25.737 -24.879  0.00  0.00     0.090 H 
BRANCH   9  12
ATOM     12  O15 TD4 d   1      -4.774  27.502 -23.952  0.00  0.00    -0.273 OA
BRANCH  12  13
ATOM     13  P16 TD4 d   1      -4.566  28.717 -25.051  0.00  0.00     0.422 P 
ATOM     14  O17 TD4 d   1      -3.192  29.491 -24.615  0.00  0.00    -0.617 OA
ATOM     15  O18 TD4 d   1      -5.848  29.734 -25.037  0.00  0.00    -0.617 OA
ATOM     16  O19 TD4 d   1      -4.366  28.150 -26.376  0.00  0.00    -0.617 OA
ENDBRANCH  12  13
ENDBRANCH   9  12
ENDBRANCH   5   9
ENDBRANCH   1   4
BRANCH   1  17
ATOM     17  C04 TD4 d   1      -9.051  25.826 -24.172  0.00  0.00    -0.046 C 
ATOM     18  H4  TD4 d   1      -8.935  26.523 -25.015  0.00  0.00     0.035 H 
ATOM     19  H5  TD4 d   1      -8.888  26.364 -23.226  0.00  0.00     0.035 H 
BRANCH  17  20
ATOM     20  C05 TD4 d   1     -10.479  25.326 -24.179  0.00  0.00    -0.043 C 
ATOM     21  H6  TD4 d   1     -10.680  24.863 -23.202  0.00  0.00     0.036 H 
ATOM     22  H7  TD4 d   1     -10.568  24.566 -24.970  0.00  0.00     0.036 H 
BRANCH  20  23
ATOM     23  C06 TD4 d   1     -11.543  26.381 -24.424  0.00  0.00     0.033 C 
ATOM     24  H8  TD4 d   1     -11.039  27.351 -24.545  0.00  0.00     0.075 H 
ATOM     25  H9  TD4 d   1     -12.198  26.415 -23.541  0.00  0.00     0.075 H 
BRANCH  23  26
ATOM     26  O07 TD4 d   1     -12.339  26.167 -25.543  0.00  0.00    -0.283 OA
BRANCH  26  27
ATOM     27  P08 TD4 d   1     -13.947  26.442 -25.420  0.00  0.00     0.422 P 
ATOM     28  O09 TD4 d   1     -14.712  25.452 -26.471  0.00  0.00    -0.617 OA
ATOM     29  O10 TD4 d   1     -14.428  26.119 -23.889  0.00  0.00    -0.617 OA
ATOM     30  O11 TD4 d   1     -14.218  27.840 -25.722  0.00  0.00    -0.617 OA
ENDBRANCH  26  27
ENDBRANCH  23  26
ENDBRANCH  20  23
ENDBRANCH  17  20
ENDBRANCH   1  17
TORSDOF 10
