REMARK  8 active torsions:
REMARK  status: ('A' for Active; 'I' for Inactive)
REMARK    1  A    between atoms: CAC_4  and  OAB_3 
REMARK    2  A    between atoms: CAI_10  and  SAJ_11 
REMARK    3  A    between atoms: SAJ_11  and  NAK_12 
REMARK    4  A    between atoms: CAO_16  and  CAN_15 
REMARK    5  A    between atoms: CAP_17  and  CAO_16 
REMARK       I    between atoms: NAQ_18  and  CAP_17 
REMARK    6  A    between atoms: CAR_19  and  NAQ_18 
REMARK    7  A    between atoms: CAS_20  and  CAR_19 
REMARK    8  A    between atoms: CAS_20  and  CAT_21 
ROOT
ATOM      1  CAR R21 d   1      18.406   8.338  14.051  0.00  0.00    -0.001 C 
ATOM      2  H12 R21 d   1      17.840   8.911  14.800  0.00  0.00     0.064 H 
ATOM      3  H13 R21 d   1      19.227   7.798  14.546  0.00  0.00     0.064 H 
ENDROOT
BRANCH   1   4
ATOM      4  NAQ R21 d   1      18.954   9.252  13.037  0.00  0.00    -0.361 N 
ATOM      5  CAP R21 d   1      19.670  10.329  13.348  0.00  0.00     0.221 C 
ATOM      6  OAF R21 d   1      19.943  10.669  14.499  0.00  0.00    -0.273 OA
ATOM      7  H11 R21 d   1      18.781   9.055  12.072  0.00  0.00     0.162 HD
BRANCH   5   8
ATOM      8  CAO R21 d   1      20.155  11.140  12.145  0.00  0.00     0.033 C 
ATOM      9  H9  R21 d   1      21.239  11.302  12.232  0.00  0.00     0.054 H 
ATOM     10  H10 R21 d   1      19.940  10.581  11.222  0.00  0.00     0.054 H 
BRANCH   8  11
ATOM     11  CAN R21 d   1      19.447  12.496  12.088  0.00  0.00    -0.048 A 
ATOM     12  CAE R21 d   1      20.059  13.617  12.637  0.00  0.00    -0.074 A 
ATOM     13  CAD R21 d   1      19.446  14.861  12.540  0.00  0.00    -0.049 A 
ATOM     14  H3  R21 d   1      21.014  13.521  13.141  0.00  0.00     0.084 H 
ATOM     15  CAC R21 d   1      18.221  14.984  11.895  0.00  0.00     0.087 A 
ATOM     16  H2  R21 d   1      19.924  15.735  12.967  0.00  0.00     0.087 H 
ATOM     17  CAL R21 d   1      17.605  13.862  11.350  0.00  0.00     0.067 A 
ATOM     18 CL   R21 d   1      16.075  14.020  10.557  0.00  0.00    -0.081 Cl
ATOM     19  CAM R21 d   1      18.219  12.618  11.447  0.00  0.00    -0.053 A 
ATOM     20  H8  R21 d   1      17.740  11.743  11.023  0.00  0.00     0.087 H 
BRANCH  15  21
ATOM     21  OAB R21 d   1      17.632  16.205  11.785  0.00  0.00    -0.359 OA
ATOM     22  H1  R21 d   1      17.473  16.558  12.652  0.00  0.00     0.217 HD
ENDBRANCH  15  21
ENDBRANCH   8  11
ENDBRANCH   5   8
ENDBRANCH   1   4
BRANCH   1  23
ATOM     23  CAS R21 d   1      17.478   7.340  13.355  0.00  0.00    -0.026 C 
ATOM     24  H14 R21 d   1      18.026   6.866  12.528  0.00  0.00     0.042 H 
ATOM     25  H15 R21 d   1      16.610   7.884  12.955  0.00  0.00     0.042 H 
BRANCH  23  26
ATOM     26  CAT R21 d   1      16.979   6.248  14.304  0.00  0.00    -0.057 A 
ATOM     27  CAG R21 d   1      15.648   6.228  14.704  0.00  0.00    -0.075 A 
ATOM     28  CAH R21 d   1      15.172   5.182  15.486  0.00  0.00    -0.060 A 
ATOM     29  H4  R21 d   1      14.981   7.029  14.406  0.00  0.00     0.084 H 
ATOM     30  CAI R21 d   1      16.028   4.156  15.871  0.00  0.00     0.079 A 
ATOM     31  H5  R21 d   1      14.133   5.166  15.796  0.00  0.00     0.085 H 
ATOM     32  CAV R21 d   1      17.362   4.183  15.481  0.00  0.00    -0.060 A 
ATOM     33  CAU R21 d   1      17.838   5.228  14.698  0.00  0.00    -0.075 A 
ATOM     34  H17 R21 d   1      18.032   3.388  15.788  0.00  0.00     0.085 H 
ATOM     35  H16 R21 d   1      18.878   5.248  14.395  0.00  0.00     0.084 H 
BRANCH  30  36
ATOM     36  SAJ R21 d   1      15.418   2.809  16.807  0.00  0.00     0.256 S 
ATOM     37  OAA R21 d   1      13.920   2.794  16.734  0.00  0.00    -0.201 OA
ATOM     38  OAW R21 d   1      15.855   2.955  18.235  0.00  0.00    -0.201 OA
BRANCH  36  39
ATOM     39  NAK R21 d   1      16.017   1.418  16.205  0.00  0.00    -0.324 N 
ATOM     40  H6  R21 d   1      17.005   1.268  16.181  0.00  0.00     0.169 HD
ATOM     41  H7  R21 d   1      15.396   0.714  15.860  0.00  0.00     0.169 HD
ENDBRANCH  36  39
ENDBRANCH  30  36
ENDBRANCH  23  26
ENDBRANCH   1  23
TORSDOF 8
