REMARK  11 active torsions:
REMARK  status: ('A' for Active; 'I' for Inactive)
REMARK    1  A    between atoms: C20_2  and  C19_4 
REMARK    2  A    between atoms: C19_4  and  O3_5 
REMARK    3  A    between atoms: O3_5  and  C1_6 
REMARK    4  A    between atoms: C3_8  and  C17_9 
REMARK    5  A    between atoms: C4_10  and  C7_14 
REMARK    6  A    between atoms: C5_11  and  C18_13 
REMARK    7  A    between atoms: C7_14  and  C8_15 
REMARK    8  A    between atoms: C12_17  and  C14_18 
REMARK    9  A    between atoms: C14_18  and  C16_19 
REMARK   10  A    between atoms: C14_18  and  C15_20 
REMARK   11  A    between atoms: C11_21  and  O4_22 
ROOT
ATOM      1  C7  B72 d   1     -21.004   0.523  -3.954  0.00  0.00    -0.016 C 
ATOM      2  H11 B72 d   1     -19.944   0.250  -4.061  0.00  0.00     0.047 H 
ATOM      3  H12 B72 d   1     -21.129   1.596  -4.159  0.00  0.00     0.047 H 
ENDROOT
BRANCH   1   4
ATOM      4  C4  B72 d   1     -21.413   0.270  -2.494  0.00  0.00    -0.042 A 
ATOM      5  C3  B72 d   1     -20.687  -0.642  -1.731  0.00  0.00    -0.052 A 
ATOM      6  C2  B72 d   1     -21.009  -0.881  -0.404  0.00  0.00    -0.044 A 
ATOM      7  C1  B72 d   1     -22.060  -0.204   0.191  0.00  0.00     0.070 A 
ATOM      8  H3  B72 d   1     -20.436  -1.600   0.170  0.00  0.00     0.088 H 
ATOM      9  C6  B72 d   1     -22.792   0.723  -0.542  0.00  0.00    -0.044 A 
ATOM     10  C5  B72 d   1     -22.463   0.958  -1.876  0.00  0.00    -0.052 A 
ATOM     11  H7  B72 d   1     -23.613   1.259  -0.080  0.00  0.00     0.088 H 
BRANCH   5  12
ATOM     12  C17 B72 d   1     -19.518  -1.406  -2.369  0.00  0.00    -0.051 C 
ATOM     13  H4  B72 d   1     -19.067  -2.076  -1.622  0.00  0.00     0.033 H 
ATOM     14  H5  B72 d   1     -18.762  -0.690  -2.724  0.00  0.00     0.033 H 
ATOM     15  H6  B72 d   1     -19.888  -2.000  -3.218  0.00  0.00     0.033 H 
ENDBRANCH   5  12
BRANCH   7  16
ATOM     16  O3  B72 d   1     -22.337  -0.460   1.495  0.00  0.00    -0.341 OA
BRANCH  16  17
ATOM     17  C19 B72 d   1     -21.067  -0.449   2.199  0.00  0.00     0.105 C 
ATOM     18  H1  B72 d   1     -20.290   0.007   1.569  0.00  0.00     0.091 H 
ATOM     19  H2  B72 d   1     -21.160   0.119   3.136  0.00  0.00     0.091 H 
BRANCH  17  20
ATOM     20  C20 B72 d   1     -20.712  -1.900   2.500  0.00  0.00     0.198 C 
ATOM     21  O1  B72 d   1     -19.520  -2.266   2.374  0.00  0.00    -0.646 OA
ATOM     22  O2  B72 d   1     -21.653  -2.644   2.846  0.00  0.00    -0.646 OA
ENDBRANCH  17  20
ENDBRANCH  16  17
ENDBRANCH   7  16
BRANCH  10  23
ATOM     23  C18 B72 d   1     -23.274   1.978  -2.688  0.00  0.00    -0.051 C 
ATOM     24  H8  B72 d   1     -22.875   2.032  -3.712  0.00  0.00     0.033 H 
ATOM     25  H9  B72 d   1     -23.199   2.967  -2.213  0.00  0.00     0.033 H 
ATOM     26  H10 B72 d   1     -24.328   1.666  -2.721  0.00  0.00     0.033 H 
ENDBRANCH  10  23
ENDBRANCH   1   4
BRANCH   1  27
ATOM     27  C8  B72 d   1     -21.799  -0.254  -5.008  0.00  0.00    -0.053 A 
ATOM     28  C13 B72 d   1     -21.673   0.152  -6.334  0.00  0.00    -0.068 A 
ATOM     29  C12 B72 d   1     -22.356  -0.508  -7.349  0.00  0.00    -0.021 A 
ATOM     30  H13 B72 d   1     -21.034   0.993  -6.578  0.00  0.00     0.085 H 
ATOM     31  C11 B72 d   1     -23.170  -1.584  -7.020  0.00  0.00     0.072 A 
ATOM     32  C10 B72 d   1     -23.299  -1.993  -5.696  0.00  0.00    -0.050 A 
ATOM     33  C9  B72 d   1     -22.613  -1.336  -4.680  0.00  0.00    -0.074 A 
ATOM     34  H22 B72 d   1     -23.941  -2.832  -5.454  0.00  0.00     0.087 H 
ATOM     35  H23 B72 d   1     -22.710  -1.660  -3.650  0.00  0.00     0.084 H 
BRANCH  29  36
ATOM     36  C14 B72 d   1     -22.215  -0.051  -8.811  0.00  0.00    -0.033 C 
ATOM     37  H14 B72 d   1     -23.099  -0.365  -9.386  0.00  0.00     0.046 H 
BRANCH  36  38
ATOM     38  C16 B72 d   1     -22.095   1.469  -8.836  0.00  0.00    -0.069 C 
ATOM     39  H15 B72 d   1     -21.993   1.812  -9.876  0.00  0.00     0.028 H 
ATOM     40  H16 B72 d   1     -21.209   1.776  -8.261  0.00  0.00     0.028 H 
ATOM     41  H17 B72 d   1     -22.996   1.915  -8.389  0.00  0.00     0.028 H 
ENDBRANCH  36  38
BRANCH  36  42
ATOM     42  C15 B72 d   1     -20.960  -0.665  -9.424  0.00  0.00    -0.069 C 
ATOM     43  H18 B72 d   1     -21.043  -1.762  -9.408  0.00  0.00     0.028 H 
ATOM     44  H19 B72 d   1     -20.079  -0.355  -8.843  0.00  0.00     0.028 H 
ATOM     45  H20 B72 d   1     -20.853  -0.321 -10.463  0.00  0.00     0.028 H 
ENDBRANCH  36  42
ENDBRANCH  29  36
BRANCH  31  46
ATOM     46  O4  B72 d   1     -23.852  -2.222  -8.000  0.00  0.00    -0.360 OA
ATOM     47  H21 B72 d   1     -24.360  -2.930  -7.622  0.00  0.00     0.217 HD
ENDBRANCH  31  46
ENDBRANCH   1  27
TORSDOF 11
