REMARK  10 active torsions:
REMARK  status: ('A' for Active; 'I' for Inactive)
REMARK    1  A    between atoms: CAG_6  and  CAQ_7 
REMARK    2  A    between atoms: CAQ_7  and  CAP_8 
REMARK    3  A    between atoms: CBA_10  and  OBC_11 
REMARK    4  A    between atoms: CAN_14  and  CAM_15 
REMARK    5  A    between atoms: CAM_15  and  CAL_16 
REMARK    6  A    between atoms: CAX_17  and  CBB_18 
REMARK    7  A    between atoms: CAK_20  and  CAE_21 
REMARK    8  A    between atoms: CAV_23  and  OAU_24 
REMARK    9  A    between atoms: OAU_24  and  CAT_25 
REMARK   10  A    between atoms: CAT_25  and  CAS_26 
ROOT
ATOM      1  CAM G24 d   1      21.709  -0.842 -28.716  0.00  0.00    -0.016 C 
ATOM      2  H12 G24 d   1      21.153  -1.790 -28.681  0.00  0.00     0.047 H 
ATOM      3  H13 G24 d   1      22.789  -1.049 -28.687  0.00  0.00     0.047 H 
ENDROOT
BRANCH   1   4
ATOM      4  CAN G24 d   1      21.355  -0.052 -27.508  0.00  0.00    -0.053 A 
ATOM      5  CAO G24 d   1      21.936  -0.568 -26.394  0.00  0.00    -0.068 A 
ATOM      6  CAP G24 d   1      21.745  -0.021 -25.161  0.00  0.00    -0.020 A 
ATOM      7  H8  G24 d   1      22.571  -1.442 -26.489  0.00  0.00     0.085 H 
ATOM      8  CBA G24 d   1      20.935   1.121 -25.052  0.00  0.00     0.072 A 
ATOM      9  CAZ G24 d   1      20.336   1.652 -26.200  0.00  0.00    -0.050 A 
ATOM     10  CAY G24 d   1      20.542   1.066 -27.449  0.00  0.00    -0.074 A 
ATOM     11  H10 G24 d   1      19.704   2.529 -26.118  0.00  0.00     0.087 H 
ATOM     12  H11 G24 d   1      20.081   1.472 -28.342  0.00  0.00     0.084 H 
BRANCH   6  13
ATOM     13  CAQ G24 d   1      22.535  -0.810 -24.120  0.00  0.00    -0.014 C 
ATOM     14  H6  G24 d   1      22.889  -1.738 -24.593  0.00  0.00     0.047 H 
ATOM     15  H7  G24 d   1      23.399  -0.201 -23.815  0.00  0.00     0.047 H 
BRANCH  13  16
ATOM     16  CAG G24 d   1      21.764  -1.183 -22.877  0.00  0.00    -0.054 A 
ATOM     17  CAF G24 d   1      21.350  -2.467 -22.569  0.00  0.00    -0.077 A 
ATOM     18  CAB G24 d   1      20.668  -2.687 -21.371  0.00  0.00    -0.082 A 
ATOM     19  H1  G24 d   1      21.552  -3.288 -23.247  0.00  0.00     0.084 H 
ATOM     20  CAC G24 d   1      20.424  -1.640 -20.485  0.00  0.00    -0.083 A 
ATOM     21  H2  G24 d   1      20.324  -3.686 -21.127  0.00  0.00     0.083 H 
ATOM     22  CAD G24 d   1      20.873  -0.360 -20.810  0.00  0.00    -0.082 A 
ATOM     23  H3  G24 d   1      19.893  -1.817 -19.557  0.00  0.00     0.083 H 
ATOM     24  CAH G24 d   1      21.567  -0.175 -22.053  0.00  0.00    -0.077 A 
ATOM     25  H4  G24 d   1      20.702   0.475 -20.140  0.00  0.00     0.083 H 
ATOM     26  H5  G24 d   1      21.935   0.810 -22.317  0.00  0.00     0.084 H 
ENDBRANCH  13  16
ENDBRANCH   6  13
BRANCH   8  27
ATOM     27  OBC G24 d   1      20.712   1.763 -23.858  0.00  0.00    -0.360 OA
ATOM     28  H9  G24 d   1      21.540   2.063 -23.502  0.00  0.00     0.217 HD
ENDBRANCH   8  27
ENDBRANCH   1   4
BRANCH   1  29
ATOM     29  CAL G24 d   1      21.402  -0.175 -29.998  0.00  0.00    -0.042 A 
ATOM     30  CAX G24 d   1      20.304  -0.622 -30.709  0.00  0.00    -0.052 A 
ATOM     31  CAW G24 d   1      19.984  -0.055 -31.931  0.00  0.00    -0.044 A 
ATOM     32  CAV G24 d   1      20.791   0.960 -32.430  0.00  0.00     0.070 A 
ATOM     33  H17 G24 d   1      19.119  -0.397 -32.488  0.00  0.00     0.088 H 
ATOM     34  CAJ G24 d   1      21.902   1.403 -31.724  0.00  0.00    -0.044 A 
ATOM     35  CAK G24 d   1      22.212   0.830 -30.503  0.00  0.00    -0.052 A 
ATOM     36  H21 G24 d   1      22.524   2.194 -32.128  0.00  0.00     0.088 H 
BRANCH  30  37
ATOM     37  CBB G24 d   1      19.450  -1.739 -30.105  0.00  0.00    -0.051 C 
ATOM     38  H14 G24 d   1      18.622  -1.978 -30.789  0.00  0.00     0.033 H 
ATOM     39  H15 G24 d   1      19.043  -1.408 -29.138  0.00  0.00     0.033 H 
ATOM     40  H16 G24 d   1      20.071  -2.634 -29.954  0.00  0.00     0.033 H 
ENDBRANCH  30  37
BRANCH  32  41
ATOM     41  OAU G24 d   1      20.513   1.538 -33.623  0.00  0.00    -0.341 OA
BRANCH  41  42
ATOM     42  CAT G24 d   1      21.419   2.621 -33.810  0.00  0.00     0.105 C 
ATOM     43  H22 G24 d   1      21.831   2.909 -32.832  0.00  0.00     0.091 H 
ATOM     44  H23 G24 d   1      20.869   3.470 -34.241  0.00  0.00     0.091 H 
BRANCH  42  45
ATOM     45  CAS G24 d   1      22.576   2.262 -34.742  0.00  0.00     0.198 C 
ATOM     46  OAR G24 d   1      22.523   2.676 -35.920  0.00  0.00    -0.646 OA
ATOM     47  OAI G24 d   1      23.518   1.587 -34.277  0.00  0.00    -0.646 OA
ENDBRANCH  42  45
ENDBRANCH  41  42
ENDBRANCH  32  41
BRANCH  35  48
ATOM     48  CAE G24 d   1      23.432   1.298 -29.699  0.00  0.00    -0.051 C 
ATOM     49  H18 G24 d   1      23.951   2.095 -30.251  0.00  0.00     0.033 H 
ATOM     50  H19 G24 d   1      24.117   0.451 -29.546  0.00  0.00     0.033 H 
ATOM     51  H20 G24 d   1      23.102   1.683 -28.723  0.00  0.00     0.033 H 
ENDBRANCH  35  48
ENDBRANCH   1  29
TORSDOF 10
