REMARK  11 active torsions:
REMARK  status: ('A' for Active; 'I' for Inactive)
REMARK    1  A    between atoms: C20_2  and  C19_4 
REMARK    2  A    between atoms: C19_4  and  O3_5 
REMARK    3  A    between atoms: O3_5  and  C1_6 
REMARK    4  A    between atoms: C3_8  and  C17_9 
REMARK    5  A    between atoms: C4_10  and  C7_14 
REMARK    6  A    between atoms: C5_11  and  C18_13 
REMARK    7  A    between atoms: C7_14  and  C8_15 
REMARK    8  A    between atoms: C12_17  and  C14_18 
REMARK    9  A    between atoms: C14_18  and  C16_19 
REMARK   10  A    between atoms: C14_18  and  C15_20 
REMARK   11  A    between atoms: C11_21  and  O4_22 
ROOT
ATOM      1  C7  B72 d   1      -0.722  -0.595  -3.912  0.00  0.00    -0.016 C 
ATOM      2  H11 B72 d   1      -1.791  -0.360  -4.023  0.00  0.00     0.047 H 
ATOM      3  H12 B72 d   1      -0.572  -1.679  -4.019  0.00  0.00     0.047 H 
ENDROOT
BRANCH   1   4
ATOM      4  C4  B72 d   1      -0.281  -0.183  -2.513  0.00  0.00    -0.042 A 
ATOM      5  C3  B72 d   1       0.848  -0.765  -1.918  0.00  0.00    -0.052 A 
ATOM      6  C2  B72 d   1       1.216  -0.438  -0.619  0.00  0.00    -0.044 A 
ATOM      7  C1  B72 d   1       0.462   0.483   0.096  0.00  0.00     0.070 A 
ATOM      8  H3  B72 d   1       2.086  -0.899  -0.166  0.00  0.00     0.088 H 
ATOM      9  C6  B72 d   1      -0.667   1.052  -0.490  0.00  0.00    -0.044 A 
ATOM     10  C5  B72 d   1      -1.045   0.716  -1.784  0.00  0.00    -0.052 A 
ATOM     11  H7  B72 d   1      -1.258   1.766   0.071  0.00  0.00     0.088 H 
BRANCH   5  12
ATOM     12  C17 B72 d   1       1.699  -1.787  -2.690  0.00  0.00    -0.051 C 
ATOM     13  H4  B72 d   1       2.533  -2.124  -2.056  0.00  0.00     0.033 H 
ATOM     14  H5  B72 d   1       2.098  -1.318  -3.602  0.00  0.00     0.033 H 
ATOM     15  H6  B72 d   1       1.075  -2.651  -2.965  0.00  0.00     0.033 H 
ENDBRANCH   5  12
BRANCH   7  16
ATOM     16  O3  B72 d   1       0.806   0.841   1.382  0.00  0.00    -0.341 OA
BRANCH  16  17
ATOM     17  C19 B72 d   1       2.065   0.342   1.942  0.00  0.00     0.105 C 
ATOM     18  H1  B72 d   1       2.847   0.604   1.214  0.00  0.00     0.091 H 
ATOM     19  H2  B72 d   1       2.228   0.904   2.874  0.00  0.00     0.091 H 
BRANCH  17  20
ATOM     20  C20 B72 d   1       2.288  -1.140   2.293  0.00  0.00     0.198 C 
ATOM     21  O1  B72 d   1       3.462  -1.549   2.428  0.00  0.00    -0.646 OA
ATOM     22  O2  B72 d   1       1.285  -1.871   2.436  0.00  0.00    -0.646 OA
ENDBRANCH  17  20
ENDBRANCH  16  17
ENDBRANCH   7  16
BRANCH  10  23
ATOM     23  C18 B72 d   1      -2.300   1.357  -2.403  0.00  0.00    -0.051 C 
ATOM     24  H8  B72 d   1      -2.441   0.974  -3.425  0.00  0.00     0.033 H 
ATOM     25  H9  B72 d   1      -2.176   2.450  -2.434  0.00  0.00     0.033 H 
ATOM     26  H10 B72 d   1      -3.180   1.105  -1.792  0.00  0.00     0.033 H 
ENDBRANCH  10  23
ENDBRANCH   1   4
BRANCH   1  27
ATOM     27  C8  B72 d   1       0.029   0.096  -5.003  0.00  0.00    -0.053 A 
ATOM     28  C13 B72 d   1      -0.175  -0.303  -6.329  0.00  0.00    -0.068 A 
ATOM     29  C12 B72 d   1       0.505   0.350  -7.327  0.00  0.00    -0.021 A 
ATOM     30  H13 B72 d   1      -0.857  -1.112  -6.564  0.00  0.00     0.085 H 
ATOM     31  C11 B72 d   1       1.342   1.384  -6.963  0.00  0.00     0.072 A 
ATOM     32  C10 B72 d   1       1.523   1.787  -5.640  0.00  0.00    -0.050 A 
ATOM     33  C9  B72 d   1       0.848   1.136  -4.635  0.00  0.00    -0.074 A 
ATOM     34  H22 B72 d   1       2.191   2.608  -5.406  0.00  0.00     0.087 H 
ATOM     35  H23 B72 d   1       0.957   1.430  -3.597  0.00  0.00     0.084 H 
BRANCH  29  36
ATOM     36  C14 B72 d   1       0.377  -0.022  -8.815  0.00  0.00    -0.033 C 
ATOM     37  H14 B72 d   1       1.322  -0.465  -9.162  0.00  0.00     0.046 H 
BRANCH  36  38
ATOM     38  C16 B72 d   1      -0.746  -1.036  -9.011  0.00  0.00    -0.069 C 
ATOM     39  H15 B72 d   1      -0.826  -1.293 -10.078  0.00  0.00     0.028 H 
ATOM     40  H16 B72 d   1      -1.696  -0.602  -8.666  0.00  0.00     0.028 H 
ATOM     41  H17 B72 d   1      -0.525  -1.944  -8.431  0.00  0.00     0.028 H 
ENDBRANCH  36  38
BRANCH  36  42
ATOM     42  C15 B72 d   1       0.097   1.246  -9.607  0.00  0.00    -0.069 C 
ATOM     43  H18 B72 d   1       0.917   1.963  -9.453  0.00  0.00     0.028 H 
ATOM     44  H19 B72 d   1      -0.849   1.691  -9.264  0.00  0.00     0.028 H 
ATOM     45  H20 B72 d   1       0.021   1.001 -10.677  0.00  0.00     0.028 H 
ENDBRANCH  36  42
ENDBRANCH  29  36
BRANCH  31  46
ATOM     46  O4  B72 d   1       2.002   2.011  -7.954  0.00  0.00    -0.360 OA
ATOM     47  H21 B72 d   1       2.543   2.700  -7.586  0.00  0.00     0.217 HD
ENDBRANCH  31  46
ENDBRANCH   1  27
TORSDOF 11
