REMARK  10 active torsions:
REMARK  status: ('A' for Active; 'I' for Inactive)
REMARK    1  A    between atoms: CAG_6  and  CAQ_7 
REMARK    2  A    between atoms: CAQ_7  and  CAP_8 
REMARK    3  A    between atoms: CBA_10  and  OBC_11 
REMARK    4  A    between atoms: CAN_14  and  CAM_15 
REMARK    5  A    between atoms: CAM_15  and  CAL_16 
REMARK    6  A    between atoms: CAX_17  and  CBB_18 
REMARK    7  A    between atoms: CAK_20  and  CAE_21 
REMARK    8  A    between atoms: CAV_23  and  OAU_24 
REMARK    9  A    between atoms: OAU_24  and  CAT_25 
REMARK   10  A    between atoms: CAT_25  and  CAS_26 
ROOT
ATOM      1  CAM G24 d   1      -0.369   0.627   4.126  0.00  0.00    -0.016 C 
ATOM      2  H12 G24 d   1       0.088   1.623   4.224  0.00  0.00     0.047 H 
ATOM      3  H13 G24 d   1      -1.464   0.719   4.174  0.00  0.00     0.047 H 
ENDROOT
BRANCH   1   4
ATOM      4  CAN G24 d   1       0.072  -0.197   5.325  0.00  0.00    -0.053 A 
ATOM      5  CAO G24 d   1      -0.671   0.023   6.459  0.00  0.00    -0.068 A 
ATOM      6  CAP G24 d   1      -0.413  -0.643   7.634  0.00  0.00    -0.020 A 
ATOM      7  H8  G24 d   1      -1.483   0.741   6.427  0.00  0.00     0.085 H 
ATOM      8  CBA G24 d   1       0.628  -1.557   7.683  0.00  0.00     0.072 A 
ATOM      9  CAZ G24 d   1       1.403  -1.800   6.543  0.00  0.00    -0.050 A 
ATOM     10  CAY G24 d   1       1.117  -1.124   5.345  0.00  0.00    -0.074 A 
ATOM     11  H10 G24 d   1       2.222  -2.509   6.584  0.00  0.00     0.087 H 
ATOM     12  H11 G24 d   1       1.698  -1.319   4.451  0.00  0.00     0.084 H 
BRANCH   6  13
ATOM     13  CAQ G24 d   1      -1.286  -0.319   8.845  0.00  0.00    -0.014 C 
ATOM     14  H6  G24 d   1      -2.203   0.192   8.516  0.00  0.00     0.047 H 
ATOM     15  H7  G24 d   1      -1.553  -1.248   9.370  0.00  0.00     0.047 H 
BRANCH  13  16
ATOM     16  CAG G24 d   1      -0.491   0.596   9.783  0.00  0.00    -0.054 A 
ATOM     17  CAF G24 d   1       0.012   0.071  10.967  0.00  0.00    -0.077 A 
ATOM     18  CAB G24 d   1       0.720   0.911  11.801  0.00  0.00    -0.082 A 
ATOM     19  H1  G24 d   1      -0.147  -0.969  11.228  0.00  0.00     0.084 H 
ATOM     20  CAC G24 d   1       0.949   2.234  11.442  0.00  0.00    -0.083 A 
ATOM     21  H2  G24 d   1       1.101   0.536  12.744  0.00  0.00     0.083 H 
ATOM     22  CAD G24 d   1       0.450   2.764  10.267  0.00  0.00    -0.082 A 
ATOM     23  H3  G24 d   1       1.534   2.866  12.100  0.00  0.00     0.083 H 
ATOM     24  CAH G24 d   1      -0.274   1.928   9.430  0.00  0.00    -0.077 A 
ATOM     25  H4  G24 d   1       0.620   3.803  10.007  0.00  0.00     0.083 H 
ATOM     26  H5  G24 d   1      -0.673   2.311   8.498  0.00  0.00     0.084 H 
ENDBRANCH  13  16
ENDBRANCH   6  13
BRANCH   8  27
ATOM     27  OBC G24 d   1       0.838  -2.182   8.866  0.00  0.00    -0.360 OA
ATOM     28  H9  G24 d   1       0.058  -2.667   9.110  0.00  0.00     0.217 HD
ENDBRANCH   8  27
ENDBRANCH   1   4
BRANCH   1  29
ATOM     29  CAL G24 d   1      -0.013   0.093   2.733  0.00  0.00    -0.042 A 
ATOM     30  CAX G24 d   1      -0.784  -0.853   2.064  0.00  0.00    -0.052 A 
ATOM     31  CAW G24 d   1      -0.441  -1.292   0.789  0.00  0.00    -0.044 A 
ATOM     32  CAV G24 d   1       0.678  -0.771   0.147  0.00  0.00     0.070 A 
ATOM     33  H17 G24 d   1      -1.047  -2.042   0.294  0.00  0.00     0.088 H 
ATOM     34  CAJ G24 d   1       1.447   0.190   0.787  0.00  0.00    -0.044 A 
ATOM     35  CAK G24 d   1       1.089   0.610   2.063  0.00  0.00    -0.052 A 
ATOM     36  H21 G24 d   1       2.318   0.609   0.297  0.00  0.00     0.088 H 
BRANCH  30  37
ATOM     37  CBB G24 d   1      -2.023  -1.449   2.731  0.00  0.00    -0.051 C 
ATOM     38  H14 G24 d   1      -2.494  -2.172   2.049  0.00  0.00     0.033 H 
ATOM     39  H15 G24 d   1      -2.737  -0.645   2.963  0.00  0.00     0.033 H 
ATOM     40  H16 G24 d   1      -1.730  -1.959   3.660  0.00  0.00     0.033 H 
ENDBRANCH  30  37
BRANCH  32  41
ATOM     41  OAU G24 d   1       1.031  -1.201  -1.101  0.00  0.00    -0.341 OA
BRANCH  41  42
ATOM     42  CAT G24 d   1       0.085  -2.174  -1.620  0.00  0.00     0.105 C 
ATOM     43  H22 G24 d   1      -0.097  -2.922  -0.834  0.00  0.00     0.091 H 
ATOM     44  H23 G24 d   1       0.545  -2.662  -2.492  0.00  0.00     0.091 H 
BRANCH  42  45
ATOM     45  CAS G24 d   1      -1.279  -1.607  -2.059  0.00  0.00     0.198 C 
ATOM     46  OAR G24 d   1      -1.358  -0.401  -2.386  0.00  0.00    -0.646 OA
ATOM     47  OAI G24 d   1      -2.269  -2.371  -2.033  0.00  0.00    -0.646 OA
ENDBRANCH  42  45
ENDBRANCH  41  42
ENDBRANCH  32  41
BRANCH  35  48
ATOM     48  CAE G24 d   1       1.951   1.662   2.753  0.00  0.00    -0.051 C 
ATOM     49  H18 G24 d   1       2.773   1.958   2.085  0.00  0.00     0.033 H 
ATOM     50  H19 G24 d   1       2.366   1.244   3.682  0.00  0.00     0.033 H 
ATOM     51  H20 G24 d   1       1.336   2.543   2.990  0.00  0.00     0.033 H 
ENDBRANCH  35  48
ENDBRANCH   1  29
TORSDOF 10
