REMARK  12 active torsions:
REMARK  status: ('A' for Active; 'I' for Inactive)
REMARK    1  A    between atoms: O1_7  and  C1_1 
REMARK    2  A    between atoms: C2_2  and  O2_8 
REMARK    3  A    between atoms: C3_3  and  O3_9 
REMARK    4  A    between atoms: C4_4  and  O4_10 
REMARK    5  A    between atoms: C5_5  and  C6_6 
REMARK    6  A    between atoms: C6_6  and  O6_12 
REMARK    7  A    between atoms: C4'_16  and  O1_7 
REMARK    8  A    between atoms: C1'_13  and  O1'_19 
REMARK    9  A    between atoms: C2'_14  and  O2'_20 
REMARK   10  A    between atoms: C3'_15  and  O3'_21 
REMARK   11  A    between atoms: C5'_17  and  C6'_18 
REMARK   12  A    between atoms: C6'_18  and  O6'_23 
ROOT
ATOM      1  O1  MAL d   1     -21.329 -20.019 -17.700  0.00  0.00    -0.348 OA
ENDROOT
BRANCH   1   2
ATOM      2  C1  MAL d   1     -19.992 -20.503 -17.794  0.00  0.00     0.159 C 
ATOM      3  C2  MAL d   1     -18.985 -19.782 -16.911  0.00  0.00     0.110 C 
ATOM      4  C3  MAL d   1     -18.445 -18.511 -17.501  0.00  0.00     0.092 C 
ATOM      5  H2  MAL d   1     -18.132 -20.458 -16.750  0.00  0.00     0.094 H 
ATOM      6  C4  MAL d   1     -17.941 -18.778 -18.923  0.00  0.00     0.090 C 
ATOM      7  H3  MAL d   1     -19.234 -17.747 -17.556  0.00  0.00     0.091 H 
ATOM      8  C5  MAL d   1     -19.048 -19.424 -19.742  0.00  0.00     0.089 C 
ATOM      9  H4  MAL d   1     -17.078 -19.458 -18.869  0.00  0.00     0.091 H 
ATOM     10  O5  MAL d   1     -19.470 -20.611 -19.105  0.00  0.00    -0.348 OA
ATOM     11  H5  MAL d   1     -19.876 -18.709 -19.853  0.00  0.00     0.090 H 
ATOM     12  H1  MAL d   1     -20.043 -21.532 -17.410  0.00  0.00     0.133 H 
BRANCH   3  13
ATOM     13  O2  MAL d   1     -19.594 -19.529 -15.679  0.00  0.00    -0.388 OA
ATOM     14  H8  MAL d   1     -19.930 -20.342 -15.320  0.00  0.00     0.210 HD
ENDBRANCH   3  13
BRANCH   4  15
ATOM     15  O3  MAL d   1     -17.457 -18.097 -16.562  0.00  0.00    -0.390 OA
ATOM     16  H9  MAL d   1     -17.058 -17.288 -16.860  0.00  0.00     0.210 HD
ENDBRANCH   4  15
BRANCH   6  17
ATOM     17  O4  MAL d   1     -17.548 -17.581 -19.593  0.00  0.00    -0.390 OA
ATOM     18  H10 MAL d   1     -16.855 -17.157 -19.101  0.00  0.00     0.210 HD
ENDBRANCH   6  17
BRANCH   8  19
ATOM     19  C6  MAL d   1     -18.606 -19.937 -21.095  0.00  0.00     0.043 C 
ATOM     20  H6  MAL d   1     -17.626 -19.507 -21.350  0.00  0.00     0.078 H 
ATOM     21  H7  MAL d   1     -19.344 -19.647 -21.858  0.00  0.00     0.078 H 
BRANCH  19  22
ATOM     22  O6  MAL d   1     -18.504 -21.372 -21.043  0.00  0.00    -0.398 OA
ATOM     23  H11 MAL d   1     -19.351 -21.741 -20.822  0.00  0.00     0.209 HD
ENDBRANCH  19  22
ENDBRANCH   8  19
ENDBRANCH   1   2
BRANCH   1  24
ATOM     24  C4' MAL d   1     -22.062 -21.243 -17.823  0.00  0.00     0.096 C 
ATOM     25  C3' MAL d   1     -22.423 -21.747 -16.450  0.00  0.00     0.092 C 
ATOM     26  C2' MAL d   1     -23.345 -22.922 -16.547  0.00  0.00     0.110 C 
ATOM     27  H14 MAL d   1     -22.921 -20.934 -15.902  0.00  0.00     0.091 H 
ATOM     28  C1' MAL d   1     -24.138 -23.197 -17.841  0.00  0.00     0.156 C 
ATOM     29  H13 MAL d   1     -22.690 -23.800 -16.450  0.00  0.00     0.094 H 
ATOM     30  O5' MAL d   1     -23.938 -22.333 -18.957  0.00  0.00    -0.349 OA
ATOM     31  H12 MAL d   1     -23.748 -24.160 -18.201  0.00  0.00     0.133 H 
ATOM     32  C5' MAL d   1     -23.288 -21.085 -18.694  0.00  0.00     0.089 C 
ATOM     33  H16 MAL d   1     -23.994 -20.414 -18.184  0.00  0.00     0.090 H 
ATOM     34  H15 MAL d   1     -21.407 -21.987 -18.301  0.00  0.00     0.091 H 
BRANCH  25  35
ATOM     35  O3' MAL d   1     -21.278 -22.180 -15.708  0.00  0.00    -0.390 OA
ATOM     36  H21 MAL d   1     -20.675 -21.453 -15.605  0.00  0.00     0.210 HD
ENDBRANCH  25  35
BRANCH  26  37
ATOM     37  O2' MAL d   1     -24.160 -22.909 -15.404  0.00  0.00    -0.388 OA
ATOM     38  H20 MAL d   1     -24.759 -23.645 -15.435  0.00  0.00     0.210 HD
ENDBRANCH  26  37
BRANCH  28  39
ATOM     39  O1' MAL d   1     -25.503 -23.461 -17.489  0.00  0.00    -0.369 OA
ATOM     40  H19 MAL d   1     -25.529 -24.043 -16.738  0.00  0.00     0.212 HD
ENDBRANCH  28  39
BRANCH  32  41
ATOM     41  C6' MAL d   1     -22.895 -20.482 -20.049  0.00  0.00     0.043 C 
ATOM     42  H17 MAL d   1     -21.804 -20.346 -20.084  0.00  0.00     0.078 H 
ATOM     43  H18 MAL d   1     -23.390 -19.507 -20.171  0.00  0.00     0.078 H 
BRANCH  41  44
ATOM     44  O6' MAL d   1     -23.301 -21.360 -21.118  0.00  0.00    -0.398 OA
ATOM     45  H22 MAL d   1     -23.053 -20.978 -21.952  0.00  0.00     0.209 HD
ENDBRANCH  41  44
ENDBRANCH  32  41
ENDBRANCH   1  24
TORSDOF 12
