REMARK  14 active torsions:
REMARK  status: ('A' for Active; 'I' for Inactive)
REMARK    1  A    between atoms: CAW_1  and  OAY_2 
REMARK    2  A    between atoms: CAW_1  and  CAR_3 
REMARK    3  A    between atoms: CAR_3  and  CAQ_4 
REMARK    4  A    between atoms: CAQ_4  and  CAP_5 
REMARK    5  A    between atoms: CAP_5  and  CAO_6 
REMARK    6  A    between atoms: CAN_7  and  CAF_8 
REMARK    7  A    between atoms: CAF_8  and  CAD_9 
REMARK    8  A    between atoms: CAE_15  and  CAG_16 
REMARK    9  A    between atoms: CAH_17  and  CAI_18 
REMARK   10  A    between atoms: CAI_18  and  CAJ_19 
REMARK   11  A    between atoms: CAJ_19  and  CAK_20 
REMARK   12  A    between atoms: CAK_20  and  CAL_21 
REMARK   13  A    between atoms: CAL_21  and  CAM_22 
REMARK   14  A    between atoms: CAM_22  and  CAV_23 
ROOT
ATOM      1  CAD U46 d   1      -5.463  -1.028  21.247  0.00  0.00    -0.036 C 
ATOM      2  CAC U46 d   1      -4.516  -0.703  22.409  0.00  0.00    -0.016 A 
ATOM      3  CAB U46 d   1      -4.088   0.733  22.309  0.00  0.00     0.003 A 
ATOM      4  CAT U46 d   1      -3.073  -0.604  21.939  0.00  0.00     0.049 A 
ATOM      5  OAS U46 d   1      -2.790   0.432  20.882  0.00  0.00    -0.379 OA
ATOM      6  CAA U46 d   1      -4.143   1.144  20.831  0.00  0.00     0.052 C 
ATOM      7  CAE U46 d   1      -5.177   0.154  20.299  0.00  0.00    -0.008 C 
ATOM      8  H14 U46 d   1      -6.511  -1.014  21.582  0.00  0.00     0.042 H 
ATOM      9  H15 U46 d   1      -4.787  -1.177  23.364  0.00  0.00     0.045 H 
ATOM     10  H16 U46 d   1      -4.086   1.485  23.112  0.00  0.00     0.048 H 
ATOM     11  H17 U46 d   1      -2.257  -1.196  22.378  0.00  0.00     0.084 H 
ATOM     12  H18 U46 d   1      -4.229   2.188  20.497  0.00  0.00     0.085 H 
ATOM     13  H19 U46 d   1      -4.729  -0.287  19.397  0.00  0.00     0.050 H 
ENDROOT
BRANCH   7  14
ATOM     14  CAG U46 d   1      -6.465   0.839  19.841  0.00  0.00    -0.100 C 
ATOM     15  CAH U46 d   1      -7.036   0.470  18.584  0.00  0.00    -0.106 C 
ATOM     16  H21 U46 d   1      -6.556  -0.264  17.938  0.00  0.00     0.076 H 
ATOM     17  H20 U46 d   1      -6.940   1.596  20.463  0.00  0.00     0.077 H 
BRANCH  15  18
ATOM     18  CAI U46 d   1      -8.340   1.143  18.184  0.00  0.00    -0.050 C 
ATOM     19  H22 U46 d   1      -8.269   2.208  18.448  0.00  0.00     0.038 H 
ATOM     20  H23 U46 d   1      -9.155   0.677  18.757  0.00  0.00     0.038 H 
BRANCH  18  21
ATOM     21  CAJ U46 d   1      -8.685   1.045  16.712  0.00  0.00    -0.062 C 
ATOM     22  H24 U46 d   1      -8.573  -0.005  16.405  0.00  0.00     0.033 H 
ATOM     23  H25 U46 d   1      -7.972   1.668  16.153  0.00  0.00     0.033 H 
BRANCH  21  24
ATOM     24  CAK U46 d   1     -10.098   1.497  16.343  0.00  0.00    -0.065 C 
ATOM     25  H26 U46 d   1     -10.213   2.532  16.698  0.00  0.00     0.033 H 
ATOM     26  H27 U46 d   1     -10.801   0.844  16.881  0.00  0.00     0.033 H 
BRANCH  24  27
ATOM     27  CAL U46 d   1     -10.496   1.476  14.869  0.00  0.00    -0.065 C 
ATOM     28  H28 U46 d   1     -11.577   1.672  14.822  0.00  0.00     0.033 H 
ATOM     29  H29 U46 d   1     -10.290   0.464  14.491  0.00  0.00     0.033 H 
BRANCH  27  30
ATOM     30  CAM U46 d   1      -9.818   2.458  13.919  0.00  0.00    -0.069 C 
ATOM     31  H30 U46 d   1      -8.732   2.297  13.989  0.00  0.00     0.032 H 
ATOM     32  H31 U46 d   1     -10.061   3.476  14.259  0.00  0.00     0.032 H 
BRANCH  30  33
ATOM     33  CAV U46 d   1     -10.213   2.352  12.438  0.00  0.00    -0.077 C 
ATOM     34  H32 U46 d   1      -9.662   3.106  11.857  0.00  0.00     0.027 H 
ATOM     35  H33 U46 d   1     -11.294   2.526  12.333  0.00  0.00     0.027 H 
ATOM     36  H34 U46 d   1      -9.966   1.348  12.063  0.00  0.00     0.027 H 
ENDBRANCH  30  33
ENDBRANCH  27  30
ENDBRANCH  24  27
ENDBRANCH  21  24
ENDBRANCH  18  21
ENDBRANCH  15  18
ENDBRANCH   7  14
BRANCH   1  37
ATOM     37  CAF U46 d   1      -5.177  -2.396  20.607  0.00  0.00    -0.046 C 
ATOM     38  H12 U46 d   1      -5.866  -2.573  19.768  0.00  0.00     0.039 H 
ATOM     39  H13 U46 d   1      -4.139  -2.435  20.244  0.00  0.00     0.039 H 
BRANCH  37  40
ATOM     40  CAN U46 d   1      -5.394  -3.454  21.704  0.00  0.00    -0.106 C 
ATOM     41  CAO U46 d   1      -4.549  -4.594  21.957  0.00  0.00    -0.107 C 
ATOM     42  H10 U46 d   1      -4.760  -5.303  22.756  0.00  0.00     0.076 H 
ATOM     43  H11 U46 d   1      -6.264  -3.330  22.347  0.00  0.00     0.076 H 
BRANCH  41  44
ATOM     44  CAP U46 d   1      -3.334  -4.750  21.033  0.00  0.00    -0.050 C 
ATOM     45  H8  U46 d   1      -3.635  -5.241  20.096  0.00  0.00     0.038 H 
ATOM     46  H9  U46 d   1      -2.905  -3.763  20.808  0.00  0.00     0.038 H 
BRANCH  44  47
ATOM     47  CAQ U46 d   1      -2.303  -5.613  21.768  0.00  0.00    -0.060 C 
ATOM     48  H6  U46 d   1      -2.788  -6.517  22.166  0.00  0.00     0.033 H 
ATOM     49  H7  U46 d   1      -1.498  -5.903  21.077  0.00  0.00     0.033 H 
BRANCH  47  50
ATOM     50  CAR U46 d   1      -1.727  -4.784  22.918  0.00  0.00    -0.045 C 
ATOM     51  H4  U46 d   1      -1.296  -3.855  22.516  0.00  0.00     0.036 H 
ATOM     52  H5  U46 d   1      -2.531  -4.539  23.628  0.00  0.00     0.036 H 
BRANCH  50  53
ATOM     53  CAW U46 d   1      -0.628  -5.581  23.648  0.00  0.00     0.017 C 
ATOM     54  H1  U46 d   1      -0.954  -6.630  23.699  0.00  0.00     0.073 H 
ATOM     55  H2  U46 d   1       0.291  -5.511  23.047  0.00  0.00     0.073 H 
BRANCH  53  56
ATOM     56  OAY U46 d   1      -0.320  -5.172  24.938  0.00  0.00    -0.401 OA
ATOM     57  H3  U46 d   1      -0.020  -4.271  24.920  0.00  0.00     0.209 HD
ENDBRANCH  53  56
ENDBRANCH  50  53
ENDBRANCH  47  50
ENDBRANCH  44  47
ENDBRANCH  41  44
ENDBRANCH  37  40
ENDBRANCH   1  37
TORSDOF 14
