REMARK  13 active torsions:
REMARK  status: ('A' for Active; 'I' for Inactive)
REMARK    1  A    between atoms: OAE_5  and  NAB_2 
REMARK    2  A    between atoms: CAF_6  and  OAE_5 
REMARK    3  A    between atoms: CAG_7  and  CAF_6 
REMARK    4  A    between atoms: CAH_8  and  CAG_7 
REMARK    5  A    between atoms: CAI_9  and  CAH_8 
REMARK    6  A    between atoms: OAJ_10  and  CAI_9 
REMARK    7  A    between atoms: CAK_11  and  OAJ_10 
REMARK    8  A    between atoms: CAL_12  and  CAK_11 
REMARK    9  A    between atoms: SAO_15  and  CAN_14 
REMARK   10  A    between atoms: NAP_16  and  SAO_15 
REMARK   11  A    between atoms: CAQ_17  and  NAP_16 
REMARK   12  A    between atoms: CAZ_26  and  SBA_27 
REMARK   13  A    between atoms: SBA_27  and  NBB_28 
ROOT
ATOM      1  CAL C1H d   1      -4.330   8.660  10.136  0.00  0.00     0.041 A 
ATOM      2  CAM C1H d   1      -4.213   7.681  11.146  0.00  0.00    -0.044 A 
ATOM      3  CAN C1H d   1      -5.354   7.123  11.741  0.00  0.00     0.080 A 
ATOM      4  CAU C1H d   1      -5.595   9.098   9.713  0.00  0.00    -0.067 A 
ATOM      5  CAV C1H d   1      -6.740   8.566  10.295  0.00  0.00    -0.081 A 
ATOM      6  CAW C1H d   1      -6.604   7.605  11.304  0.00  0.00    -0.060 A 
ATOM      7  H9  C1H d   1      -3.229   7.356  11.466  0.00  0.00     0.087 H 
ATOM      8  H11 C1H d   1      -5.679   9.848   8.935  0.00  0.00     0.085 H 
ATOM      9  H12 C1H d   1      -7.723   8.890   9.973  0.00  0.00     0.083 H 
ATOM     10  H13 C1H d   1      -7.501   7.214  11.770  0.00  0.00     0.085 H 
ENDROOT
BRANCH   1  11
ATOM     11  CAK C1H d   1      -3.098   9.236   9.476  0.00  0.00     0.293 C 
ATOM     12  OAC C1H d   1      -2.947   9.113   8.264  0.00  0.00    -0.259 OA
BRANCH  11  13
ATOM     13  OAJ C1H d   1      -2.082   9.945  10.257  0.00  0.00    -0.318 OA
BRANCH  13  14
ATOM     14  CAI C1H d   1      -1.009   9.247  10.891  0.00  0.00     0.029 C 
ATOM     15  H7  C1H d   1      -0.901   8.254  10.430  0.00  0.00     0.075 H 
ATOM     16  H8  C1H d   1      -0.078   9.817  10.757  0.00  0.00     0.075 H 
BRANCH  14  17
ATOM     17  CAH C1H d   1      -1.286   9.080  12.390  0.00  0.00    -0.043 C 
ATOM     18  H5  C1H d   1      -1.942   9.899  12.721  0.00  0.00     0.036 H 
ATOM     19  H6  C1H d   1      -1.793   8.117  12.550  0.00  0.00     0.036 H 
BRANCH  17  20
ATOM     20  CAG C1H d   1      -0.009   9.106  13.227  0.00  0.00    -0.041 C 
ATOM     21  H3  C1H d   1       0.455  10.099  13.133  0.00  0.00     0.036 H 
ATOM     22  H4  C1H d   1      -0.272   8.922  14.279  0.00  0.00     0.036 H 
BRANCH  20  23
ATOM     23  CAF C1H d   1       1.001   8.046  12.780  0.00  0.00     0.052 C 
ATOM     24  H1  C1H d   1       1.413   7.554  13.673  0.00  0.00     0.078 H 
ATOM     25  H2  C1H d   1       0.479   7.302  12.160  0.00  0.00     0.078 H 
BRANCH  23  26
ATOM     26  OAE C1H d   1       2.086   8.600  12.018  0.00  0.00    -0.221 OA
BRANCH  26  27
ATOM     27  NAB C1H d   1       3.092   9.357  12.558  0.00  0.00     0.004 N 
ATOM     28  OAA C1H d   1       4.064   9.906  11.714  0.00  0.00    -0.511 OA
ATOM     29  ONA C1H d   1       3.163   9.575  13.763  0.00  0.00    -0.511 OA
ENDBRANCH  26  27
ENDBRANCH  23  26
ENDBRANCH  20  23
ENDBRANCH  17  20
ENDBRANCH  14  17
ENDBRANCH  13  14
ENDBRANCH  11  13
ENDBRANCH   1  11
BRANCH   3  30
ATOM     30  SAO C1H d   1      -5.351   6.017  12.926  0.00  0.00     0.264 S 
ATOM     31  OAD C1H d   1      -6.574   5.282  12.782  0.00  0.00    -0.200 OA
ATOM     32  OAX C1H d   1      -5.479   6.790  14.128  0.00  0.00    -0.200 OA
BRANCH  30  33
ATOM     33  NAP C1H d   1      -4.191   5.033  13.193  0.00  0.00    -0.257 N 
ATOM     34  H10 C1H d   1      -3.314   5.192  12.739  0.00  0.00     0.181 HD
BRANCH  33  35
ATOM     35  CAQ C1H d   1      -4.315   3.926  14.045  0.00  0.00     0.204 A 
ATOM     36  NAR C1H d   1      -3.309   3.036  14.348  0.00  0.00    -0.122 NA
ATOM     37  NAS C1H d   1      -3.704   1.988  15.252  0.00  0.00    -0.126 NA
ATOM     38  CAZ C1H d   1      -5.012   2.102  15.659  0.00  0.00     0.237 A 
ATOM     39  SAY C1H d   1      -5.753   3.466  14.888  0.00  0.00    -0.015 SA
BRANCH  38  40
ATOM     40  SBA C1H d   1      -5.843   1.066  16.712  0.00  0.00     0.282 S 
ATOM     41  OAT C1H d   1      -5.316   1.023  18.124  0.00  0.00    -0.199 OA
ATOM     42  OBC C1H d   1      -7.257   1.506  16.762  0.00  0.00    -0.199 OA
BRANCH  40  43
ATOM     43  NBB C1H d   1      -5.712  -0.301  16.166  0.00  0.00    -0.323 N 
ATOM     44  H14 C1H d   1      -6.007  -0.496  15.231  0.00  0.00     0.169 HD
ATOM     45  H15 C1H d   1      -5.328  -1.031  16.732  0.00  0.00     0.169 HD
ENDBRANCH  40  43
ENDBRANCH  38  40
ENDBRANCH  33  35
ENDBRANCH  30  33
ENDBRANCH   3  30
TORSDOF 13
