REMARK  17 active torsions:
REMARK  status: ('A' for Active; 'I' for Inactive)
REMARK    1  A    between atoms: N_1  and  CA_2 
REMARK    2  A    between atoms: CA_2  and  C_3 
REMARK    3  A    between atoms: CA_2  and  CB_5 
REMARK       I    between atoms: C_3  and  N_12 
REMARK    4  A    between atoms: CB_5  and  CG_6 
REMARK    5  A    between atoms: CG_6  and  CD_7 
REMARK    6  A    between atoms: CD_7  and  NE_8 
REMARK       I    between atoms: NE_8  and  CZ_9 
REMARK       I    between atoms: CZ_9  and  NH1_10 
REMARK    7  A    between atoms: N_12  and  CA_13 
REMARK    8  A    between atoms: CA_13  and  C_14 
REMARK    9  A    between atoms: CA_13  and  CB_16 
REMARK       I    between atoms: C_14  and  N_21 
REMARK   10  A    between atoms: CB_16  and  CG_17 
REMARK   11  A    between atoms: CG_17  and  CD_18 
REMARK   12  A    between atoms: N_21  and  CA_22 
REMARK   13  A    between atoms: CA_22  and  C_23 
REMARK   14  A    between atoms: CA_22  and  CB_25 
REMARK       I    between atoms: C_23  and  N_26 
REMARK   15  A    between atoms: N_26  and  CA_27 
REMARK   16  A    between atoms: CA_27  and  C_28 
REMARK   17  A    between atoms: CA_27  and  CB_30 
ROOT
ATOM      1  CA  GLU d   1     -42.514  10.573  -8.269  0.00  0.00     0.090 C 
ATOM      2  H17 GLU d   1     -41.588  10.036  -8.523  0.00  0.00     0.087 H 
ENDROOT
BRANCH   1   3
ATOM      3  N   GLU d   1     -42.184  11.701  -7.419  0.00  0.00    -0.346 N 
ATOM      4  C   ARG d   1     -41.125  11.681  -6.619  0.00  0.00     0.248 C 
ATOM      5  O   ARG d   1     -40.472  10.665  -6.406  0.00  0.00    -0.271 OA
ATOM      6  H16 GLU d   1     -42.768  12.513  -7.436  0.00  0.00     0.163 HD
BRANCH   4   7
ATOM      7  CA  ARG d   1     -40.761  13.004  -5.963  0.00  0.00     0.176 C 
ATOM      8  H4  ARG d   1     -41.683  13.480  -5.598  0.00  0.00     0.099 H 
BRANCH   7   9
ATOM      9  N   ARG d   1     -39.844  12.810  -4.797  0.00  0.00    -0.067 N 
ATOM     10  H1  ARG d   1     -39.625  13.705  -4.389  0.00  0.00     0.275 HD
ATOM     11  H2  ARG d   1     -38.994  12.366  -5.108  0.00  0.00     0.275 HD
ATOM     12  H3  ARG d   1     -40.295  12.228  -4.108  0.00  0.00     0.275 HD
ENDBRANCH   7   9
BRANCH   7  13
ATOM     13  CB  ARG d   1     -40.121  13.913  -7.020  0.00  0.00    -0.029 C 
ATOM     14  H5  ARG d   1     -40.865  14.091  -7.810  0.00  0.00     0.036 H 
ATOM     15  H6  ARG d   1     -39.255  13.383  -7.444  0.00  0.00     0.036 H 
BRANCH  13  16
ATOM     16  CG  ARG d   1     -39.646  15.252  -6.520  0.00  0.00    -0.047 C 
ATOM     17  H7  ARG d   1     -39.052  15.731  -7.312  0.00  0.00     0.035 H 
ATOM     18  H8  ARG d   1     -39.014  15.091  -5.634  0.00  0.00     0.035 H 
BRANCH  16  19
ATOM     19  CD  ARG d   1     -40.796  16.191  -6.136  0.00  0.00     0.009 C 
ATOM     20  H9  ARG d   1     -41.187  15.902  -5.149  0.00  0.00     0.064 H 
ATOM     21  H10 ARG d   1     -41.597  16.110  -6.886  0.00  0.00     0.064 H 
BRANCH  19  22
ATOM     22  NE  ARG d   1     -40.322  17.575  -6.082  0.00  0.00    -0.227 N 
ATOM     23  CZ  ARG d   1     -39.524  18.062  -5.135  0.00  0.00     0.665 C 
ATOM     24  NH1 ARG d   1     -39.144  19.333  -5.180  0.00  0.00    -0.235 N 
ATOM     25  NH2 ARG d   1     -39.109  17.289  -4.134  0.00  0.00    -0.235 N 
ATOM     26  H12 ARG d   1     -38.526  19.712  -4.448  0.00  0.00     0.174 HD
ATOM     27  H13 ARG d   1     -39.467  19.940  -5.947  0.00  0.00     0.174 HD
ATOM     28  H14 ARG d   1     -39.399  16.302  -4.091  0.00  0.00     0.174 HD
ATOM     29  H15 ARG d   1     -38.498  17.678  -3.402  0.00  0.00     0.174 HD
ATOM     30  H11 ARG d   1     -40.627  18.216  -6.828  0.00  0.00     0.177 HD
ENDBRANCH  19  22
ENDBRANCH  16  19
ENDBRANCH  13  16
ENDBRANCH   7  13
ENDBRANCH   4   7
ENDBRANCH   1   3
BRANCH   1  31
ATOM     31  C   GLU d   1     -43.145  11.108  -9.536  0.00  0.00     0.241 C 
ATOM     32  O   GLU d   1     -44.139  11.843  -9.493  0.00  0.00    -0.271 OA
ATOM     33  N   ALA d   1     -42.559  10.734 -10.662  0.00  0.00    -0.346 N 
ATOM     34  H22 ALA d   1     -41.725  10.183 -10.622  0.00  0.00     0.163 HD
BRANCH  33  35
ATOM     35  CA  ALA d   1     -43.105  11.109 -11.955  0.00  0.00     0.086 C 
ATOM     36  H23 ALA d   1     -44.150  11.428 -11.827  0.00  0.00     0.086 H 
BRANCH  35  37
ATOM     37  C   ALA d   1     -43.068   9.899 -12.864  0.00  0.00     0.240 C 
ATOM     38  O   ALA d   1     -42.027   9.595 -13.448  0.00  0.00    -0.271 OA
ATOM     39  N   ALA d   1     -44.199   9.199 -12.952  0.00  0.00    -0.345 N 
ATOM     40  H27 ALA d   1     -44.985   9.492 -12.408  0.00  0.00     0.163 HD
BRANCH  39  41
ATOM     41  CA  ALA d   1     -44.343   8.019 -13.810  0.00  0.00     0.093 C 
ATOM     42  H28 ALA d   1     -43.602   7.273 -13.485  0.00  0.00     0.089 H 
BRANCH  41  43
ATOM     43  C   ALA d   1     -44.073   8.340 -15.278  0.00  0.00     0.196 C 
ATOM     44  O   ALA d   1     -44.468   9.386 -15.796  0.00  0.00    -0.646 OA
ATOM     45  OXT ALA d   1     -43.446   7.553 -15.984  0.00  0.00    -0.646 OA
ENDBRANCH  41  43
BRANCH  41  46
ATOM     46  CB  ALA d   1     -45.735   7.410 -13.653  0.00  0.00    -0.048 C 
ATOM     47  H29 ALA d   1     -45.824   6.527 -14.303  0.00  0.00     0.030 H 
ATOM     48  H30 ALA d   1     -46.495   8.153 -13.937  0.00  0.00     0.030 H 
ATOM     49  H31 ALA d   1     -45.888   7.111 -12.606  0.00  0.00     0.030 H 
ENDBRANCH  41  46
ENDBRANCH  39  41
ENDBRANCH  35  37
BRANCH  35  50
ATOM     50  CB  ALA d   1     -42.307  12.273 -12.552  0.00  0.00    -0.049 C 
ATOM     51  H24 ALA d   1     -42.732  12.545 -13.530  0.00  0.00     0.030 H 
ATOM     52  H25 ALA d   1     -41.257  11.970 -12.680  0.00  0.00     0.030 H 
ATOM     53  H26 ALA d   1     -42.359  13.139 -11.875  0.00  0.00     0.030 H 
ENDBRANCH  35  50
ENDBRANCH  33  35
ENDBRANCH   1  31
BRANCH   1  54
ATOM     54  CB  GLU d   1     -43.469   9.595  -7.578  0.00  0.00    -0.029 C 
ATOM     55  H18 GLU d   1     -44.485  10.014  -7.619  0.00  0.00     0.037 H 
ATOM     56  H19 GLU d   1     -43.158   9.489  -6.528  0.00  0.00     0.037 H 
BRANCH  54  57
ATOM     57  CG  GLU d   1     -43.494   8.196  -8.222  0.00  0.00     0.018 C 
ATOM     58  H20 GLU d   1     -43.850   7.476  -7.471  0.00  0.00     0.049 H 
ATOM     59  H21 GLU d   1     -42.469   7.935  -8.523  0.00  0.00     0.049 H 
BRANCH  57  60
ATOM     60  CD  GLU d   1     -44.397   8.094  -9.453  0.00  0.00     0.172 C 
ATOM     61  OE1 GLU d   1     -45.474   8.721  -9.462  0.00  0.00    -0.648 OA
ATOM     62  OE2 GLU d   1     -44.038   7.368 -10.408  0.00  0.00    -0.648 OA
ENDBRANCH  57  60
ENDBRANCH  54  57
ENDBRANCH   1  54
TORSDOF 17
