REMARK  3 active torsions:
REMARK  status: ('A' for Active; 'I' for Inactive)
REMARK    1  A    between atoms: C3_3  and  C17_11 
REMARK    2  A    between atoms: C8_6  and  C11_8 
REMARK    3  A    between atoms: C11_8  and  N12_9 
ROOT
ATOM      1  F1  JLZ d   1      26.900  14.845  19.101  0.00  0.00    -0.206 F 
ATOM      2  C2  JLZ d   1      27.835  14.452  18.238  0.00  0.00     0.123 A 
ATOM      3  C3  JLZ d   1      28.580  13.302  18.500  0.00  0.00    -0.023 A 
ATOM      4  C4  JLZ d   1      29.555  12.902  17.586  0.00  0.00    -0.073 A 
ATOM      5  C6  JLZ d   1      29.792  13.637  16.425  0.00  0.00    -0.069 A 
ATOM      6  C8  JLZ d   1      29.049  14.788  16.160  0.00  0.00     0.010 A 
ATOM      7  C9  JLZ d   1      28.069  15.190  17.077  0.00  0.00    -0.032 A 
ATOM      8  H1  JLZ d   1      30.136  12.008  17.781  0.00  0.00     0.084 H 
ATOM      9  H2  JLZ d   1      30.555  13.313  15.727  0.00  0.00     0.085 H 
ATOM     10  H3  JLZ d   1      27.487  16.083  16.883  0.00  0.00     0.089 H 
ENDROOT
BRANCH   6  11
ATOM     11  C11 JLZ d   1      29.335  15.559  14.889  0.00  0.00     0.102 C 
ATOM     12  N14 JLZ d   1      29.955  14.993  13.885  0.00  0.00    -0.385 N 
ATOM     13  H6  JLZ d   1      30.251  14.009  13.951  0.00  0.00     0.157 HD
ATOM     14  H7  JLZ d   1      30.147  15.532  13.028  0.00  0.00     0.157 HD
BRANCH  11  15
ATOM     15  N12 JLZ d   1      28.945  16.772  14.865  0.00  0.00    -0.385 N 
ATOM     16  H4  JLZ d   1      29.110  17.350  14.028  0.00  0.00     0.157 HD
ATOM     17  H5  JLZ d   1      28.465  17.175  15.682  0.00  0.00     0.157 HD
ENDBRANCH  11  15
ENDBRANCH   6  11
BRANCH   3  18
ATOM     18  C17 JLZ d   1      28.314  12.501  19.778  0.00  0.00    -0.048 C 
ATOM     19  H8  JLZ d   1      27.512  12.986  20.354  0.00  0.00     0.033 H 
ATOM     20  H9  JLZ d   1      29.231  12.464  20.385  0.00  0.00     0.033 H 
ATOM     21  H10 JLZ d   1      28.008  11.478  19.513  0.00  0.00     0.033 H 
ENDBRANCH   3  18
TORSDOF 3
