REMARK  12 active torsions:
REMARK  status: ('A' for Active; 'I' for Inactive)
REMARK       I    between atoms: C1_1  and  N2_3 
REMARK       I    between atoms: C1_1  and  N9_14 
REMARK    1  A    between atoms: N2_3  and  C3_4 
REMARK    2  A    between atoms: C6_7  and  O41_31 
REMARK    3  A    between atoms: N9_14  and  C10_15 
REMARK    4  A    between atoms: C13_17  and  C16_24 
REMARK    5  A    between atoms: N11_19  and  C15_20 
REMARK    6  A    between atoms: C16_24  and  C17_21 
REMARK    7  A    between atoms: C16_24  and  C18_22 
REMARK    8  A    between atoms: C16_24  and  C19_23 
REMARK    9  A    between atoms: C22_27  and  C25_30 
REMARK   10  A    between atoms: O41_31  and  C42_32 
REMARK   11  A    between atoms: C42_32  and  C43_33 
REMARK   12  A    between atoms: C43_33  and  N44_34 
ROOT
ATOM      1  C1  B96 d   1      55.109  47.746  10.150  0.00  0.00     0.326 C 
ATOM      2  O1  B96 d   1      53.993  48.180   9.941  0.00  0.00    -0.247 OA
ATOM      3  N2  B96 d   1      55.860  48.236  11.164  0.00  0.00    -0.308 N 
ATOM      4  N9  B96 d   1      55.648  46.777   9.386  0.00  0.00    -0.293 N 
ATOM      5  H1  B96 d   1      56.797  47.901  11.261  0.00  0.00     0.170 HD
ATOM      6  H8  B96 d   1      56.593  46.518   9.587  0.00  0.00     0.172 HD
ENDROOT
BRANCH   3   7
ATOM      7  C3  B96 d   1      55.396  49.190  12.089  0.00  0.00     0.047 A 
ATOM      8  C4  B96 d   1      56.118  50.355  12.404  0.00  0.00     0.004 A 
ATOM      9  C5  B96 d   1      55.579  51.255  13.375  0.00  0.00     0.010 A 
ATOM     10  C31 B96 d   1      57.338  50.656  11.770  0.00  0.00    -0.070 A 
ATOM     11  C6  B96 d   1      54.343  50.959  14.015  0.00  0.00     0.080 A 
ATOM     12  C34 B96 d   1      56.296  52.430  13.680  0.00  0.00    -0.069 A 
ATOM     13  C7  B96 d   1      53.676  49.800  13.698  0.00  0.00    -0.048 A 
ATOM     14  C8  B96 d   1      54.204  48.931  12.750  0.00  0.00    -0.054 A 
ATOM     15  H6  B96 d   1      52.738  49.563  14.187  0.00  0.00     0.087 H 
ATOM     16  H7  B96 d   1      53.666  48.019  12.519  0.00  0.00     0.087 H 
ATOM     17  C33 B96 d   1      57.478  52.671  13.047  0.00  0.00    -0.082 A 
ATOM     18  H5  B96 d   1      55.911  53.133  14.410  0.00  0.00     0.085 H 
ATOM     19  C32 B96 d   1      57.995  51.793  12.092  0.00  0.00    -0.082 A 
ATOM     20  H4  B96 d   1      58.033  53.570  13.291  0.00  0.00     0.083 H 
ATOM     21  H3  B96 d   1      58.934  52.026  11.603  0.00  0.00     0.083 H 
ATOM     22  H2  B96 d   1      57.748  49.980  11.028  0.00  0.00     0.084 H 
BRANCH  11  23
ATOM     23  O41 B96 d   1      53.868  51.836  14.947  0.00  0.00    -0.349 OA
BRANCH  23  24
ATOM     24  C42 B96 d   1      52.507  51.603  15.347  0.00  0.00     0.049 C 
ATOM     25  H26 B96 d   1      52.449  50.707  15.982  0.00  0.00     0.077 H 
ATOM     26  H27 B96 d   1      51.872  51.465  14.460  0.00  0.00     0.077 H 
BRANCH  24  27
ATOM     27  C43 B96 d   1      52.047  52.836  16.136  0.00  0.00     0.103 C 
ATOM     28  H28 B96 d   1      52.935  53.392  16.473  0.00  0.00     0.079 H 
ATOM     29  H29 B96 d   1      51.471  52.501  17.011  0.00  0.00     0.079 H 
BRANCH  27  30
ATOM     30  N44 B96 d   1      51.204  53.735  15.330  0.00  0.00    -0.065 N 
ATOM     31  C45 B96 d   1      52.014  54.310  14.239  0.00  0.00     0.103 C 
ATOM     32  C46 B96 d   1      51.138  55.266  13.422  0.00  0.00     0.042 C 
ATOM     33  H31 B96 d   1      52.385  53.503  13.590  0.00  0.00     0.079 H 
ATOM     34  H32 B96 d   1      52.866  54.861  14.663  0.00  0.00     0.079 H 
ATOM     35  O47 B96 d   1      50.784  56.355  14.275  0.00  0.00    -0.388 OA
ATOM     36  H33 B96 d   1      50.231  54.746  13.080  0.00  0.00     0.076 H 
ATOM     37  H34 B96 d   1      51.698  55.637  12.551  0.00  0.00     0.076 H 
ATOM     38  C48 B96 d   1      49.984  55.871  15.371  0.00  0.00     0.042 C 
ATOM     39  C49 B96 d   1      50.774  54.845  16.198  0.00  0.00     0.103 C 
ATOM     40  H35 B96 d   1      49.076  55.394  14.974  0.00  0.00     0.076 H 
ATOM     41  H36 B96 d   1      49.703  56.717  16.016  0.00  0.00     0.076 H 
ATOM     42  H37 B96 d   1      51.658  55.331  16.636  0.00  0.00     0.079 H 
ATOM     43  H38 B96 d   1      50.135  54.454  17.003  0.00  0.00     0.079 H 
ATOM     44  H30 B96 d   1      50.409  53.239  14.959  0.00  0.00     0.280 HD
ENDBRANCH  27  30
ENDBRANCH  24  27
ENDBRANCH  23  24
ENDBRANCH  11  23
ENDBRANCH   3   7
BRANCH   4  45
ATOM     45  C10 B96 d   1      55.016  46.095   8.337  0.00  0.00     0.135 A 
ATOM     46  C14 B96 d   1      54.240  46.587   7.327  0.00  0.00    -0.012 A 
ATOM     47  C13 B96 d   1      53.839  45.507   6.520  0.00  0.00     0.066 A 
ATOM     48  H9  B96 d   1      53.977  47.633   7.173  0.00  0.00     0.092 H 
ATOM     49  N12 B96 d   1      54.343  44.417   7.011  0.00  0.00    -0.169 NA
ATOM     50  N11 B96 d   1      55.082  44.743   8.150  0.00  0.00    -0.217 N 
BRANCH  47  51
ATOM     51  C16 B96 d   1      52.967  45.550   5.289  0.00  0.00    -0.005 C 
BRANCH  51  52
ATOM     52  C17 B96 d   1      53.832  45.991   4.108  0.00  0.00    -0.064 C 
ATOM     53  H10 B96 d   1      53.217  46.030   3.197  0.00  0.00     0.028 H 
ATOM     54  H11 B96 d   1      54.652  45.272   3.966  0.00  0.00     0.028 H 
ATOM     55  H12 B96 d   1      54.249  46.988   4.311  0.00  0.00     0.028 H 
ENDBRANCH  51  52
BRANCH  51  56
ATOM     56  C18 B96 d   1      52.384  44.158   5.034  0.00  0.00    -0.064 C 
ATOM     57  H13 B96 d   1      51.765  43.857   5.892  0.00  0.00     0.028 H 
ATOM     58  H14 B96 d   1      53.203  43.436   4.901  0.00  0.00     0.028 H 
ATOM     59  H15 B96 d   1      51.764  44.181   4.125  0.00  0.00     0.028 H 
ENDBRANCH  51  56
BRANCH  51  60
ATOM     60  C19 B96 d   1      51.803  46.528   5.491  0.00  0.00    -0.064 C 
ATOM     61  H16 B96 d   1      52.200  47.537   5.676  0.00  0.00     0.028 H 
ATOM     62  H17 B96 d   1      51.200  46.207   6.353  0.00  0.00     0.028 H 
ATOM     63  H18 B96 d   1      51.174  46.541   4.588  0.00  0.00     0.028 H 
ENDBRANCH  51  60
ENDBRANCH  47  51
BRANCH  50  64
ATOM     64  C15 B96 d   1      55.750  43.776   8.909  0.00  0.00     0.060 A 
ATOM     65  C20 B96 d   1      56.431  42.767   8.230  0.00  0.00    -0.055 A 
ATOM     66  C21 B96 d   1      57.079  41.779   8.938  0.00  0.00    -0.075 A 
ATOM     67  H19 B96 d   1      56.451  42.760   7.146  0.00  0.00     0.087 H 
ATOM     68  C22 B96 d   1      57.034  41.790  10.327  0.00  0.00    -0.062 A 
ATOM     69  H20 B96 d   1      57.620  40.998   8.415  0.00  0.00     0.084 H 
ATOM     70  C23 B96 d   1      56.345  42.789  11.004  0.00  0.00    -0.075 A 
ATOM     71  C24 B96 d   1      55.695  43.786  10.295  0.00  0.00    -0.055 A 
ATOM     72  H21 B96 d   1      56.316  42.788  12.088  0.00  0.00     0.084 H 
ATOM     73  H22 B96 d   1      55.150  44.564  10.817  0.00  0.00     0.087 H 
BRANCH  68  74
ATOM     74  C25 B96 d   1      57.756  40.712  11.104  0.00  0.00    -0.051 C 
ATOM     75  H23 B96 d   1      58.239  40.016  10.403  0.00  0.00     0.033 H 
ATOM     76  H24 B96 d   1      57.034  40.163  11.727  0.00  0.00     0.033 H 
ATOM     77  H25 B96 d   1      58.520  41.173  11.748  0.00  0.00     0.033 H 
ENDBRANCH  68  74
ENDBRANCH  50  64
ENDBRANCH   4  45
TORSDOF 12
