REMARK  7 active torsions:
REMARK  status: ('A' for Active; 'I' for Inactive)
REMARK    1  A    between atoms: C1_1  and  C2_2 
REMARK    2  A    between atoms: C2_2  and  C3_3 
REMARK    3  A    between atoms: C3_3  and  C4_4 
REMARK    4  A    between atoms: C4_4  and  C5_5 
REMARK    5  A    between atoms: C5_5  and  C6_6 
REMARK    6  A    between atoms: C6_6  and  C7_7 
REMARK    7  A    between atoms: C7_7  and  C8_8 
ROOT
ATOM      1  C5  OCA d   1      -5.329  -7.172 -16.813  0.00  0.00    -0.065 C 
ATOM      2  H7  OCA d   1      -6.025  -6.405 -16.441  0.00  0.00     0.033 H 
ATOM      3  H8  OCA d   1      -5.340  -8.037 -16.134  0.00  0.00     0.033 H 
ENDROOT
BRANCH   1   4
ATOM      4  C4  OCA d   1      -3.921  -6.587 -16.845  0.00  0.00    -0.065 C 
ATOM      5  H5  OCA d   1      -3.697  -6.132 -15.869  0.00  0.00     0.033 H 
ATOM      6  H6  OCA d   1      -3.200  -7.393 -17.048  0.00  0.00     0.033 H 
BRANCH   4   7
ATOM      7  C3  OCA d   1      -3.803  -5.526 -17.929  0.00  0.00    -0.056 C 
ATOM      8  H3  OCA d   1      -3.619  -6.019 -18.895  0.00  0.00     0.033 H 
ATOM      9  H4  OCA d   1      -4.744  -4.959 -17.980  0.00  0.00     0.033 H 
BRANCH   7  10
ATOM     10  C2  OCA d   1      -2.654  -4.561 -17.635  0.00  0.00     0.016 C 
ATOM     11  H1  OCA d   1      -1.975  -5.020 -16.901  0.00  0.00     0.049 H 
ATOM     12  H2  OCA d   1      -2.104  -4.358 -18.566  0.00  0.00     0.049 H 
BRANCH  10  13
ATOM     13  C1  OCA d   1      -3.183  -3.262 -17.078  0.00  0.00     0.172 C 
ATOM     14  O1  OCA d   1      -4.308  -2.848 -17.450  0.00  0.00    -0.648 OA
ATOM     15  O2  OCA d   1      -2.475  -2.646 -16.256  0.00  0.00    -0.648 OA
ENDBRANCH  10  13
ENDBRANCH   7  10
ENDBRANCH   4   7
ENDBRANCH   1   4
BRANCH   1  16
ATOM     16  C6  OCA d   1      -5.785  -7.623 -18.189  0.00  0.00    -0.065 C 
ATOM     17  H9  OCA d   1      -5.362  -8.617 -18.399  0.00  0.00     0.033 H 
ATOM     18  H10 OCA d   1      -5.424  -6.905 -18.940  0.00  0.00     0.033 H 
BRANCH  16  19
ATOM     19  C7  OCA d   1      -7.305  -7.703 -18.268  0.00  0.00    -0.069 C 
ATOM     20  H11 OCA d   1      -7.680  -6.906 -18.927  0.00  0.00     0.032 H 
ATOM     21  H12 OCA d   1      -7.731  -7.578 -17.262  0.00  0.00     0.032 H 
BRANCH  19  22
ATOM     22  C8  OCA d   1      -7.711  -9.049 -18.823  0.00  0.00    -0.077 C 
ATOM     23  H13 OCA d   1      -8.808  -9.106 -18.880  0.00  0.00     0.027 H 
ATOM     24  H14 OCA d   1      -7.336  -9.846 -18.164  0.00  0.00     0.027 H 
ATOM     25  H15 OCA d   1      -7.285  -9.175 -19.829  0.00  0.00     0.027 H 
ENDBRANCH  19  22
ENDBRANCH  16  19
ENDBRANCH   1  16
TORSDOF 7
