REMARK  30 active torsions:
REMARK  status: ('A' for Active; 'I' for Inactive)
REMARK    1  A    between atoms: O42_24  and  C11_1 
REMARK    2  A    between atoms: C21_2  and  N21_3 
REMARK       I    between atoms: N21_3  and  C71_4 
REMARK    3  A    between atoms: C71_4  and  C81_6 
REMARK    4  A    between atoms: C31_7  and  O31_8 
REMARK    5  A    between atoms: C41_9  and  O41_10 
REMARK    6  A    between atoms: O41_10  and  C1_44 
REMARK    7  A    between atoms: C51_11  and  C61_13 
REMARK    8  A    between atoms: C61_13  and  O61_14 
REMARK    9  A    between atoms: O43_39  and  C12_15 
REMARK   10  A    between atoms: C22_16  and  N22_17 
REMARK       I    between atoms: N22_17  and  C72_18 
REMARK   11  A    between atoms: C72_18  and  C82_20 
REMARK   12  A    between atoms: C32_21  and  O32_22 
REMARK   13  A    between atoms: C42_23  and  O42_24 
REMARK   14  A    between atoms: C52_25  and  C62_27 
REMARK   15  A    between atoms: C62_27  and  O62_28 
REMARK   16  A    between atoms: C13_29  and  O13_30 
REMARK   17  A    between atoms: C23_31  and  N23_32 
REMARK       I    between atoms: N23_32  and  C73_33 
REMARK   18  A    between atoms: C73_33  and  C83_35 
REMARK   19  A    between atoms: C33_36  and  O33_37 
REMARK   20  A    between atoms: C43_38  and  O43_39 
REMARK   21  A    between atoms: C53_40  and  C63_42 
REMARK   22  A    between atoms: C63_42  and  O63_43 
REMARK   23  A    between atoms: C2_45  and  N2_46 
REMARK   24  A    between atoms: N2_46  and  C7_55 
REMARK   25  A    between atoms: N2_46  and  C8_56 
REMARK   26  A    between atoms: N2_46  and  C9_57 
REMARK   27  A    between atoms: C3_47  and  O3_48 
REMARK   28  A    between atoms: C4_49  and  O4_50 
REMARK   29  A    between atoms: C5_51  and  C6_53 
REMARK   30  A    between atoms: C6_53  and  O6_54 
ROOT
ATOM      1  C11 CTO d   1      35.985   2.644  13.271  0.00  0.00     0.154 C 
ATOM      2  C21 CTO d   1      37.440   2.963  13.651  0.00  0.00     0.087 C 
ATOM      3  C31 CTO d   1      38.429   2.121  12.821  0.00  0.00     0.087 C 
ATOM      4  C41 CTO d   1      38.047   0.626  12.763  0.00  0.00     0.095 C 
ATOM      5  C51 CTO d   1      36.552   0.483  12.434  0.00  0.00     0.089 C 
ATOM      6  O51 CTO d   1      35.759   1.236  13.366  0.00  0.00    -0.349 OA
ATOM      7  H1  CTO d   1      35.795   2.976  12.240  0.00  0.00     0.132 H 
ATOM      8  H2  CTO d   1      37.590   2.743  14.718  0.00  0.00     0.084 H 
ATOM      9  H7  CTO d   1      38.420   2.512  11.793  0.00  0.00     0.090 H 
ATOM     10  H9  CTO d   1      38.259   0.140  13.727  0.00  0.00     0.091 H 
ATOM     11  H10 CTO d   1      36.371   0.835  11.408  0.00  0.00     0.090 H 
ENDROOT
BRANCH   1  12
ATOM     12  O42 CTO d   1      35.090   3.338  14.174  0.00  0.00    -0.348 OA
BRANCH  12  13
ATOM     13  C42 CTO d   1      33.716   3.375  13.729  0.00  0.00     0.095 C 
ATOM     14  C32 CTO d   1      32.882   2.444  14.631  0.00  0.00     0.087 C 
ATOM     15  C22 CTO d   1      31.375   2.702  14.515  0.00  0.00     0.087 C 
ATOM     16  H20 CTO d   1      33.187   2.603  15.676  0.00  0.00     0.090 H 
ATOM     17  C12 CTO d   1      31.054   4.173  14.693  0.00  0.00     0.154 C 
ATOM     18  H15 CTO d   1      31.037   2.383  13.518  0.00  0.00     0.084 H 
ATOM     19  O52 CTO d   1      31.765   4.919  13.697  0.00  0.00    -0.349 OA
ATOM     20  H14 CTO d   1      31.323   4.515  15.703  0.00  0.00     0.132 H 
ATOM     21  C52 CTO d   1      33.212   4.827  13.783  0.00  0.00     0.089 C 
ATOM     22  H23 CTO d   1      33.555   5.292  14.719  0.00  0.00     0.090 H 
ATOM     23  H22 CTO d   1      33.656   3.015  12.691  0.00  0.00     0.091 H 
BRANCH  14  24
ATOM     24  O32 CTO d   1      33.142   1.082  14.259  0.00  0.00    -0.391 OA
ATOM     25  H21 CTO d   1      34.074   0.909  14.327  0.00  0.00     0.210 HD
ENDBRANCH  14  24
BRANCH  15  26
ATOM     26  N22 CTO d   1      30.663   1.920  15.541  0.00  0.00    -0.349 N 
ATOM     27  C72 CTO d   1      29.566   1.199  15.259  0.00  0.00     0.214 C 
ATOM     28  O72 CTO d   1      29.061   1.115  14.139  0.00  0.00    -0.274 OA
ATOM     29  H16 CTO d   1      31.009   1.927  16.479  0.00  0.00     0.163 HD
BRANCH  27  30
ATOM     30  C82 CTO d   1      28.957   0.455  16.456  0.00  0.00    -0.003 C 
ATOM     31  H17 CTO d   1      28.068  -0.103  16.127  0.00  0.00     0.040 H 
ATOM     32  H18 CTO d   1      28.668   1.181  17.230  0.00  0.00     0.040 H 
ATOM     33  H19 CTO d   1      29.698  -0.245  16.868  0.00  0.00     0.040 H 
ENDBRANCH  27  30
ENDBRANCH  15  26
BRANCH  17  34
ATOM     34  O43 CTO d   1      29.642   4.337  14.450  0.00  0.00    -0.348 OA
BRANCH  34  35
ATOM     35  C43 CTO d   1      28.833   5.335  15.182  0.00  0.00     0.095 C 
ATOM     36  C33 CTO d   1      29.484   5.856  16.489  0.00  0.00     0.087 C 
ATOM     37  C23 CTO d   1      29.092   7.337  16.885  0.00  0.00     0.086 C 
ATOM     38  H34 CTO d   1      30.574   5.836  16.340  0.00  0.00     0.090 H 
ATOM     39  C13 CTO d   1      27.993   8.045  16.011  0.00  0.00     0.151 C 
ATOM     40  H29 CTO d   1      28.701   7.289  17.912  0.00  0.00     0.084 H 
ATOM     41  O53 CTO d   1      27.436   7.233  14.943  0.00  0.00    -0.349 OA
ATOM     42  H27 CTO d   1      28.466   8.921  15.543  0.00  0.00     0.132 H 
ATOM     43  C53 CTO d   1      28.483   6.518  14.288  0.00  0.00     0.089 C 
ATOM     44  H37 CTO d   1      29.362   7.171  14.181  0.00  0.00     0.090 H 
ATOM     45  H36 CTO d   1      27.894   4.837  15.464  0.00  0.00     0.091 H 
BRANCH  36  46
ATOM     46  O33 CTO d   1      29.159   4.968  17.577  0.00  0.00    -0.391 OA
ATOM     47  H35 CTO d   1      29.394   4.079  17.340  0.00  0.00     0.210 HD
ENDBRANCH  36  46
BRANCH  37  48
ATOM     48  N23 CTO d   1      30.292   8.207  16.885  0.00  0.00    -0.349 N 
ATOM     49  C73 CTO d   1      31.264   8.177  17.821  0.00  0.00     0.214 C 
ATOM     50  O73 CTO d   1      31.292   7.413  18.787  0.00  0.00    -0.274 OA
ATOM     51  H30 CTO d   1      30.389   8.864  16.137  0.00  0.00     0.163 HD
BRANCH  49  52
ATOM     52  C83 CTO d   1      32.390   9.188  17.599  0.00  0.00    -0.003 C 
ATOM     53  H31 CTO d   1      33.133   9.092  18.405  0.00  0.00     0.040 H 
ATOM     54  H32 CTO d   1      31.974  10.206  17.602  0.00  0.00     0.040 H 
ATOM     55  H33 CTO d   1      32.873   8.992  16.630  0.00  0.00     0.040 H 
ENDBRANCH  49  52
ENDBRANCH  37  48
BRANCH  39  56
ATOM     56  O13 CTO d   1      26.921   8.505  16.853  0.00  0.00    -0.369 OA
ATOM     57  H28 CTO d   1      26.315   9.024  16.337  0.00  0.00     0.212 HD
ENDBRANCH  39  56
BRANCH  43  58
ATOM     58  C63 CTO d   1      28.051   6.050  12.900  0.00  0.00     0.043 C 
ATOM     59  H38 CTO d   1      27.250   6.700  12.517  0.00  0.00     0.078 H 
ATOM     60  H39 CTO d   1      27.689   5.012  12.949  0.00  0.00     0.078 H 
BRANCH  58  61
ATOM     61  O63 CTO d   1      29.192   6.128  12.046  0.00  0.00    -0.398 OA
ATOM     62  H40 CTO d   1      29.880   5.568  12.386  0.00  0.00     0.209 HD
ENDBRANCH  58  61
ENDBRANCH  43  58
ENDBRANCH  34  35
ENDBRANCH  17  34
BRANCH  21  63
ATOM     63  C62 CTO d   1      33.769   5.584  12.581  0.00  0.00     0.043 C 
ATOM     64  H24 CTO d   1      32.999   5.655  11.798  0.00  0.00     0.078 H 
ATOM     65  H25 CTO d   1      34.648   5.055  12.184  0.00  0.00     0.078 H 
BRANCH  63  66
ATOM     66  O62 CTO d   1      34.145   6.888  13.002  0.00  0.00    -0.398 OA
ATOM     67  H26 CTO d   1      34.808   6.822  13.679  0.00  0.00     0.209 HD
ENDBRANCH  63  66
ENDBRANCH  21  63
ENDBRANCH  12  13
ENDBRANCH   1  12
BRANCH   2  68
ATOM     68  N21 CTO d   1      37.689   4.394  13.405  0.00  0.00    -0.349 N 
ATOM     69  C71 CTO d   1      37.781   5.326  14.375  0.00  0.00     0.214 C 
ATOM     70  O71 CTO d   1      37.982   6.525  14.159  0.00  0.00    -0.274 OA
ATOM     71  H3  CTO d   1      37.797   4.694  12.457  0.00  0.00     0.163 HD
BRANCH  69  72
ATOM     72  C81 CTO d   1      37.612   4.831  15.802  0.00  0.00    -0.003 C 
ATOM     73  H4  CTO d   1      37.707   5.678  16.497  0.00  0.00     0.040 H 
ATOM     74  H5  CTO d   1      38.388   4.084  16.025  0.00  0.00     0.040 H 
ATOM     75  H6  CTO d   1      36.618   4.373  15.916  0.00  0.00     0.040 H 
ENDBRANCH  69  72
ENDBRANCH   2  68
BRANCH   3  76
ATOM     76  O31 CTO d   1      39.768   2.253  13.347  0.00  0.00    -0.391 OA
ATOM     77  H8  CTO d   1      40.365   1.729  12.826  0.00  0.00     0.210 HD
ENDBRANCH   3  76
BRANCH   5  78
ATOM     78  C61 CTO d   1      36.099  -0.965  12.582  0.00  0.00     0.043 C 
ATOM     79  H11 CTO d   1      36.053  -1.231  13.648  0.00  0.00     0.078 H 
ATOM     80  H12 CTO d   1      36.810  -1.629  12.068  0.00  0.00     0.078 H 
BRANCH  78  81
ATOM     81  O61 CTO d   1      34.811  -1.102  12.000  0.00  0.00    -0.398 OA
ATOM     82  H13 CTO d   1      34.854  -0.870  11.080  0.00  0.00     0.209 HD
ENDBRANCH  78  81
ENDBRANCH   5  78
BRANCH   4  83
ATOM     83  O41 CTO d   1      38.848   0.042  11.729  0.00  0.00    -0.348 OA
BRANCH  83  84
ATOM     84  C1  TMX d   1      39.288  -1.336  11.901  0.00  0.00     0.162 C 
ATOM     85  C2  TMX d   1      40.286  -1.691  10.740  0.00  0.00     0.178 C 
ATOM     86  C3  TMX d   1      41.739  -1.195  11.058  0.00  0.00     0.095 C 
ATOM     87  H42 CTO d   1      39.955  -1.091   9.879  0.00  0.00     0.097 H 
ATOM     88  C4  TMX d   1      41.821  -0.413  12.371  0.00  0.00     0.089 C 
ATOM     89  H43 CTO d   1      42.389  -2.078  11.144  0.00  0.00     0.090 H 
ATOM     90  C5  TMX d   1      41.217  -1.251  13.507  0.00  0.00     0.089 C 
ATOM     91  H45 CTO d   1      41.259   0.528  12.276  0.00  0.00     0.091 H 
ATOM     92  O5  TMX d   1      39.825  -1.615  13.239  0.00  0.00    -0.349 OA
ATOM     93  H47 CTO d   1      41.807  -2.175  13.598  0.00  0.00     0.090 H 
ATOM     94  H41 CTO d   1      38.404  -1.980  11.781  0.00  0.00     0.132 H 
BRANCH  85  95
ATOM     95  N2  TMX d   1      40.210  -3.116  10.267  0.00  0.00    -0.067 N 
BRANCH  95  96
ATOM     96  C7  TMX d   1      38.919  -3.392   9.625  0.00  0.00     0.068 C 
ATOM     97  H51 CTO d   1      38.893  -4.439   9.290  0.00  0.00     0.068 H 
ATOM     98  H52 CTO d   1      38.791  -2.727   8.758  0.00  0.00     0.068 H 
ATOM     99  H53 CTO d   1      38.106  -3.217  10.345  0.00  0.00     0.068 H 
ENDBRANCH  95  96
BRANCH  95 100
ATOM    100  C8  TMX d   1      40.376  -4.120  11.331  0.00  0.00     0.068 C 
ATOM    101  H54 CTO d   1      41.334  -3.955  11.845  0.00  0.00     0.068 H 
ATOM    102  H55 CTO d   1      40.366  -5.127  10.889  0.00  0.00     0.068 H 
ATOM    103  H56 CTO d   1      39.552  -4.028  12.054  0.00  0.00     0.068 H 
ENDBRANCH  95 100
BRANCH  95 104
ATOM    104  C9  TMX d   1      41.238  -3.396   9.247  0.00  0.00     0.068 C 
ATOM    105  H57 CTO d   1      41.151  -2.666   8.429  0.00  0.00     0.068 H 
ATOM    106  H58 CTO d   1      41.093  -4.411   8.850  0.00  0.00     0.068 H 
ATOM    107  H59 CTO d   1      42.236  -3.319   9.702  0.00  0.00     0.068 H 
ENDBRANCH  95 104
ENDBRANCH  85  95
BRANCH  86 108
ATOM    108  O3  TMX d   1      42.224  -0.368   9.983  0.00  0.00    -0.391 OA
ATOM    109  H44 CTO d   1      42.234  -0.872   9.178  0.00  0.00     0.210 HD
ENDBRANCH  86 108
BRANCH  88 110
ATOM    110  O4  TMX d   1      43.198  -0.120  12.643  0.00  0.00    -0.390 OA
ATOM    111  H46 CTO d   1      43.262   0.366  13.457  0.00  0.00     0.210 HD
ENDBRANCH  88 110
BRANCH  90 112
ATOM    112  C6  TMX d   1      41.277  -0.502  14.835  0.00  0.00     0.043 C 
ATOM    113  H48 CTO d   1      40.599   0.364  14.802  0.00  0.00     0.078 H 
ATOM    114  H49 CTO d   1      42.305  -0.156  15.018  0.00  0.00     0.078 H 
BRANCH 112 115
ATOM    115  O6  TMX d   1      40.873  -1.390  15.885  0.00  0.00    -0.398 OA
ATOM    116  H50 CTO d   1      40.907  -0.932  16.716  0.00  0.00     0.209 HD
ENDBRANCH 112 115
ENDBRANCH  90 112
ENDBRANCH  83  84
ENDBRANCH   4  83
TORSDOF 30
