REMARK  16 active torsions:
REMARK  status: ('A' for Active; 'I' for Inactive)
REMARK       I    between atoms: N1_26  and  C3_3 
REMARK    1  A    between atoms: C3_3  and  O1_29 
REMARK    2  A    between atoms: O1_29  and  C4_4 
REMARK    3  A    between atoms: C6_6  and  C5_5 
REMARK    4  A    between atoms: C5_5  and  C7_7 
REMARK    5  A    between atoms: C5_5  and  N1_26 
REMARK    6  A    between atoms: C14_14  and  C6_6 
REMARK    7  A    between atoms: C6_6  and  O3_31 
REMARK    8  A    between atoms: C7_7  and  C8_8 
REMARK    9  A    between atoms: N2_27  and  C14_14 
REMARK   10  A    between atoms: C15_15  and  C16_16 
REMARK   11  A    between atoms: N2_27  and  C15_15 
REMARK   12  A    between atoms: C16_16  and  C23_23 
REMARK   13  A    between atoms: C16_16  and  C24_24 
REMARK   14  A    between atoms: S1_35  and  C17_17 
REMARK   15  A    between atoms: C20_20  and  N3_28 
REMARK   16  A    between atoms: N2_27  and  S1_35 
ROOT
ATOM      1  C6  478 d   1      15.642  23.767  18.087  0.00  0.00     0.071 C 
ATOM      2  H7  478 d   1      16.019  23.297  19.008  0.00  0.00     0.088 H 
ENDROOT
BRANCH   1   3
ATOM      3  C5  478 d   1      15.180  22.644  17.174  0.00  0.00     0.044 C 
ATOM      4  H6  478 d   1      16.071  22.075  16.870  0.00  0.00     0.077 H 
BRANCH   3   5
ATOM      5  C7  478 d   1      14.484  23.126  15.911  0.00  0.00    -0.020 C 
ATOM      6  H8  478 d   1      15.170  23.789  15.364  0.00  0.00     0.043 H 
ATOM      7  H9  478 d   1      13.583  23.687  16.199  0.00  0.00     0.043 H 
BRANCH   5   8
ATOM      8  C8  478 d   1      14.072  21.984  14.989  0.00  0.00    -0.056 A 
ATOM      9  C9  478 d   1      12.798  21.477  14.983  0.00  0.00    -0.077 A 
ATOM     10  C11 478 d   1      12.452  20.380  14.227  0.00  0.00    -0.082 A 
ATOM     11  H10 478 d   1      12.040  21.955  15.593  0.00  0.00     0.084 H 
ATOM     12  C13 478 d   1      13.411  19.810  13.431  0.00  0.00    -0.083 A 
ATOM     13  H12 478 d   1      11.446  19.977  14.260  0.00  0.00     0.083 H 
ATOM     14  C12 478 d   1      14.694  20.290  13.376  0.00  0.00    -0.082 A 
ATOM     15  H14 478 d   1      13.146  18.951  12.825  0.00  0.00     0.083 H 
ATOM     16  C10 478 d   1      15.022  21.371  14.158  0.00  0.00    -0.077 A 
ATOM     17  H13 478 d   1      15.432  19.828  12.731  0.00  0.00     0.083 H 
ATOM     18  H11 478 d   1      16.034  21.758  14.133  0.00  0.00     0.084 H 
ENDBRANCH   5   8
ENDBRANCH   3   5
BRANCH   3  19
ATOM     19  N1  478 d   1      14.278  21.745  17.901  0.00  0.00    -0.329 N 
ATOM     20  C3  478 d   1      14.615  20.514  18.289  0.00  0.00     0.361 C 
ATOM     21  O2  478 d   1      15.773  19.999  18.185  0.00  0.00    -0.238 OA
ATOM     22  H32 478 d   1      13.359  22.073  18.118  0.00  0.00     0.165 HD
BRANCH  20  23
ATOM     23  O1  478 d   1      13.575  19.888  18.863  0.00  0.00    -0.296 OA
BRANCH  23  24
ATOM     24  C4  478 d   1      13.834  18.576  19.483  0.00  0.00     0.072 C 
ATOM     25  C1  478 d   1      12.456  18.016  19.762  0.00  0.00     0.044 C 
ATOM     26  O6  478 d   1      12.098  18.453  21.054  0.00  0.00    -0.389 OA
ATOM     27  H1  478 d   1      12.478  16.917  19.726  0.00  0.00     0.078 H 
ATOM     28  H2  478 d   1      11.736  18.393  19.021  0.00  0.00     0.078 H 
ATOM     29  C25 478 d   1      13.297  18.311  21.845  0.00  0.00     0.022 C 
ATOM     30  C2  478 d   1      14.429  18.720  20.876  0.00  0.00    -0.018 C 
ATOM     31  H30 478 d   1      13.270  18.977  22.720  0.00  0.00     0.074 H 
ATOM     32  H31 478 d   1      13.425  17.271  22.180  0.00  0.00     0.074 H 
ATOM     33  H3  478 d   1      14.736  19.760  21.059  0.00  0.00     0.040 H 
ATOM     34  H4  478 d   1      15.297  18.055  20.995  0.00  0.00     0.040 H 
ATOM     35  H5  478 d   1      14.448  17.933  18.836  0.00  0.00     0.087 H 
ENDBRANCH  23  24
ENDBRANCH  20  23
ENDBRANCH   3  19
ENDBRANCH   1   3
BRANCH   1  36
ATOM     36  C14 478 d   1      16.759  24.669  17.575  0.00  0.00     0.031 C 
ATOM     37  H15 478 d   1      16.837  25.540  18.243  0.00  0.00     0.069 H 
ATOM     38  H16 478 d   1      16.497  25.007  16.561  0.00  0.00     0.069 H 
BRANCH  36  39
ATOM     39  N2  478 d   1      18.069  24.006  17.520  0.00  0.00    -0.304 N 
BRANCH  39  40
ATOM     40  C15 478 d   1      19.018  24.396  18.569  0.00  0.00     0.008 C 
ATOM     41  H17 478 d   1      20.020  24.042  18.283  0.00  0.00     0.066 H 
ATOM     42  H18 478 d   1      19.025  25.493  18.644  0.00  0.00     0.066 H 
BRANCH  40  43
ATOM     43  C16 478 d   1      18.675  23.824  19.927  0.00  0.00    -0.045 C 
ATOM     44  H19 478 d   1      17.683  24.208  20.208  0.00  0.00     0.041 H 
BRANCH  43  45
ATOM     45  C23 478 d   1      18.600  22.294  19.920  0.00  0.00    -0.072 C 
ATOM     46  H24 478 d   1      18.349  21.935  20.929  0.00  0.00     0.028 H 
ATOM     47  H25 478 d   1      19.573  21.881  19.616  0.00  0.00     0.028 H 
ATOM     48  H26 478 d   1      17.825  21.968  19.211  0.00  0.00     0.028 H 
ENDBRANCH  43  45
BRANCH  43  49
ATOM     49  C24 478 d   1      19.684  24.286  20.988  0.00  0.00    -0.072 C 
ATOM     50  H27 478 d   1      19.736  25.385  20.991  0.00  0.00     0.028 H 
ATOM     51  H28 478 d   1      20.676  23.873  20.755  0.00  0.00     0.028 H 
ATOM     52  H29 478 d   1      19.363  23.932  21.979  0.00  0.00     0.028 H 
ENDBRANCH  43  49
ENDBRANCH  40  43
ENDBRANCH  39  40
BRANCH  39  53
ATOM     53  S1  478 d   1      18.707  23.685  16.052  0.00  0.00     0.260 S 
ATOM     54  O4  478 d   1      17.606  23.401  15.160  0.00  0.00    -0.200 OA
ATOM     55  O5  478 d   1      19.730  22.662  16.278  0.00  0.00    -0.200 OA
BRANCH  53  56
ATOM     56  C17 478 d   1      19.507  25.086  15.393  0.00  0.00     0.079 A 
ATOM     57  C18 478 d   1      18.737  26.001  14.650  0.00  0.00    -0.058 A 
ATOM     58  C19 478 d   1      19.268  27.161  14.174  0.00  0.00    -0.056 A 
ATOM     59  H20 478 d   1      17.695  25.776  14.452  0.00  0.00     0.086 H 
ATOM     60  C20 478 d   1      20.605  27.455  14.374  0.00  0.00     0.025 A 
ATOM     61  H21 478 d   1      18.639  27.859  13.634  0.00  0.00     0.086 H 
ATOM     62  C21 478 d   1      21.403  26.573  15.128  0.00  0.00    -0.056 A 
ATOM     63  C22 478 d   1      20.855  25.377  15.660  0.00  0.00    -0.058 A 
ATOM     64  H22 478 d   1      22.446  26.810  15.304  0.00  0.00     0.086 H 
ATOM     65  H23 478 d   1      21.461  24.705  16.257  0.00  0.00     0.086 H 
BRANCH  60  66
ATOM     66  N3  478 d   1      21.108  28.690  14.009  0.00  0.00    -0.399 N 
ATOM     67  H33 478 d   1      20.529  29.339  13.457  0.00  0.00     0.156 HD
ATOM     68  H34 478 d   1      22.062  28.961  14.289  0.00  0.00     0.156 HD
ENDBRANCH  60  66
ENDBRANCH  53  56
ENDBRANCH  39  53
ENDBRANCH  36  39
ENDBRANCH   1  36
BRANCH   1  69
ATOM     69  O3  478 d   1      14.472  24.560  18.423  0.00  0.00    -0.392 OA
ATOM     70  H35 478 d   1      14.170  25.021  17.649  0.00  0.00     0.210 HD
ENDBRANCH   1  69
TORSDOF 16
