REMARK  16 active torsions:
REMARK  status: ('A' for Active; 'I' for Inactive)
REMARK       I    between atoms: N1_26  and  C3_3 
REMARK    1  A    between atoms: C3_3  and  O1_29 
REMARK    2  A    between atoms: O1_29  and  C4_4 
REMARK    3  A    between atoms: C6_6  and  C5_5 
REMARK    4  A    between atoms: C5_5  and  C7_7 
REMARK    5  A    between atoms: C5_5  and  N1_26 
REMARK    6  A    between atoms: C14_14  and  C6_6 
REMARK    7  A    between atoms: C6_6  and  O3_31 
REMARK    8  A    between atoms: C7_7  and  C8_8 
REMARK    9  A    between atoms: N2_27  and  C14_14 
REMARK   10  A    between atoms: C15_15  and  C16_16 
REMARK   11  A    between atoms: N2_27  and  C15_15 
REMARK   12  A    between atoms: C16_16  and  C23_23 
REMARK   13  A    between atoms: C16_16  and  C24_24 
REMARK   14  A    between atoms: S1_35  and  C17_17 
REMARK   15  A    between atoms: C20_20  and  N3_28 
REMARK   16  A    between atoms: N2_27  and  S1_35 
ROOT
ATOM      1  C6  478 d   1      15.449  23.997  18.094  0.00  0.00     0.071 C 
ATOM      2  H7  478 d   1      15.816  23.503  19.006  0.00  0.00     0.088 H 
ENDROOT
BRANCH   1   3
ATOM      3  C5  478 d   1      15.015  22.905  17.138  0.00  0.00     0.044 C 
ATOM      4  H6  478 d   1      15.927  22.391  16.800  0.00  0.00     0.077 H 
BRANCH   3   5
ATOM      5  C7  478 d   1      14.254  23.339  15.894  0.00  0.00    -0.020 C 
ATOM      6  H8  478 d   1      14.903  24.015  15.318  0.00  0.00     0.043 H 
ATOM      7  H9  478 d   1      13.354  23.883  16.219  0.00  0.00     0.043 H 
BRANCH   5   8
ATOM      8  C8  478 d   1      13.822  22.231  14.989  0.00  0.00    -0.056 A 
ATOM      9  C9  478 d   1      12.523  21.739  15.019  0.00  0.00    -0.077 A 
ATOM     10  C11 478 d   1      12.226  20.607  14.236  0.00  0.00    -0.082 A 
ATOM     11  H10 478 d   1      11.761  22.212  15.627  0.00  0.00     0.084 H 
ATOM     12  C13 478 d   1      13.179  20.054  13.386  0.00  0.00    -0.083 A 
ATOM     13  H12 478 d   1      11.240  20.160  14.296  0.00  0.00     0.083 H 
ATOM     14  C12 478 d   1      14.462  20.558  13.316  0.00  0.00    -0.082 A 
ATOM     15  H14 478 d   1      12.908  19.208  12.765  0.00  0.00     0.083 H 
ATOM     16  C10 478 d   1      14.752  21.639  14.138  0.00  0.00    -0.077 A 
ATOM     17  H13 478 d   1      15.206  20.131  12.653  0.00  0.00     0.083 H 
ATOM     18  H11 478 d   1      15.757  22.044  14.116  0.00  0.00     0.084 H 
ENDBRANCH   5   8
ENDBRANCH   3   5
BRANCH   3  19
ATOM     19  N1  478 d   1      14.180  21.960  17.855  0.00  0.00    -0.329 N 
ATOM     20  C3  478 d   1      14.517  20.730  18.295  0.00  0.00     0.361 C 
ATOM     21  O2  478 d   1      15.626  20.227  18.219  0.00  0.00    -0.238 OA
ATOM     22  H32 478 d   1      13.244  22.255  18.046  0.00  0.00     0.165 HD
BRANCH  20  23
ATOM     23  O1  478 d   1      13.480  20.094  18.926  0.00  0.00    -0.296 OA
BRANCH  23  24
ATOM     24  C4  478 d   1      13.761  18.809  19.484  0.00  0.00     0.072 C 
ATOM     25  C1  478 d   1      12.414  18.158  19.824  0.00  0.00     0.044 C 
ATOM     26  O6  478 d   1      12.033  18.673  21.126  0.00  0.00    -0.389 OA
ATOM     27  H1  478 d   1      12.518  17.064  19.862  0.00  0.00     0.078 H 
ATOM     28  H2  478 d   1      11.659  18.428  19.071  0.00  0.00     0.078 H 
ATOM     29  C25 478 d   1      13.271  18.567  21.844  0.00  0.00     0.022 C 
ATOM     30  C2  478 d   1      14.346  19.059  20.879  0.00  0.00    -0.018 C 
ATOM     31  H30 478 d   1      13.247  19.196  22.746  0.00  0.00     0.074 H 
ATOM     32  H31 478 d   1      13.461  17.522  22.131  0.00  0.00     0.074 H 
ATOM     33  H3  478 d   1      14.543  20.131  21.031  0.00  0.00     0.040 H 
ATOM     34  H4  478 d   1      15.279  18.492  21.016  0.00  0.00     0.040 H 
ATOM     35  H5  478 d   1      14.401  18.193  18.835  0.00  0.00     0.087 H 
ENDBRANCH  23  24
ENDBRANCH  20  23
ENDBRANCH   3  19
ENDBRANCH   1   3
BRANCH   1  36
ATOM     36  C14 478 d   1      16.571  24.886  17.576  0.00  0.00     0.031 C 
ATOM     37  H15 478 d   1      16.677  25.739  18.262  0.00  0.00     0.069 H 
ATOM     38  H16 478 d   1      16.287  25.251  16.578  0.00  0.00     0.069 H 
BRANCH  36  39
ATOM     39  N2  478 d   1      17.850  24.233  17.469  0.00  0.00    -0.304 N 
BRANCH  39  40
ATOM     40  C15 478 d   1      18.787  24.626  18.517  0.00  0.00     0.008 C 
ATOM     41  H17 478 d   1      19.802  24.341  18.202  0.00  0.00     0.066 H 
ATOM     42  H18 478 d   1      18.734  25.718  18.640  0.00  0.00     0.066 H 
BRANCH  40  43
ATOM     43  C16 478 d   1      18.492  23.960  19.890  0.00  0.00    -0.045 C 
ATOM     44  H19 478 d   1      17.486  24.238  20.238  0.00  0.00     0.041 H 
BRANCH  43  45
ATOM     45  C23 478 d   1      18.591  22.455  19.744  0.00  0.00    -0.072 C 
ATOM     46  H24 478 d   1      18.383  21.978  20.713  0.00  0.00     0.028 H 
ATOM     47  H25 478 d   1      19.604  22.185  19.412  0.00  0.00     0.028 H 
ATOM     48  H26 478 d   1      17.858  22.110  19.001  0.00  0.00     0.028 H 
ENDBRANCH  43  45
BRANCH  43  49
ATOM     49  C24 478 d   1      19.561  24.448  20.901  0.00  0.00    -0.072 C 
ATOM     50  H27 478 d   1      19.492  25.541  21.009  0.00  0.00     0.028 H 
ATOM     51  H28 478 d   1      20.562  24.179  20.534  0.00  0.00     0.028 H 
ATOM     52  H29 478 d   1      19.387  23.971  21.877  0.00  0.00     0.028 H 
ENDBRANCH  43  49
ENDBRANCH  40  43
ENDBRANCH  39  40
BRANCH  39  53
ATOM     53  S1  478 d   1      18.532  23.910  16.004  0.00  0.00     0.260 S 
ATOM     54  O4  478 d   1      17.445  23.614  15.058  0.00  0.00    -0.200 OA
ATOM     55  O5  478 d   1      19.555  22.855  16.238  0.00  0.00    -0.200 OA
BRANCH  53  56
ATOM     56  C17 478 d   1      19.339  25.317  15.346  0.00  0.00     0.079 A 
ATOM     57  C18 478 d   1      18.644  26.257  14.609  0.00  0.00    -0.058 A 
ATOM     58  C19 478 d   1      19.170  27.466  14.159  0.00  0.00    -0.056 A 
ATOM     59  H20 478 d   1      17.612  26.037  14.362  0.00  0.00     0.086 H 
ATOM     60  C20 478 d   1      20.491  27.742  14.480  0.00  0.00     0.025 A 
ATOM     61  H21 478 d   1      18.572  28.162  13.582  0.00  0.00     0.086 H 
ATOM     62  C21 478 d   1      21.219  26.781  15.157  0.00  0.00    -0.056 A 
ATOM     63  C22 478 d   1      20.684  25.605  15.665  0.00  0.00    -0.058 A 
ATOM     64  H22 478 d   1      22.279  26.958  15.301  0.00  0.00     0.086 H 
ATOM     65  H23 478 d   1      21.274  24.936  16.281  0.00  0.00     0.086 H 
BRANCH  60  66
ATOM     66  N3  478 d   1      21.069  28.879  14.001  0.00  0.00    -0.399 N 
ATOM     67  H33 478 d   1      20.498  29.575  13.501  0.00  0.00     0.156 HD
ATOM     68  H34 478 d   1      22.077  29.042  14.139  0.00  0.00     0.156 HD
ENDBRANCH  60  66
ENDBRANCH  53  56
ENDBRANCH  39  53
ENDBRANCH  36  39
ENDBRANCH   1  36
BRANCH   1  69
ATOM     69  O3  478 d   1      14.332  24.817  18.448  0.00  0.00    -0.392 OA
ATOM     70  H35 478 d   1      14.036  25.294  17.682  0.00  0.00     0.210 HD
ENDBRANCH   1  69
TORSDOF 16
