REMARK  16 active torsions:
REMARK  status: ('A' for Active; 'I' for Inactive)
REMARK       I    between atoms: N1_26  and  C3_3 
REMARK    1  A    between atoms: C3_3  and  O1_29 
REMARK    2  A    between atoms: O1_29  and  C4_4 
REMARK    3  A    between atoms: C6_6  and  C5_5 
REMARK    4  A    between atoms: C5_5  and  C7_7 
REMARK    5  A    between atoms: C5_5  and  N1_26 
REMARK    6  A    between atoms: C14_14  and  C6_6 
REMARK    7  A    between atoms: C6_6  and  O3_31 
REMARK    8  A    between atoms: C7_7  and  C8_8 
REMARK    9  A    between atoms: N2_27  and  C14_14 
REMARK   10  A    between atoms: C15_15  and  C16_16 
REMARK   11  A    between atoms: N2_27  and  C15_15 
REMARK   12  A    between atoms: C16_16  and  C23_23 
REMARK   13  A    between atoms: C16_16  and  C24_24 
REMARK   14  A    between atoms: S1_35  and  C17_17 
REMARK   15  A    between atoms: C20_20  and  N3_28 
REMARK   16  A    between atoms: N2_27  and  S1_35 
ROOT
ATOM      1  C6  478 d   1      15.315  23.978  17.944  0.00  0.00     0.071 C 
ATOM      2  H7  478 d   1      15.732  23.541  18.863  0.00  0.00     0.088 H 
ENDROOT
BRANCH   1   3
ATOM      3  C5  478 d   1      14.888  22.825  17.053  0.00  0.00     0.044 C 
ATOM      4  H6  478 d   1      15.784  22.252  16.774  0.00  0.00     0.077 H 
BRANCH   3   5
ATOM      5  C7  478 d   1      14.194  23.308  15.764  0.00  0.00    -0.020 C 
ATOM      6  H8  478 d   1      14.910  23.915  15.191  0.00  0.00     0.043 H 
ATOM      7  H9  478 d   1      13.331  23.929  16.046  0.00  0.00     0.043 H 
BRANCH   5   8
ATOM      8  C8  478 d   1      13.702  22.179  14.874  0.00  0.00    -0.056 C 
ATOM      9  C9  478 d   1      12.406  21.668  14.923  0.00  0.00    -0.077 C 
ATOM     10  C11 478 d   1      12.054  20.619  14.076  0.00  0.00    -0.082 C 
ATOM     11  H10 478 d   1      11.680  22.082  15.613  0.00  0.00     0.084 H 
ATOM     12  C13 478 d   1      13.014  19.968  13.337  0.00  0.00    -0.083 C 
ATOM     13  H12 478 d   1      11.017  20.314  13.999  0.00  0.00     0.083 H 
ATOM     14  C12 478 d   1      14.296  20.448  13.221  0.00  0.00    -0.082 C 
ATOM     15  H14 478 d   1      12.751  19.047  12.830  0.00  0.00     0.083 H 
ATOM     16  C10 478 d   1      14.602  21.536  14.030  0.00  0.00    -0.077 C 
ATOM     17  H13 478 d   1      15.020  20.008  12.544  0.00  0.00     0.083 H 
ATOM     18  H11 478 d   1      15.618  21.912  14.001  0.00  0.00     0.084 H 
ENDBRANCH   5   8
ENDBRANCH   3   5
BRANCH   3  19
ATOM     19  N1  478 d   1      13.961  21.944  17.789  0.00  0.00    -0.329 N 
ATOM     20  C3  478 d   1      14.268  20.692  18.147  0.00  0.00     0.361 C 
ATOM     21  O2  478 d   1      15.351  20.133  17.932  0.00  0.00    -0.238 OA
ATOM     22  H32 478 d   1      13.059  22.300  18.032  0.00  0.00     0.165 HD
BRANCH  20  23
ATOM     23  O1  478 d   1      13.254  20.056  18.763  0.00  0.00    -0.296 OA
BRANCH  23  24
ATOM     24  C4  478 d   1      13.591  18.773  19.347  0.00  0.00     0.072 C 
ATOM     25  C1  478 d   1      12.259  18.079  19.655  0.00  0.00     0.044 C 
ATOM     26  O6  478 d   1      11.912  18.581  20.954  0.00  0.00    -0.389 OA
ATOM     27  H1  478 d   1      12.381  16.986  19.676  0.00  0.00     0.078 H 
ATOM     28  H2  478 d   1      11.494  18.349  18.912  0.00  0.00     0.078 H 
ATOM     29  C25 478 d   1      13.139  18.428  21.702  0.00  0.00     0.022 C 
ATOM     30  C2  478 d   1      14.227  18.911  20.722  0.00  0.00    -0.018 C 
ATOM     31  H30 478 d   1      13.125  19.049  22.610  0.00  0.00     0.074 H 
ATOM     32  H31 478 d   1      13.300  17.376  21.980  0.00  0.00     0.074 H 
ATOM     33  H3  478 d   1      14.494  19.959  20.923  0.00  0.00     0.040 H 
ATOM     34  H4  478 d   1      15.126  18.282  20.799  0.00  0.00     0.040 H 
ATOM     35  H5  478 d   1      14.228  18.189  18.666  0.00  0.00     0.087 H 
ENDBRANCH  23  24
ENDBRANCH  20  23
ENDBRANCH   3  19
ENDBRANCH   1   3
BRANCH   1  36
ATOM     36  C14 478 d   1      16.403  24.865  17.343  0.00  0.00     0.031 C 
ATOM     37  H15 478 d   1      16.503  25.768  17.962  0.00  0.00     0.069 H 
ATOM     38  H16 478 d   1      16.102  25.150  16.324  0.00  0.00     0.069 H 
BRANCH  36  39
ATOM     39  N2  478 d   1      17.687  24.205  17.278  0.00  0.00    -0.304 N 
BRANCH  39  40
ATOM     40  C15 478 d   1      18.599  24.654  18.304  0.00  0.00     0.008 C 
ATOM     41  H17 478 d   1      19.623  24.410  17.985  0.00  0.00     0.066 H 
ATOM     42  H18 478 d   1      18.496  25.745  18.402  0.00  0.00     0.066 H 
BRANCH  40  43
ATOM     43  C16 478 d   1      18.363  24.021  19.690  0.00  0.00    -0.045 C 
ATOM     44  H19 478 d   1      17.371  24.337  20.046  0.00  0.00     0.041 H 
BRANCH  43  45
ATOM     45  C23 478 d   1      18.395  22.482  19.616  0.00  0.00    -0.072 C 
ATOM     46  H24 478 d   1      18.224  22.063  20.619  0.00  0.00     0.028 H 
ATOM     47  H25 478 d   1      19.377  22.153  19.244  0.00  0.00     0.028 H 
ATOM     48  H26 478 d   1      17.608  22.131  18.933  0.00  0.00     0.028 H 
ENDBRANCH  43  45
BRANCH  43  49
ATOM     49  C24 478 d   1      19.418  24.478  20.705  0.00  0.00    -0.072 C 
ATOM     50  H27 478 d   1      19.411  25.576  20.772  0.00  0.00     0.028 H 
ATOM     51  H28 478 d   1      20.412  24.137  20.379  0.00  0.00     0.028 H 
ATOM     52  H29 478 d   1      19.188  24.049  21.691  0.00  0.00     0.028 H 
ENDBRANCH  43  49
ENDBRANCH  40  43
ENDBRANCH  39  40
BRANCH  39  53
ATOM     53  S1  478 d   1      18.354  23.921  15.797  0.00  0.00     0.260 S 
ATOM     54  O4  478 d   1      17.242  23.547  14.872  0.00  0.00    -0.200 OA
ATOM     55  O5  478 d   1      19.323  22.781  15.972  0.00  0.00    -0.200 OA
BRANCH  53  56
ATOM     56  C17 478 d   1      19.158  25.332  15.152  0.00  0.00     0.079 A 
ATOM     57  C18 478 d   1      18.464  26.322  14.476  0.00  0.00    -0.058 A 
ATOM     58  C19 478 d   1      19.055  27.509  14.046  0.00  0.00    -0.056 A 
ATOM     59  H20 478 d   1      17.411  26.166  14.272  0.00  0.00     0.086 H 
ATOM     60  C20 478 d   1      20.386  27.765  14.337  0.00  0.00     0.025 A 
ATOM     61  H21 478 d   1      18.474  28.232  13.484  0.00  0.00     0.086 H 
ATOM     62  C21 478 d   1      21.089  26.795  15.053  0.00  0.00    -0.056 A 
ATOM     63  C22 478 d   1      20.466  25.638  15.493  0.00  0.00    -0.058 A 
ATOM     64  H22 478 d   1      22.140  26.949  15.269  0.00  0.00     0.086 H 
ATOM     65  H23 478 d   1      21.019  24.951  16.123  0.00  0.00     0.086 H 
BRANCH  60  66
ATOM     66  N3  478 d   1      20.978  28.899  13.966  0.00  0.00    -0.399 N 
ATOM     67  H33 478 d   1      20.449  29.607  13.438  0.00  0.00     0.156 HD
ATOM     68  H34 478 d   1      21.965  29.067  14.207  0.00  0.00     0.156 HD
ENDBRANCH  60  66
ENDBRANCH  53  56
ENDBRANCH  39  53
ENDBRANCH  36  39
ENDBRANCH   1  36
BRANCH   1  69
ATOM     69  O3  478 d   1      14.166  24.747  18.309  0.00  0.00    -0.392 OA
ATOM     70  H35 478 d   1      13.816  25.177  17.538  0.00  0.00     0.210 HD
ENDBRANCH   1  69
TORSDOF 16
