REMARK  16 active torsions:
REMARK  status: ('A' for Active; 'I' for Inactive)
REMARK       I    between atoms: N1_26  and  C3_3 
REMARK    1  A    between atoms: C3_3  and  O1_29 
REMARK    2  A    between atoms: O1_29  and  C4_4 
REMARK    3  A    between atoms: C6_6  and  C5_5 
REMARK    4  A    between atoms: C5_5  and  C7_7 
REMARK    5  A    between atoms: C5_5  and  N1_26 
REMARK    6  A    between atoms: C14_14  and  C6_6 
REMARK    7  A    between atoms: C6_6  and  O3_31 
REMARK    8  A    between atoms: C7_7  and  C8_8 
REMARK    9  A    between atoms: N2_27  and  C14_14 
REMARK   10  A    between atoms: C15_15  and  C16_16 
REMARK   11  A    between atoms: N2_27  and  C15_15 
REMARK   12  A    between atoms: C16_16  and  C23_23 
REMARK   13  A    between atoms: C16_16  and  C24_24 
REMARK   14  A    between atoms: S1_35  and  C17_17 
REMARK   15  A    between atoms: C20_20  and  N3_28 
REMARK   16  A    between atoms: N2_27  and  S1_35 
ROOT
ATOM      1  C6  478 d   1     -15.243 -18.894 -17.897  0.00  0.00     0.071 C 
ATOM      2  H7  478 d   1     -15.613 -19.383 -18.810  0.00  0.00     0.088 H 
ENDROOT
BRANCH   1   3
ATOM      3  C5  478 d   1     -14.812 -19.974 -16.922  0.00  0.00     0.044 C 
ATOM      4  H6  478 d   1     -15.715 -20.527 -16.625  0.00  0.00     0.077 H 
BRANCH   3   5
ATOM      5  C7  478 d   1     -14.111 -19.466 -15.639  0.00  0.00    -0.020 C 
ATOM      6  H8  478 d   1     -14.785 -18.759 -15.133  0.00  0.00     0.043 H 
ATOM      7  H9  478 d   1     -13.187 -18.947 -15.932  0.00  0.00     0.043 H 
BRANCH   5   8
ATOM      8  C8  478 d   1     -13.757 -20.546 -14.676  0.00  0.00    -0.056 A 
ATOM      9  C9  478 d   1     -12.464 -21.016 -14.627  0.00  0.00    -0.077 A 
ATOM     10  C11 478 d   1     -12.155 -22.080 -13.781  0.00  0.00    -0.082 A 
ATOM     11  H10 478 d   1     -11.694 -20.563 -15.240  0.00  0.00     0.084 H 
ATOM     12  C13 478 d   1     -13.164 -22.630 -13.004  0.00  0.00    -0.083 A 
ATOM     13  H12 478 d   1     -11.145 -22.470 -13.731  0.00  0.00     0.083 H 
ATOM     14  C12 478 d   1     -14.448 -22.137 -12.947  0.00  0.00    -0.082 A 
ATOM     15  H14 478 d   1     -12.927 -23.502 -12.405  0.00  0.00     0.083 H 
ATOM     16  C10 478 d   1     -14.722 -21.109 -13.823  0.00  0.00    -0.077 A 
ATOM     17  H13 478 d   1     -15.191 -22.529 -12.262  0.00  0.00     0.083 H 
ATOM     18  H11 478 d   1     -15.731 -20.715 -13.856  0.00  0.00     0.084 H 
ENDBRANCH   5   8
ENDBRANCH   3   5
BRANCH   3  19
ATOM     19  N1  478 d   1     -13.863 -20.904 -17.562  0.00  0.00    -0.329 N 
ATOM     20  C3  478 d   1     -14.150 -22.104 -18.007  0.00  0.00     0.361 C 
ATOM     21  O2  478 d   1     -15.262 -22.623 -17.967  0.00  0.00    -0.238 OA
ATOM     22  H32 478 d   1     -12.918 -20.593 -17.666  0.00  0.00     0.165 HD
BRANCH  20  23
ATOM     23  O1  478 d   1     -13.071 -22.743 -18.493  0.00  0.00    -0.296 OA
BRANCH  23  24
ATOM     24  C4  478 d   1     -13.329 -24.065 -19.043  0.00  0.00     0.072 C 
ATOM     25  C1  478 d   1     -11.990 -24.688 -19.397  0.00  0.00     0.044 C 
ATOM     26  O6  478 d   1     -11.683 -24.178 -20.715  0.00  0.00    -0.389 OA
ATOM     27  H1  478 d   1     -12.065 -25.785 -19.414  0.00  0.00     0.078 H 
ATOM     28  H2  478 d   1     -11.218 -24.384 -18.674  0.00  0.00     0.078 H 
ATOM     29  C25 478 d   1     -12.891 -24.302 -21.437  0.00  0.00     0.022 C 
ATOM     30  C2  478 d   1     -13.915 -23.822 -20.454  0.00  0.00    -0.018 C 
ATOM     31  H30 478 d   1     -12.881 -23.671 -22.338  0.00  0.00     0.074 H 
ATOM     32  H31 478 d   1     -13.076 -25.348 -21.723  0.00  0.00     0.074 H 
ATOM     33  H3  478 d   1     -14.110 -22.750 -20.604  0.00  0.00     0.040 H 
ATOM     34  H4  478 d   1     -14.851 -24.386 -20.577  0.00  0.00     0.040 H 
ATOM     35  H5  478 d   1     -13.956 -24.689 -18.389  0.00  0.00     0.087 H 
ENDBRANCH  23  24
ENDBRANCH  20  23
ENDBRANCH   3  19
ENDBRANCH   1   3
BRANCH   1  36
ATOM     36  C14 478 d   1     -16.341 -17.999 -17.319  0.00  0.00     0.031 C 
ATOM     37  H15 478 d   1     -16.421 -17.089 -17.932  0.00  0.00     0.069 H 
ATOM     38  H16 478 d   1     -16.073 -17.724 -16.288  0.00  0.00     0.069 H 
BRANCH  36  39
ATOM     39  N2  478 d   1     -17.626 -18.676 -17.308  0.00  0.00    -0.304 N 
BRANCH  39  40
ATOM     40  C15 478 d   1     -18.520 -18.282 -18.375  0.00  0.00     0.008 C 
ATOM     41  H17 478 d   1     -19.542 -18.561 -18.078  0.00  0.00     0.066 H 
ATOM     42  H18 478 d   1     -18.454 -17.189 -18.482  0.00  0.00     0.066 H 
BRANCH  40  43
ATOM     43  C16 478 d   1     -18.244 -18.908 -19.756  0.00  0.00    -0.045 C 
ATOM     44  H19 478 d   1     -17.238 -18.619 -20.095  0.00  0.00     0.041 H 
BRANCH  43  45
ATOM     45  C23 478 d   1     -18.364 -20.425 -19.760  0.00  0.00    -0.072 C 
ATOM     46  H24 478 d   1     -18.156 -20.807 -20.770  0.00  0.00     0.028 H 
ATOM     47  H25 478 d   1     -19.383 -20.713 -19.462  0.00  0.00     0.028 H 
ATOM     48  H26 478 d   1     -17.640 -20.852 -19.051  0.00  0.00     0.028 H 
ENDBRANCH  43  45
BRANCH  43  49
ATOM     49  C24 478 d   1     -19.330 -18.364 -20.730  0.00  0.00    -0.072 C 
ATOM     50  H27 478 d   1     -19.280 -17.265 -20.759  0.00  0.00     0.028 H 
ATOM     51  H28 478 d   1     -20.325 -18.676 -20.381  0.00  0.00     0.028 H 
ATOM     52  H29 478 d   1     -19.152 -18.766 -21.738  0.00  0.00     0.028 H 
ENDBRANCH  43  49
ENDBRANCH  40  43
ENDBRANCH  39  40
BRANCH  39  53
ATOM     53  S1  478 d   1     -18.326 -18.954 -15.822  0.00  0.00     0.260 S 
ATOM     54  O4  478 d   1     -17.194 -19.207 -14.859  0.00  0.00    -0.200 OA
ATOM     55  O5  478 d   1     -19.294 -20.014 -16.047  0.00  0.00    -0.200 OA
BRANCH  53  56
ATOM     56  C17 478 d   1     -19.165 -17.565 -15.185  0.00  0.00     0.079 C 
ATOM     57  C18 478 d   1     -18.500 -16.637 -14.399  0.00  0.00    -0.058 C 
ATOM     58  C19 478 d   1     -19.163 -15.469 -14.071  0.00  0.00    -0.056 C 
ATOM     59  H20 478 d   1     -17.490 -16.822 -14.052  0.00  0.00     0.086 H 
ATOM     60  C20 478 d   1     -20.416 -15.146 -14.470  0.00  0.00     0.025 C 
ATOM     61  H21 478 d   1     -18.639 -14.756 -13.445  0.00  0.00     0.086 H 
ATOM     62  C21 478 d   1     -21.148 -16.132 -15.135  0.00  0.00    -0.056 C 
ATOM     63  C22 478 d   1     -20.464 -17.283 -15.560  0.00  0.00    -0.058 C 
ATOM     64  H22 478 d   1     -22.210 -16.013 -15.317  0.00  0.00     0.086 H 
ATOM     65  H23 478 d   1     -20.978 -17.981 -16.211  0.00  0.00     0.086 H 
BRANCH  60  66
ATOM     66  N3  478 d   1     -21.046 -14.039 -14.048  0.00  0.00    -0.399 N 
ATOM     67  H33 478 d   1     -20.520 -13.303 -13.556  0.00  0.00     0.156 HD
ATOM     68  H34 478 d   1     -22.056 -13.925 -14.216  0.00  0.00     0.156 HD
ENDBRANCH  60  66
ENDBRANCH  53  56
ENDBRANCH  39  53
ENDBRANCH  36  39
ENDBRANCH   1  36
BRANCH   1  69
ATOM     69  O3  478 d   1     -14.147 -18.006 -18.234  0.00  0.00    -0.392 OA
ATOM     70  H35 478 d   1     -13.851 -17.559 -17.450  0.00  0.00     0.210 HD
ENDBRANCH   1  69
TORSDOF 16
