REMARK  16 active torsions:
REMARK  status: ('A' for Active; 'I' for Inactive)
REMARK       I    between atoms: N1_26  and  C3_3 
REMARK    1  A    between atoms: C3_3  and  O1_29 
REMARK    2  A    between atoms: O1_29  and  C4_4 
REMARK    3  A    between atoms: C6_6  and  C5_5 
REMARK    4  A    between atoms: C5_5  and  C7_7 
REMARK    5  A    between atoms: C5_5  and  N1_26 
REMARK    6  A    between atoms: C14_14  and  C6_6 
REMARK    7  A    between atoms: C6_6  and  O3_31 
REMARK    8  A    between atoms: C7_7  and  C8_8 
REMARK    9  A    between atoms: N2_27  and  C14_14 
REMARK   10  A    between atoms: C15_15  and  C16_16 
REMARK   11  A    between atoms: N2_27  and  C15_15 
REMARK   12  A    between atoms: C16_16  and  C23_23 
REMARK   13  A    between atoms: C16_16  and  C24_24 
REMARK   14  A    between atoms: S1_35  and  C17_17 
REMARK   15  A    between atoms: C20_20  and  N3_28 
REMARK   16  A    between atoms: N2_27  and  S1_35 
ROOT
ATOM      1  C6  478 d   1      13.773  19.442  17.477  0.00  0.00     0.071 C 
ATOM      2  H7  478 d   1      13.446  19.945  18.399  0.00  0.00     0.088 H 
ENDROOT
BRANCH   1   3
ATOM      3  C5  478 d   1      14.186  20.520  16.472  0.00  0.00     0.044 C 
ATOM      4  H6  478 d   1      13.281  21.075  16.185  0.00  0.00     0.077 H 
BRANCH   3   5
ATOM      5  C7  478 d   1      14.827  19.986  15.178  0.00  0.00    -0.020 C 
ATOM      6  H8  478 d   1      14.113  19.326  14.664  0.00  0.00     0.043 H 
ATOM      7  H9  478 d   1      15.735  19.418  15.430  0.00  0.00     0.043 H 
BRANCH   5   8
ATOM      8  C8  478 d   1      15.193  21.135  14.264  0.00  0.00    -0.056 A 
ATOM      9  C9  478 d   1      16.497  21.627  14.247  0.00  0.00    -0.077 A 
ATOM     10  C11 478 d   1      16.842  22.694  13.416  0.00  0.00    -0.082 A 
ATOM     11  H10 478 d   1      17.250  21.177  14.884  0.00  0.00     0.084 H 
ATOM     12  C13 478 d   1      15.857  23.275  12.604  0.00  0.00    -0.083 A 
ATOM     13  H12 478 d   1      17.859  23.069  13.398  0.00  0.00     0.083 H 
ATOM     14  C12 478 d   1      14.545  22.792  12.611  0.00  0.00    -0.082 A 
ATOM     15  H14 478 d   1      16.116  24.110  11.963  0.00  0.00     0.083 H 
ATOM     16  C10 478 d   1      14.220  21.713  13.440  0.00  0.00    -0.077 A 
ATOM     17  H13 478 d   1      13.789  23.248  11.982  0.00  0.00     0.083 H 
ATOM     18  H11 478 d   1      13.209  21.322  13.444  0.00  0.00     0.084 H 
ENDBRANCH   5   8
ENDBRANCH   3   5
BRANCH   3  19
ATOM     19  N1  478 d   1      15.099  21.432  17.139  0.00  0.00    -0.329 N 
ATOM     20  C3  478 d   1      14.822  22.701  17.417  0.00  0.00     0.361 C 
ATOM     21  O2  478 d   1      13.719  23.235  17.323  0.00  0.00    -0.238 OA
ATOM     22  H32 478 d   1      15.996  21.081  17.407  0.00  0.00     0.165 HD
BRANCH  20  23
ATOM     23  O1  478 d   1      15.982  23.447  17.892  0.00  0.00    -0.296 OA
BRANCH  23  24
ATOM     24  C4  478 d   1      15.723  24.733  18.445  0.00  0.00     0.072 C 
ATOM     25  C1  478 d   1      17.105  25.357  18.660  0.00  0.00     0.044 C 
ATOM     26  O6  478 d   1      17.478  24.972  19.986  0.00  0.00    -0.389 OA
ATOM     27  H1  478 d   1      17.053  26.453  18.575  0.00  0.00     0.078 H 
ATOM     28  H2  478 d   1      17.825  24.966  17.926  0.00  0.00     0.078 H 
ATOM     29  C25 478 d   1      16.299  24.932  20.800  0.00  0.00     0.022 C 
ATOM     30  C2  478 d   1      15.158  24.554  19.852  0.00  0.00    -0.018 C 
ATOM     31  H30 478 d   1      16.405  24.177  21.593  0.00  0.00     0.074 H 
ATOM     32  H31 478 d   1      16.112  25.917  21.253  0.00  0.00     0.074 H 
ATOM     33  H3  478 d   1      14.853  23.510  20.014  0.00  0.00     0.040 H 
ATOM     34  H4  478 d   1      14.294  25.217  20.007  0.00  0.00     0.040 H 
ATOM     35  H5  478 d   1      15.068  25.341  17.803  0.00  0.00     0.087 H 
ENDBRANCH  23  24
ENDBRANCH  20  23
ENDBRANCH   3  19
ENDBRANCH   1   3
BRANCH   1  36
ATOM     36  C14 478 d   1      12.642  18.516  17.012  0.00  0.00     0.031 C 
ATOM     37  H15 478 d   1      12.603  17.660  17.702  0.00  0.00     0.069 H 
ATOM     38  H16 478 d   1      12.892  18.161  16.001  0.00  0.00     0.069 H 
BRANCH  36  39
ATOM     39  N2  478 d   1      11.300  19.112  16.959  0.00  0.00    -0.304 N 
BRANCH  39  40
ATOM     40  C15 478 d   1      10.425  19.155  18.122  0.00  0.00     0.008 C 
ATOM     41  H17 478 d   1       9.536  19.742  17.848  0.00  0.00     0.066 H 
ATOM     42  H18 478 d   1      10.126  18.122  18.352  0.00  0.00     0.066 H 
BRANCH  40  43
ATOM     43  C16 478 d   1      11.004  19.763  19.399  0.00  0.00    -0.045 C 
ATOM     44  H19 478 d   1      11.974  19.296  19.624  0.00  0.00     0.041 H 
BRANCH  43  45
ATOM     45  C23 478 d   1      11.194  21.272  19.311  0.00  0.00    -0.072 C 
ATOM     46  H24 478 d   1      11.612  21.645  20.258  0.00  0.00     0.028 H 
ATOM     47  H25 478 d   1      10.223  21.754  19.124  0.00  0.00     0.028 H 
ATOM     48  H26 478 d   1      11.885  21.507  18.488  0.00  0.00     0.028 H 
ENDBRANCH  43  45
BRANCH  43  49
ATOM     49  C24 478 d   1       9.995  19.442  20.490  0.00  0.00    -0.072 C 
ATOM     50  H27 478 d   1       9.858  18.352  20.553  0.00  0.00     0.028 H 
ATOM     51  H28 478 d   1       9.033  19.919  20.252  0.00  0.00     0.028 H 
ATOM     52  H29 478 d   1      10.364  19.822  21.454  0.00  0.00     0.028 H 
ENDBRANCH  43  49
ENDBRANCH  40  43
ENDBRANCH  39  40
BRANCH  39  53
ATOM     53  S1  478 d   1      10.706  19.496  15.571  0.00  0.00     0.260 S 
ATOM     54  O4  478 d   1      11.790  19.781  14.657  0.00  0.00    -0.200 OA
ATOM     55  O5  478 d   1       9.718  20.524  15.698  0.00  0.00    -0.200 OA
BRANCH  53  56
ATOM     56  C17 478 d   1       9.934  18.141  15.086  0.00  0.00     0.079 A 
ATOM     57  C18 478 d   1      10.589  17.181  14.307  0.00  0.00    -0.058 A 
ATOM     58  C19 478 d   1       9.947  16.009  13.890  0.00  0.00    -0.056 A 
ATOM     59  H20 478 d   1      11.620  17.349  14.019  0.00  0.00     0.086 H 
ATOM     60  C20 478 d   1       8.635  15.753  14.270  0.00  0.00     0.025 A 
ATOM     61  H21 478 d   1      10.476  15.297  13.267  0.00  0.00     0.086 H 
ATOM     62  C21 478 d   1       7.955  16.710  15.028  0.00  0.00    -0.056 A 
ATOM     63  C22 478 d   1       8.608  17.894  15.435  0.00  0.00    -0.058 A 
ATOM     64  H22 478 d   1       6.920  16.543  15.305  0.00  0.00     0.086 H 
ATOM     65  H23 478 d   1       8.069  18.623  16.029  0.00  0.00     0.086 H 
BRANCH  60  66
ATOM     66  N3  478 d   1       8.005  14.609  13.858  0.00  0.00    -0.399 N 
ATOM     67  H33 478 d   1       8.517  13.911  13.300  0.00  0.00     0.156 HD
ATOM     68  H34 478 d   1       7.019  14.446  14.106  0.00  0.00     0.156 HD
ENDBRANCH  60  66
ENDBRANCH  53  56
ENDBRANCH  39  53
ENDBRANCH  36  39
ENDBRANCH   1  36
BRANCH   1  69
ATOM     69  O3  478 d   1      14.921  18.619  17.761  0.00  0.00    -0.392 OA
ATOM     70  H35 478 d   1      15.177  18.152  16.974  0.00  0.00     0.210 HD
ENDBRANCH   1  69
TORSDOF 16
