REMARK  16 active torsions:
REMARK  status: ('A' for Active; 'I' for Inactive)
REMARK       I    between atoms: N1_26  and  C3_3 
REMARK    1  A    between atoms: C3_3  and  O1_29 
REMARK    2  A    between atoms: O1_29  and  C4_4 
REMARK    3  A    between atoms: C6_6  and  C5_5 
REMARK    4  A    between atoms: C5_5  and  C7_7 
REMARK    5  A    between atoms: C5_5  and  N1_26 
REMARK    6  A    between atoms: C14_14  and  C6_6 
REMARK    7  A    between atoms: C6_6  and  O3_31 
REMARK    8  A    between atoms: C7_7  and  C8_8 
REMARK    9  A    between atoms: N2_27  and  C14_14 
REMARK   10  A    between atoms: C15_15  and  C16_16 
REMARK   11  A    between atoms: N2_27  and  C15_15 
REMARK   12  A    between atoms: C16_16  and  C23_23 
REMARK   13  A    between atoms: C16_16  and  C24_24 
REMARK   14  A    between atoms: S1_35  and  C17_17 
REMARK   15  A    between atoms: C20_20  and  N3_28 
REMARK   16  A    between atoms: N2_27  and  S1_35 
ROOT
ATOM      1  C6  478 d   1      13.641  18.977  17.807  0.00  0.00     0.071 C 
ATOM      2  H7  478 d   1      13.294  19.471  18.727  0.00  0.00     0.088 H 
ENDROOT
BRANCH   1   3
ATOM      3  C5  478 d   1      14.142  20.051  16.847  0.00  0.00     0.044 C 
ATOM      4  H6  478 d   1      13.260  20.622  16.522  0.00  0.00     0.077 H 
BRANCH   3   5
ATOM      5  C7  478 d   1      14.828  19.529  15.583  0.00  0.00    -0.020 C 
ATOM      6  H8  478 d   1      14.136  18.860  15.051  0.00  0.00     0.043 H 
ATOM      7  H9  478 d   1      15.730  18.970  15.871  0.00  0.00     0.043 H 
BRANCH   5   8
ATOM      8  C8  478 d   1      15.227  20.669  14.655  0.00  0.00    -0.056 A 
ATOM      9  C9  478 d   1      16.523  21.149  14.646  0.00  0.00    -0.077 A 
ATOM     10  C11 478 d   1      16.831  22.242  13.837  0.00  0.00    -0.082 A 
ATOM     11  H10 478 d   1      17.287  20.683  15.258  0.00  0.00     0.084 H 
ATOM     12  C13 478 d   1      15.856  22.842  13.076  0.00  0.00    -0.083 A 
ATOM     13  H12 478 d   1      17.846  22.621  13.808  0.00  0.00     0.083 H 
ATOM     14  C12 478 d   1      14.569  22.345  12.971  0.00  0.00    -0.082 A 
ATOM     15  H14 478 d   1      16.107  23.746  12.533  0.00  0.00     0.083 H 
ATOM     16  C10 478 d   1      14.310  21.278  13.815  0.00  0.00    -0.077 A 
ATOM     17  H13 478 d   1      13.831  22.753  12.290  0.00  0.00     0.083 H 
ATOM     18  H11 478 d   1      13.300  20.885  13.818  0.00  0.00     0.084 H 
ENDBRANCH   5   8
ENDBRANCH   3   5
BRANCH   3  19
ATOM     19  N1  478 d   1      15.038  20.962  17.528  0.00  0.00    -0.329 N 
ATOM     20  C3  478 d   1      14.721  22.232  17.857  0.00  0.00     0.361 C 
ATOM     21  O2  478 d   1      13.614  22.731  17.714  0.00  0.00    -0.238 OA
ATOM     22  H32 478 d   1      15.949  20.629  17.770  0.00  0.00     0.165 HD
BRANCH  20  23
ATOM     23  O1  478 d   1      15.775  22.911  18.409  0.00  0.00    -0.296 OA
BRANCH  23  24
ATOM     24  C4  478 d   1      15.452  24.237  18.902  0.00  0.00     0.072 C 
ATOM     25  C1  478 d   1      16.779  24.952  19.215  0.00  0.00     0.044 C 
ATOM     26  O6  478 d   1      17.140  24.461  20.501  0.00  0.00    -0.389 OA
ATOM     27  H1  478 d   1      16.639  26.043  19.238  0.00  0.00     0.078 H 
ATOM     28  H2  478 d   1      17.546  24.696  18.469  0.00  0.00     0.078 H 
ATOM     29  C25 478 d   1      15.916  24.533  21.231  0.00  0.00     0.022 C 
ATOM     30  C2  478 d   1      14.838  24.045  20.291  0.00  0.00    -0.018 C 
ATOM     31  H30 478 d   1      15.965  23.890  22.122  0.00  0.00     0.074 H 
ATOM     32  H31 478 d   1      15.715  25.570  21.537  0.00  0.00     0.074 H 
ATOM     33  H3  478 d   1      14.608  22.985  20.475  0.00  0.00     0.040 H 
ATOM     34  H4  478 d   1      13.922  24.644  20.401  0.00  0.00     0.040 H 
ATOM     35  H5  478 d   1      14.807  24.799  18.210  0.00  0.00     0.087 H 
ENDBRANCH  23  24
ENDBRANCH  20  23
ENDBRANCH   3  19
ENDBRANCH   1   3
BRANCH   1  36
ATOM     36  C14 478 d   1      12.499  18.150  17.228  0.00  0.00     0.031 C 
ATOM     37  H15 478 d   1      12.379  17.255  17.856  0.00  0.00     0.069 H 
ATOM     38  H16 478 d   1      12.784  17.848  16.209  0.00  0.00     0.069 H 
BRANCH  36  39
ATOM     39  N2  478 d   1      11.216  18.813  17.151  0.00  0.00    -0.304 N 
BRANCH  39  40
ATOM     40  C15 478 d   1      10.245  18.375  18.158  0.00  0.00     0.008 C 
ATOM     41  H17 478 d   1       9.252  18.777  17.906  0.00  0.00     0.066 H 
ATOM     42  H18 478 d   1      10.204  17.276  18.171  0.00  0.00     0.066 H 
BRANCH  40  43
ATOM     43  C16 478 d   1      10.663  18.884  19.544  0.00  0.00    -0.045 C 
ATOM     44  H19 478 d   1      11.652  18.492  19.822  0.00  0.00     0.041 H 
BRANCH  43  45
ATOM     45  C23 478 d   1      10.674  20.421  19.509  0.00  0.00    -0.072 C 
ATOM     46  H24 478 d   1      10.972  20.808  20.495  0.00  0.00     0.028 H 
ATOM     47  H25 478 d   1       9.668  20.789  19.259  0.00  0.00     0.028 H 
ATOM     48  H26 478 d   1      11.390  20.765  18.748  0.00  0.00     0.028 H 
ENDBRANCH  43  45
BRANCH  43  49
ATOM     49  C24 478 d   1       9.590  18.439  20.559  0.00  0.00    -0.072 C 
ATOM     50  H27 478 d   1       9.561  17.340  20.604  0.00  0.00     0.028 H 
ATOM     51  H28 478 d   1       8.607  18.819  20.244  0.00  0.00     0.028 H 
ATOM     52  H29 478 d   1       9.837  18.840  21.553  0.00  0.00     0.028 H 
ENDBRANCH  43  49
ENDBRANCH  40  43
ENDBRANCH  39  40
BRANCH  39  53
ATOM     53  S1  478 d   1      10.577  19.103  15.670  0.00  0.00     0.260 S 
ATOM     54  O4  478 d   1      11.663  19.393  14.655  0.00  0.00    -0.200 OA
ATOM     55  O5  478 d   1       9.604  20.252  15.750  0.00  0.00    -0.200 OA
BRANCH  53  56
ATOM     56  C17 478 d   1       9.755  17.673  15.052  0.00  0.00     0.079 C 
ATOM     57  C18 478 d   1      10.465  16.794  14.260  0.00  0.00    -0.058 C 
ATOM     58  C19 478 d   1       9.806  15.683  13.754  0.00  0.00    -0.056 C 
ATOM     59  H20 478 d   1      11.512  16.967  14.039  0.00  0.00     0.086 H 
ATOM     60  C20 478 d   1       8.559  15.340  14.215  0.00  0.00     0.025 C 
ATOM     61  H21 478 d   1      10.280  15.080  12.988  0.00  0.00     0.086 H 
ATOM     62  C21 478 d   1       7.796  16.279  14.918  0.00  0.00    -0.056 C 
ATOM     63  C22 478 d   1       8.440  17.409  15.376  0.00  0.00    -0.058 C 
ATOM     64  H22 478 d   1       6.738  16.124  15.096  0.00  0.00     0.086 H 
ATOM     65  H23 478 d   1       7.900  18.107  16.006  0.00  0.00     0.086 H 
BRANCH  60  66
ATOM     66  N3  478 d   1       7.967  14.241  13.766  0.00  0.00    -0.399 N 
ATOM     67  H33 478 d   1       8.512  13.538  13.246  0.00  0.00     0.156 HD
ATOM     68  H34 478 d   1       6.963  14.091  13.937  0.00  0.00     0.156 HD
ENDBRANCH  60  66
ENDBRANCH  53  56
ENDBRANCH  39  53
ENDBRANCH  36  39
ENDBRANCH   1  36
BRANCH   1  69
ATOM     69  O3  478 d   1      14.686  18.069  18.122  0.00  0.00    -0.392 OA
ATOM     70  H35 478 d   1      14.962  17.619  17.332  0.00  0.00     0.210 HD
ENDBRANCH   1  69
TORSDOF 16
