REMARK  16 active torsions:
REMARK  status: ('A' for Active; 'I' for Inactive)
REMARK       I    between atoms: N1_26  and  C3_3 
REMARK    1  A    between atoms: C3_3  and  O1_29 
REMARK    2  A    between atoms: O1_29  and  C4_4 
REMARK    3  A    between atoms: C6_6  and  C5_5 
REMARK    4  A    between atoms: C5_5  and  C7_7 
REMARK    5  A    between atoms: C5_5  and  N1_26 
REMARK    6  A    between atoms: C14_14  and  C6_6 
REMARK    7  A    between atoms: C6_6  and  O3_31 
REMARK    8  A    between atoms: C7_7  and  C8_8 
REMARK    9  A    between atoms: N2_27  and  C14_14 
REMARK   10  A    between atoms: C15_15  and  C16_16 
REMARK   11  A    between atoms: N2_27  and  C15_15 
REMARK   12  A    between atoms: C16_16  and  C23_23 
REMARK   13  A    between atoms: C16_16  and  C24_24 
REMARK   14  A    between atoms: S1_35  and  C17_17 
REMARK   15  A    between atoms: C20_20  and  N3_28 
REMARK   16  A    between atoms: N2_27  and  S1_35 
ROOT
ATOM      1  C6  478 d   1      13.419  19.445  17.961  0.00  0.00     0.071 C 
ATOM      2  H7  478 d   1      13.040  19.911  18.882  0.00  0.00     0.088 H 
ENDROOT
BRANCH   1   3
ATOM      3  C5  478 d   1      13.833  20.560  17.000  0.00  0.00     0.044 C 
ATOM      4  H6  478 d   1      12.925  21.095  16.685  0.00  0.00     0.077 H 
BRANCH   3   5
ATOM      5  C7  478 d   1      14.563  20.066  15.758  0.00  0.00    -0.020 C 
ATOM      6  H8  478 d   1      13.900  19.389  15.199  0.00  0.00     0.043 H 
ATOM      7  H9  478 d   1      15.467  19.521  16.068  0.00  0.00     0.043 H 
BRANCH   5   8
ATOM      8  C8  478 d   1      14.967  21.218  14.855  0.00  0.00    -0.056 C 
ATOM      9  C9  478 d   1      16.289  21.660  14.798  0.00  0.00    -0.077 C 
ATOM     10  C11 478 d   1      16.617  22.788  14.035  0.00  0.00    -0.082 C 
ATOM     11  H10 478 d   1      17.062  21.131  15.344  0.00  0.00     0.084 H 
ATOM     12  C13 478 d   1      15.646  23.347  13.221  0.00  0.00    -0.083 C 
ATOM     13  H12 478 d   1      17.612  23.215  14.081  0.00  0.00     0.083 H 
ATOM     14  C12 478 d   1      14.344  22.889  13.224  0.00  0.00    -0.082 C 
ATOM     15  H14 478 d   1      15.916  24.166  12.564  0.00  0.00     0.083 H 
ATOM     16  C10 478 d   1      14.030  21.822  14.048  0.00  0.00    -0.077 C 
ATOM     17  H13 478 d   1      13.589  23.352  12.599  0.00  0.00     0.083 H 
ATOM     18  H11 478 d   1      13.012  21.450  14.058  0.00  0.00     0.084 H 
ENDBRANCH   5   8
ENDBRANCH   3   5
BRANCH   3  19
ATOM     19  N1  478 d   1      14.732  21.486  17.681  0.00  0.00    -0.329 N 
ATOM     20  C3  478 d   1      14.420  22.724  18.083  0.00  0.00     0.361 C 
ATOM     21  O2  478 d   1      13.294  23.222  18.032  0.00  0.00    -0.238 OA
ATOM     22  H32 478 d   1      15.662  21.168  17.863  0.00  0.00     0.165 HD
BRANCH  20  23
ATOM     23  O1  478 d   1      15.492  23.361  18.640  0.00  0.00    -0.296 OA
BRANCH  23  24
ATOM     24  C4  478 d   1      15.271  24.687  19.159  0.00  0.00     0.072 C 
ATOM     25  C1  478 d   1      16.610  25.329  19.489  0.00  0.00     0.044 C 
ATOM     26  O6  478 d   1      16.952  24.846  20.783  0.00  0.00    -0.389 OA
ATOM     27  H1  478 d   1      16.519  26.425  19.499  0.00  0.00     0.078 H 
ATOM     28  H2  478 d   1      17.372  25.031  18.753  0.00  0.00     0.078 H 
ATOM     29  C25 478 d   1      15.743  24.899  21.512  0.00  0.00     0.022 C 
ATOM     30  C2  478 d   1      14.628  24.526  20.552  0.00  0.00    -0.018 C 
ATOM     31  H30 478 d   1      15.775  24.186  22.349  0.00  0.00     0.074 H 
ATOM     32  H31 478 d   1      15.582  25.915  21.902  0.00  0.00     0.074 H 
ATOM     33  H3  478 d   1      14.302  23.488  20.715  0.00  0.00     0.040 H 
ATOM     34  H4  478 d   1      13.769  25.203  20.668  0.00  0.00     0.040 H 
ATOM     35  H5  478 d   1      14.666  25.297  18.472  0.00  0.00     0.087 H 
ENDBRANCH  23  24
ENDBRANCH  20  23
ENDBRANCH   3  19
ENDBRANCH   1   3
BRANCH   1  36
ATOM     36  C14 478 d   1      12.331  18.516  17.400  0.00  0.00     0.031 C 
ATOM     37  H15 478 d   1      12.270  17.616  18.030  0.00  0.00     0.069 H 
ATOM     38  H16 478 d   1      12.602  18.227  16.374  0.00  0.00     0.069 H 
BRANCH  36  39
ATOM     39  N2  478 d   1      11.026  19.168  17.379  0.00  0.00    -0.304 N 
BRANCH  39  40
ATOM     40  C15 478 d   1      10.092  18.817  18.449  0.00  0.00     0.008 C 
ATOM     41  H17 478 d   1       9.096  19.199  18.180  0.00  0.00     0.066 H 
ATOM     42  H18 478 d   1      10.055  17.721  18.532  0.00  0.00     0.066 H 
BRANCH  40  43
ATOM     43  C16 478 d   1      10.479  19.393  19.813  0.00  0.00    -0.045 C 
ATOM     44  H19 478 d   1      11.490  19.061  20.090  0.00  0.00     0.041 H 
BRANCH  43  45
ATOM     45  C23 478 d   1      10.424  20.922  19.776  0.00  0.00    -0.072 C 
ATOM     46  H24 478 d   1      10.704  21.323  20.761  0.00  0.00     0.028 H 
ATOM     47  H25 478 d   1       9.403  21.246  19.525  0.00  0.00     0.028 H 
ATOM     48  H26 478 d   1      11.125  21.296  19.015  0.00  0.00     0.028 H 
ENDBRANCH  43  45
BRANCH  43  49
ATOM     49  C24 478 d   1       9.451  18.895  20.840  0.00  0.00    -0.072 C 
ATOM     50  H27 478 d   1       9.476  17.796  20.881  0.00  0.00     0.028 H 
ATOM     51  H28 478 d   1       8.445  19.228  20.543  0.00  0.00     0.028 H 
ATOM     52  H29 478 d   1       9.695  19.304  21.831  0.00  0.00     0.028 H 
ENDBRANCH  43  49
ENDBRANCH  40  43
ENDBRANCH  39  40
BRANCH  39  53
ATOM     53  S1  478 d   1      10.343  19.505  15.923  0.00  0.00     0.260 S 
ATOM     54  O4  478 d   1      11.432  19.853  14.975  0.00  0.00    -0.200 OA
ATOM     55  O5  478 d   1       9.271  20.497  16.077  0.00  0.00    -0.200 OA
BRANCH  53  56
ATOM     56  C17 478 d   1       9.581  18.042  15.259  0.00  0.00     0.079 A 
ATOM     57  C18 478 d   1      10.291  17.147  14.491  0.00  0.00    -0.058 A 
ATOM     58  C19 478 d   1       9.770  15.941  14.032  0.00  0.00    -0.056 A 
ATOM     59  H20 478 d   1      11.313  17.395  14.229  0.00  0.00     0.086 H 
ATOM     60  C20 478 d   1       8.448  15.629  14.336  0.00  0.00     0.025 A 
ATOM     61  H21 478 d   1      10.380  15.259  13.450  0.00  0.00     0.086 H 
ATOM     62  C21 478 d   1       7.698  16.574  15.034  0.00  0.00    -0.056 A 
ATOM     63  C22 478 d   1       8.263  17.760  15.534  0.00  0.00    -0.058 A 
ATOM     64  H22 478 d   1       6.643  16.388  15.197  0.00  0.00     0.086 H 
ATOM     65  H23 478 d   1       7.668  18.444  16.129  0.00  0.00     0.086 H 
BRANCH  60  66
ATOM     66  N3  478 d   1       7.939  14.449  13.939  0.00  0.00    -0.399 N 
ATOM     67  H33 478 d   1       8.530  13.780  13.425  0.00  0.00     0.156 HD
ATOM     68  H34 478 d   1       6.958  14.214  14.149  0.00  0.00     0.156 HD
ENDBRANCH  60  66
ENDBRANCH  53  56
ENDBRANCH  39  53
ENDBRANCH  36  39
ENDBRANCH   1  36
BRANCH   1  69
ATOM     69  O3  478 d   1      14.552  18.633  18.272  0.00  0.00    -0.392 OA
ATOM     70  H35 478 d   1      14.857  18.201  17.483  0.00  0.00     0.210 HD
ENDBRANCH   1  69
TORSDOF 16
