REMARK  18 active torsions:
REMARK  status: ('A' for Active; 'I' for Inactive)
REMARK    1  A    between atoms: C1_1  and  O1_2 
REMARK    2  A    between atoms: C2_3  and  N2_4 
REMARK       I    between atoms: N2_4  and  C7_5 
REMARK    3  A    between atoms: C7_5  and  C8_7 
REMARK    4  A    between atoms: C3_8  and  O3_9 
REMARK    5  A    between atoms: O3_9  and  C18_16 
REMARK    6  A    between atoms: C4_10  and  O4_11 
REMARK    7  A    between atoms: C5_12  and  C6_14 
REMARK    8  A    between atoms: C6_14  and  O6_15 
REMARK    9  A    between atoms: C18_16  and  C20_17 
REMARK   10  A    between atoms: C18_16  and  C19_18 
REMARK       I    between atoms: C19_18  and  N4_20 
REMARK   11  A    between atoms: N4_20  and  C21_21 
REMARK   12  A    between atoms: C21_21  and  C23_22 
REMARK   13  A    between atoms: C21_21  and  C22_23 
REMARK       I    between atoms: C22_23  and  N5_25 
REMARK   14  A    between atoms: N5_25  and  C24_26 
REMARK   15  A    between atoms: C24_26  and  C25_27 
REMARK   16  A    between atoms: C24_26  and  C28_32 
REMARK   17  A    between atoms: C25_27  and  C26_28 
REMARK   18  A    between atoms: C26_28  and  C27_29 
REMARK       I    between atoms: C27_29  and  N20_30 
ROOT
ATOM      1  C18 MU2 d   1     -14.147 -22.644 -22.419  0.00  0.00     0.112 C 
ATOM      2  H15 MU2 d   1     -15.021 -22.355 -23.021  0.00  0.00     0.097 H 
ENDROOT
BRANCH   1   3
ATOM      3  O3  MU2 d   1     -14.333 -22.143 -21.088  0.00  0.00    -0.367 OA
BRANCH   3   4
ATOM      4  C3  MU2 d   1     -15.485 -21.322 -20.807  0.00  0.00     0.090 C 
ATOM      5  C2  MU2 d   1     -16.294 -21.930 -19.646  0.00  0.00     0.087 C 
ATOM      6  C1  MU2 d   1     -17.645 -21.220 -19.395  0.00  0.00     0.151 C 
ATOM      7  H3  MU2 d   1     -16.455 -23.007 -19.799  0.00  0.00     0.084 H 
ATOM      8  O5  MU2 d   1     -18.288 -20.716 -20.583  0.00  0.00    -0.349 OA
ATOM      9  H1  MU2 d   1     -18.317 -22.028 -19.070  0.00  0.00     0.132 H 
ATOM     10  C5  MU2 d   1     -17.430 -19.972 -21.460  0.00  0.00     0.089 C 
ATOM     11  C4  MU2 d   1     -16.370 -20.940 -22.006  0.00  0.00     0.089 C 
ATOM     12  H11 MU2 d   1     -16.923 -19.182 -20.887  0.00  0.00     0.090 H 
ATOM     13  H9  MU2 d   1     -16.842 -21.834 -22.439  0.00  0.00     0.091 H 
ATOM     14  H8  MU2 d   1     -15.082 -20.368 -20.436  0.00  0.00     0.090 H 
BRANCH   5  15
ATOM     15  N2  MU2 d   1     -15.439 -21.652 -18.485  0.00  0.00    -0.349 N 
ATOM     16  C7  MU2 d   1     -15.592 -22.165 -17.249  0.00  0.00     0.214 C 
ATOM     17  O7  MU2 d   1     -16.492 -22.950 -16.925  0.00  0.00    -0.274 OA
ATOM     18  H4  MU2 d   1     -14.673 -21.024 -18.625  0.00  0.00     0.163 HD
BRANCH  16  19
ATOM     19  C8  MU2 d   1     -14.562 -21.694 -16.257  0.00  0.00    -0.003 C 
ATOM     20  H5  MU2 d   1     -14.757 -22.157 -15.278  0.00  0.00     0.040 H 
ATOM     21  H6  MU2 d   1     -14.617 -20.599 -16.163  0.00  0.00     0.040 H 
ATOM     22  H7  MU2 d   1     -13.559 -21.982 -16.605  0.00  0.00     0.040 H 
ENDBRANCH  16  19
ENDBRANCH   5  15
BRANCH   6  23
ATOM     23  O1  MU2 d   1     -17.596 -20.354 -18.274  0.00  0.00    -0.369 OA
ATOM     24  H2  MU2 d   1     -17.152 -20.791 -17.557  0.00  0.00     0.212 HD
ENDBRANCH   6  23
BRANCH  10  25
ATOM     25  C6  MU2 d   1     -18.256 -19.306 -22.563  0.00  0.00     0.043 C 
ATOM     26  H12 MU2 d   1     -19.198 -18.926 -22.140  0.00  0.00     0.078 H 
ATOM     27  H13 MU2 d   1     -18.478 -20.040 -23.352  0.00  0.00     0.078 H 
BRANCH  25  28
ATOM     28  O6  MU2 d   1     -17.499 -18.211 -23.120  0.00  0.00    -0.398 OA
ATOM     29  H14 MU2 d   1     -17.308 -17.580 -22.436  0.00  0.00     0.209 HD
ENDBRANCH  25  28
ENDBRANCH  10  25
BRANCH  11  30
ATOM     30  O4  MU2 d   1     -15.587 -20.262 -23.009  0.00  0.00    -0.390 OA
ATOM     31  H10 MU2 d   1     -16.145 -20.032 -23.743  0.00  0.00     0.210 HD
ENDBRANCH  11  30
ENDBRANCH   3   4
ENDBRANCH   1   3
BRANCH   1  32
ATOM     32  C20 MU2 d   1     -14.054 -24.164 -22.395  0.00  0.00    -0.044 C 
ATOM     33  H16 MU2 d   1     -13.912 -24.539 -23.419  0.00  0.00     0.031 H 
ATOM     34  H17 MU2 d   1     -14.982 -24.582 -21.977  0.00  0.00     0.031 H 
ATOM     35  H18 MU2 d   1     -13.201 -24.469 -21.771  0.00  0.00     0.031 H 
ENDBRANCH   1  32
BRANCH   1  36
ATOM     36  C19 MU2 d   1     -12.914 -22.064 -23.067  0.00  0.00     0.247 C 
ATOM     37  O18 MU2 d   1     -12.060 -21.499 -22.403  0.00  0.00    -0.271 OA
ATOM     38  N4  MU2 d   1     -12.890 -22.239 -24.391  0.00  0.00    -0.346 N 
ATOM     39  H19 MU2 d   1     -13.682 -22.746 -24.733  0.00  0.00     0.163 HD
BRANCH  38  40
ATOM     40  C21 MU2 d   1     -11.955 -21.850 -25.455  0.00  0.00     0.086 C 
ATOM     41  H20 MU2 d   1     -11.925 -22.708 -26.142  0.00  0.00     0.086 H 
BRANCH  40  42
ATOM     42  C23 MU2 d   1     -12.619 -20.680 -26.182  0.00  0.00    -0.049 C 
ATOM     43  H21 MU2 d   1     -11.966 -20.337 -26.998  0.00  0.00     0.030 H 
ATOM     44  H22 MU2 d   1     -12.785 -19.855 -25.474  0.00  0.00     0.030 H 
ATOM     45  H23 MU2 d   1     -13.584 -21.006 -26.597  0.00  0.00     0.030 H 
ENDBRANCH  40  42
BRANCH  40  46
ATOM     46  C22 MU2 d   1     -10.502 -21.512 -25.200  0.00  0.00     0.240 C 
ATOM     47  O19 MU2 d   1     -10.099 -21.113 -24.118  0.00  0.00    -0.271 OA
ATOM     48  N5  MU2 d   1      -9.736 -21.673 -26.292  0.00  0.00    -0.345 N 
ATOM     49  H24 MU2 d   1     -10.218 -22.009 -27.101  0.00  0.00     0.163 HD
BRANCH  48  50
ATOM     50  C24 MU2 d   1      -8.300 -21.432 -26.481  0.00  0.00     0.096 C 
ATOM     51  H25 MU2 d   1      -8.094 -20.352 -26.438  0.00  0.00     0.089 H 
BRANCH  50  52
ATOM     52  C25 MU2 d   1      -8.088 -21.972 -27.898  0.00  0.00    -0.029 C 
ATOM     53  H26 MU2 d   1      -8.971 -21.711 -28.499  0.00  0.00     0.037 H 
ATOM     54  H27 MU2 d   1      -7.997 -23.067 -27.837  0.00  0.00     0.037 H 
BRANCH  52  55
ATOM     55  C26 MU2 d   1      -6.851 -21.432 -28.613  0.00  0.00     0.011 C 
ATOM     56  H28 MU2 d   1      -6.264 -20.816 -27.916  0.00  0.00     0.047 H 
ATOM     57  H29 MU2 d   1      -7.161 -20.820 -29.472  0.00  0.00     0.047 H 
BRANCH  55  58
ATOM     58  C27 MU2 d   1      -6.007 -22.591 -29.097  0.00  0.00     0.215 C 
ATOM     59  N20 MU2 d   1      -6.406 -23.204 -30.211  0.00  0.00    -0.370 N 
ATOM     60  H30 MU2 d   1      -5.882 -23.976 -30.572  0.00  0.00     0.159 HD
ATOM     61  H31 MU2 d   1      -7.229 -22.892 -30.686  0.00  0.00     0.159 HD
ATOM     62  O21 MU2 d   1      -5.009 -22.927 -28.479  0.00  0.00    -0.274 OA
ENDBRANCH  55  58
ENDBRANCH  52  55
ENDBRANCH  50  52
BRANCH  50  63
ATOM     63  C28 MU2 d   1      -7.382 -22.121 -25.501  0.00  0.00     0.196 C 
ATOM     64  O22 MU2 d   1      -7.904 -22.802 -24.581  0.00  0.00    -0.646 OA
ATOM     65  O23 MU2 d   1      -6.129 -22.017 -25.659  0.00  0.00    -0.646 OA
ENDBRANCH  50  63
ENDBRANCH  48  50
ENDBRANCH  40  46
ENDBRANCH  38  40
ENDBRANCH   1  36
TORSDOF 18
