REMARK  10 active torsions:
REMARK  status: ('A' for Active; 'I' for Inactive)
REMARK    1  A    between atoms: S1_2  and  N2_4 
REMARK    2  A    between atoms: S1_2  and  C3_13 
REMARK    3  A    between atoms: N2_4  and  C10_5 
REMARK    4  A    between atoms: N2_4  and  C8_10 
REMARK    5  A    between atoms: C10_5  and  C9_6 
REMARK       I    between atoms: C9_6  and  N1_8 
REMARK    6  A    between atoms: N1_8  and  O2_9 
REMARK    7  A    between atoms: C8_10  and  C6_11 
REMARK    8  A    between atoms: C6_11  and  O6_12 
REMARK    9  A    between atoms: C4_16  and  O5_19 
REMARK   10  A    between atoms: O5_19  and  C11_20 
ROOT
ATOM      1  O4  NHK d   1      -0.243  -5.712  -5.386  0.00  0.00    -0.200 OA
ATOM      2  S1  NHK d   1      -1.490  -6.160  -4.800  0.00  0.00     0.261 S 
ATOM      3  O3  NHK d   1      -1.410  -7.538  -4.383  0.00  0.00    -0.200 OA
ENDROOT
BRANCH   2   4
ATOM      4  N2  NHK d   1      -1.837  -5.241  -3.598  0.00  0.00    -0.296 N 
BRANCH   4   5
ATOM      5  C10 NHK d   1      -1.268  -3.893  -3.470  0.00  0.00     0.081 C 
ATOM      6  H1  NHK d   1      -0.282  -3.859  -3.957  0.00  0.00     0.080 H 
ATOM      7  H2  NHK d   1      -1.160  -3.636  -2.406  0.00  0.00     0.080 H 
BRANCH   5   8
ATOM      8  C9  NHK d   1      -2.203  -2.905  -4.141  0.00  0.00     0.259 C 
ATOM      9  O1  NHK d   1      -3.377  -2.835  -3.803  0.00  0.00    -0.270 OA
ATOM     10  N1  NHK d   1      -1.685  -2.159  -5.128  0.00  0.00    -0.236 N 
ATOM     11  H3  NHK d   1      -0.718  -2.249  -5.368  0.00  0.00     0.197 HD
BRANCH  10  12
ATOM     12  O2  NHK d   1      -2.492  -1.261  -5.817  0.00  0.00    -0.287 OA
ATOM     13  H4  NHK d   1      -1.976  -0.816  -6.478  0.00  0.00     0.244 HD
ENDBRANCH  10  12
ENDBRANCH   5   8
ENDBRANCH   4   5
BRANCH   4  14
ATOM     14  C8  NHK d   1      -2.834  -5.701  -2.637  0.00  0.00     0.025 C 
ATOM     15  H5  NHK d   1      -2.878  -6.800  -2.659  0.00  0.00     0.068 H 
ATOM     16  H6  NHK d   1      -3.817  -5.289  -2.910  0.00  0.00     0.068 H 
BRANCH  14  17
ATOM     17  C6  NHK d   1      -2.470  -5.241  -1.226  0.00  0.00     0.032 C 
ATOM     18  H7  NHK d   1      -3.289  -5.495  -0.537  0.00  0.00     0.076 H 
ATOM     19  H8  NHK d   1      -2.314  -4.152  -1.226  0.00  0.00     0.076 H 
BRANCH  17  20
ATOM     20  O6  NHK d   1      -1.269  -5.893  -0.798  0.00  0.00    -0.399 OA
ATOM     21  H9  NHK d   1      -1.048  -5.603   0.079  0.00  0.00     0.209 HD
ENDBRANCH  17  20
ENDBRANCH  14  17
ENDBRANCH   4  14
ENDBRANCH   2   4
BRANCH   2  22
ATOM     22  C3  NHK d   1      -2.644  -6.056  -5.910  0.00  0.00     0.079 A 
ATOM     23  C5  NHK d   1      -2.493  -5.162  -6.974  0.00  0.00    -0.058 A 
ATOM     24  C7  NHK d   1      -3.465  -5.080  -7.964  0.00  0.00    -0.049 A 
ATOM     25  H10 NHK d   1      -1.614  -4.530  -7.027  0.00  0.00     0.086 H 
ATOM     26  C4  NHK d   1      -4.603  -5.886  -7.903  0.00  0.00     0.068 A 
ATOM     27  H11 NHK d   1      -3.339  -4.387  -8.788  0.00  0.00     0.087 H 
ATOM     28  C2  NHK d   1      -4.757  -6.788  -6.842  0.00  0.00    -0.049 A 
ATOM     29  C1  NHK d   1      -3.776  -6.889  -5.852  0.00  0.00    -0.058 A 
ATOM     30  H12 NHK d   1      -5.642  -7.411  -6.789  0.00  0.00     0.087 H 
ATOM     31  H13 NHK d   1      -3.887  -7.604  -5.045  0.00  0.00     0.086 H 
BRANCH  26  32
ATOM     32  O5  NHK d   1      -5.527  -5.766  -8.916  0.00  0.00    -0.356 OA
BRANCH  32  33
ATOM     33  C11 NHK d   1      -6.595  -6.676  -9.182  0.00  0.00     0.010 C 
ATOM     34  H14 NHK d   1      -7.169  -6.323 -10.051  0.00  0.00     0.066 H 
ATOM     35  H15 NHK d   1      -7.256  -6.732  -8.305  0.00  0.00     0.066 H 
ATOM     36  H16 NHK d   1      -6.183  -7.673  -9.395  0.00  0.00     0.066 H 
ENDBRANCH  32  33
ENDBRANCH  26  32
ENDBRANCH   2  22
TORSDOF 10
