REMARK  16 active torsions:
REMARK  status: ('A' for Active; 'I' for Inactive)
REMARK    1  A    between atoms: CAX_1  and  CAA_2 
REMARK       I    between atoms: NAU_11  and  CAX_1 
REMARK    2  A    between atoms: CBB_4  and  CBF_6 
REMARK       I    between atoms: NAW_23  and  CBB_4 
REMARK    3  A    between atoms: CBF_6  and  CAR_7 
REMARK    4  A    between atoms: CBF_6  and  NAU_11 
REMARK    5  A    between atoms: CAR_7  and  CAZ_8 
REMARK    6  A    between atoms: CAS_18  and  CBC_17 
REMARK    7  A    between atoms: CBG_19  and  CAS_18 
REMARK    8  A    between atoms: CBG_19  and  P1_20 
REMARK    9  A    between atoms: CBG_19  and  NAW_23 
REMARK   10  A    between atoms: P1_20  and  CAT_24 
REMARK   11  A    between atoms: CAT_24  and  CBD_25 
REMARK   12  A    between atoms: CBD_25  and  CAB_26 
REMARK   13  A    between atoms: CBD_25  and  CBA_27 
REMARK       I    between atoms: CBA_27  and  N_29 
REMARK   14  A    between atoms: N_29  and  CA_30 
REMARK   15  A    between atoms: CA_30  and  CB_31 
REMARK   16  A    between atoms: CA_30  and  C_32 
REMARK       I    between atoms: C_32  and  NAD_34 
ROOT
ATOM      1  CBG RX4 d   1      -2.451 -17.206 -23.028  0.00  0.00     0.091 C 
ATOM      2  H15 RX4 d   1      -2.563 -17.316 -24.117  0.00  0.00     0.089 H 
ENDROOT
BRANCH   1   3
ATOM      3  CAS RX4 d   1      -2.748 -15.750 -22.631  0.00  0.00    -0.013 C 
ATOM      4  H13 RX4 d   1      -2.639 -15.645 -21.541  0.00  0.00     0.044 H 
ATOM      5  H14 RX4 d   1      -2.031 -15.086 -23.136  0.00  0.00     0.044 H 
BRANCH   3   6
ATOM      6  CBC RX4 d   1      -4.159 -15.353 -23.030  0.00  0.00    -0.056 A 
ATOM      7  CAP RX4 d   1      -5.194 -15.407 -22.091  0.00  0.00    -0.077 A 
ATOM      8  CAN RX4 d   1      -6.497 -15.046 -22.460  0.00  0.00    -0.082 A 
ATOM      9  H8  RX4 d   1      -4.988 -15.729 -21.076  0.00  0.00     0.084 H 
ATOM     10  CAM RX4 d   1      -6.768 -14.629 -23.765  0.00  0.00    -0.083 A 
ATOM     11  H9  RX4 d   1      -7.297 -15.091 -21.730  0.00  0.00     0.083 H 
ATOM     12  CAO RX4 d   1      -5.736 -14.576 -24.701  0.00  0.00    -0.082 A 
ATOM     13  H10 RX4 d   1      -7.776 -14.348 -24.049  0.00  0.00     0.083 H 
ATOM     14  CAQ RX4 d   1      -4.434 -14.933 -24.334  0.00  0.00    -0.077 A 
ATOM     15  H11 RX4 d   1      -5.943 -14.257 -25.716  0.00  0.00     0.083 H 
ATOM     16  H12 RX4 d   1      -3.635 -14.883 -25.065  0.00  0.00     0.084 H 
ENDBRANCH   3   6
ENDBRANCH   1   3
BRANCH   1  17
ATOM     17  P1  RX4 d   1      -0.763 -17.712 -22.571  0.00  0.00     0.130 P 
ATOM     18  O4  RX4 d   1      -0.534 -19.046 -23.227  0.00  0.00    -0.666 OA
ATOM     19  O3  RX4 d   1      -0.588 -17.664 -21.070  0.00  0.00    -0.666 OA
BRANCH  17  20
ATOM     20  CAT RX4 d   1       0.320 -16.496 -23.357  0.00  0.00     0.020 C 
ATOM     21  H17 RX4 d   1      -0.159 -15.508 -23.300  0.00  0.00     0.050 H 
ATOM     22  H18 RX4 d   1       0.459 -16.776 -24.412  0.00  0.00     0.050 H 
BRANCH  20  23
ATOM     23  CBD RX4 d   1       1.690 -16.416 -22.687  0.00  0.00     0.029 C 
ATOM     24  H19 RX4 d   1       1.922 -17.373 -22.196  0.00  0.00     0.054 H 
BRANCH  23  25
ATOM     25  CAB RX4 d   1       2.736 -16.093 -23.753  0.00  0.00    -0.064 C 
ATOM     26  H20 RX4 d   1       3.730 -16.032 -23.285  0.00  0.00     0.028 H 
ATOM     27  H21 RX4 d   1       2.493 -15.130 -24.225  0.00  0.00     0.028 H 
ATOM     28  H22 RX4 d   1       2.738 -16.885 -24.516  0.00  0.00     0.028 H 
ENDBRANCH  23  25
BRANCH  23  29
ATOM     29  CBA RX4 d   1       1.723 -15.297 -21.682  0.00  0.00     0.222 C 
ATOM     30  OAH RX4 d   1       0.902 -14.386 -21.736  0.00  0.00    -0.273 OA
ATOM     31  N   RX4 d   1       2.705 -15.361 -20.776  0.00  0.00    -0.348 N 
ATOM     32  H23 RX4 d   1       3.320 -16.149 -20.801  0.00  0.00     0.163 HD
BRANCH  31  33
ATOM     33  CA  RX4 d   1       2.927 -14.346 -19.756  0.00  0.00     0.086 C 
ATOM     34  H24 RX4 d   1       2.003 -14.186 -19.181  0.00  0.00     0.086 H 
BRANCH  33  35
ATOM     35  CB  RX4 d   1       4.051 -14.787 -18.815  0.00  0.00    -0.049 C 
ATOM     36  H25 RX4 d   1       4.212 -14.015 -18.048  0.00  0.00     0.030 H 
ATOM     37  H26 RX4 d   1       4.977 -14.930 -19.391  0.00  0.00     0.030 H 
ATOM     38  H27 RX4 d   1       3.772 -15.734 -18.329  0.00  0.00     0.030 H 
ENDBRANCH  33  35
BRANCH  33  39
ATOM     39  C   RX4 d   1       3.337 -13.072 -20.437  0.00  0.00     0.237 C 
ATOM     40  O   RX4 d   1       3.991 -13.124 -21.473  0.00  0.00    -0.271 OA
ATOM     41  NAD RX4 d   1       2.964 -11.927 -19.889  0.00  0.00    -0.368 N 
ATOM     42  H28 RX4 d   1       3.221 -11.061 -20.317  0.00  0.00     0.159 HD
ATOM     43  H29 RX4 d   1       2.425 -11.928 -19.046  0.00  0.00     0.159 HD
ENDBRANCH  33  39
ENDBRANCH  31  33
ENDBRANCH  23  29
ENDBRANCH  20  23
ENDBRANCH  17  20
ENDBRANCH   1  17
BRANCH   1  44
ATOM     44  NAW RX4 d   1      -3.448 -18.028 -22.351  0.00  0.00    -0.345 N 
ATOM     45  CBB RX4 d   1      -4.188 -18.895 -23.054  0.00  0.00     0.241 C 
ATOM     46  OAI RX4 d   1      -4.073 -19.063 -24.254  0.00  0.00    -0.271 OA
ATOM     47  H16 RX4 d   1      -3.579 -17.944 -21.363  0.00  0.00     0.163 HD
BRANCH  45  48
ATOM     48  CBF RX4 d   1      -5.225 -19.698 -22.338  0.00  0.00     0.098 C 
ATOM     49  H4  RX4 d   1      -5.579 -19.154 -21.450  0.00  0.00     0.088 H 
BRANCH  48  50
ATOM     50  CAR RX4 d   1      -4.691 -21.068 -21.953  0.00  0.00     0.043 C 
ATOM     51  H5  RX4 d   1      -3.767 -20.959 -21.366  0.00  0.00     0.052 H 
ATOM     52  H6  RX4 d   1      -4.484 -21.658 -22.858  0.00  0.00     0.052 H 
BRANCH  50  53
ATOM     53  CAZ RX4 d   1      -5.751 -21.753 -21.123  0.00  0.00     0.175 C 
ATOM     54  OAK RX4 d   1      -6.041 -21.244 -20.021  0.00  0.00    -0.648 OA
ATOM     55  OAG RX4 d   1      -6.305 -22.788 -21.564  0.00  0.00    -0.648 OA
ENDBRANCH  50  53
ENDBRANCH  48  50
BRANCH  48  56
ATOM     56  NAU RX4 d   1      -6.315 -19.963 -23.268  0.00  0.00    -0.348 N 
ATOM     57  CAX RX4 d   1      -7.506 -19.357 -23.241  0.00  0.00     0.214 C 
ATOM     58  OAE RX4 d   1      -8.363 -19.623 -24.075  0.00  0.00    -0.274 OA
ATOM     59  H7  RX4 d   1      -6.160 -20.649 -23.979  0.00  0.00     0.163 HD
BRANCH  57  60
ATOM     60  CAA RX4 d   1      -7.762 -18.348 -22.159  0.00  0.00    -0.003 C 
ATOM     61  H1  RX4 d   1      -6.870 -18.260 -21.521  0.00  0.00     0.040 H 
ATOM     62  H2  RX4 d   1      -8.618 -18.673 -21.549  0.00  0.00     0.040 H 
ATOM     63  H3  RX4 d   1      -7.986 -17.372 -22.614  0.00  0.00     0.040 H 
ENDBRANCH  57  60
ENDBRANCH  48  56
ENDBRANCH  45  48
ENDBRANCH   1  44
TORSDOF 16
