REMARK  1 active torsions:
REMARK  status: ('A' for Active; 'I' for Inactive)
REMARK    1  A    between atoms: C5_5  and  NO1_12 
ROOT
ATOM      1  N1  3NY d   1      22.160  -1.357 -24.131  0.00  0.00    -0.158 NA
ATOM      2  N2  3NY d   1      20.826  -1.836 -24.005  0.00  0.00     0.003 NA
ATOM      3  N3  3NY d   1      20.699  -2.318 -22.725  0.00  0.00    -0.280 N 
ATOM      4  C4  3NY d   1      22.287  -2.621 -20.912  0.00  0.00    -0.022 A 
ATOM      5  C5  3NY d   1      23.602  -2.423 -20.458  0.00  0.00     0.105 A 
ATOM      6  C6  3NY d   1      24.523  -1.775 -21.287  0.00  0.00    -0.049 A 
ATOM      7  C7  3NY d   1      24.134  -1.369 -22.555  0.00  0.00    -0.049 A 
ATOM      8  C3A 3NY d   1      21.882  -2.207 -22.164  0.00  0.00     0.078 A 
ATOM      9  C7A 3NY d   1      22.838  -1.636 -23.027  0.00  0.00     0.102 A 
ATOM     10  H1  3NY d   1      19.844  -2.693 -22.290  0.00  0.00     0.184 HD
ATOM     11  H2  3NY d   1      21.572  -3.112 -20.262  0.00  0.00     0.091 H 
ATOM     12  H3  3NY d   1      25.534  -1.591 -20.941  0.00  0.00     0.087 H 
ATOM     13  H4  3NY d   1      24.837  -0.840 -23.188  0.00  0.00     0.087 H 
ENDROOT
BRANCH   5  14
ATOM     14  NO1 3NY d   1      24.006  -2.779 -19.151  0.00  0.00    -0.116 N 
ATOM     15  O11 3NY d   1      25.088  -2.419 -18.730  0.00  0.00    -0.532 OA
ATOM     16  O21 3NY d   1      23.236  -3.395 -18.397  0.00  0.00    -0.532 OA
ENDBRANCH   5  14
TORSDOF 1
