REMARK  3 active torsions:
REMARK  status: ('A' for Active; 'I' for Inactive)
REMARK    1  A    between atoms: S1_4  and  C9_18 
REMARK    2  A    between atoms: C10_19  and  S1_4 
REMARK       I    between atoms: C12_21  and  N4_13 
REMARK    3  A    between atoms: C12_21  and  C13_22 
ROOT
ATOM      1  O1  TZ1 d   1       7.252   4.838  22.470  0.00  0.00    -0.267 OA
ATOM      2  N2  TZ1 d   1       7.466   7.847  19.599  0.00  0.00    -0.122 NA
ATOM      3  S2  TZ1 d   1       6.732   7.654  22.080  0.00  0.00    -0.021 SA
ATOM      4  N3  TZ1 d   1       6.934   9.114  19.945  0.00  0.00    -0.133 NA
ATOM      5  N4  TZ1 d   1       7.884   5.722  20.500  0.00  0.00    -0.300 N 
ATOM      6  C10 TZ1 d   1       6.521   9.149  21.241  0.00  0.00     0.165 A 
ATOM      7  C11 TZ1 d   1       7.407   6.984  20.643  0.00  0.00     0.197 A 
ATOM      8  C12 TZ1 d   1       7.795   4.738  21.387  0.00  0.00     0.264 C 
ATOM      9  H3  TZ1 d   1       8.349   5.512  19.640  0.00  0.00     0.171 HD
ENDROOT
BRANCH   6  10
ATOM     10  S1  TZ1 d   1       5.822  10.579  21.959  0.00  0.00    -0.060 SA
BRANCH  10  11
ATOM     11  C9  TZ1 d   1       6.807  11.943  21.762  0.00  0.00     0.021 A 
ATOM     12  C3  TZ1 d   1       6.330  13.201  22.123  0.00  0.00     0.010 A 
ATOM     13  C2  TZ1 d   1       7.162  14.314  21.955  0.00  0.00     0.069 A 
ATOM     14  C4  TZ1 d   1       5.041  13.336  22.641  0.00  0.00    -0.068 A 
ATOM     15  C1  TZ1 d   1       6.713  15.581  22.295  0.00  0.00    -0.033 A 
ATOM     16  N1  TZ1 d   1       8.400  14.177  21.440  0.00  0.00    -0.260 NA
ATOM     17  C6  TZ1 d   1       5.423  15.706  22.793  0.00  0.00     0.036 A 
ATOM     18  H1  TZ1 d   1       7.351  16.449  22.175  0.00  0.00     0.089 H 
ATOM     19 CL1  TZ1 d   1       4.848  17.330  23.213  0.00  0.00    -0.084 Cl
ATOM     20  C5  TZ1 d   1       4.582  14.602  22.985  0.00  0.00    -0.061 A 
ATOM     21  H4  TZ1 d   1       3.588  14.733  23.396  0.00  0.00     0.086 H 
ATOM     22  C7  TZ1 d   1       8.884  12.975  21.092  0.00  0.00     0.004 A 
ATOM     23  C8  TZ1 d   1       8.097  11.833  21.238  0.00  0.00    -0.049 A 
ATOM     24  H5  TZ1 d   1       9.890  12.891  20.696  0.00  0.00     0.114 H 
ATOM     25  H6  TZ1 d   1       8.485  10.864  20.946  0.00  0.00     0.087 H 
ATOM     26  H2  TZ1 d   1       4.407  12.466  22.773  0.00  0.00     0.085 H 
ENDBRANCH  10  11
ENDBRANCH   6  10
BRANCH   8  27
ATOM     27  C13 TZ1 d   1       8.391   3.465  21.015  0.00  0.00     0.072 A 
ATOM     28  S3  TZ1 d   1       8.161   2.142  21.983  0.00  0.00    -0.097 SA
ATOM     29  C16 TZ1 d   1       9.081   1.220  20.948  0.00  0.00    -0.044 A 
ATOM     30  C15 TZ1 d   1       9.423   2.004  19.904  0.00  0.00    -0.075 A 
ATOM     31  H9  TZ1 d   1       9.357   0.176  21.087  0.00  0.00     0.095 H 
ATOM     32  C14 TZ1 d   1       9.099   3.251  19.972  0.00  0.00    -0.060 A 
ATOM     33  H8  TZ1 d   1       9.950   1.601  19.041  0.00  0.00     0.084 H 
ATOM     34  H7  TZ1 d   1       9.387   4.011  19.247  0.00  0.00     0.085 H 
ENDBRANCH   8  27
TORSDOF 3
