REMARK  11 active torsions:
REMARK  status: ('A' for Active; 'I' for Inactive)
REMARK    1  A    between atoms: C6_2  and  C5_1 
REMARK    2  A    between atoms: C5_1  and  N4_18 
REMARK    3  A    between atoms: C10_4  and  C9_3 
REMARK    4  A    between atoms: C12_7  and  C11_6 
REMARK    5  A    between atoms: C18_11  and  C19_8 
REMARK    6  A    between atoms: C19_8  and  C21_12 
REMARK    7  A    between atoms: C19_8  and  O20_29 
REMARK    8  A    between atoms: C15_9  and  C16_10 
REMARK       I    between atoms: C16_10  and  N17_28 
REMARK    9  A    between atoms: C18_11  and  C22_13 
REMARK   10  A    between atoms: N17_28  and  C18_11 
REMARK       I    between atoms: C22_13  and  N23_30 
REMARK   11  A    between atoms: N23_30  and  O24_32 
ROOT
ATOM      1  C12 C90 d   1      -4.044 -23.377  -8.602  0.00  0.00     0.018 A 
ATOM      2  C15 C90 d   1      -5.443 -24.366  -6.278  0.00  0.00     0.032 A 
ATOM      3  CE1 C90 d   1      -5.483 -23.318  -8.562  0.00  0.00    -0.064 A 
ATOM      4  CE2 C90 d   1      -3.292 -23.915  -7.493  0.00  0.00    -0.064 A 
ATOM      5  CF1 C90 d   1      -6.180 -23.804  -7.406  0.00  0.00    -0.066 A 
ATOM      6  CF  C90 d   1      -3.979 -24.419  -6.324  0.00  0.00    -0.066 A 
ATOM      7  H21 C90 d   1      -6.036 -22.909  -9.400  0.00  0.00     0.085 H 
ATOM      8  H22 C90 d   1      -2.209 -23.941  -7.537  0.00  0.00     0.085 H 
ATOM      9  H23 C90 d   1      -7.262 -23.753  -7.370  0.00  0.00     0.085 H 
ATOM     10  H24 C90 d   1      -3.418 -24.831  -5.493  0.00  0.00     0.085 H 
ENDROOT
BRANCH   1  11
ATOM     11  C11 C90 d   1      -3.370 -22.834  -9.730  0.00  0.00    -0.061 C 
ATOM     12  C10 C90 d   1      -2.803 -22.298 -10.654  0.00  0.00    -0.061 C 
BRANCH  12  13
ATOM     13  C9  C90 d   1      -2.143 -21.673 -11.732  0.00  0.00     0.018 A 
ATOM     14  CD1 C90 d   1      -0.791 -22.040 -12.069  0.00  0.00    -0.064 A 
ATOM     15  CC1 C90 d   1      -0.126 -21.396 -13.179  0.00  0.00    -0.074 A 
ATOM     16  H19 C90 d   1      -0.274 -22.797 -11.491  0.00  0.00     0.085 H 
ATOM     17  C6  C90 d   1      -0.819 -20.380 -13.942  0.00  0.00    -0.033 A 
ATOM     18  H17 C90 d   1       0.889 -21.673 -13.439  0.00  0.00     0.084 H 
ATOM     19  CC2 C90 d   1      -2.180 -20.009 -13.602  0.00  0.00    -0.074 A 
ATOM     20  CD2 C90 d   1      -2.845 -20.660 -12.490  0.00  0.00    -0.064 A 
ATOM     21  H18 C90 d   1      -2.697 -19.249 -14.177  0.00  0.00     0.084 H 
ATOM     22  H20 C90 d   1      -3.862 -20.390 -12.228  0.00  0.00     0.085 H 
BRANCH  17  23
ATOM     23  C5  C90 d   1      -0.091 -19.698 -15.097  0.00  0.00     0.107 C 
ATOM     24  H1  C90 d   1      -0.737 -19.700 -15.988  0.00  0.00     0.083 H 
ATOM     25  H2  C90 d   1       0.838 -20.244 -15.316  0.00  0.00     0.083 H 
BRANCH  23  26
ATOM     26  N4  C90 d   1       0.241 -18.277 -14.724  0.00  0.00    -0.063 N 
ATOM     27  CB1 C90 d   1       1.441 -17.908 -15.491  0.00  0.00     0.103 C 
ATOM     28  CA1 C90 d   1       1.808 -16.410 -15.261  0.00  0.00     0.042 C 
ATOM     29  H12 C90 d   1       2.283 -18.539 -15.169  0.00  0.00     0.079 H 
ATOM     30  H13 C90 d   1       1.249 -18.072 -16.562  0.00  0.00     0.079 H 
ATOM     31  O1  C90 d   1       1.973 -16.154 -13.863  0.00  0.00    -0.388 OA
ATOM     32  H8  C90 d   1       2.747 -16.180 -15.786  0.00  0.00     0.076 H 
ATOM     33  H9  C90 d   1       1.002 -15.773 -15.655  0.00  0.00     0.076 H 
ATOM     34  CA2 C90 d   1       0.768 -16.441 -13.159  0.00  0.00     0.042 C 
ATOM     35  CB2 C90 d   1       0.533 -17.951 -13.310  0.00  0.00     0.103 C 
ATOM     36  H10 C90 d   1      -0.071 -15.879 -13.595  0.00  0.00     0.076 H 
ATOM     37  H11 C90 d   1       0.875 -16.176 -12.097  0.00  0.00     0.076 H 
ATOM     38  H14 C90 d   1      -0.319 -18.252 -12.683  0.00  0.00     0.079 H 
ATOM     39  H15 C90 d   1       1.434 -18.494 -12.989  0.00  0.00     0.079 H 
ATOM     40  H16 C90 d   1      -0.537 -17.704 -15.009  0.00  0.00     0.280 HD
ENDBRANCH  23  26
ENDBRANCH  17  23
ENDBRANCH  12  13
ENDBRANCH   1  11
BRANCH   2  41
ATOM     41  C16 C90 d   1      -6.167 -24.822  -5.131  0.00  0.00     0.252 C 
ATOM     42  O16 C90 d   1      -5.554 -25.222  -4.132  0.00  0.00    -0.268 OA
ATOM     43  N17 C90 d   1      -7.479 -24.637  -5.120  0.00  0.00    -0.341 N 
ATOM     44  H25 C90 d   1      -7.896 -24.182  -5.907  0.00  0.00     0.163 HD
BRANCH  43  45
ATOM     45  C18 C90 d   1      -8.359 -25.061  -4.019  0.00  0.00     0.116 C 
ATOM     46  H4  C90 d   1      -7.817 -25.765  -3.371  0.00  0.00     0.091 H 
BRANCH  45  47
ATOM     47  C19 C90 d   1      -8.725 -23.799  -3.150  0.00  0.00     0.060 C 
ATOM     48  H3  C90 d   1      -9.172 -24.155  -2.210  0.00  0.00     0.086 H 
BRANCH  47  49
ATOM     49  C21 C90 d   1      -7.558 -22.859  -2.810  0.00  0.00    -0.050 C 
ATOM     50  H5  C90 d   1      -7.928 -22.019  -2.204  0.00  0.00     0.031 H 
ATOM     51  H6  C90 d   1      -7.115 -22.473  -3.740  0.00  0.00     0.031 H 
ATOM     52  H7  C90 d   1      -6.795 -23.412  -2.242  0.00  0.00     0.031 H 
ENDBRANCH  47  49
BRANCH  47  53
ATOM     53  O20 C90 d   1      -9.669 -23.000  -3.865  0.00  0.00    -0.393 OA
ATOM     54  H26 C90 d   1     -10.418 -23.534  -4.103  0.00  0.00     0.210 HD
ENDBRANCH  47  53
ENDBRANCH  45  47
BRANCH  45  55
ATOM     55  C22 C90 d   1      -9.546 -25.814  -4.643  0.00  0.00     0.266 C 
ATOM     56  N23 C90 d   1      -9.713 -27.051  -4.251  0.00  0.00    -0.236 N 
ATOM     57  H27 C90 d   1      -8.987 -27.511  -3.739  0.00  0.00     0.197 HD
ATOM     58  O22 C90 d   1     -10.449 -25.174  -5.143  0.00  0.00    -0.269 OA
BRANCH  56  59
ATOM     59  O24 C90 d   1     -10.834 -27.699  -4.526  0.00  0.00    -0.287 OA
ATOM     60  H28 C90 d   1     -10.786 -28.578  -4.170  0.00  0.00     0.244 HD
ENDBRANCH  56  59
ENDBRANCH  45  55
ENDBRANCH  43  45
ENDBRANCH   2  41
TORSDOF 11
