REMARK WARNING: 32 MAX_TORS EXCEEDED!!!
REMARK  39 active torsions:
REMARK  status: ('A' for Active; 'I' for Inactive)
REMARK    1  A    between atoms: C1_1  and  C7_11 
REMARK    2  A    between atoms: C2_3  and  O4_8 
REMARK    3  A    between atoms: O2_4  and  C3_5 
REMARK    4  A    between atoms: C45_50  and  O2_4 
REMARK    5  A    between atoms: C4_7  and  O3_6 
REMARK    6  A    between atoms: C5_9  and  O11_15 
REMARK    7  A    between atoms: C7_11  and  O5_10 
REMARK    8  A    between atoms: O10_13  and  C25_31 
REMARK    9  A    between atoms: C26_32  and  O10_13 
REMARK   10  A    between atoms: C12_16  and  C11_14 
REMARK   11  A    between atoms: O11_15  and  C27_33 
REMARK   12  A    between atoms: C13_18  and  C12_16 
REMARK   13  A    between atoms: C28_34  and  O12_17 
REMARK   14  A    between atoms: O12_17  and  C29_35 
REMARK   15  A    between atoms: C14_20  and  C13_18 
REMARK   16  A    between atoms: C15_21  and  C14_20 
REMARK   17  A    between atoms: C16_22  and  C15_21 
REMARK   18  A    between atoms: C17_23  and  C16_22 
REMARK   19  A    between atoms: C18_24  and  C17_23 
REMARK   20  A    between atoms: C19_25  and  C18_24 
REMARK   21  A    between atoms: C20_26  and  C19_25 
REMARK   22  A    between atoms: C21_27  and  C20_26 
REMARK   23  A    between atoms: C22_28  and  C21_27 
REMARK   24  A    between atoms: C23_29  and  C22_28 
REMARK   25  A    between atoms: C24_30  and  C23_29 
REMARK   26  A    between atoms: C25_31  and  C24_30 
REMARK   27  A    between atoms: C27_33  and  C26_32 
REMARK   28  A    between atoms: C26_32  and  C28_34 
REMARK   29  A    between atoms: C29_35  and  C30_36 
REMARK   30  A    between atoms: C30_36  and  C31_37 
REMARK   31  A    between atoms: C31_37  and  C32_38 
REMARK   32  A    between atoms: C32_38  and  C33_39 
REMARK   33  A    between atoms: C33_39  and  C34_40 
REMARK   34  A    between atoms: C34_40  and  C35_41 
REMARK   35  A    between atoms: C41_42  and  C47_51 
REMARK   36  A    between atoms: C42_44  and  N42_45 
REMARK   37  A    between atoms: C43_47  and  O42_46 
REMARK   38  A    between atoms: C44_48  and  N44_49 
REMARK       I    between atoms: N44_49  and  C48_52 
REMARK   39  A    between atoms: C48_52  and  C49_54 
ROOT
ATOM      1  C26 LTC d   1      13.000  21.413 -23.678  0.00  0.00     0.089 C 
ATOM      2  H40 LTC d   1      12.635  20.390 -23.505  0.00  0.00     0.090 H 
ENDROOT
BRANCH   1   3
ATOM      3  O10 LTC d   1      13.963  21.366 -24.751  0.00  0.00    -0.312 OA
BRANCH   3   4
ATOM      4  C25 LTC d   1      13.796  20.403 -25.875  0.00  0.00     0.259 C 
ATOM      5  O9  LTC d   1      12.701  19.912 -26.139  0.00  0.00    -0.265 OA
BRANCH   4   6
ATOM      6  C24 LTC d   1      15.000  20.028 -26.730  0.00  0.00     0.016 C 
ATOM      7  H38 LTC d   1      14.682  19.338 -27.525  0.00  0.00     0.048 H 
ATOM      8  H39 LTC d   1      15.424  20.937 -27.181  0.00  0.00     0.048 H 
BRANCH   6   9
ATOM      9  C23 LTC d   1      16.063  19.348 -25.861  0.00  0.00    -0.057 C 
ATOM     10  H36 LTC d   1      16.848  18.938 -26.514  0.00  0.00     0.033 H 
ATOM     11  H37 LTC d   1      16.502  20.096 -25.185  0.00  0.00     0.033 H 
BRANCH   9  12
ATOM     12  C22 LTC d   1      15.469  18.213 -25.026  0.00  0.00    -0.065 C 
ATOM     13  H34 LTC d   1      16.158  17.975 -24.202  0.00  0.00     0.033 H 
ATOM     14  H35 LTC d   1      14.503  18.539 -24.614  0.00  0.00     0.033 H 
BRANCH  12  15
ATOM     15  C21 LTC d   1      15.253  16.960 -25.872  0.00  0.00    -0.065 C 
ATOM     16  H32 LTC d   1      14.303  17.074 -26.415  0.00  0.00     0.033 H 
ATOM     17  H33 LTC d   1      16.081  16.888 -26.593  0.00  0.00     0.033 H 
BRANCH  15  18
ATOM     18  C20 LTC d   1      15.195  15.645 -25.080  0.00  0.00    -0.065 C 
ATOM     19  H30 LTC d   1      14.822  15.854 -24.066  0.00  0.00     0.033 H 
ATOM     20  H31 LTC d   1      14.508  14.952 -25.588  0.00  0.00     0.033 H 
BRANCH  18  21
ATOM     21  C19 LTC d   1      16.574  14.993 -24.978  0.00  0.00    -0.065 C 
ATOM     22  H28 LTC d   1      17.268  15.765 -24.616  0.00  0.00     0.033 H 
ATOM     23  H29 LTC d   1      16.495  14.190 -24.230  0.00  0.00     0.033 H 
BRANCH  21  24
ATOM     24  C18 LTC d   1      17.198  14.383 -26.218  0.00  0.00    -0.065 C 
ATOM     25  H26 LTC d   1      16.800  13.364 -26.334  0.00  0.00     0.033 H 
ATOM     26  H27 LTC d   1      16.902  14.993 -27.084  0.00  0.00     0.033 H 
BRANCH  24  27
ATOM     27  C17 LTC d   1      18.737  14.296 -26.198  0.00  0.00    -0.065 C 
ATOM     28  H24 LTC d   1      19.008  13.239 -26.335  0.00  0.00     0.033 H 
ATOM     29  H25 LTC d   1      19.110  14.883 -27.050  0.00  0.00     0.033 H 
BRANCH  27  30
ATOM     30  C16 LTC d   1      19.469  14.800 -24.934  0.00  0.00    -0.065 C 
ATOM     31  H22 LTC d   1      18.809  15.524 -24.434  0.00  0.00     0.033 H 
ATOM     32  H23 LTC d   1      19.628  13.934 -24.275  0.00  0.00     0.033 H 
BRANCH  30  33
ATOM     33  C15 LTC d   1      20.836  15.483 -25.145  0.00  0.00    -0.065 C 
ATOM     34  H20 LTC d   1      21.456  15.310 -24.253  0.00  0.00     0.033 H 
ATOM     35  H21 LTC d   1      21.322  15.031 -26.022  0.00  0.00     0.033 H 
BRANCH  33  36
ATOM     36  C14 LTC d   1      20.718  17.005 -25.376  0.00  0.00    -0.065 C 
ATOM     37  H18 LTC d   1      20.592  17.177 -26.455  0.00  0.00     0.033 H 
ATOM     38  H19 LTC d   1      19.826  17.363 -24.841  0.00  0.00     0.033 H 
BRANCH  36  39
ATOM     39  C13 LTC d   1      21.922  17.831 -24.899  0.00  0.00    -0.065 C 
ATOM     40  H16 LTC d   1      21.582  18.859 -24.705  0.00  0.00     0.033 H 
ATOM     41  H17 LTC d   1      22.299  17.387 -23.966  0.00  0.00     0.033 H 
BRANCH  39  42
ATOM     42  C12 LTC d   1      23.077  17.885 -25.911  0.00  0.00    -0.069 C 
ATOM     43  H14 LTC d   1      23.464  16.865 -26.052  0.00  0.00     0.032 H 
ATOM     44  H15 LTC d   1      22.686  18.264 -26.866  0.00  0.00     0.032 H 
BRANCH  42  45
ATOM     45  C11 LTC d   1      24.232  18.785 -25.469  0.00  0.00    -0.077 C 
ATOM     46  H11 LTC d   1      25.019  18.776 -26.238  0.00  0.00     0.027 H 
ATOM     47  H12 LTC d   1      24.643  18.414 -24.519  0.00  0.00     0.027 H 
ATOM     48  H13 LTC d   1      23.865  19.813 -25.333  0.00  0.00     0.027 H 
ENDBRANCH  42  45
ENDBRANCH  39  42
ENDBRANCH  36  39
ENDBRANCH  33  36
ENDBRANCH  30  33
ENDBRANCH  27  30
ENDBRANCH  24  27
ENDBRANCH  21  24
ENDBRANCH  18  21
ENDBRANCH  15  18
ENDBRANCH  12  15
ENDBRANCH   9  12
ENDBRANCH   6   9
ENDBRANCH   4   6
ENDBRANCH   3   4
ENDBRANCH   1   3
BRANCH   1  49
ATOM     49  C27 LTC d   1      13.688  21.886 -22.381  0.00  0.00     0.049 C 
ATOM     50  H41 LTC d   1      13.165  22.787 -22.027  0.00  0.00     0.078 H 
ATOM     51  H42 LTC d   1      13.589  21.087 -21.632  0.00  0.00     0.078 H 
BRANCH  49  52
ATOM     52  O11 LTC d   1      15.093  22.206 -22.512  0.00  0.00    -0.356 OA
BRANCH  52  53
ATOM     53  C5  LTC d   1      16.069  21.237 -22.039  0.00  0.00     0.158 C 
ATOM     54  O1  LTC d   1      17.306  21.300 -22.809  0.00  0.00    -0.348 OA
ATOM     55  C1  LTC d   1      18.459  20.547 -22.326  0.00  0.00     0.089 C 
ATOM     56  C2  LTC d   1      18.757  20.773 -20.819  0.00  0.00     0.090 C 
ATOM     57  H1  LTC d   1      19.334  20.908 -22.886  0.00  0.00     0.090 H 
ATOM     58  C3  LTC d   1      17.746  21.711 -20.105  0.00  0.00     0.098 C 
ATOM     59  H2  LTC d   1      18.631  19.790 -20.342  0.00  0.00     0.091 H 
ATOM     60  C4  LTC d   1      16.296  21.329 -20.509  0.00  0.00     0.110 C 
ATOM     61  H3  LTC d   1      17.910  22.738 -20.465  0.00  0.00     0.091 H 
ATOM     62  H5  LTC d   1      16.123  20.323 -20.098  0.00  0.00     0.094 H 
ATOM     63  H7  LTC d   1      15.638  20.242 -22.226  0.00  0.00     0.133 H 
BRANCH  55  64
ATOM     64  C7  LTC d   1      18.307  19.054 -22.621  0.00  0.00     0.043 C 
ATOM     65  H9  LTC d   1      18.963  18.477 -21.952  0.00  0.00     0.078 H 
ATOM     66  H10 LTC d   1      18.584  18.855 -23.667  0.00  0.00     0.078 H 
BRANCH  64  67
ATOM     67  O5  LTC d   1      16.940  18.670 -22.403  0.00  0.00    -0.398 OA
ATOM     68  H8  LTC d   1      16.840  17.743 -22.585  0.00  0.00     0.209 HD
ENDBRANCH  64  67
ENDBRANCH  55  64
BRANCH  56  69
ATOM     69  O4  LTC d   1      20.141  21.150 -20.588  0.00  0.00    -0.390 OA
ATOM     70  H6  LTC d   1      20.713  20.546 -21.046  0.00  0.00     0.210 HD
ENDBRANCH  56  69
BRANCH  58  71
ATOM     71  O2  LTC d   1      18.068  21.703 -18.683  0.00  0.00    -0.348 OA
BRANCH  71  72
ATOM     72  C45 LTC d   1      17.104  21.922 -17.619  0.00  0.00     0.154 C 
ATOM     73  O41 LTC d   1      16.293  20.743 -17.529  0.00  0.00    -0.352 OA
ATOM     74  C41 LTC d   1      15.461  20.652 -16.361  0.00  0.00     0.068 C 
ATOM     75  C42 LTC d   1      15.470  21.918 -15.508  0.00  0.00     0.150 C 
ATOM     76  H58 LTC d   1      15.902  19.839 -15.765  0.00  0.00     0.086 H 
ATOM     77  C43 LTC d   1      15.314  23.206 -16.343  0.00  0.00     0.089 C 
ATOM     78  H59 LTC d   1      16.455  21.974 -15.021  0.00  0.00     0.092 H 
ATOM     79  C44 LTC d   1      16.253  23.253 -17.580  0.00  0.00     0.086 C 
ATOM     80  H64 LTC d   1      15.623  24.041 -15.698  0.00  0.00     0.089 H 
ATOM     81  H65 LTC d   1      15.611  23.244 -18.473  0.00  0.00     0.084 H 
ATOM     82  H67 LTC d   1      17.702  21.961 -16.697  0.00  0.00     0.132 H 
BRANCH  74  83
ATOM     83  C47 LTC d   1      13.973  20.327 -16.512  0.00  0.00    -0.050 C 
ATOM     84  H68 LTC d   1      13.501  20.299 -15.519  0.00  0.00     0.031 H 
ATOM     85  H69 LTC d   1      13.859  19.347 -16.999  0.00  0.00     0.031 H 
ATOM     86  H70 LTC d   1      13.489  21.101 -17.126  0.00  0.00     0.031 H 
ENDBRANCH  74  83
BRANCH  75  87
ATOM     87  N42 LTC d   1      14.471  21.819 -14.453  0.00  0.00    -0.070 N 
ATOM     88  H60 LTC d   1      14.486  22.659 -13.896  0.00  0.00     0.274 HD
ATOM     89  H61 LTC d   1      14.678  21.025 -13.868  0.00  0.00     0.274 HD
ATOM     90  H62 LTC d   1      13.558  21.704 -14.864  0.00  0.00     0.274 HD
ENDBRANCH  75  87
BRANCH  77  91
ATOM     91  O42 LTC d   1      13.917  23.420 -16.657  0.00  0.00    -0.391 OA
ATOM     92  H63 LTC d   1      13.422  23.506 -15.851  0.00  0.00     0.210 HD
ENDBRANCH  77  91
BRANCH  79  93
ATOM     93  N44 LTC d   1      17.050  24.510 -17.664  0.00  0.00    -0.349 N 
ATOM     94  C48 LTC d   1      16.721  25.847 -17.667  0.00  0.00     0.214 C 
ATOM     95  O48 LTC d   1      15.605  26.359 -17.680  0.00  0.00    -0.274 OA
ATOM     96  H66 LTC d   1      18.034  24.347 -17.733  0.00  0.00     0.163 HD
BRANCH  94  97
ATOM     97  C49 LTC d   1      17.866  26.825 -17.475  0.00  0.00    -0.003 C 
ATOM     98  H71 LTC d   1      17.477  27.854 -17.496  0.00  0.00     0.040 H 
ATOM     99  H72 LTC d   1      18.600  26.694 -18.284  0.00  0.00     0.040 H 
ATOM    100  H73 LTC d   1      18.351  26.636 -16.506  0.00  0.00     0.040 H 
ENDBRANCH  94  97
ENDBRANCH  79  93
ENDBRANCH  71  72
ENDBRANCH  58  71
BRANCH  60 101
ATOM    101  O3  LTC d   1      15.287  22.193 -19.946  0.00  0.00    -0.388 OA
ATOM    102  H4  LTC d   1      14.428  21.904 -20.232  0.00  0.00     0.210 HD
ENDBRANCH  60 101
ENDBRANCH  52  53
ENDBRANCH  49  52
ENDBRANCH   1  49
BRANCH   1 103
ATOM    103  C28 LTC d   1      11.787  22.270 -24.063  0.00  0.00     0.055 C 
ATOM    104  H43 LTC d   1      11.600  23.003 -23.265  0.00  0.00     0.079 H 
ATOM    105  H44 LTC d   1      12.007  22.799 -25.002  0.00  0.00     0.079 H 
BRANCH 103 106
ATOM    106  O12 LTC d   1      10.600  21.463 -24.246  0.00  0.00    -0.319 OA
BRANCH 106 107
ATOM    107  C29 LTC d   1       9.813  21.362 -25.504  0.00  0.00     0.258 C 
ATOM    108  O13 LTC d   1      10.379  21.429 -26.608  0.00  0.00    -0.265 OA
BRANCH 107 109
ATOM    109  C30 LTC d   1       8.298  21.164 -25.410  0.00  0.00     0.016 C 
ATOM    110  H45 LTC d   1       7.860  22.021 -24.877  0.00  0.00     0.048 H 
ATOM    111  H46 LTC d   1       8.095  20.240 -24.848  0.00  0.00     0.048 H 
BRANCH 109 112
ATOM    112  C31 LTC d   1       7.648  21.056 -26.789  0.00  0.00    -0.057 C 
ATOM    113  H47 LTC d   1       7.672  20.003 -27.105  0.00  0.00     0.033 H 
ATOM    114  H48 LTC d   1       8.228  21.665 -27.498  0.00  0.00     0.033 H 
BRANCH 112 115
ATOM    115  C32 LTC d   1       6.196  21.537 -26.810  0.00  0.00    -0.065 C 
ATOM    116  H49 LTC d   1       5.895  21.818 -25.790  0.00  0.00     0.033 H 
ATOM    117  H50 LTC d   1       5.552  20.722 -27.171  0.00  0.00     0.033 H 
BRANCH 115 118
ATOM    118  C33 LTC d   1       6.035  22.752 -27.735  0.00  0.00    -0.065 C 
ATOM    119  H51 LTC d   1       7.032  23.181 -27.912  0.00  0.00     0.033 H 
ATOM    120  H52 LTC d   1       5.403  23.492 -27.221  0.00  0.00     0.033 H 
BRANCH 118 121
ATOM    121  C34 LTC d   1       5.400  22.446 -29.094  0.00  0.00    -0.069 C 
ATOM    122  H53 LTC d   1       4.329  22.693 -29.046  0.00  0.00     0.032 H 
ATOM    123  H54 LTC d   1       5.519  21.373 -29.305  0.00  0.00     0.032 H 
BRANCH 121 124
ATOM    124  C35 LTC d   1       6.032  23.238 -30.229  0.00  0.00    -0.077 C 
ATOM    125  H55 LTC d   1       5.538  22.978 -31.177  0.00  0.00     0.027 H 
ATOM    126  H56 LTC d   1       7.103  22.994 -30.295  0.00  0.00     0.027 H 
ATOM    127  H57 LTC d   1       5.912  24.314 -30.036  0.00  0.00     0.027 H 
ENDBRANCH 121 124
ENDBRANCH 118 121
ENDBRANCH 115 118
ENDBRANCH 112 115
ENDBRANCH 109 112
ENDBRANCH 107 109
ENDBRANCH 106 107
ENDBRANCH 103 106
ENDBRANCH   1 103
TORSDOF 39
