REMARK  7 active torsions:
REMARK  status: ('A' for Active; 'I' for Inactive)
REMARK    1  A    between atoms: C1_1  and  C2_2 
REMARK    2  A    between atoms: C2_2  and  N3_3 
REMARK    3  A    between atoms: C7_7  and  N8_8 
REMARK    4  A    between atoms: N8_8  and  C9_9 
REMARK    5  A    between atoms: C15_15  and  C19_19 
REMARK    6  A    between atoms: C22_22  and  C23_23 
REMARK    7  A    between atoms: C23_23  and  C26_26 
REMARK       I    between atoms: C26_26  and  N25_25 
ROOT
ATOM      1  N3  ZG1 d   1      43.140  46.563  62.974  0.00  0.00    -0.252 N 
ATOM      2  N4  ZG1 d   1      43.645  46.187  61.790  0.00  0.00    -0.182 NA
ATOM      3  C5  ZG1 d   1      44.988  46.148  61.903  0.00  0.00     0.038 A 
ATOM      4  C6  ZG1 d   1      45.386  46.515  63.259  0.00  0.00     0.058 A 
ATOM      5  C7  ZG1 d   1      46.553  46.668  63.997  0.00  0.00     0.060 A 
ATOM      6  C15 ZG1 d   1      46.399  47.081  65.349  0.00  0.00     0.064 A 
ATOM      7  C16 ZG1 d   1      45.113  47.308  65.854  0.00  0.00     0.021 A 
ATOM      8  N17 ZG1 d   1      44.006  47.147  65.141  0.00  0.00    -0.240 NA
ATOM      9  C18 ZG1 d   1      44.124  46.765  63.852  0.00  0.00     0.159 A 
ATOM     10  H6  ZG1 d   1      45.675  45.882  61.101  0.00  0.00     0.119 H 
ATOM     11  H17 ZG1 d   1      45.017  47.633  66.884  0.00  0.00     0.116 H 
ENDROOT
BRANCH   6  12
ATOM     12  C19 ZG1 d   1      47.534  47.327  66.242  0.00  0.00     0.210 A 
ATOM     13  O20 ZG1 d   1      47.520  47.632  67.562  0.00  0.00    -0.191 OA
ATOM     14  N21 ZG1 d   1      48.867  47.794  67.944  0.00  0.00    -0.110 NA
ATOM     15  C22 ZG1 d   1      49.575  47.596  66.825  0.00  0.00     0.165 A 
ATOM     16  N24 ZG1 d   1      48.797  47.311  65.778  0.00  0.00    -0.204 NA
BRANCH  15  17
ATOM     17  C23 ZG1 d   1      51.091  47.645  66.762  0.00  0.00     0.068 C 
ATOM     18  H18 ZG1 d   1      51.493  48.176  67.637  0.00  0.00     0.059 H 
ATOM     19  H19 ZG1 d   1      51.419  48.151  65.843  0.00  0.00     0.059 H 
BRANCH  17  20
ATOM     20  C26 ZG1 d   1      51.559  46.187  66.763  0.00  0.00     0.227 C 
ATOM     21  N25 ZG1 d   1      52.154  45.800  65.603  0.00  0.00    -0.352 N 
ATOM     22  C27 ZG1 d   1      52.348  46.700  64.471  0.00  0.00    -0.002 C 
ATOM     23  C28 ZG1 d   1      52.659  44.446  65.397  0.00  0.00    -0.002 C 
ATOM     24  C30 ZG1 d   1      53.101  45.864  63.426  0.00  0.00    -0.049 C 
ATOM     25  H20 ZG1 d   1      52.944  47.575  64.770  0.00  0.00     0.064 H 
ATOM     26  H21 ZG1 d   1      51.379  47.036  64.073  0.00  0.00     0.064 H 
ATOM     27  C31 ZG1 d   1      53.498  44.543  64.115  0.00  0.00    -0.049 C 
ATOM     28  H24 ZG1 d   1      54.000  46.400  63.088  0.00  0.00     0.035 H 
ATOM     29  H25 ZG1 d   1      52.450  45.660  62.563  0.00  0.00     0.035 H 
ATOM     30  H26 ZG1 d   1      53.281  43.691  63.454  0.00  0.00     0.035 H 
ATOM     31  H27 ZG1 d   1      54.570  44.552  64.363  0.00  0.00     0.035 H 
ATOM     32  H22 ZG1 d   1      51.829  43.736  65.266  0.00  0.00     0.064 H 
ATOM     33  H23 ZG1 d   1      53.282  44.129  66.247  0.00  0.00     0.064 H 
ATOM     34  O29 ZG1 d   1      51.377  45.447  67.726  0.00  0.00    -0.273 OA
ENDBRANCH  17  20
ENDBRANCH  15  17
ENDBRANCH   6  12
BRANCH   5  35
ATOM     35  N8  ZG1 d   1      47.837  46.482  63.542  0.00  0.00    -0.383 N 
ATOM     36  H7  ZG1 d   1      48.603  46.690  64.198  0.00  0.00     0.160 HD
BRANCH  35  37
ATOM     37  C9  ZG1 d   1      48.205  46.020  62.223  0.00  0.00     0.013 C 
ATOM     38  C10 ZG1 d   1      49.317  44.996  62.441  0.00  0.00    -0.026 C 
ATOM     39  C11 ZG1 d   1      49.782  44.473  61.091  0.00  0.00     0.021 C 
ATOM     40  H9  ZG1 d   1      48.936  44.162  63.048  0.00  0.00     0.039 H 
ATOM     41  H10 ZG1 d   1      50.160  45.473  62.962  0.00  0.00     0.039 H 
ATOM     42  O12 ZG1 d   1      50.215  45.592  60.341  0.00  0.00    -0.391 OA
ATOM     43  H11 ZG1 d   1      48.951  43.970  60.574  0.00  0.00     0.074 H 
ATOM     44  H12 ZG1 d   1      50.612  43.764  61.226  0.00  0.00     0.074 H 
ATOM     45  C13 ZG1 d   1      49.160  46.475  60.007  0.00  0.00     0.021 C 
ATOM     46  C14 ZG1 d   1      48.639  47.127  61.283  0.00  0.00    -0.026 C 
ATOM     47  H13 ZG1 d   1      48.348  45.913  59.521  0.00  0.00     0.074 H 
ATOM     48  H14 ZG1 d   1      49.531  47.251  59.321  0.00  0.00     0.074 H 
ATOM     49  H15 ZG1 d   1      49.436  47.724  61.750  0.00  0.00     0.039 H 
ATOM     50  H16 ZG1 d   1      47.783  47.777  61.049  0.00  0.00     0.039 H 
ATOM     51  H8  ZG1 d   1      47.337  45.520  61.769  0.00  0.00     0.072 H 
ENDBRANCH  35  37
ENDBRANCH   5  35
BRANCH   1  52
ATOM     52  C2  ZG1 d   1      41.711  46.710  63.207  0.00  0.00     0.015 C 
ATOM     53  H4  ZG1 d   1      41.545  47.217  64.169  0.00  0.00     0.066 H 
ATOM     54  H5  ZG1 d   1      41.265  47.305  62.397  0.00  0.00     0.066 H 
BRANCH  52  55
ATOM     55  C1  ZG1 d   1      41.069  45.335  63.240  0.00  0.00    -0.059 C 
ATOM     56  H1  ZG1 d   1      39.988  45.439  63.416  0.00  0.00     0.029 H 
ATOM     57  H2  ZG1 d   1      41.517  44.741  64.050  0.00  0.00     0.029 H 
ATOM     58  H3  ZG1 d   1      41.237  44.829  62.278  0.00  0.00     0.029 H 
ENDBRANCH  52  55
ENDBRANCH   1  52
TORSDOF 7
