REMARK  3 active torsions:
REMARK  status: ('A' for Active; 'I' for Inactive)
REMARK    1  A    between atoms: CA_4  and  C_1 
REMARK    2  A    between atoms: CAO_16  and  CAM_15 
REMARK    3  A    between atoms: CAP_17  and  NAT_19 
ROOT
ATOM      1  N   BR0 d   1      54.124 -21.179  89.659  0.00  0.00    -0.374 N 
ATOM      2  CA  BR0 d   1      53.084 -20.290  89.106  0.00  0.00     0.098 C 
ATOM      3  CB  BR0 d   1      53.503 -18.788  89.168  0.00  0.00    -0.017 C 
ATOM      4  CG  BR0 d   1      54.874 -18.499  89.828  0.00  0.00    -0.018 C 
ATOM      5  CAG BR0 d   1      57.700 -21.726  89.099  0.00  0.00    -0.062 A 
ATOM      6  CAH BR0 d   1      58.164 -20.412  89.165  0.00  0.00    -0.049 A 
ATOM      7  CAI BR0 d   1      53.048 -18.195  91.457  0.00  0.00    -0.064 C 
ATOM      8  CAK BR0 d   1      52.566 -17.943  90.028  0.00  0.00    -0.059 C 
ATOM      9  CAO BR0 d   1      56.347 -21.973  89.262  0.00  0.00     0.067 A 
ATOM     10  CAP BR0 d   1      57.311 -19.333  89.399  0.00  0.00     0.111 A 
ATOM     11  CAQ BR0 d   1      55.481 -20.912  89.496  0.00  0.00     0.055 A 
ATOM     12  CD1 BR0 d   1      54.558 -18.405  91.327  0.00  0.00    -0.057 C 
ATOM     13  CD2 BR0 d   1      55.935 -19.595  89.566  0.00  0.00     0.007 A 
ATOM     14  H1  BR0 d   1      53.838 -22.020  90.180  0.00  0.00     0.160 HD
ATOM     15  H2  BR0 d   1      52.919 -20.550  88.050  0.00  0.00     0.090 H 
ATOM     16  H3  BR0 d   1      53.508 -18.409  88.135  0.00  0.00     0.045 H 
ATOM     17  H4  BR0 d   1      55.267 -17.540  89.460  0.00  0.00     0.048 H 
ATOM     18  H5  BR0 d   1      58.390 -22.543  88.922  0.00  0.00     0.085 H 
ATOM     19  H6  BR0 d   1      59.223 -20.223  89.030  0.00  0.00     0.087 H 
ATOM     20  H7  BR0 d   1      52.567 -19.091  91.876  0.00  0.00     0.033 H 
ATOM     21  H8  BR0 d   1      52.831 -17.328  92.098  0.00  0.00     0.033 H 
ATOM     22  H9  BR0 d   1      51.522 -18.268  89.904  0.00  0.00     0.033 H 
ATOM     23  H10 BR0 d   1      52.652 -16.878  89.769  0.00  0.00     0.033 H 
ATOM     24  H11 BR0 d   1      55.097 -17.556  91.773  0.00  0.00     0.034 H 
ATOM     25  H12 BR0 d   1      54.854 -19.335  91.834  0.00  0.00     0.034 H 
ENDROOT
BRANCH   2  26
ATOM     26  C   BR0 d   1      51.795 -20.569  89.893  0.00  0.00     0.197 C 
ATOM     27  O   BR0 d   1      51.917 -21.322  90.881  0.00  0.00    -0.646 OA
ATOM     28  OXT BR0 d   1      50.722 -20.061  89.494  0.00  0.00    -0.646 OA
ENDBRANCH   2  26
BRANCH   9  29
ATOM     29  CAM BR0 d   1      55.788 -23.392  89.211  0.00  0.00     0.211 C 
ATOM     30  OAA BR0 d   1      55.127 -23.756  90.208  0.00  0.00    -0.644 OA
ATOM     31  OAD BR0 d   1      56.018 -24.110  88.212  0.00  0.00    -0.644 OA
ENDBRANCH   9  29
BRANCH  10  32
ATOM     32  NAT BR0 d   1      57.896 -18.117  89.449  0.00  0.00    -0.115 N 
ATOM     33  OAC BR0 d   1      59.295 -18.033  89.719  0.00  0.00    -0.532 OA
ATOM     34  OAF BR0 d   1      57.213 -16.896  89.246  0.00  0.00    -0.532 OA
ENDBRANCH  10  32
TORSDOF 3
