REMARK  10 active torsions:
REMARK  status: ('A' for Active; 'I' for Inactive)
REMARK    1  A    between atoms: N1_2  and  C10_19 
REMARK    2  A    between atoms: C3_7  and  O1_3 
REMARK    3  A    between atoms: C4_10  and  C7_16 
REMARK    4  A    between atoms: C19_28  and  N4_11 
REMARK       I    between atoms: C21_30  and  N5_14 
REMARK    5  A    between atoms: N5_14  and  C22_31 
REMARK    6  A    between atoms: C17_26  and  C8_17 
REMARK    7  A    between atoms: C9_18  and  C11_20 
REMARK    8  A    between atoms: C20_29  and  C19_28 
REMARK    9  A    between atoms: C20_29  and  C21_30 
REMARK   10  A    between atoms: C25_34  and  C28_37 
ROOT
ATOM      1  N2  JZG d   1      31.702   2.969  -2.117  0.00  0.00    -0.130 NA
ATOM      2  N3  JZG d   1      32.338   3.319  -3.266  0.00  0.00    -0.066 NA
ATOM      3  N4  JZG d   1      31.853   4.373  -3.957  0.00  0.00    -0.260 N 
ATOM      4  C17 JZG d   1      30.726   3.884  -2.075  0.00  0.00     0.111 A 
ATOM      5  C18 JZG d   1      30.821   4.730  -3.188  0.00  0.00     0.030 A 
ATOM      6  H13 JZG d   1      30.149   5.561  -3.396  0.00  0.00     0.118 H 
ENDROOT
BRANCH   3   7
ATOM      7  C19 JZG d   1      32.323   4.981  -5.218  0.00  0.00     0.026 C 
ATOM      8  H14 JZG d   1      31.535   4.902  -5.981  0.00  0.00     0.068 H 
ATOM      9  H15 JZG d   1      33.224   4.456  -5.566  0.00  0.00     0.068 H 
BRANCH   7  10
ATOM     10  C20 JZG d   1      32.652   6.455  -4.972  0.00  0.00     0.026 C 
ATOM     11  H16 JZG d   1      32.306   6.740  -3.967  0.00  0.00     0.049 H 
ATOM     12  H17 JZG d   1      32.138   7.071  -5.725  0.00  0.00     0.049 H 
BRANCH  10  13
ATOM     13  C21 JZG d   1      34.145   6.691  -5.070  0.00  0.00     0.223 C 
ATOM     14  O4  JZG d   1      34.640   6.873  -6.151  0.00  0.00    -0.273 OA
ATOM     15  N5  JZG d   1      34.945   6.720  -3.934  0.00  0.00    -0.327 N 
ATOM     16  H4  JZG d   1      35.342   7.591  -3.645  0.00  0.00     0.169 HD
BRANCH  15  17
ATOM     17  C22 JZG d   1      35.207   5.598  -3.199  0.00  0.00     0.034 A 
ATOM     18  C23 JZG d   1      34.684   5.485  -1.880  0.00  0.00    -0.056 A 
ATOM     19  C24 JZG d   1      34.945   4.323  -1.104  0.00  0.00    -0.070 A 
ATOM     20  H18 JZG d   1      34.085   6.288  -1.466  0.00  0.00     0.086 H 
ATOM     21  C25 JZG d   1      35.733   3.263  -1.642  0.00  0.00    -0.026 A 
ATOM     22  H19 JZG d   1      34.544   4.242  -0.100  0.00  0.00     0.084 H 
ATOM     23  C26 JZG d   1      36.262   3.376  -2.967  0.00  0.00    -0.070 A 
ATOM     24  C27 JZG d   1      36.001   4.537  -3.741  0.00  0.00    -0.056 A 
ATOM     25  H20 JZG d   1      36.863   2.574  -3.380  0.00  0.00     0.084 H 
ATOM     26  H21 JZG d   1      36.404   4.620  -4.744  0.00  0.00     0.086 H 
BRANCH  21  27
ATOM     27  C28 JZG d   1      35.973   2.160  -0.901  0.00  0.00    -0.026 A 
ATOM     28  C29 JZG d   1      36.956   2.184   0.137  0.00  0.00    -0.072 A 
ATOM     29  C30 JZG d   1      37.198   1.014   0.911  0.00  0.00    -0.082 A 
ATOM     30  H22 JZG d   1      37.516   3.091   0.334  0.00  0.00     0.084 H 
ATOM     31  C31 JZG d   1      36.462  -0.179   0.653  0.00  0.00    -0.083 A 
ATOM     32  H23 JZG d   1      37.943   1.030   1.698  0.00  0.00     0.083 H 
ATOM     33  C32 JZG d   1      35.484  -0.204  -0.377  0.00  0.00    -0.082 A 
ATOM     34  H24 JZG d   1      36.649  -1.069   1.244  0.00  0.00     0.083 H 
ATOM     35  C33 JZG d   1      35.236   0.957  -1.154  0.00  0.00    -0.072 A 
ATOM     36  H25 JZG d   1      34.925  -1.113  -0.570  0.00  0.00     0.083 H 
ATOM     37  H26 JZG d   1      34.489   0.934  -1.939  0.00  0.00     0.084 H 
ENDBRANCH  21  27
ENDBRANCH  15  17
ENDBRANCH  10  13
ENDBRANCH   7  10
ENDBRANCH   3   7
BRANCH   4  38
ATOM     38  C8  JZG d   1      29.777   4.007  -1.115  0.00  0.00     0.036 A 
ATOM     39  C6  JZG d   1      28.430   3.551  -1.227  0.00  0.00     0.007 A 
ATOM     40  C1  JZG d   1      27.769   3.887  -0.011  0.00  0.00     0.048 A 
ATOM     41  C5  JZG d   1      27.687   2.879  -2.263  0.00  0.00    -0.051 A 
ATOM     42  N1  JZG d   1      28.699   4.512   0.808  0.00  0.00    -0.349 N 
ATOM     43  C2  JZG d   1      26.393   3.586   0.217  0.00  0.00    -0.023 A 
ATOM     44  C9  JZG d   1      29.930   4.596   0.153  0.00  0.00     0.058 A 
ATOM     45  C3  JZG d   1      25.665   2.924  -0.819  0.00  0.00     0.085 A 
ATOM     46  H2  JZG d   1      25.913   3.853   1.151  0.00  0.00     0.091 H 
ATOM     47  C4  JZG d   1      26.306   2.560  -2.061  0.00  0.00     0.074 A 
ATOM     48  H3  JZG d   1      28.174   2.615  -3.195  0.00  0.00     0.086 H 
BRANCH  42  49
ATOM     49  C10 JZG d   1      28.405   5.016   2.180  0.00  0.00    -0.013 C 
ATOM     50  H5  JZG d   1      27.353   4.810   2.429  0.00  0.00     0.057 H 
ATOM     51  H6  JZG d   1      28.585   6.100   2.219  0.00  0.00     0.057 H 
ATOM     52  H7  JZG d   1      29.059   4.509   2.905  0.00  0.00     0.057 H 
ENDBRANCH  42  49
BRANCH  44  53
ATOM     53  C11 JZG d   1      31.064   5.156   0.661  0.00  0.00    -0.008 A 
ATOM     54  C12 JZG d   1      31.384   6.521   0.376  0.00  0.00    -0.071 A 
ATOM     55  C13 JZG d   1      32.568   7.101   0.908  0.00  0.00    -0.082 A 
ATOM     56  H8  JZG d   1      30.723   7.114  -0.246  0.00  0.00     0.084 H 
ATOM     57  C14 JZG d   1      33.435   6.323   1.728  0.00  0.00    -0.083 A 
ATOM     58  H9  JZG d   1      32.811   8.135   0.690  0.00  0.00     0.083 H 
ATOM     59  C15 JZG d   1      33.119   4.964   2.015  0.00  0.00    -0.082 A 
ATOM     60  H10 JZG d   1      34.337   6.766   2.134  0.00  0.00     0.083 H 
ATOM     61  C16 JZG d   1      31.939   4.381   1.483  0.00  0.00    -0.071 A 
ATOM     62  H11 JZG d   1      33.780   4.375   2.640  0.00  0.00     0.083 H 
ATOM     63  H12 JZG d   1      31.701   3.346   1.701  0.00  0.00     0.084 H 
ENDBRANCH  44  53
BRANCH  45  64
ATOM     64  O1  JZG d   1      24.359   2.643  -0.597  0.00  0.00    -0.360 OA
ATOM     65  H1  JZG d   1      24.283   2.075   0.161  0.00  0.00     0.217 HD
ENDBRANCH  45  64
BRANCH  47  66
ATOM     66  C7  JZG d   1      25.626   1.908  -3.062  0.00  0.00     0.212 C 
ATOM     67  O2  JZG d   1      24.649   2.384  -3.575  0.00  0.00    -0.644 OA
ATOM     68  O3  JZG d   1      26.057   0.718  -3.481  0.00  0.00    -0.644 OA
ENDBRANCH  47  66
ENDBRANCH   4  38
TORSDOF 10
