REMARK  4 active torsions:
REMARK  status: ('A' for Active; 'I' for Inactive)
REMARK    1  A    between atoms: C3_3  and  C7_7 
REMARK    2  A    between atoms: C7_7  and  N8_8 
REMARK    3  A    between atoms: C14_14  and  C21_20 
REMARK    4  A    between atoms: C16_16  and  C18_17 
ROOT
ATOM      1  N8  HTJ d   1     -25.066  -5.858  11.155  0.00  0.00    -0.247 N 
ATOM      2  C9  HTJ d   1     -24.036  -6.494  10.596  0.00  0.00     0.159 A 
ATOM      3  C10 HTJ d   1     -23.242  -5.484  10.076  0.00  0.00     0.048 A 
ATOM      4  C11 HTJ d   1     -23.816  -4.191  10.352  0.00  0.00     0.036 A 
ATOM      5  N12 HTJ d   1     -24.956  -4.456  11.039  0.00  0.00    -0.182 NA
ATOM      6  N13 HTJ d   1     -23.734  -7.790  10.482  0.00  0.00    -0.228 NA
ATOM      7  C14 HTJ d   1     -22.623  -8.192   9.848  0.00  0.00     0.070 A 
ATOM      8  C15 HTJ d   1     -21.767  -7.237   9.281  0.00  0.00    -0.037 A 
ATOM      9  C16 HTJ d   1     -22.076  -5.872   9.391  0.00  0.00     0.058 A 
ATOM     10  H7  HTJ d   1     -23.422  -3.216  10.071  0.00  0.00     0.118 H 
ATOM     11  H8  HTJ d   1     -20.870  -7.551   8.760  0.00  0.00     0.088 H 
ENDROOT
BRANCH   1  12
ATOM     12  C7  HTJ d   1     -26.186  -6.384  11.939  0.00  0.00     0.043 C 
ATOM     13  H5  HTJ d   1     -27.045  -5.699  11.891  0.00  0.00     0.074 H 
ATOM     14  H6  HTJ d   1     -26.485  -7.375  11.567  0.00  0.00     0.074 H 
BRANCH  12  15
ATOM     15  C3  HTJ d   1     -25.657  -6.487  13.384  0.00  0.00    -0.036 A 
ATOM     16  C2  HTJ d   1     -26.526  -6.618  14.470  0.00  0.00    -0.058 A 
ATOM     17  C1  HTJ d   1     -26.013  -6.711  15.770  0.00  0.00     0.002 A 
ATOM     18  H2  HTJ d   1     -27.597  -6.648  14.307  0.00  0.00     0.086 H 
ATOM     19  N6  HTJ d   1     -24.687  -6.663  15.997  0.00  0.00    -0.273 NA
ATOM     20  H1  HTJ d   1     -26.694  -6.823  16.606  0.00  0.00     0.114 H 
ATOM     21  C5  HTJ d   1     -23.810  -6.547  14.980  0.00  0.00     0.002 A 
ATOM     22  C4  HTJ d   1     -24.282  -6.454  13.665  0.00  0.00    -0.058 A 
ATOM     23  H4  HTJ d   1     -22.745  -6.526  15.179  0.00  0.00     0.114 H 
ATOM     24  H3  HTJ d   1     -23.574  -6.355  12.850  0.00  0.00     0.086 H 
ENDBRANCH  12  15
ENDBRANCH   1  12
BRANCH   9  25
ATOM     25  C18 HTJ d   1     -21.161  -4.839   8.788  0.00  0.00     0.210 C 
ATOM     26  O19 HTJ d   1     -20.333  -5.193   7.931  0.00  0.00    -0.644 OA
ATOM     27  O20 HTJ d   1     -21.220  -3.642   9.153  0.00  0.00    -0.644 OA
ENDBRANCH   9  25
BRANCH   7  28
ATOM     28  C21 HTJ d   1     -22.366  -9.656   9.773  0.00  0.00    -0.007 A 
ATOM     29  C22 HTJ d   1     -23.151 -10.525  10.545  0.00  0.00    -0.071 A 
ATOM     30  C23 HTJ d   1     -22.935 -11.905  10.488  0.00  0.00    -0.082 A 
ATOM     31  H9  HTJ d   1     -23.927 -10.126  11.188  0.00  0.00     0.084 H 
ATOM     32  C24 HTJ d   1     -21.941 -12.424   9.656  0.00  0.00    -0.083 A 
ATOM     33  H10 HTJ d   1     -23.540 -12.573  11.091  0.00  0.00     0.083 H 
ATOM     34  C25 HTJ d   1     -21.148 -11.567   8.888  0.00  0.00    -0.082 A 
ATOM     35  H11 HTJ d   1     -21.784 -13.495   9.606  0.00  0.00     0.083 H 
ATOM     36  C26 HTJ d   1     -21.368 -10.179   8.939  0.00  0.00    -0.071 A 
ATOM     37  H12 HTJ d   1     -20.366 -11.971   8.255  0.00  0.00     0.083 H 
ATOM     38  H13 HTJ d   1     -20.765  -9.513   8.333  0.00  0.00     0.084 H 
ENDBRANCH   7  28
TORSDOF 4
