REMARK  7 active torsions:
REMARK  status: ('A' for Active; 'I' for Inactive)
REMARK       I    between atoms: C1_1  and  N2_3 
REMARK       I    between atoms: C1_1  and  N9_11 
REMARK    1  A    between atoms: N2_3  and  C3_4 
REMARK    2  A    between atoms: N9_11  and  C10_12 
REMARK    3  A    between atoms: C13_14  and  C16_21 
REMARK    4  A    between atoms: N11_16  and  C15_17 
REMARK    5  A    between atoms: C16_21  and  C17_18 
REMARK    6  A    between atoms: C16_21  and  C18_19 
REMARK    7  A    between atoms: C16_21  and  C19_20 
ROOT
ATOM      1  C10 BMU d   1       0.704  -3.375 -12.741  0.00  0.00     0.129 A 
ATOM      2  C14 BMU d   1       1.439  -2.249 -12.397  0.00  0.00    -0.013 A 
ATOM      3  C13 BMU d   1       2.527  -2.786 -11.715  0.00  0.00     0.066 A 
ATOM      4  N12 BMU d   1       2.491  -4.129 -11.589  0.00  0.00    -0.175 NA
ATOM      5  N11 BMU d   1       1.308  -4.480 -12.260  0.00  0.00    -0.258 N 
ATOM      6  H7  BMU d   1       1.219  -1.204 -12.608  0.00  0.00     0.092 H 
ENDROOT
BRANCH   1   7
ATOM      7  N9  BMU d   1      -0.456  -3.563 -13.391  0.00  0.00    -0.293 N 
ATOM      8  C1  BMU d   1      -0.803  -2.952 -14.539  0.00  0.00     0.326 C 
ATOM      9  O1  BMU d   1       0.031  -2.373 -15.231  0.00  0.00    -0.247 OA
ATOM     10  N2  BMU d   1      -2.104  -3.049 -14.869  0.00  0.00    -0.309 N 
ATOM     11  H1  BMU d   1      -2.663  -3.667 -14.316  0.00  0.00     0.170 HD
ATOM     12  H6  BMU d   1      -1.111  -4.205 -12.992  0.00  0.00     0.172 HD
BRANCH  10  13
ATOM     13  C3  BMU d   1      -2.736  -2.389 -15.882  0.00  0.00     0.036 A 
ATOM     14  C4  BMU d   1      -4.096  -2.084 -15.716  0.00  0.00    -0.056 A 
ATOM     15  C5  BMU d   1      -4.816  -1.423 -16.719  0.00  0.00    -0.060 A 
ATOM     16  H2  BMU d   1      -4.597  -2.365 -14.797  0.00  0.00     0.087 H 
ATOM     17  C6  BMU d   1      -4.163  -1.068 -17.912  0.00  0.00     0.034 A 
ATOM     18  H3  BMU d   1      -5.865  -1.188 -16.577  0.00  0.00     0.086 H 
ATOM     19 CL6  BMU d   1      -5.082  -0.227 -19.207  0.00  0.00    -0.084 Cl
ATOM     20  C7  BMU d   1      -2.809  -1.388 -18.099  0.00  0.00    -0.060 A 
ATOM     21  C8  BMU d   1      -2.095  -2.043 -17.080  0.00  0.00    -0.056 A 
ATOM     22  H4  BMU d   1      -2.314  -1.130 -19.028  0.00  0.00     0.086 H 
ATOM     23  H5  BMU d   1      -1.047  -2.281 -17.221  0.00  0.00     0.087 H 
ENDBRANCH  10  13
ENDBRANCH   1   7
BRANCH   5  24
ATOM     24  C15 BMU d   1       1.036  -5.937 -12.297  0.00  0.00     0.004 C 
ATOM     25  H8  BMU d   1       1.827  -6.472 -11.751  0.00  0.00     0.059 H 
ATOM     26  H9  BMU d   1       1.016  -6.280 -13.342  0.00  0.00     0.059 H 
ATOM     27  H10 BMU d   1       0.063  -6.141 -11.825  0.00  0.00     0.059 H 
ENDBRANCH   5  24
BRANCH   3  28
ATOM     28  C16 BMU d   1       3.627  -1.928 -11.136  0.00  0.00    -0.005 C 
BRANCH  28  29
ATOM     29  C17 BMU d   1       3.035  -1.078 -10.005  0.00  0.00    -0.064 C 
ATOM     30  H11 BMU d   1       3.823  -0.446  -9.571  0.00  0.00     0.028 H 
ATOM     31  H12 BMU d   1       2.624  -1.738  -9.227  0.00  0.00     0.028 H 
ATOM     32  H13 BMU d   1       2.233  -0.441 -10.406  0.00  0.00     0.028 H 
ENDBRANCH  28  29
BRANCH  28  33
ATOM     33  C18 BMU d   1       4.243  -1.076 -12.252  0.00  0.00    -0.064 C 
ATOM     34  H14 BMU d   1       4.651  -1.734 -13.033  0.00  0.00     0.028 H 
ATOM     35  H15 BMU d   1       5.051  -0.456 -11.836  0.00  0.00     0.028 H 
ATOM     36  H16 BMU d   1       3.469  -0.426 -12.687  0.00  0.00     0.028 H 
ENDBRANCH  28  33
BRANCH  28  37
ATOM     37  C19 BMU d   1       4.730  -2.790 -10.533  0.00  0.00    -0.064 C 
ATOM     38  H17 BMU d   1       4.311  -3.412  -9.728  0.00  0.00     0.028 H 
ATOM     39  H18 BMU d   1       5.519  -2.142 -10.123  0.00  0.00     0.028 H 
ATOM     40  H19 BMU d   1       5.156  -3.438 -11.313  0.00  0.00     0.028 H 
ENDBRANCH  28  37
ENDBRANCH   3  28
TORSDOF 7
