REMARK  17 active torsions:
REMARK  status: ('A' for Active; 'I' for Inactive)
REMARK    1  A    between atoms: C2_2  and  N1_1 
REMARK    2  A    between atoms: S8_8  and  C5_5 
REMARK    3  A    between atoms: N11_11  and  S8_8 
REMARK    4  A    between atoms: N11_11  and  C12_12 
REMARK    5  A    between atoms: C16_16  and  N11_11 
REMARK    6  A    between atoms: C12_12  and  C13_13 
REMARK    7  A    between atoms: C13_13  and  C14_14 
REMARK    8  A    between atoms: C13_13  and  C15_15 
REMARK    9  A    between atoms: C15_15  and  C18_18 
REMARK   10  A    between atoms: C17_17  and  C16_16 
REMARK   11  A    between atoms: C17_17  and  O18_19 
REMARK   12  A    between atoms: C19_20  and  C17_17 
REMARK   13  A    between atoms: C19_20  and  N20_21 
REMARK   14  A    between atoms: C32_33  and  C19_20 
REMARK       I    between atoms: N20_21  and  C21_22 
REMARK   15  A    between atoms: C21_22  and  O23_24 
REMARK   16  A    between atoms: O23_24  and  C24_25 
REMARK   17  A    between atoms: C38_39  and  C32_33 
ROOT
ATOM      1  C17 K13 d   1      19.910  29.386  15.607  0.00  0.00     0.067 C 
ATOM      2  H17 K13 d   1      20.935  29.785  15.598  0.00  0.00     0.088 H 
ENDROOT
BRANCH   1   3
ATOM      3  C16 K13 d   1      18.985  30.477  16.157  0.00  0.00     0.019 C 
ATOM      4  H15 K13 d   1      17.934  30.190  16.002  0.00  0.00     0.061 H 
ATOM      5  H16 K13 d   1      19.171  30.619  17.232  0.00  0.00     0.061 H 
BRANCH   3   6
ATOM      6  N11 K13 d   1      19.277  31.720  15.430  0.00  0.00    -0.204 NA
BRANCH   6   7
ATOM      7  S8  K13 d   1      18.016  32.317  14.606  0.00  0.00     0.243 S 
ATOM      8  O9  K13 d   1      17.356  31.241  13.941  0.00  0.00    -0.206 OA
ATOM      9  O10 K13 d   1      18.597  33.213  13.653  0.00  0.00    -0.206 OA
BRANCH   7  10
ATOM     10  C5  K13 d   1      16.987  33.105  15.577  0.00  0.00     0.074 A 
ATOM     11  C4  K13 d   1      17.169  34.445  15.935  0.00  0.00    -0.059 A 
ATOM     12  C3  K13 d   1      16.276  35.095  16.797  0.00  0.00    -0.056 A 
ATOM     13  H4  K13 d   1      18.017  34.991  15.538  0.00  0.00     0.086 H 
ATOM     14  C2  K13 d   1      15.185  34.377  17.294  0.00  0.00     0.025 A 
ATOM     15  H3  K13 d   1      16.428  36.132  17.072  0.00  0.00     0.086 H 
ATOM     16  C7  K13 d   1      14.995  33.057  16.939  0.00  0.00    -0.056 A 
ATOM     17  C6  K13 d   1      15.896  32.423  16.090  0.00  0.00    -0.059 A 
ATOM     18  H6  K13 d   1      14.140  32.512  17.323  0.00  0.00     0.086 H 
ATOM     19  H5  K13 d   1      15.743  31.383  15.827  0.00  0.00     0.086 H 
BRANCH  14  20
ATOM     20  N1  K13 d   1      14.290  34.956  18.117  0.00  0.00    -0.399 N 
ATOM     21  H1  K13 d   1      14.409  35.940  18.397  0.00  0.00     0.156 HD
ATOM     22  H2  K13 d   1      13.486  34.415  18.466  0.00  0.00     0.156 HD
ENDBRANCH  14  20
ENDBRANCH   7  10
ENDBRANCH   6   7
BRANCH   6  23
ATOM     23  C12 K13 d   1      19.972  32.746  16.246  0.00  0.00    -0.004 C 
ATOM     24  H7  K13 d   1      19.558  32.740  17.265  0.00  0.00     0.058 H 
ATOM     25  H8  K13 d   1      19.817  33.736  15.792  0.00  0.00     0.058 H 
BRANCH  23  26
ATOM     26  C13 K13 d   1      21.469  32.451  16.310  0.00  0.00    -0.046 C 
ATOM     27  H9  K13 d   1      21.584  31.440  16.728  0.00  0.00     0.041 H 
BRANCH  26  28
ATOM     28  C14 K13 d   1      22.147  32.436  14.933  0.00  0.00    -0.072 C 
ATOM     29  H10 K13 d   1      23.218  32.218  15.054  0.00  0.00     0.028 H 
ATOM     30  H11 K13 d   1      22.024  33.418  14.453  0.00  0.00     0.028 H 
ATOM     31  H12 K13 d   1      21.684  31.661  14.305  0.00  0.00     0.028 H 
ENDBRANCH  26  28
BRANCH  26  32
ATOM     32  C15 K13 d   1      22.143  33.430  17.283  0.00  0.00    -0.064 C 
ATOM     33  H13 K13 d   1      23.183  33.108  17.439  0.00  0.00     0.033 H 
ATOM     34  H14 K13 d   1      21.602  33.400  18.240  0.00  0.00     0.033 H 
BRANCH  32  35
ATOM     35  C18 K13 d   1      22.151  34.852  16.780  0.00  0.00    -0.076 C 
ATOM     36  H18 K13 d   1      22.645  35.500  17.519  0.00  0.00     0.027 H 
ATOM     37  H19 K13 d   1      21.116  35.193  16.628  0.00  0.00     0.027 H 
ATOM     38  H20 K13 d   1      22.697  34.901  15.826  0.00  0.00     0.027 H 
ENDBRANCH  32  35
ENDBRANCH  26  32
ENDBRANCH  23  26
ENDBRANCH   6  23
ENDBRANCH   3   6
ENDBRANCH   1   3
BRANCH   1  39
ATOM     39  O18 K13 d   1      19.866  28.259  16.493  0.00  0.00    -0.392 OA
ATOM     40  H21 K13 d   1      18.975  27.933  16.545  0.00  0.00     0.210 HD
ENDBRANCH   1  39
BRANCH   1  41
ATOM     41  C19 K13 d   1      19.570  28.953  14.174  0.00  0.00     0.044 C 
ATOM     42  H22 K13 d   1      19.479  29.855  13.551  0.00  0.00     0.077 H 
BRANCH  41  43
ATOM     43  N20 K13 d   1      20.678  28.151  13.703  0.00  0.00    -0.329 N 
ATOM     44  C21 K13 d   1      21.555  28.501  12.773  0.00  0.00     0.361 C 
ATOM     45  O22 K13 d   1      21.597  29.546  12.162  0.00  0.00    -0.238 OA
ATOM     46  H23 K13 d   1      20.793  27.248  14.118  0.00  0.00     0.165 HD
BRANCH  44  47
ATOM     47  O23 K13 d   1      22.534  27.480  12.530  0.00  0.00    -0.296 OA
BRANCH  47  48
ATOM     48  C24 K13 d   1      23.388  27.535  11.406  0.00  0.00     0.078 C 
ATOM     49  C25 K13 d   1      24.690  26.911  11.874  0.00  0.00     0.048 C 
ATOM     50  O26 K13 d   1      24.515  25.503  11.657  0.00  0.00    -0.358 OA
ATOM     51  H25 K13 d   1      24.860  27.121  12.940  0.00  0.00     0.078 H 
ATOM     52  H26 K13 d   1      25.537  27.292  11.285  0.00  0.00     0.078 H 
ATOM     53  C27 K13 d   1      23.551  25.283  10.626  0.00  0.00     0.137 C 
ATOM     54  O28 K13 d   1      22.499  24.435  11.071  0.00  0.00    -0.361 OA
ATOM     55  C31 K13 d   1      22.918  26.620  10.292  0.00  0.00     0.023 C 
ATOM     56  H27 K13 d   1      24.040  24.848   9.742  0.00  0.00     0.129 H 
ATOM     57  C29 K13 d   1      21.250  25.123  11.112  0.00  0.00     0.023 C 
ATOM     58  C30 K13 d   1      21.429  26.330  10.206  0.00  0.00    -0.035 C 
ATOM     59  H28 K13 d   1      21.019  25.443  12.139  0.00  0.00     0.074 H 
ATOM     60  H29 K13 d   1      20.442  24.477  10.739  0.00  0.00     0.074 H 
ATOM     61  H30 K13 d   1      20.840  27.185  10.569  0.00  0.00     0.037 H 
ATOM     62  H31 K13 d   1      21.134  26.094   9.173  0.00  0.00     0.037 H 
ATOM     63  H32 K13 d   1      23.267  27.012   9.325  0.00  0.00     0.051 H 
ATOM     64  H24 K13 d   1      23.513  28.568  11.050  0.00  0.00     0.088 H 
ENDBRANCH  47  48
ENDBRANCH  44  47
ENDBRANCH  41  43
BRANCH  41  65
ATOM     65  C32 K13 d   1      18.267  28.153  14.040  0.00  0.00    -0.020 C 
ATOM     66  H33 K13 d   1      17.425  28.775  14.377  0.00  0.00     0.043 H 
ATOM     67  H34 K13 d   1      18.330  27.251  14.667  0.00  0.00     0.043 H 
BRANCH  65  68
ATOM     68  C38 K13 d   1      18.038  27.742  12.595  0.00  0.00    -0.056 A 
ATOM     69  C33 K13 d   1      18.172  26.422  12.190  0.00  0.00    -0.077 A 
ATOM     70  C34 K13 d   1      17.998  26.069  10.863  0.00  0.00    -0.082 A 
ATOM     71  H35 K13 d   1      18.416  25.659  12.920  0.00  0.00     0.084 H 
ATOM     72  C35 K13 d   1      17.647  27.014   9.913  0.00  0.00    -0.083 A 
ATOM     73  H36 K13 d   1      18.139  25.037  10.562  0.00  0.00     0.083 H 
ATOM     74  C36 K13 d   1      17.515  28.328  10.313  0.00  0.00    -0.082 A 
ATOM     75  H37 K13 d   1      17.480  26.728   8.881  0.00  0.00     0.083 H 
ATOM     76  C37 K13 d   1      17.694  28.680  11.643  0.00  0.00    -0.077 A 
ATOM     77  H38 K13 d   1      17.270  29.091   9.583  0.00  0.00     0.083 H 
ATOM     78  H39 K13 d   1      17.561  29.714  11.941  0.00  0.00     0.084 H 
ENDBRANCH  65  68
ENDBRANCH  41  65
ENDBRANCH   1  41
TORSDOF 17
