REMARK  18 active torsions:
REMARK  status: ('A' for Active; 'I' for Inactive)
REMARK    1  A    between atoms: O1_2  and  C1_1 
REMARK    2  A    between atoms: C2_3  and  O1_2 
REMARK    3  A    between atoms: S8_9  and  C5_6 
REMARK    4  A    between atoms: N11_12  and  S8_9 
REMARK    5  A    between atoms: N11_12  and  C12_13 
REMARK    6  A    between atoms: C16_17  and  N11_12 
REMARK    7  A    between atoms: C12_13  and  C13_14 
REMARK    8  A    between atoms: C13_14  and  C14_15 
REMARK    9  A    between atoms: C13_14  and  C15_16 
REMARK   10  A    between atoms: C15_16  and  C18_19 
REMARK   11  A    between atoms: C17_18  and  C16_17 
REMARK   12  A    between atoms: C17_18  and  O18_20 
REMARK   13  A    between atoms: C19_21  and  C17_18 
REMARK   14  A    between atoms: C19_21  and  N20_22 
REMARK   15  A    between atoms: C32_34  and  C19_21 
REMARK       I    between atoms: N20_22  and  C21_23 
REMARK   16  A    between atoms: C21_23  and  O23_25 
REMARK   17  A    between atoms: O23_25  and  C24_26 
REMARK   18  A    between atoms: C38_40  and  C32_34 
ROOT
ATOM      1  C17 K14 d   1      19.938  29.364  15.733  0.00  0.00     0.067 C 
ATOM      2  H18 K14 d   1      20.978  29.718  15.685  0.00  0.00     0.088 H 
ENDROOT
BRANCH   1   3
ATOM      3  C16 K14 d   1      19.091  30.511  16.293  0.00  0.00     0.019 C 
ATOM      4  H16 K14 d   1      18.024  30.254  16.216  0.00  0.00     0.061 H 
ATOM      5  H17 K14 d   1      19.352  30.681  17.348  0.00  0.00     0.061 H 
BRANCH   3   6
ATOM      6  N11 K14 d   1      19.364  31.737  15.510  0.00  0.00    -0.204 NA
BRANCH   6   7
ATOM      7  S8  K14 d   1      18.051  32.334  14.775  0.00  0.00     0.243 S 
ATOM      8  O9  K14 d   1      17.273  31.252  14.266  0.00  0.00    -0.206 OA
ATOM      9  O10 K14 d   1      18.569  33.148  13.697  0.00  0.00    -0.206 OA
BRANCH   7  10
ATOM     10  C5  K14 d   1      17.150  33.223  15.809  0.00  0.00     0.074 A 
ATOM     11  C4  K14 d   1      17.401  34.581  15.979  0.00  0.00    -0.058 A 
ATOM     12  C3  K14 d   1      16.669  35.365  16.874  0.00  0.00    -0.049 A 
ATOM     13  H5  K14 d   1      18.190  35.045  15.398  0.00  0.00     0.086 H 
ATOM     14  C2  K14 d   1      15.643  34.794  17.638  0.00  0.00     0.068 A 
ATOM     15  H4  K14 d   1      16.896  36.420  16.978  0.00  0.00     0.087 H 
ATOM     16  C7  K14 d   1      15.378  33.432  17.487  0.00  0.00    -0.049 A 
ATOM     17  C6  K14 d   1      16.115  32.661  16.571  0.00  0.00    -0.058 A 
ATOM     18  H7  K14 d   1      14.599  32.966  18.080  0.00  0.00     0.087 H 
ATOM     19  H6  K14 d   1      15.878  31.610  16.451  0.00  0.00     0.086 H 
BRANCH  14  20
ATOM     20  O1  K14 d   1      14.913  35.543  18.538  0.00  0.00    -0.356 OA
BRANCH  20  21
ATOM     21  C1  K14 d   1      15.264  36.898  18.862  0.00  0.00     0.010 C 
ATOM     22  H1  K14 d   1      14.548  37.297  19.596  0.00  0.00     0.066 H 
ATOM     23  H2  K14 d   1      15.234  37.513  17.950  0.00  0.00     0.066 H 
ATOM     24  H3  K14 d   1      16.278  36.922  19.288  0.00  0.00     0.066 H 
ENDBRANCH  20  21
ENDBRANCH  14  20
ENDBRANCH   7  10
ENDBRANCH   6   7
BRANCH   6  25
ATOM     25  C12 K14 d   1      20.078  32.778  16.295  0.00  0.00    -0.004 C 
ATOM     26  H8  K14 d   1      19.661  32.807  17.312  0.00  0.00     0.058 H 
ATOM     27  H9  K14 d   1      19.931  33.755  15.810  0.00  0.00     0.058 H 
BRANCH  25  28
ATOM     28  C13 K14 d   1      21.580  32.485  16.381  0.00  0.00    -0.046 C 
ATOM     29  H10 K14 d   1      21.696  31.502  16.862  0.00  0.00     0.041 H 
BRANCH  28  30
ATOM     30  C14 K14 d   1      22.264  32.392  15.011  0.00  0.00    -0.072 C 
ATOM     31  H11 K14 d   1      23.335  32.181  15.149  0.00  0.00     0.028 H 
ATOM     32  H12 K14 d   1      22.145  33.346  14.476  0.00  0.00     0.028 H 
ATOM     33  H13 K14 d   1      21.803  31.583  14.425  0.00  0.00     0.028 H 
ENDBRANCH  28  30
BRANCH  28  34
ATOM     34  C15 K14 d   1      22.246  33.525  17.285  0.00  0.00    -0.064 C 
ATOM     35  H14 K14 d   1      23.313  33.273  17.373  0.00  0.00     0.033 H 
ATOM     36  H15 K14 d   1      21.774  33.472  18.277  0.00  0.00     0.033 H 
BRANCH  34  37
ATOM     37  C18 K14 d   1      22.136  34.942  16.785  0.00  0.00    -0.076 C 
ATOM     38  H19 K14 d   1      22.639  35.620  17.491  0.00  0.00     0.027 H 
ATOM     39  H20 K14 d   1      21.075  35.220  16.702  0.00  0.00     0.027 H 
ATOM     40  H21 K14 d   1      22.614  35.021  15.797  0.00  0.00     0.027 H 
ENDBRANCH  34  37
ENDBRANCH  28  34
ENDBRANCH  25  28
ENDBRANCH   6  25
ENDBRANCH   3   6
ENDBRANCH   1   3
BRANCH   1  41
ATOM     41  O18 K14 d   1      19.884  28.234  16.612  0.00  0.00    -0.392 OA
ATOM     42  H22 K14 d   1      18.984  27.943  16.697  0.00  0.00     0.210 HD
ENDBRANCH   1  41
BRANCH   1  43
ATOM     43  C19 K14 d   1      19.540  28.913  14.333  0.00  0.00     0.044 C 
ATOM     44  H23 K14 d   1      19.438  29.805  13.697  0.00  0.00     0.077 H 
BRANCH  43  45
ATOM     45  N20 K14 d   1      20.623  28.100  13.851  0.00  0.00    -0.329 N 
ATOM     46  C21 K14 d   1      21.474  28.439  12.886  0.00  0.00     0.361 C 
ATOM     47  O22 K14 d   1      21.503  29.472  12.236  0.00  0.00    -0.238 OA
ATOM     48  H24 K14 d   1      20.747  27.204  14.277  0.00  0.00     0.165 HD
BRANCH  46  49
ATOM     49  O23 K14 d   1      22.434  27.400  12.639  0.00  0.00    -0.296 OA
BRANCH  49  50
ATOM     50  C24 K14 d   1      23.284  27.515  11.510  0.00  0.00     0.078 C 
ATOM     51  C25 K14 d   1      24.609  26.959  11.981  0.00  0.00     0.048 C 
ATOM     52  O26 K14 d   1      24.448  25.539  11.870  0.00  0.00    -0.358 OA
ATOM     53  H26 K14 d   1      24.807  27.250  13.023  0.00  0.00     0.078 H 
ATOM     54  H27 K14 d   1      25.431  27.311  11.340  0.00  0.00     0.078 H 
ATOM     55  C27 K14 d   1      23.537  25.263  10.802  0.00  0.00     0.137 C 
ATOM     56  O28 K14 d   1      22.509  24.361  11.212  0.00  0.00    -0.361 OA
ATOM     57  C31 K14 d   1      22.866  26.564  10.409  0.00  0.00     0.023 C 
ATOM     58  H28 K14 d   1      24.086  24.839   9.948  0.00  0.00     0.129 H 
ATOM     59  C29 K14 d   1      21.222  25.002  11.196  0.00  0.00     0.023 C 
ATOM     60  C30 K14 d   1      21.386  26.225  10.307  0.00  0.00    -0.035 C 
ATOM     61  H29 K14 d   1      20.930  25.303  12.213  0.00  0.00     0.074 H 
ATOM     62  H30 K14 d   1      20.461  24.325  10.781  0.00  0.00     0.074 H 
ATOM     63  H31 K14 d   1      20.769  27.059  10.672  0.00  0.00     0.037 H 
ATOM     64  H32 K14 d   1      21.110  25.992   9.268  0.00  0.00     0.037 H 
ATOM     65  H33 K14 d   1      23.222  26.941   9.439  0.00  0.00     0.051 H 
ATOM     66  H25 K14 d   1      23.349  28.553  11.152  0.00  0.00     0.088 H 
ENDBRANCH  49  50
ENDBRANCH  46  49
ENDBRANCH  43  45
BRANCH  43  67
ATOM     67  C32 K14 d   1      18.225  28.122  14.244  0.00  0.00    -0.020 C 
ATOM     68  H34 K14 d   1      17.393  28.744  14.604  0.00  0.00     0.043 H 
ATOM     69  H35 K14 d   1      18.297  27.213  14.860  0.00  0.00     0.043 H 
BRANCH  67  70
ATOM     70  C38 K14 d   1      17.987  27.739  12.789  0.00  0.00    -0.056 A 
ATOM     71  C33 K14 d   1      18.139  26.419  12.377  0.00  0.00    -0.077 A 
ATOM     72  C34 K14 d   1      17.943  26.068  11.055  0.00  0.00    -0.082 A 
ATOM     73  H36 K14 d   1      18.414  25.659  13.100  0.00  0.00     0.084 H 
ATOM     74  C35 K14 d   1      17.591  27.029  10.129  0.00  0.00    -0.083 A 
ATOM     75  H37 K14 d   1      18.066  25.037  10.745  0.00  0.00     0.083 H 
ATOM     76  C36 K14 d   1      17.444  28.346  10.523  0.00  0.00    -0.082 A 
ATOM     77  H38 K14 d   1      17.430  26.751   9.094  0.00  0.00     0.083 H 
ATOM     78  C37 K14 d   1      17.628  28.695  11.856  0.00  0.00    -0.077 A 
ATOM     79  H39 K14 d   1      17.186  29.105   9.794  0.00  0.00     0.083 H 
ATOM     80  H40 K14 d   1      17.489  29.724  12.167  0.00  0.00     0.084 H 
ENDBRANCH  67  70
ENDBRANCH  43  67
ENDBRANCH   1  43
TORSDOF 18
