REMARK  16 active torsions:
REMARK  status: ('A' for Active; 'I' for Inactive)
REMARK    1  A    between atoms: S8_10  and  C5_7 
REMARK    2  A    between atoms: N11_13  and  S8_10 
REMARK    3  A    between atoms: N11_13  and  C12_14 
REMARK    4  A    between atoms: C16_18  and  N11_13 
REMARK    5  A    between atoms: C12_14  and  C13_15 
REMARK    6  A    between atoms: C13_15  and  C14_16 
REMARK    7  A    between atoms: C13_15  and  C15_17 
REMARK    8  A    between atoms: C15_17  and  C18_20 
REMARK    9  A    between atoms: C17_19  and  C16_18 
REMARK   10  A    between atoms: C17_19  and  O18_21 
REMARK   11  A    between atoms: C19_22  and  C17_19 
REMARK   12  A    between atoms: C19_22  and  N20_23 
REMARK   13  A    between atoms: C32_35  and  C19_22 
REMARK       I    between atoms: N20_23  and  C21_24 
REMARK   14  A    between atoms: C21_24  and  O23_26 
REMARK   15  A    between atoms: O23_26  and  C24_27 
REMARK   16  A    between atoms: C38_41  and  C32_35 
ROOT
ATOM      1  C17 K19 d   1      19.922  29.223  15.706  0.00  0.00     0.067 C 
ATOM      2  H15 K19 d   1      20.955  29.599  15.663  0.00  0.00     0.088 H 
ENDROOT
BRANCH   1   3
ATOM      3  C16 K19 d   1      19.048  30.353  16.250  0.00  0.00     0.019 C 
ATOM      4  H13 K19 d   1      17.986  30.087  16.141  0.00  0.00     0.061 H 
ATOM      5  H14 K19 d   1      19.277  30.522  17.312  0.00  0.00     0.061 H 
BRANCH   3   6
ATOM      6  N11 K19 d   1      19.338  31.572  15.478  0.00  0.00    -0.204 NA
BRANCH   6   7
ATOM      7  S8  K19 d   1      18.045  32.176  14.710  0.00  0.00     0.243 S 
ATOM      8  O9  K19 d   1      18.581  33.037  13.685  0.00  0.00    -0.206 OA
ATOM      9  O10 K19 d   1      17.275  31.092  14.197  0.00  0.00    -0.206 OA
BRANCH   7  10
ATOM     10  C5  K19 d   1      17.140  33.066  15.756  0.00  0.00     0.076 A 
ATOM     11  C4  K19 d   1      17.301  34.447  15.998  0.00  0.00    -0.042 A 
ATOM     12  C3  K19 d   1      16.551  35.165  16.966  0.00  0.00     0.036 A 
ATOM     13  H2  K19 d   1      18.036  34.988  15.414  0.00  0.00     0.088 H 
ATOM     14  S1  K19 d   1      16.667  36.845  17.318  0.00  0.00    -0.081 SA
ATOM     15  C2  K19 d   1      15.586  34.477  17.709  0.00  0.00     0.074 A 
ATOM     16  C1  K19 d   1      15.423  36.591  18.504  0.00  0.00     0.041 A 
ATOM     17  N1  K19 d   1      14.965  35.325  18.593  0.00  0.00    -0.253 NA
ATOM     18  H1  K19 d   1      15.040  37.396  19.130  0.00  0.00     0.126 H 
ATOM     19  C7  K19 d   1      15.400  33.119  17.480  0.00  0.00    -0.052 A 
ATOM     20  C6  K19 d   1      16.158  32.421  16.520  0.00  0.00    -0.059 A 
ATOM     21  H4  K19 d   1      14.653  32.584  18.055  0.00  0.00     0.087 H 
ATOM     22  H3  K19 d   1      15.978  31.363  16.369  0.00  0.00     0.086 H 
ENDBRANCH   7  10
ENDBRANCH   6   7
BRANCH   6  23
ATOM     23  C12 K19 d   1      20.085  32.599  16.253  0.00  0.00    -0.004 C 
ATOM     24  H5  K19 d   1      19.699  32.616  17.283  0.00  0.00     0.058 H 
ATOM     25  H6  K19 d   1      19.925  33.582  15.785  0.00  0.00     0.058 H 
BRANCH  23  26
ATOM     26  C13 K19 d   1      21.585  32.313  16.295  0.00  0.00    -0.046 C 
ATOM     27  H7  K19 d   1      21.713  31.331  16.774  0.00  0.00     0.041 H 
BRANCH  26  28
ATOM     28  C14 K19 d   1      22.252  32.224  14.921  0.00  0.00    -0.072 C 
ATOM     29  H8  K19 d   1      23.325  32.017  15.047  0.00  0.00     0.028 H 
ATOM     30  H9  K19 d   1      22.123  33.178  14.388  0.00  0.00     0.028 H 
ATOM     31  H10 K19 d   1      21.788  31.413  14.340  0.00  0.00     0.028 H 
ENDBRANCH  26  28
BRANCH  26  32
ATOM     32  C15 K19 d   1      22.279  33.360  17.179  0.00  0.00    -0.064 C 
ATOM     33  H11 K19 d   1      23.349  33.110  17.240  0.00  0.00     0.033 H 
ATOM     34  H12 K19 d   1      21.834  33.316  18.184  0.00  0.00     0.033 H 
BRANCH  32  35
ATOM     35  C18 K19 d   1      22.148  34.768  16.662  0.00  0.00    -0.076 C 
ATOM     36  H16 K19 d   1      22.667  35.459  17.343  0.00  0.00     0.027 H 
ATOM     37  H17 K19 d   1      21.084  35.040  16.605  0.00  0.00     0.027 H 
ATOM     38  H18 K19 d   1      22.598  34.834  15.660  0.00  0.00     0.027 H 
ENDBRANCH  32  35
ENDBRANCH  26  32
ENDBRANCH  23  26
ENDBRANCH   6  23
ENDBRANCH   3   6
ENDBRANCH   1   3
BRANCH   1  39
ATOM     39  O18 K19 d   1      19.889  28.094  16.591  0.00  0.00    -0.392 OA
ATOM     40  H19 K19 d   1      18.995  27.783  16.672  0.00  0.00     0.210 HD
ENDBRANCH   1  39
BRANCH   1  41
ATOM     41  C19 K19 d   1      19.540  28.764  14.306  0.00  0.00     0.044 C 
ATOM     42  H20 K19 d   1      19.431  29.654  13.669  0.00  0.00     0.077 H 
BRANCH  41  43
ATOM     43  N20 K19 d   1      20.641  27.957  13.835  0.00  0.00    -0.329 N 
ATOM     44  C21 K19 d   1      21.487  28.309  12.878  0.00  0.00     0.361 C 
ATOM     45  O22 K19 d   1      21.537  29.339  12.223  0.00  0.00    -0.238 OA
ATOM     46  H21 K19 d   1      20.775  27.064  14.264  0.00  0.00     0.165 HD
BRANCH  44  47
ATOM     47  O23 K19 d   1      22.443  27.271  12.630  0.00  0.00    -0.296 OA
BRANCH  47  48
ATOM     48  C24 K19 d   1      23.291  27.390  11.499  0.00  0.00     0.078 C 
ATOM     49  C25 K19 d   1      24.606  26.787  11.960  0.00  0.00     0.048 C 
ATOM     50  O26 K19 d   1      24.388  25.385  11.825  0.00  0.00    -0.358 OA
ATOM     51  H23 K19 d   1      24.817  27.054  13.006  0.00  0.00     0.078 H 
ATOM     52  H24 K19 d   1      25.438  27.120  11.322  0.00  0.00     0.078 H 
ATOM     53  C27 K19 d   1      23.502  25.141  10.744  0.00  0.00     0.137 C 
ATOM     54  O28 K19 d   1      22.506  24.233  11.172  0.00  0.00    -0.361 OA
ATOM     55  C31 K19 d   1      22.830  26.457  10.399  0.00  0.00     0.023 C 
ATOM     56  H25 K19 d   1      24.046  24.739   9.876  0.00  0.00     0.129 H 
ATOM     57  C29 K19 d   1      21.221  24.864  11.220  0.00  0.00     0.023 C 
ATOM     58  C30 K19 d   1      21.353  26.112  10.362  0.00  0.00    -0.035 C 
ATOM     59  H26 K19 d   1      20.963  25.134  12.255  0.00  0.00     0.074 H 
ATOM     60  H27 K19 d   1      20.448  24.196  10.812  0.00  0.00     0.074 H 
ATOM     61  H28 K19 d   1      20.753  26.934  10.780  0.00  0.00     0.037 H 
ATOM     62  H29 K19 d   1      21.029  25.909   9.331  0.00  0.00     0.037 H 
ATOM     63  H30 K19 d   1      23.145  26.849   9.421  0.00  0.00     0.051 H 
ATOM     64  H22 K19 d   1      23.381  28.430  11.153  0.00  0.00     0.088 H 
ENDBRANCH  47  48
ENDBRANCH  44  47
ENDBRANCH  41  43
BRANCH  41  65
ATOM     65  C32 K19 d   1      18.254  27.949  14.190  0.00  0.00    -0.020 C 
ATOM     66  H31 K19 d   1      17.411  28.548  14.565  0.00  0.00     0.043 H 
ATOM     67  H32 K19 d   1      18.350  27.033  14.792  0.00  0.00     0.043 H 
BRANCH  65  68
ATOM     68  C38 K19 d   1      17.994  27.570  12.739  0.00  0.00    -0.056 A 
ATOM     69  C33 K19 d   1      17.674  28.544  11.803  0.00  0.00    -0.077 A 
ATOM     70  C34 K19 d   1      17.447  28.194  10.472  0.00  0.00    -0.082 A 
ATOM     71  H33 K19 d   1      17.600  29.582  12.108  0.00  0.00     0.084 H 
ATOM     72  C35 K19 d   1      17.527  26.878  10.075  0.00  0.00    -0.083 A 
ATOM     73  H34 K19 d   1      17.206  28.962   9.746  0.00  0.00     0.083 H 
ATOM     74  C36 K19 d   1      17.837  25.896  10.998  0.00  0.00    -0.082 A 
ATOM     75  H35 K19 d   1      17.347  26.612   9.040  0.00  0.00     0.083 H 
ATOM     76  C37 K19 d   1      18.070  26.247  12.317  0.00  0.00    -0.077 A 
ATOM     77  H36 K19 d   1      17.897  24.858  10.691  0.00  0.00     0.083 H 
ATOM     78  H37 K19 d   1      18.317  25.474  13.036  0.00  0.00     0.084 H 
ENDBRANCH  65  68
ENDBRANCH  41  65
ENDBRANCH   1  41
TORSDOF 16
