REMARK  18 active torsions:
REMARK  status: ('A' for Active; 'I' for Inactive)
REMARK    1  A    between atoms: C2_2  and  N1_1 
REMARK    2  A    between atoms: S8_8  and  C5_5 
REMARK    3  A    between atoms: N11_11  and  S8_8 
REMARK    4  A    between atoms: N11_11  and  C12_12 
REMARK    5  A    between atoms: C16_16  and  N11_11 
REMARK    6  A    between atoms: C12_12  and  C13_13 
REMARK    7  A    between atoms: C13_13  and  C14_14 
REMARK    8  A    between atoms: C13_13  and  C15_15 
REMARK    9  A    between atoms: C14_14  and  C20_21 
REMARK   10  A    between atoms: C15_15  and  C18_18 
REMARK   11  A    between atoms: C17_17  and  C16_16 
REMARK   12  A    between atoms: C17_17  and  O18_19 
REMARK   13  A    between atoms: C19_20  and  C17_17 
REMARK   14  A    between atoms: C19_20  and  N20_22 
REMARK   15  A    between atoms: C32_34  and  C19_20 
REMARK       I    between atoms: N20_22  and  C21_23 
REMARK   16  A    between atoms: C21_23  and  O23_25 
REMARK   17  A    between atoms: O23_25  and  C24_26 
REMARK   18  A    between atoms: C38_40  and  C32_34 
ROOT
ATOM      1  C17 A60 d   1      19.847  29.385  15.684  0.00  0.00     0.071 C 
ATOM      2  H16 A60 d   1      20.865  29.802  15.700  0.00  0.00     0.088 H 
ENDROOT
BRANCH   1   3
ATOM      3  C16 A60 d   1      18.890  30.456  16.229  0.00  0.00     0.031 C 
ATOM      4  H14 A60 d   1      17.851  30.140  16.055  0.00  0.00     0.069 H 
ATOM      5  H15 A60 d   1      19.059  30.582  17.309  0.00  0.00     0.069 H 
BRANCH   3   6
ATOM      6  N11 A60 d   1      19.135  31.740  15.541  0.00  0.00    -0.304 N 
BRANCH   6   7
ATOM      7  S8  A60 d   1      17.922  32.351  14.664  0.00  0.00     0.260 S 
ATOM      8  O9  A60 d   1      18.551  33.251  13.727  0.00  0.00    -0.200 OA
ATOM      9  O10 A60 d   1      17.232  31.241  14.066  0.00  0.00    -0.200 OA
BRANCH   7  10
ATOM     10  C5  A60 d   1      16.881  33.175  15.610  0.00  0.00     0.079 A 
ATOM     11  C4  A60 d   1      17.001  34.549  15.904  0.00  0.00    -0.058 A 
ATOM     12  C3  A60 d   1      16.079  35.194  16.760  0.00  0.00    -0.056 A 
ATOM     13  H4  A60 d   1      17.813  35.119  15.467  0.00  0.00     0.086 H 
ATOM     14  C2  A60 d   1      15.045  34.440  17.334  0.00  0.00     0.025 A 
ATOM     15  H3  A60 d   1      16.170  36.254  16.969  0.00  0.00     0.086 H 
ATOM     16  C7  A60 d   1      14.912  33.097  17.046  0.00  0.00    -0.056 A 
ATOM     17  C6  A60 d   1      15.816  32.482  16.186  0.00  0.00    -0.058 A 
ATOM     18  H6  A60 d   1      14.106  32.523  17.488  0.00  0.00     0.086 H 
ATOM     19  H5  A60 d   1      15.689  31.430  15.956  0.00  0.00     0.086 H 
BRANCH  14  20
ATOM     20  N1  A60 d   1      14.122  34.996  18.177  0.00  0.00    -0.399 N 
ATOM     21  H1  A60 d   1      14.182  35.995  18.420  0.00  0.00     0.156 HD
ATOM     22  H2  A60 d   1      13.367  34.415  18.569  0.00  0.00     0.156 HD
ENDBRANCH  14  20
ENDBRANCH   7  10
ENDBRANCH   6   7
BRANCH   6  23
ATOM     23  C12 A60 d   1      19.837  32.750  16.372  0.00  0.00     0.009 C 
ATOM     24  H7  A60 d   1      19.453  32.688  17.401  0.00  0.00     0.066 H 
ATOM     25  H8  A60 d   1      19.629  33.749  15.962  0.00  0.00     0.066 H 
BRANCH  23  26
ATOM     26  C13 A60 d   1      21.346  32.539  16.401  0.00  0.00    -0.039 C 
ATOM     27  H9  A60 d   1      21.544  31.523  16.772  0.00  0.00     0.042 H 
BRANCH  26  28
ATOM     28  C14 A60 d   1      21.963  32.650  15.004  0.00  0.00    -0.064 C 
ATOM     29  H10 A60 d   1      21.888  33.699  14.683  0.00  0.00     0.033 H 
ATOM     30  H11 A60 d   1      21.377  32.015  14.323  0.00  0.00     0.033 H 
BRANCH  28  31
ATOM     31  C20 A60 d   1      23.417  32.232  14.896  0.00  0.00    -0.076 C 
ATOM     32  H22 A60 d   1      23.756  32.351  13.857  0.00  0.00     0.027 H 
ATOM     33  H23 A60 d   1      23.519  31.179  15.197  0.00  0.00     0.027 H 
ATOM     34  H24 A60 d   1      24.030  32.863  15.556  0.00  0.00     0.027 H 
ENDBRANCH  28  31
ENDBRANCH  26  28
BRANCH  26  35
ATOM     35  C15 A60 d   1      21.971  33.540  17.389  0.00  0.00    -0.064 C 
ATOM     36  H12 A60 d   1      23.039  33.297  17.492  0.00  0.00     0.033 H 
ATOM     37  H13 A60 d   1      21.471  33.418  18.361  0.00  0.00     0.033 H 
BRANCH  35  38
ATOM     38  C18 A60 d   1      21.857  34.996  16.981  0.00  0.00    -0.076 C 
ATOM     39  H17 A60 d   1      22.330  35.629  17.746  0.00  0.00     0.027 H 
ATOM     40  H18 A60 d   1      20.796  35.268  16.885  0.00  0.00     0.027 H 
ATOM     41  H19 A60 d   1      22.363  35.147  16.016  0.00  0.00     0.027 H 
ENDBRANCH  35  38
ENDBRANCH  26  35
ENDBRANCH  23  26
ENDBRANCH   6  23
ENDBRANCH   3   6
ENDBRANCH   1   3
BRANCH   1  42
ATOM     42  O18 A60 d   1      19.809  28.211  16.540  0.00  0.00    -0.392 OA
ATOM     43  H20 A60 d   1      20.075  28.453  17.419  0.00  0.00     0.210 HD
ENDBRANCH   1  42
BRANCH   1  44
ATOM     44  C19 A60 d   1      19.531  28.963  14.250  0.00  0.00     0.044 C 
ATOM     45  H21 A60 d   1      19.452  29.869  13.632  0.00  0.00     0.077 H 
BRANCH  44  46
ATOM     46  N20 A60 d   1      20.636  28.157  13.780  0.00  0.00    -0.329 N 
ATOM     47  C21 A60 d   1      21.507  28.543  12.864  0.00  0.00     0.361 C 
ATOM     48  O22 A60 d   1      21.578  29.587  12.253  0.00  0.00    -0.238 OA
ATOM     49  H25 A60 d   1      20.749  27.245  14.175  0.00  0.00     0.165 HD
BRANCH  47  50
ATOM     50  O23 A60 d   1      22.461  27.514  12.615  0.00  0.00    -0.296 OA
BRANCH  50  51
ATOM     51  C24 A60 d   1      23.294  27.660  11.471  0.00  0.00     0.078 C 
ATOM     52  C25 A60 d   1      24.608  27.059  11.926  0.00  0.00     0.048 C 
ATOM     53  O26 A60 d   1      24.406  25.650  11.798  0.00  0.00    -0.358 OA
ATOM     54  H27 A60 d   1      24.821  27.330  12.970  0.00  0.00     0.078 H 
ATOM     55  H28 A60 d   1      25.435  27.395  11.284  0.00  0.00     0.078 H 
ATOM     56  C27 A60 d   1      23.523  25.388  10.712  0.00  0.00     0.137 C 
ATOM     57  O28 A60 d   1      22.543  24.465  11.144  0.00  0.00    -0.361 OA
ATOM     58  C31 A60 d   1      22.846  26.710  10.384  0.00  0.00     0.023 C 
ATOM     59  H29 A60 d   1      24.069  24.996   9.841  0.00  0.00     0.129 H 
ATOM     60  C29 A60 d   1      21.268  25.099  11.196  0.00  0.00     0.023 C 
ATOM     61  C30 A60 d   1      21.366  26.348  10.317  0.00  0.00    -0.035 C 
ATOM     62  H30 A60 d   1      21.026  25.381  12.231  0.00  0.00     0.074 H 
ATOM     63  H31 A60 d   1      20.491  24.423  10.809  0.00  0.00     0.074 H 
ATOM     64  H32 A60 d   1      20.743  27.161  10.717  0.00  0.00     0.037 H 
ATOM     65  H33 A60 d   1      21.061  26.127   9.284  0.00  0.00     0.037 H 
ATOM     66  H34 A60 d   1      23.167  27.105   9.409  0.00  0.00     0.051 H 
ATOM     67  H26 A60 d   1      23.367  28.702  11.126  0.00  0.00     0.088 H 
ENDBRANCH  50  51
ENDBRANCH  47  50
ENDBRANCH  44  46
BRANCH  44  68
ATOM     68  C32 A60 d   1      18.230  28.173  14.101  0.00  0.00    -0.020 C 
ATOM     69  H35 A60 d   1      17.391  28.806  14.426  0.00  0.00     0.043 H 
ATOM     70  H36 A60 d   1      18.283  27.279  14.739  0.00  0.00     0.043 H 
BRANCH  68  71
ATOM     71  C38 A60 d   1      17.989  27.738  12.666  0.00  0.00    -0.056 A 
ATOM     72  C33 A60 d   1      18.064  26.415  12.238  0.00  0.00    -0.077 A 
ATOM     73  C34 A60 d   1      17.872  26.087  10.902  0.00  0.00    -0.082 A 
ATOM     74  H37 A60 d   1      18.275  25.631  12.957  0.00  0.00     0.084 H 
ATOM     75  C35 A60 d   1      17.583  27.073   9.976  0.00  0.00    -0.083 A 
ATOM     76  H38 A60 d   1      17.949  25.054  10.584  0.00  0.00     0.083 H 
ATOM     77  C36 A60 d   1      17.511  28.384  10.391  0.00  0.00    -0.082 A 
ATOM     78  H39 A60 d   1      17.415  26.817   8.936  0.00  0.00     0.083 H 
ATOM     79  C37 A60 d   1      17.704  28.716  11.722  0.00  0.00    -0.077 A 
ATOM     80  H40 A60 d   1      17.301  29.165   9.669  0.00  0.00     0.083 H 
ATOM     81  H41 A60 d   1      17.632  29.753  12.031  0.00  0.00     0.084 H 
ENDBRANCH  68  71
ENDBRANCH  44  68
ENDBRANCH   1  44
TORSDOF 18
