REMARK  17 active torsions:
REMARK  status: ('A' for Active; 'I' for Inactive)
REMARK    1  A    between atoms: S8_10  and  C5_7 
REMARK    2  A    between atoms: N11_13  and  S8_10 
REMARK    3  A    between atoms: N11_13  and  C12_14 
REMARK    4  A    between atoms: C16_18  and  N11_13 
REMARK    5  A    between atoms: C12_14  and  C13_15 
REMARK    6  A    between atoms: C13_15  and  C14_16 
REMARK    7  A    between atoms: C13_15  and  C15_17 
REMARK    8  A    between atoms: C14_16  and  C20_23 
REMARK    9  A    between atoms: C15_17  and  C18_20 
REMARK   10  A    between atoms: C17_19  and  C16_18 
REMARK   11  A    between atoms: C17_19  and  O18_21 
REMARK   12  A    between atoms: C19_22  and  C17_19 
REMARK   13  A    between atoms: C19_22  and  N20_24 
REMARK   14  A    between atoms: C32_36  and  C19_22 
REMARK       I    between atoms: N20_24  and  C21_25 
REMARK   15  A    between atoms: C21_25  and  O23_27 
REMARK   16  A    between atoms: O23_27  and  C24_28 
REMARK   17  A    between atoms: C38_42  and  C32_36 
ROOT
ATOM      1  C17 A61 d   1      19.865  29.200  15.701  0.00  0.00     0.071 C 
ATOM      2  H14 A61 d   1      20.885  29.612  15.681  0.00  0.00     0.088 H 
ENDROOT
BRANCH   1   3
ATOM      3  C16 A61 d   1      18.922  30.275  16.258  0.00  0.00     0.031 C 
ATOM      4  H12 A61 d   1      17.879  29.967  16.095  0.00  0.00     0.069 H 
ATOM      5  H13 A61 d   1      19.103  30.398  17.336  0.00  0.00     0.069 H 
BRANCH   3   6
ATOM      6  N11 A61 d   1      19.170  31.554  15.569  0.00  0.00    -0.304 N 
BRANCH   6   7
ATOM      7  S8  A61 d   1      17.926  32.154  14.701  0.00  0.00     0.261 S 
ATOM      8  O9  A61 d   1      18.485  33.022  13.725  0.00  0.00    -0.200 OA
ATOM      9  O10 A61 d   1      17.183  31.064  14.198  0.00  0.00    -0.200 OA
BRANCH   7  10
ATOM     10  C5  A61 d   1      17.015  33.053  15.737  0.00  0.00     0.081 A 
ATOM     11  C4  A61 d   1      17.193  34.442  15.975  0.00  0.00    -0.042 A 
ATOM     12  C3  A61 d   1      16.461  35.146  16.952  0.00  0.00     0.036 A 
ATOM     13  H2  A61 d   1      17.921  34.982  15.381  0.00  0.00     0.088 H 
ATOM     14  S1  A61 d   1      16.580  36.809  17.317  0.00  0.00    -0.081 SA
ATOM     15  C2  A61 d   1      15.521  34.437  17.700  0.00  0.00     0.074 A 
ATOM     16  C1  A61 d   1      15.352  36.531  18.517  0.00  0.00     0.041 A 
ATOM     17  N1  A61 d   1      14.908  35.265  18.599  0.00  0.00    -0.253 NA
ATOM     18  H1  A61 d   1      14.970  37.326  19.156  0.00  0.00     0.126 H 
ATOM     19  C7  A61 d   1      15.318  33.086  17.447  0.00  0.00    -0.052 A 
ATOM     20  C6  A61 d   1      16.043  32.386  16.488  0.00  0.00    -0.058 A 
ATOM     21  H4  A61 d   1      14.565  32.556  18.020  0.00  0.00     0.087 H 
ATOM     22  H3  A61 d   1      15.855  31.331  16.324  0.00  0.00     0.086 H 
ENDBRANCH   7  10
ENDBRANCH   6   7
BRANCH   6  23
ATOM     23  C12 A61 d   1      19.927  32.565  16.345  0.00  0.00     0.009 C 
ATOM     24  H5  A61 d   1      19.613  32.503  17.397  0.00  0.00     0.066 H 
ATOM     25  H6  A61 d   1      19.684  33.562  15.948  0.00  0.00     0.066 H 
BRANCH  23  26
ATOM     26  C13 A61 d   1      21.444  32.375  16.281  0.00  0.00    -0.039 C 
ATOM     27  H7  A61 d   1      21.662  31.361  16.647  0.00  0.00     0.042 H 
BRANCH  26  28
ATOM     28  C14 A61 d   1      22.033  32.462  14.869  0.00  0.00    -0.064 C 
ATOM     29  H8  A61 d   1      21.973  33.506  14.527  0.00  0.00     0.033 H 
ATOM     30  H9  A61 d   1      21.439  31.822  14.200  0.00  0.00     0.033 H 
BRANCH  28  31
ATOM     31  C20 A61 d   1      23.481  32.015  14.806  0.00  0.00    -0.076 C 
ATOM     32  H20 A61 d   1      23.846  32.100  13.772  0.00  0.00     0.027 H 
ATOM     33  H21 A61 d   1      23.556  30.969  15.137  0.00  0.00     0.027 H 
ATOM     34  H22 A61 d   1      24.090  32.652  15.463  0.00  0.00     0.027 H 
ENDBRANCH  28  31
ENDBRANCH  26  28
BRANCH  26  35
ATOM     35  C15 A61 d   1      22.094  33.374  17.259  0.00  0.00    -0.064 C 
ATOM     36  H10 A61 d   1      23.163  33.126  17.339  0.00  0.00     0.033 H 
ATOM     37  H11 A61 d   1      21.614  33.251  18.241  0.00  0.00     0.033 H 
BRANCH  35  38
ATOM     38  C18 A61 d   1      21.979  34.833  16.860  0.00  0.00    -0.076 C 
ATOM     39  H15 A61 d   1      22.471  35.460  17.618  0.00  0.00     0.027 H 
ATOM     40  H16 A61 d   1      20.917  35.111  16.787  0.00  0.00     0.027 H 
ATOM     41  H17 A61 d   1      22.466  34.986  15.885  0.00  0.00     0.027 H 
ENDBRANCH  35  38
ENDBRANCH  26  35
ENDBRANCH  23  26
ENDBRANCH   6  23
ENDBRANCH   3   6
ENDBRANCH   1   3
BRANCH   1  42
ATOM     42  O18 A61 d   1      19.831  28.067  16.591  0.00  0.00    -0.392 OA
ATOM     43  H18 A61 d   1      18.944  27.731  16.640  0.00  0.00     0.210 HD
ENDBRANCH   1  42
BRANCH   1  44
ATOM     44  C19 A61 d   1      19.508  28.747  14.277  0.00  0.00     0.044 C 
ATOM     45  H19 A61 d   1      19.407  29.644  13.648  0.00  0.00     0.077 H 
BRANCH  44  46
ATOM     46  N20 A61 d   1      20.595  27.928  13.777  0.00  0.00    -0.329 N 
ATOM     47  C21 A61 d   1      21.473  28.299  12.869  0.00  0.00     0.361 C 
ATOM     48  O22 A61 d   1      21.605  29.365  12.313  0.00  0.00    -0.238 OA
ATOM     49  H23 A61 d   1      20.685  27.006  14.153  0.00  0.00     0.165 HD
BRANCH  47  50
ATOM     50  O23 A61 d   1      22.382  27.242  12.584  0.00  0.00    -0.296 OA
BRANCH  50  51
ATOM     51  C24 A61 d   1      23.249  27.410  11.469  0.00  0.00     0.078 C 
ATOM     52  C25 A61 d   1      24.572  26.819  11.932  0.00  0.00     0.048 C 
ATOM     53  O26 A61 d   1      24.384  25.416  11.823  0.00  0.00    -0.358 OA
ATOM     54  H25 A61 d   1      24.784  27.104  12.973  0.00  0.00     0.078 H 
ATOM     55  H26 A61 d   1      25.396  27.154  11.285  0.00  0.00     0.078 H 
ATOM     56  C27 A61 d   1      23.493  25.126  10.759  0.00  0.00     0.137 C 
ATOM     57  O28 A61 d   1      22.500  24.214  11.187  0.00  0.00    -0.361 OA
ATOM     58  C31 A61 d   1      22.811  26.432  10.400  0.00  0.00     0.023 C 
ATOM     59  H27 A61 d   1      24.040  24.717   9.897  0.00  0.00     0.129 H 
ATOM     60  C29 A61 d   1      21.210  24.823  11.228  0.00  0.00     0.023 C 
ATOM     61  C30 A61 d   1      21.330  26.086  10.388  0.00  0.00    -0.035 C 
ATOM     62  H28 A61 d   1      20.936  25.075  12.263  0.00  0.00     0.074 H 
ATOM     63  H29 A61 d   1      20.453  24.148  10.802  0.00  0.00     0.074 H 
ATOM     64  H30 A61 d   1      20.739  26.902  10.831  0.00  0.00     0.037 H 
ATOM     65  H31 A61 d   1      20.985  25.900   9.360  0.00  0.00     0.037 H 
ATOM     66  H32 A61 d   1      23.117  26.802   9.410  0.00  0.00     0.051 H 
ATOM     67  H24 A61 d   1      23.313  28.451  11.118  0.00  0.00     0.088 H 
ENDBRANCH  50  51
ENDBRANCH  47  50
ENDBRANCH  44  46
BRANCH  44  68
ATOM     68  C32 A61 d   1      18.208  27.941  14.170  0.00  0.00    -0.020 C 
ATOM     69  H33 A61 d   1      17.370  28.555  14.531  0.00  0.00     0.043 H 
ATOM     70  H34 A61 d   1      18.291  27.035  14.788  0.00  0.00     0.043 H 
BRANCH  68  71
ATOM     71  C38 A61 d   1      17.951  27.541  12.728  0.00  0.00    -0.056 A 
ATOM     72  C33 A61 d   1      18.039  26.196  12.364  0.00  0.00    -0.077 A 
ATOM     73  C34 A61 d   1      17.836  25.816  11.038  0.00  0.00    -0.082 A 
ATOM     74  H35 A61 d   1      18.265  25.446  13.113  0.00  0.00     0.084 H 
ATOM     75  C35 A61 d   1      17.494  26.775  10.095  0.00  0.00    -0.083 A 
ATOM     76  H36 A61 d   1      17.945  24.778  10.745  0.00  0.00     0.083 H 
ATOM     77  C36 A61 d   1      17.378  28.110  10.460  0.00  0.00    -0.082 A 
ATOM     78  H37 A61 d   1      17.316  26.480   9.067  0.00  0.00     0.083 H 
ATOM     79  C37 A61 d   1      17.597  28.498  11.773  0.00  0.00    -0.077 A 
ATOM     80  H38 A61 d   1      17.115  28.852   9.715  0.00  0.00     0.083 H 
ATOM     81  H39 A61 d   1      17.494  29.539  12.057  0.00  0.00     0.084 H 
ENDBRANCH  68  71
ENDBRANCH  44  68
ENDBRANCH   1  44
TORSDOF 17
