REMARK  16 active torsions:
REMARK  status: ('A' for Active; 'I' for Inactive)
REMARK    1  A    between atoms: C2_4  and  C1_1 
REMARK    2  A    between atoms: C2_4  and  N1_2 
REMARK    3  A    between atoms: C3_7  and  C2_4 
REMARK       I    between atoms: N2_5  and  C3_7 
REMARK    4  A    between atoms: C4_10  and  N2_5 
REMARK       I    between atoms: N3_8  and  C8_19 
REMARK    5  A    between atoms: C9_21  and  N3_8 
REMARK    6  A    between atoms: C4_10  and  C5_13 
REMARK    7  A    between atoms: C6_15  and  C4_10 
REMARK    8  A    between atoms: C14_27  and  N4_11 
REMARK    9  A    between atoms: C7_17  and  C6_15 
REMARK   10  A    between atoms: C8_19  and  C7_17 
REMARK   11  A    between atoms: C9_21  and  C10_22 
REMARK   12  A    between atoms: C11_23  and  C9_21 
REMARK   13  A    between atoms: C12_24  and  C11_23 
REMARK   14  A    between atoms: C13_25  and  C12_24 
REMARK   15  A    between atoms: C14_27  and  C13_25 
REMARK   16  A    between atoms: C15_26  and  C14_27 
ROOT
ATOM      1  N3  MHI d   1      13.398  61.919  39.664  0.00  0.00    -0.347 N 
ATOM      2  O4  MHI d   1      15.056  60.890  40.757  0.00  0.00    -0.274 OA
ATOM      3  C8  MHI d   1      13.898  60.891  40.334  0.00  0.00     0.218 C 
ATOM      4  H9  MHI d   1      12.432  61.884  39.406  0.00  0.00     0.163 HD
ENDROOT
BRANCH   3   5
ATOM      5  C7  MHI d   1      12.974  59.692  40.523  0.00  0.00     0.011 C 
ATOM      6  H16 MHI d   1      12.076  59.822  39.902  0.00  0.00     0.047 H 
ATOM      7  H17 MHI d   1      13.500  58.775  40.219  0.00  0.00     0.047 H 
BRANCH   5   8
ATOM      8  C6  MHI d   1      12.563  59.578  41.990  0.00  0.00    -0.029 C 
ATOM      9  H14 MHI d   1      13.462  59.406  42.600  0.00  0.00     0.037 H 
ATOM     10  H15 MHI d   1      12.084  60.518  42.300  0.00  0.00     0.037 H 
BRANCH   8  11
ATOM     11  C4  MHI d   1      11.587  58.429  42.215  0.00  0.00     0.096 C 
ATOM     12  H10 MHI d   1      10.652  58.647  41.678  0.00  0.00     0.089 H 
BRANCH  11  13
ATOM     13  N2  MHI d   1      12.099  57.149  41.745  0.00  0.00    -0.345 N 
ATOM     14  C3  MHI d   1      11.869  56.688  40.511  0.00  0.00     0.248 C 
ATOM     15  O1  MHI d   1      11.274  57.317  39.700  0.00  0.00    -0.271 OA
ATOM     16  H8  MHI d   1      12.645  56.592  42.371  0.00  0.00     0.163 HD
BRANCH  14  17
ATOM     17  C2  MHI d   1      12.423  55.343  40.110  0.00  0.00     0.172 C 
ATOM     18  H7  MHI d   1      12.394  54.671  40.980  0.00  0.00     0.098 H 
BRANCH  17  19
ATOM     19  C1  MHI d   1      13.901  55.497  39.603  0.00  0.00    -0.042 C 
ATOM     20  H1  MHI d   1      14.518  55.936  40.401  0.00  0.00     0.030 H 
ATOM     21  H2  MHI d   1      13.919  56.154  38.721  0.00  0.00     0.030 H 
ATOM     22  H3  MHI d   1      14.301  54.509  39.332  0.00  0.00     0.030 H 
ENDBRANCH  17  19
BRANCH  17  23
ATOM     23  N1  MHI d   1      11.666  54.765  39.026  0.00  0.00    -0.067 N 
ATOM     24  H4  MHI d   1      10.706  54.649  39.311  0.00  0.00     0.275 HD
ATOM     25  H5  MHI d   1      12.056  53.867  38.785  0.00  0.00     0.275 HD
ATOM     26  H6  MHI d   1      11.707  55.375  38.225  0.00  0.00     0.275 HD
ENDBRANCH  17  23
ENDBRANCH  14  17
ENDBRANCH  11  13
BRANCH  11  27
ATOM     27  C5  MHI d   1      11.313  58.353  43.685  0.00  0.00     0.196 C 
ATOM     28  O2  MHI d   1      11.791  57.367  44.416  0.00  0.00    -0.646 OA
ATOM     29  O3  MHI d   1      10.717  59.232  44.248  0.00  0.00    -0.646 OA
ENDBRANCH  11  27
ENDBRANCH   8  11
ENDBRANCH   5   8
ENDBRANCH   3   5
BRANCH   1  30
ATOM     30  C9  MHI d   1      14.155  63.082  39.284  0.00  0.00     0.096 C 
ATOM     31  H18 MHI d   1      15.231  62.896  39.419  0.00  0.00     0.089 H 
BRANCH  30  32
ATOM     32  C10 MHI d   1      13.744  64.270  40.151  0.00  0.00     0.196 C 
ATOM     33  O5  MHI d   1      14.494  65.349  40.232  0.00  0.00    -0.646 OA
ATOM     34  O6  MHI d   1      12.747  64.283  40.856  0.00  0.00    -0.646 OA
ENDBRANCH  30  32
BRANCH  30  35
ATOM     35  C11 MHI d   1      13.857  63.312  37.816  0.00  0.00    -0.037 C 
ATOM     36  H19 MHI d   1      12.767  63.379  37.688  0.00  0.00     0.036 H 
ATOM     37  H20 MHI d   1      14.241  62.454  37.244  0.00  0.00     0.036 H 
BRANCH  35  38
ATOM     38  C12 MHI d   1      14.486  64.582  37.260  0.00  0.00    -0.060 C 
ATOM     39  H21 MHI d   1      15.539  64.619  37.578  0.00  0.00     0.033 H 
ATOM     40  H22 MHI d   1      13.948  65.448  37.672  0.00  0.00     0.033 H 
BRANCH  38  41
ATOM     41  C13 MHI d   1      14.436  64.657  35.754  0.00  0.00    -0.029 C 
ATOM     42  H23 MHI d   1      13.402  64.901  35.469  0.00  0.00     0.036 H 
ATOM     43  H24 MHI d   1      14.699  63.663  35.364  0.00  0.00     0.036 H 
BRANCH  41  44
ATOM     44  C14 MHI d   1      15.358  65.681  35.072  0.00  0.00     0.182 C 
ATOM     45  H25 MHI d   1      16.399  65.485  35.368  0.00  0.00     0.101 H 
BRANCH  44  46
ATOM     46  N4  MHI d   1      15.222  65.649  33.633  0.00  0.00    -0.065 N 
ATOM     47  H11 MHI d   1      15.474  64.734  33.292  0.00  0.00     0.275 HD
ATOM     48  H12 MHI d   1      15.830  66.340  33.222  0.00  0.00     0.275 HD
ATOM     49  H13 MHI d   1      14.267  65.850  33.381  0.00  0.00     0.275 HD
ENDBRANCH  44  46
BRANCH  44  50
ATOM     50  C15 MHI d   1      14.963  67.055  35.421  0.00  0.00     0.204 C 
ATOM     51  O7  MHI d   1      15.311  67.481  36.615  0.00  0.00    -0.646 OA
ATOM     52  O8  MHI d   1      14.328  67.771  34.627  0.00  0.00    -0.646 OA
ENDBRANCH  44  50
ENDBRANCH  41  44
ENDBRANCH  38  41
ENDBRANCH  35  38
ENDBRANCH  30  35
ENDBRANCH   1  30
TORSDOF 16
