REMARK  5 active torsions:
REMARK  status: ('A' for Active; 'I' for Inactive)
REMARK    1  A    between atoms: C1_1  and  N1_2 
REMARK    2  A    between atoms: C10_8  and  C1_1 
REMARK    3  A    between atoms: N1_2  and  C1'_6 
REMARK    4  A    between atoms: C2'_11  and  N2'_12 
REMARK    5  A    between atoms: C4'_15  and  N4'_16 
ROOT
ATOM      1  C9  OAG d   1      -2.847 -17.116  -0.086  0.00  0.00    -0.057 A 
ATOM      2  N1' OAG d   1      -3.310 -17.521   3.498  0.00  0.00    -0.043 NA
ATOM      3  C10 OAG d   1      -3.089 -15.744  -0.203  0.00  0.00    -0.022 A 
ATOM      4  C2' OAG d   1      -3.077 -18.835   3.626  0.00  0.00     0.724 C 
ATOM      5  N3' OAG d   1      -2.760 -19.583   2.546  0.00  0.00    -0.045 NA
ATOM      6  C4' OAG d   1      -2.747 -19.125   1.310  0.00  0.00     0.154 C 
ATOM      7  C4A OAG d   1      -2.925 -17.734   1.167  0.00  0.00     0.059 A 
ATOM      8  C7' OAG d   1      -3.385 -15.014   0.967  0.00  0.00     0.012 A 
ATOM      9  N8' OAG d   1      -3.464 -15.584   2.179  0.00  0.00    -0.239 NA
ATOM     10  C8A OAG d   1      -3.218 -16.929   2.290  0.00  0.00     0.182 A 
ATOM     11  H4  OAG d   1      -2.599 -17.700  -0.965  0.00  0.00     0.086 H 
ATOM     12  H12 OAG d   1      -3.556 -13.947   0.883  0.00  0.00     0.115 H 
ENDROOT
BRANCH   3  13
ATOM     13  C1  OAG d   1      -2.969 -15.106  -1.629  0.00  0.00     0.018 C 
ATOM     14  H1  OAG d   1      -2.329 -15.755  -2.245  0.00  0.00     0.071 H 
ATOM     15  H2  OAG d   1      -3.975 -15.057  -2.071  0.00  0.00     0.071 H 
BRANCH  13  16
ATOM     16  N1  OAG d   1      -2.378 -13.710  -1.636  0.00  0.00    -0.384 N 
ATOM     17  H3  OAG d   1      -1.386 -13.464  -1.510  0.00  0.00     0.160 HD
BRANCH  16  18
ATOM     18  C1' OAG d   1      -3.387 -12.859  -1.837  0.00  0.00     0.051 A 
ATOM     19  C11 OAG d   1      -3.520 -11.487  -1.493  0.00  0.00     0.060 A 
ATOM     20 CL2  OAG d   1      -2.254 -10.605  -0.692  0.00  0.00    -0.082 Cl
ATOM     21  C3' OAG d   1      -4.708 -10.803  -1.792  0.00  0.00    -0.058 A 
ATOM     22  C12 OAG d   1      -5.764 -11.450  -2.446  0.00  0.00    -0.060 A 
ATOM     23  H8  OAG d   1      -4.810  -9.760  -1.513  0.00  0.00     0.086 H 
ATOM     24  C5' OAG d   1      -5.598 -12.799  -2.789  0.00  0.00     0.036 A 
ATOM     25  H5  OAG d   1      -6.682 -10.923  -2.680  0.00  0.00     0.086 H 
ATOM     26 CL5  OAG d   1      -6.763 -13.780  -3.580  0.00  0.00    -0.084 Cl
ATOM     27  C6' OAG d   1      -4.438 -13.479  -2.475  0.00  0.00    -0.035 A 
ATOM     28  H11 OAG d   1      -4.353 -14.527  -2.737  0.00  0.00     0.089 H 
ENDBRANCH  16  18
ENDBRANCH  13  16
ENDBRANCH   3  13
BRANCH   6  29
ATOM     29  N4' OAG d   1      -2.460 -19.941   0.306  0.00  0.00    -0.383 N 
ATOM     30  H9  OAG d   1      -2.449 -19.585  -0.660  0.00  0.00     0.157 HD
ATOM     31  H10 OAG d   1      -2.248 -20.931   0.492  0.00  0.00     0.157 HD
ENDBRANCH   6  29
BRANCH   4  32
ATOM     32  N2' OAG d   1      -3.071 -19.402   4.880  0.00  0.00    -0.231 N 
ATOM     33  H6  OAG d   1      -3.312 -18.833   5.704  0.00  0.00     0.174 HD
ATOM     34  H7  OAG d   1      -2.825 -20.396   4.995  0.00  0.00     0.174 HD
ENDBRANCH   4  32
TORSDOF 5
