REMARK  3 active torsions:
REMARK  status: ('A' for Active; 'I' for Inactive)
REMARK    1  A    between atoms: C2'_10  and  O2'_11 
REMARK    2  A    between atoms: C1'_12  and  N9_13 
REMARK    3  A    between atoms: C6_17  and  N6_18 
ROOT
ATOM      1  P   CMP d   1      -3.020  33.766  27.353  0.00  0.00     0.408 P 
ATOM      2  O1P CMP d   1      -1.859  32.889  27.555  0.00  0.00    -0.624 OA
ATOM      3  O2P CMP d   1      -4.388  33.015  26.845  0.00  0.00    -0.624 OA
ATOM      4  O5' CMP d   1      -3.428  34.491  28.675  0.00  0.00    -0.287 OA
ATOM      5  C5' CMP d   1      -2.437  35.428  29.083  0.00  0.00     0.058 C 
ATOM      6  C4' CMP d   1      -2.218  36.376  27.947  0.00  0.00     0.090 C 
ATOM      7  O4' CMP d   1      -1.185  37.352  28.186  0.00  0.00    -0.353 OA
ATOM      8  C3' CMP d   1      -1.747  35.722  26.678  0.00  0.00     0.106 C 
ATOM      9  O3' CMP d   1      -2.746  34.861  26.165  0.00  0.00    -0.279 OA
ATOM     10  C2' CMP d   1      -1.425  36.954  25.849  0.00  0.00     0.106 C 
ATOM     11  C1' CMP d   1      -0.765  37.835  26.920  0.00  0.00     0.140 C 
ATOM     12  H1  CMP d   1      -1.500  34.904  29.320  0.00  0.00     0.079 H 
ATOM     13  H2  CMP d   1      -2.784  35.979  29.970  0.00  0.00     0.079 H 
ATOM     14  H3  CMP d   1      -3.173  36.889  27.763  0.00  0.00     0.090 H 
ATOM     15  H4  CMP d   1      -0.836  35.129  26.846  0.00  0.00     0.092 H 
ATOM     16  H5  CMP d   1      -0.750  36.729  25.010  0.00  0.00     0.093 H 
ATOM     17  H7  CMP d   1      -1.066  38.884  26.783  0.00  0.00     0.122 H 
ENDROOT
BRANCH  11  18
ATOM     18  N9  CMP d   1       0.706  37.721  26.872  0.00  0.00    -0.294 N 
ATOM     19  C8  CMP d   1       1.426  36.677  27.275  0.00  0.00     0.071 A 
ATOM     20  N7  CMP d   1       2.753  36.972  27.075  0.00  0.00    -0.236 NA
ATOM     21  H8  CMP d   1       1.032  35.751  27.691  0.00  0.00     0.144 H 
ATOM     22  C5  CMP d   1       2.823  38.229  26.533  0.00  0.00     0.149 A 
ATOM     23  C6  CMP d   1       3.953  39.056  26.119  0.00  0.00     0.155 A 
ATOM     24  C4  CMP d   1       1.586  38.701  26.405  0.00  0.00     0.167 A 
ATOM     25  N1  CMP d   1       3.750  40.250  25.616  0.00  0.00    -0.222 NA
ATOM     26  C2  CMP d   1       2.461  40.727  25.484  0.00  0.00     0.091 A 
ATOM     27  N3  CMP d   1       1.372  39.934  25.887  0.00  0.00    -0.222 NA
ATOM     28  H11 CMP d   1       2.288  41.714  25.069  0.00  0.00     0.146 H 
BRANCH  23  29
ATOM     29  N6  CMP d   1       5.301  38.552  26.271  0.00  0.00    -0.382 N 
ATOM     30  H9  CMP d   1       6.103  39.130  25.981  0.00  0.00     0.157 HD
ATOM     31  H10 CMP d   1       5.459  37.615  26.669  0.00  0.00     0.157 HD
ENDBRANCH  23  29
ENDBRANCH  11  18
BRANCH  10  32
ATOM     32  O2' CMP d   1      -2.612  37.583  25.377  0.00  0.00    -0.388 OA
ATOM     33  H6  CMP d   1      -3.099  36.972  24.836  0.00  0.00     0.210 HD
ENDBRANCH  10  32
TORSDOF 3
