REMARK  8 active torsions:
REMARK  status: ('A' for Active; 'I' for Inactive)
REMARK    1  A    between atoms: P_1  and  S2P_3 
REMARK    2  A    between atoms: P_1  and  O5'_5 
REMARK    3  A    between atoms: O5'_5  and  C5'_6 
REMARK    4  A    between atoms: C5'_6  and  C4'_7 
REMARK    5  A    between atoms: C3'_9  and  O3'_10 
REMARK    6  A    between atoms: C2'_11  and  O2'_23 
REMARK    7  A    between atoms: C1'_12  and  N9_13 
REMARK    8  A    between atoms: C6_17  and  N6_18 
ROOT
ATOM      1  C4' SRA d   1      45.309 -14.679  -9.397  0.00  0.00     0.089 C 
ATOM      2  O4' SRA d   1      46.448 -13.834  -9.624  0.00  0.00    -0.353 OA
ATOM      3  C3' SRA d   1      45.792 -15.698  -8.376  0.00  0.00     0.091 C 
ATOM      4  C2' SRA d   1      47.243 -15.901  -8.779  0.00  0.00     0.105 C 
ATOM      5  C1' SRA d   1      47.622 -14.497  -9.231  0.00  0.00     0.139 C 
ATOM      6  H4  SRA d   1      45.032 -15.205 -10.322  0.00  0.00     0.090 H 
ATOM      7  H5  SRA d   1      45.739 -15.271  -7.364  0.00  0.00     0.091 H 
ATOM      8  H7  SRA d   1      47.862 -16.268  -7.947  0.00  0.00     0.093 H 
ATOM      9  H8  SRA d   1      48.316 -14.568 -10.082  0.00  0.00     0.122 H 
ENDROOT
BRANCH   5  10
ATOM     10  N9  SRA d   1      48.251 -13.720  -8.165  0.00  0.00    -0.294 N 
ATOM     11  C8  SRA d   1      48.197 -13.867  -6.769  0.00  0.00     0.071 A 
ATOM     12  N7  SRA d   1      49.005 -12.893  -6.245  0.00  0.00    -0.236 NA
ATOM     13  H9  SRA d   1      47.626 -14.609  -6.213  0.00  0.00     0.144 H 
ATOM     14  C5  SRA d   1      49.559 -12.136  -7.354  0.00  0.00     0.149 A 
ATOM     15  C6  SRA d   1      50.468 -11.038  -7.420  0.00  0.00     0.155 A 
ATOM     16  C4  SRA d   1      49.088 -12.643  -8.496  0.00  0.00     0.167 A 
ATOM     17  N1  SRA d   1      50.814 -10.517  -8.655  0.00  0.00    -0.222 NA
ATOM     18  C2  SRA d   1      50.303 -11.049  -9.847  0.00  0.00     0.091 A 
ATOM     19  N3  SRA d   1      49.444 -12.122  -9.794  0.00  0.00    -0.222 NA
ATOM     20  H12 SRA d   1      50.582 -10.619 -10.802  0.00  0.00     0.146 H 
BRANCH  15  21
ATOM     21  N6  SRA d   1      51.042 -10.526  -6.201  0.00  0.00    -0.382 N 
ATOM     22  H10 SRA d   1      51.700  -9.734  -6.234  0.00  0.00     0.157 HD
ATOM     23  H11 SRA d   1      50.795 -10.952  -5.296  0.00  0.00     0.157 HD
ENDBRANCH  15  21
ENDBRANCH   5  10
BRANCH   4  24
ATOM     24  O2' SRA d   1      47.337 -16.758  -9.903  0.00  0.00    -0.388 OA
ATOM     25  H13 SRA d   1      47.105 -17.642  -9.646  0.00  0.00     0.210 HD
ENDBRANCH   4  24
BRANCH   1  26
ATOM     26  C5' SRA d   1      44.151 -13.832  -8.981  0.00  0.00     0.057 C 
ATOM     27  H2  SRA d   1      44.163 -13.710  -7.888  0.00  0.00     0.079 H 
ATOM     28  H3  SRA d   1      44.231 -12.845  -9.461  0.00  0.00     0.079 H 
BRANCH  26  29
ATOM     29  O5' SRA d   1      42.949 -14.440  -9.367  0.00  0.00    -0.301 OA
BRANCH  29  30
ATOM     30  P   SRA d   1      41.617 -13.614  -9.460  0.00  0.00     0.313 P 
ATOM     31  OP1 SRA d   1      41.409 -12.827  -8.064  0.00  0.00    -0.638 OA
ATOM     32  OP3 SRA d   1      40.577 -14.527  -9.913  0.00  0.00    -0.638 OA
BRANCH  30  33
ATOM     33  S2P SRA d   1      41.904 -12.258 -11.028  0.00  0.00    -0.055 SA
ATOM     34  H1  SRA d   1      42.721 -11.698 -10.841  0.00  0.00     0.114 HD
ENDBRANCH  30  33
ENDBRANCH  29  30
ENDBRANCH  26  29
ENDBRANCH   1  26
BRANCH   3  35
ATOM     35  O3' SRA d   1      45.032 -16.897  -8.384  0.00  0.00    -0.390 OA
ATOM     36  H6  SRA d   1      44.125 -16.697  -8.185  0.00  0.00     0.210 HD
ENDBRANCH   3  35
TORSDOF 8
