REMARK  10 active torsions:
REMARK  status: ('A' for Active; 'I' for Inactive)
REMARK    1  A    between atoms: C1_1  and  O8_8 
REMARK    2  A    between atoms: C2_2  and  O9_9 
REMARK    3  A    between atoms: C3_3  and  N7_7 
REMARK    4  A    between atoms: C5_5  and  C6_6 
REMARK    5  A    between atoms: C10_10  and  C13_13 
REMARK    6  A    between atoms: C13_13  and  N14_14 
REMARK       I    between atoms: N14_14  and  C15_15 
REMARK    7  A    between atoms: C15_15  and  C16_16 
REMARK    8  A    between atoms: C17_17  and  O23_23 
REMARK    9  A    between atoms: C18_18  and  O24_24 
REMARK   10  A    between atoms: C20_20  and  N22_22 
ROOT
ATOM      1  C6  610 d   1      20.112 -30.218  10.917  0.00  0.00    -0.075 C 
ATOM      2  C10 610 d   1      20.606 -29.475   9.962  0.00  0.00    -0.087 C 
ATOM      3  H5  610 d   1      19.835 -31.248  10.697  0.00  0.00     0.080 H 
ATOM      4  H8  610 d   1      20.869 -28.443  10.192  0.00  0.00     0.079 H 
ENDROOT
BRANCH   1   5
ATOM      5  C5  610 d   1      19.919 -29.699  12.286  0.00  0.00     0.084 C 
ATOM      6  C1  610 d   1      20.368 -30.833  13.299  0.00  0.00     0.092 C 
ATOM      7  C2  610 d   1      19.055 -31.585  13.400  0.00  0.00     0.105 C 
ATOM      8  H1  610 d   1      21.200 -31.451  12.932  0.00  0.00     0.091 H 
ATOM      9  C3  610 d   1      17.948 -30.506  13.406  0.00  0.00     0.140 C 
ATOM     10  H2  610 d   1      18.950 -32.235  12.519  0.00  0.00     0.093 H 
ATOM     11  O4  610 d   1      18.538 -29.477  12.563  0.00  0.00    -0.352 OA
ATOM     12  H3  610 d   1      17.730 -30.157  14.426  0.00  0.00     0.123 H 
ATOM     13  H4  610 d   1      20.500 -28.776  12.430  0.00  0.00     0.093 H 
BRANCH   6  14
ATOM     14  O8  610 d   1      20.679 -30.228  14.552  0.00  0.00    -0.390 OA
ATOM     15  H6  610 d   1      19.910 -29.781  14.886  0.00  0.00     0.210 HD
ENDBRANCH   6  14
BRANCH   7  16
ATOM     16  O9  610 d   1      18.896 -32.384  14.571  0.00  0.00    -0.388 OA
ATOM     17  H7  610 d   1      18.977 -31.834  15.341  0.00  0.00     0.210 HD
ENDBRANCH   7  16
BRANCH   9  18
ATOM     18  N7  610 d   1      16.750 -30.917  12.746  0.00  0.00    -0.294 N 
ATOM     19  C11 610 d   1      16.596 -31.486  11.447  0.00  0.00     0.070 A 
ATOM     20  N12 610 d   1      15.313 -31.589  11.108  0.00  0.00    -0.238 NA
ATOM     21  H9  610 d   1      17.424 -31.797  10.812  0.00  0.00     0.144 H 
ATOM     22  C29 610 d   1      14.567 -31.126  12.169  0.00  0.00     0.121 A 
ATOM     23  C28 610 d   1      15.483 -30.707  13.205  0.00  0.00     0.164 A 
ATOM     24  C30 610 d   1      13.222 -30.985  12.398  0.00  0.00     0.035 A 
ATOM     25  N33 610 d   1      15.010 -30.162  14.357  0.00  0.00    -0.222 NA
ATOM     26  C32 610 d   1      13.680 -30.048  14.492  0.00  0.00     0.088 A 
ATOM     27  N31 610 d   1      12.771 -30.445  13.546  0.00  0.00    -0.252 NA
ATOM     28  H18 610 d   1      13.299 -29.613  15.409  0.00  0.00     0.146 H 
ATOM     29  H17 610 d   1      12.514 -31.312  11.646  0.00  0.00     0.118 H 
ENDBRANCH   9  18
ENDBRANCH   1   5
BRANCH   2  30
ATOM     30  C13 610 d   1      20.830 -29.976   8.559  0.00  0.00     0.010 C 
ATOM     31  H10 610 d   1      19.877 -29.920   8.012  0.00  0.00     0.070 H 
ATOM     32  H11 610 d   1      21.162 -31.023   8.611  0.00  0.00     0.070 H 
BRANCH  30  33
ATOM     33  N14 610 d   1      21.823 -29.216   7.831  0.00  0.00    -0.353 N 
ATOM     34  C15 610 d   1      22.629 -29.695   6.877  0.00  0.00     0.254 C 
ATOM     35  O25 610 d   1      22.502 -30.890   6.476  0.00  0.00    -0.268 OA
ATOM     36  H12 610 d   1      21.915 -28.247   8.061  0.00  0.00     0.163 HD
BRANCH  34  37
ATOM     37  C16 610 d   1      23.665 -28.872   6.244  0.00  0.00     0.070 A 
ATOM     38  C17 610 d   1      23.705 -27.456   6.464  0.00  0.00     0.114 A 
ATOM     39  C18 610 d   1      24.760 -26.769   5.844  0.00  0.00     0.102 A 
ATOM     40  C19 610 d   1      25.727 -27.336   5.071  0.00  0.00    -0.016 A 
ATOM     41  C20 610 d   1      25.674 -28.763   4.930  0.00  0.00     0.106 A 
ATOM     42  H13 610 d   1      26.495 -26.742   4.589  0.00  0.00     0.091 H 
ATOM     43  C21 610 d   1      24.647 -29.492   5.511  0.00  0.00    -0.033 A 
ATOM     44  H14 610 d   1      24.619 -30.568   5.385  0.00  0.00     0.089 H 
BRANCH  38  45
ATOM     45  O23 610 d   1      22.781 -26.759   7.143  0.00  0.00    -0.357 OA
ATOM     46  H15 610 d   1      22.353 -26.146   6.556  0.00  0.00     0.217 HD
ENDBRANCH  38  45
BRANCH  39  47
ATOM     47  O24 610 d   1      24.811 -25.410   6.064  0.00  0.00    -0.358 OA
ATOM     48  H16 610 d   1      24.082 -25.152   6.615  0.00  0.00     0.217 HD
ENDBRANCH  39  47
BRANCH  41  49
ATOM     49  N22 610 d   1      26.659 -29.387   4.140  0.00  0.00    -0.116 N 
ATOM     50  O26 610 d   1      27.426 -28.754   3.475  0.00  0.00    -0.532 OA
ATOM     51  O27 610 d   1      26.600 -30.625   4.157  0.00  0.00    -0.532 OA
ENDBRANCH  41  49
ENDBRANCH  34  37
ENDBRANCH  30  33
ENDBRANCH   2  30
TORSDOF 10
