REMARK  7 active torsions:
REMARK  status: ('A' for Active; 'I' for Inactive)
REMARK    1  A    between atoms: CAQ_17  and  OAD_4 
REMARK    2  A    between atoms: CAL_12  and  CAK_11 
REMARK    3  A    between atoms: CAK_11  and  OAN_14 
REMARK    4  A    between atoms: CAP_16  and  CAL_12 
REMARK    5  A    between atoms: NAR_18  and  CAM_13 
REMARK    6  A    between atoms: CAM_13  and  PAS_19 
REMARK    7  A    between atoms: OAN_14  and  PAT_20 
ROOT
ATOM      1  OAA HDX d   1      12.238   0.302  18.704  0.00  0.00    -0.265 OA
ATOM      2  CAI HDX d   1      13.021   2.543  15.450  0.00  0.00    -0.059 A 
ATOM      3  CAJ HDX d   1      14.041   1.827  16.080  0.00  0.00    -0.016 A 
ATOM      4  CAO HDX d   1      12.463   0.998  17.679  0.00  0.00     0.281 A 
ATOM      5  CAP HDX d   1      11.711   2.497  15.932  0.00  0.00    -0.016 A 
ATOM      6  CAQ HDX d   1      11.427   1.712  17.056  0.00  0.00     0.141 A 
ATOM      7  NAR HDX d   1      13.791   1.071  17.165  0.00  0.00    -0.309 N 
ATOM      8  H2  HDX d   1      13.250   3.145  14.572  0.00  0.00     0.086 H 
ATOM      9  H3  HDX d   1      15.055   1.881  15.687  0.00  0.00     0.111 H 
ENDROOT
BRANCH   5  10
ATOM     10  CAL HDX d   1      10.647   3.306  15.206  0.00  0.00    -0.018 C 
ATOM     11  H6  HDX d   1      10.448   2.839  14.230  0.00  0.00     0.043 H 
ATOM     12  H7  HDX d   1       9.726   3.305  15.808  0.00  0.00     0.043 H 
BRANCH  10  13
ATOM     13  CAK HDX d   1      11.094   4.762  14.980  0.00  0.00     0.036 C 
ATOM     14  H4  HDX d   1      11.893   5.007  15.695  0.00  0.00     0.075 H 
ATOM     15  H5  HDX d   1      10.236   5.431  15.146  0.00  0.00     0.075 H 
BRANCH  13  16
ATOM     16  OAN HDX d   1      11.588   4.953  13.637  0.00  0.00    -0.282 OA
BRANCH  16  17
ATOM     17  PAT HDX d   1      11.410   6.330  12.785  0.00  0.00     0.422 P 
ATOM     18  OAC HDX d   1      12.830   6.869  12.740  0.00  0.00    -0.617 OA
ATOM     19  OAG HDX d   1      10.832   5.923  11.443  0.00  0.00    -0.617 OA
ATOM     20  OAH HDX d   1      10.435   7.164  13.585  0.00  0.00    -0.617 OA
ENDBRANCH  16  17
ENDBRANCH  13  16
ENDBRANCH  10  13
ENDBRANCH   5  10
BRANCH   6  21
ATOM     21  OAD HDX d   1      10.161   1.633  17.572  0.00  0.00    -0.355 OA
ATOM     22  H1  HDX d   1       9.573   2.165  17.049  0.00  0.00     0.218 HD
ENDBRANCH   6  21
BRANCH   7  23
ATOM     23  CAM HDX d   1      14.841   0.315  17.836  0.00  0.00     0.105 C 
ATOM     24  H8  HDX d   1      14.568  -0.750  17.794  0.00  0.00     0.086 H 
ATOM     25  H9  HDX d   1      14.875   0.644  18.885  0.00  0.00     0.086 H 
BRANCH  23  26
ATOM     26  PAS HDX d   1      16.492   0.486  17.153  0.00  0.00     0.278 P 
ATOM     27  OAB HDX d   1      16.491  -0.261  15.838  0.00  0.00    -0.638 OA
ATOM     28  OAE HDX d   1      16.836   1.943  16.998  0.00  0.00    -0.638 OA
ATOM     29  OAF HDX d   1      17.341  -0.238  18.195  0.00  0.00    -0.638 OA
ENDBRANCH  23  26
ENDBRANCH   7  23
TORSDOF 7
