REMARK  7 active torsions:
REMARK  status: ('A' for Active; 'I' for Inactive)
REMARK    1  A    between atoms: S1_4  and  N1_2 
REMARK    2  A    between atoms: O3_8  and  S1_4 
REMARK    3  A    between atoms: C2_5  and  O3_8 
REMARK    4  A    between atoms: C3_7  and  C19_25 
REMARK    5  A    between atoms: C13_18  and  C18_24 
REMARK    6  A    between atoms: C17_22  and  O17_23 
REMARK    7  A    between atoms: C19_25  and  C20_26 
ROOT
ATOM      1  C1  VZ5 d   1      -3.586   1.263  13.810  0.00  0.00    -0.042 A 
ATOM      2  C2  VZ5 d   1      -4.428   1.993  14.651  0.00  0.00     0.098 A 
ATOM      3  C3  VZ5 d   1      -5.130   3.121  14.152  0.00  0.00    -0.023 A 
ATOM      4  C4  VZ5 d   1      -4.999   3.447  12.788  0.00  0.00    -0.067 A 
ATOM      5  C5  VZ5 d   1      -4.118   2.729  11.937  0.00  0.00    -0.047 A 
ATOM      6  C6  VZ5 d   1      -3.427   1.627  12.436  0.00  0.00    -0.049 A 
ATOM      7  C7  VZ5 d   1      -2.446   0.847  11.586  0.00  0.00    -0.040 C 
ATOM      8  C8  VZ5 d   1      -2.228   1.326  10.177  0.00  0.00    -0.057 C 
ATOM      9  C9  VZ5 d   1      -2.498   2.793  10.075  0.00  0.00    -0.042 C 
ATOM     10  C10 VZ5 d   1      -3.920   3.139  10.504  0.00  0.00    -0.024 C 
ATOM     11  C11 VZ5 d   1      -4.365   4.545  10.112  0.00  0.00    -0.057 C 
ATOM     12  C12 VZ5 d   1      -3.312   5.457   9.602  0.00  0.00    -0.055 C 
ATOM     13  C13 VZ5 d   1      -2.303   4.826   8.600  0.00  0.00    -0.014 C 
ATOM     14  C14 VZ5 d   1      -2.256   3.352   8.665  0.00  0.00    -0.041 C 
ATOM     15  C15 VZ5 d   1      -0.954   3.060   7.992  0.00  0.00    -0.058 C 
ATOM     16  C16 VZ5 d   1      -0.948   4.073   6.870  0.00  0.00    -0.040 C 
ATOM     17  C17 VZ5 d   1      -2.138   5.012   7.158  0.00  0.00     0.043 C 
ATOM     18  H1  VZ5 d   1      -3.046   0.409  14.203  0.00  0.00     0.088 H 
ATOM     19  H4  VZ5 d   1      -5.583   4.263  12.379  0.00  0.00     0.085 H 
ATOM     20  H5  VZ5 d   1      -2.807  -0.191  11.531  0.00  0.00     0.040 H 
ATOM     21  H6  VZ5 d   1      -1.473   0.870  12.098  0.00  0.00     0.040 H 
ATOM     22  H7  VZ5 d   1      -2.907   0.785   9.502  0.00  0.00     0.034 H 
ATOM     23  H8  VZ5 d   1      -1.186   1.129   9.885  0.00  0.00     0.034 H 
ATOM     24  H9  VZ5 d   1      -1.803   3.300  10.761  0.00  0.00     0.041 H 
ATOM     25  H10 VZ5 d   1      -4.577   2.476   9.922  0.00  0.00     0.048 H 
ATOM     26  H11 VZ5 d   1      -4.811   5.014  11.002  0.00  0.00     0.034 H 
ATOM     27  H12 VZ5 d   1      -5.130   4.447   9.328  0.00  0.00     0.034 H 
ATOM     28  H13 VZ5 d   1      -2.742   5.832  10.465  0.00  0.00     0.034 H 
ATOM     29  H14 VZ5 d   1      -3.809   6.298   9.097  0.00  0.00     0.034 H 
ATOM     30  H15 VZ5 d   1      -3.061   2.940   8.039  0.00  0.00     0.042 H 
ATOM     31  H16 VZ5 d   1      -0.927   2.032   7.603  0.00  0.00     0.033 H 
ATOM     32  H17 VZ5 d   1      -0.106   3.216   8.676  0.00  0.00     0.033 H 
ATOM     33  H18 VZ5 d   1      -1.079   3.573   5.899  0.00  0.00     0.036 H 
ATOM     34  H19 VZ5 d   1      -0.004   4.638   6.867  0.00  0.00     0.036 H 
ATOM     35  H20 VZ5 d   1      -3.043   4.691   6.622  0.00  0.00     0.084 H 
ENDROOT
BRANCH   2  36
ATOM     36  O3  VZ5 d   1      -4.531   1.620  15.996  0.00  0.00    -0.216 OA
BRANCH  36  37
ATOM     37  S1  VZ5 d   1      -5.482   0.630  16.559  0.00  0.00     0.360 S 
ATOM     38  O1  VZ5 d   1      -5.240   0.665  17.991  0.00  0.00    -0.176 OA
ATOM     39  O2  VZ5 d   1      -6.860   1.074  16.298  0.00  0.00    -0.176 OA
BRANCH  37  40
ATOM     40  N1  VZ5 d   1      -5.103  -0.831  15.980  0.00  0.00    -0.305 N 
ATOM     41  H2  VZ5 d   1      -5.639  -1.631  16.251  0.00  0.00     0.171 HD
ATOM     42  H3  VZ5 d   1      -4.333  -0.935  15.351  0.00  0.00     0.171 HD
ENDBRANCH  37  40
ENDBRANCH  36  37
ENDBRANCH   2  36
BRANCH   3  43
ATOM     43  C19 VZ5 d   1      -6.052   3.911  15.008  0.00  0.00    -0.042 C 
ATOM     44  H25 VZ5 d   1      -5.997   3.507  16.030  0.00  0.00     0.039 H 
ATOM     45  H26 VZ5 d   1      -7.072   3.782  14.618  0.00  0.00     0.039 H 
BRANCH  43  46
ATOM     46  C20 VZ5 d   1      -5.763   5.381  15.074  0.00  0.00    -0.073 C 
ATOM     47  H27 VZ5 d   1      -6.499   5.870  15.729  0.00  0.00     0.028 H 
ATOM     48  H28 VZ5 d   1      -5.827   5.813  14.064  0.00  0.00     0.028 H 
ATOM     49  H29 VZ5 d   1      -4.752   5.538  15.477  0.00  0.00     0.028 H 
ENDBRANCH  43  46
ENDBRANCH   3  43
BRANCH  13  50
ATOM     50  C18 VZ5 d   1      -1.117   5.439   9.200  0.00  0.00    -0.066 C 
ATOM     51  H22 VZ5 d   1      -1.167   5.339  10.294  0.00  0.00     0.028 H 
ATOM     52  H23 VZ5 d   1      -1.079   6.505   8.930  0.00  0.00     0.028 H 
ATOM     53  H24 VZ5 d   1      -0.214   4.934   8.826  0.00  0.00     0.028 H 
ENDBRANCH  13  50
BRANCH  17  54
ATOM     54  O17 VZ5 d   1      -1.830   6.290   6.777  0.00  0.00    -0.395 OA
ATOM     55  H21 VZ5 d   1      -2.568   6.860   6.958  0.00  0.00     0.210 HD
ENDBRANCH  17  54
TORSDOF 7
