REMARK  7 active torsions:
REMARK  status: ('A' for Active; 'I' for Inactive)
REMARK    1  A    between atoms: S1_4  and  N1_2 
REMARK    2  A    between atoms: O3_8  and  S1_4 
REMARK    3  A    between atoms: C2_5  and  O3_8 
REMARK    4  A    between atoms: C3_7  and  C19_25 
REMARK    5  A    between atoms: C13_18  and  C18_24 
REMARK    6  A    between atoms: C17_22  and  O17_23 
REMARK    7  A    between atoms: C19_25  and  C20_26 
ROOT
ATOM      1  C1  VZ5 d   1      -3.062   2.734  14.167  0.00  0.00    -0.042 C 
ATOM      2  C2  VZ5 d   1      -4.467   2.598  14.377  0.00  0.00     0.098 C 
ATOM      3  C3  VZ5 d   1      -5.008   3.836  14.563  0.00  0.00    -0.023 C 
ATOM      4  C4  VZ5 d   1      -4.375   5.028  14.167  0.00  0.00    -0.067 C 
ATOM      5  C5  VZ5 d   1      -3.006   5.127  13.886  0.00  0.00    -0.047 C 
ATOM      6  C6  VZ5 d   1      -2.347   3.915  13.837  0.00  0.00    -0.049 C 
ATOM      7  C7  VZ5 d   1      -0.853   3.884  13.516  0.00  0.00    -0.040 C 
ATOM      8  C8  VZ5 d   1      -0.446   5.025  12.585  0.00  0.00    -0.057 C 
ATOM      9  C9  VZ5 d   1      -0.801   6.328  13.282  0.00  0.00    -0.042 C 
ATOM     10  C10 VZ5 d   1      -2.353   6.367  13.550  0.00  0.00    -0.024 C 
ATOM     11  C11 VZ5 d   1      -2.720   7.661  14.293  0.00  0.00    -0.057 C 
ATOM     12  C12 VZ5 d   1      -2.271   8.968  13.556  0.00  0.00    -0.055 C 
ATOM     13  C13 VZ5 d   1      -0.746   8.866  13.418  0.00  0.00    -0.014 C 
ATOM     14  C14 VZ5 d   1      -0.317   7.645  12.614  0.00  0.00    -0.041 C 
ATOM     15  C15 VZ5 d   1       1.206   7.857  12.591  0.00  0.00    -0.058 C 
ATOM     16  C16 VZ5 d   1       1.353   9.421  12.707  0.00  0.00    -0.040 C 
ATOM     17  C17 VZ5 d   1      -0.067   9.935  12.577  0.00  0.00     0.043 C 
ATOM     18  H1  VZ5 d   1      -2.472   1.831  14.272  0.00  0.00     0.088 H 
ATOM     19  H4  VZ5 d   1      -4.981   5.922  14.074  0.00  0.00     0.085 H 
ATOM     20  H5  VZ5 d   1      -0.613   2.926  13.030  0.00  0.00     0.040 H 
ATOM     21  H6  VZ5 d   1      -0.286   3.971  14.454  0.00  0.00     0.040 H 
ATOM     22  H7  VZ5 d   1      -0.992   4.947  11.633  0.00  0.00     0.034 H 
ATOM     23  H8  VZ5 d   1       0.636   4.985  12.392  0.00  0.00     0.034 H 
ATOM     24  H9  VZ5 d   1      -0.303   6.293  14.262  0.00  0.00     0.041 H 
ATOM     25  H10 VZ5 d   1      -2.767   6.550  12.547  0.00  0.00     0.048 H 
ATOM     26  H11 VZ5 d   1      -2.240   7.640  15.283  0.00  0.00     0.034 H 
ATOM     27  H12 VZ5 d   1      -3.813   7.691  14.416  0.00  0.00     0.034 H 
ATOM     28  H13 VZ5 d   1      -2.544   9.854  14.147  0.00  0.00     0.034 H 
ATOM     29  H14 VZ5 d   1      -2.742   9.030  12.564  0.00  0.00     0.034 H 
ATOM     30  H15 VZ5 d   1      -0.722   7.680  11.592  0.00  0.00     0.042 H 
ATOM     31  H16 VZ5 d   1       1.641   7.489  11.650  0.00  0.00     0.033 H 
ATOM     32  H17 VZ5 d   1       1.688   7.351  13.441  0.00  0.00     0.033 H 
ATOM     33  H18 VZ5 d   1       1.987   9.815  11.899  0.00  0.00     0.036 H 
ATOM     34  H19 VZ5 d   1       1.783   9.702  13.680  0.00  0.00     0.036 H 
ATOM     35  H20 VZ5 d   1      -0.452   9.997  11.548  0.00  0.00     0.084 H 
ENDROOT
BRANCH   2  36
ATOM     36  O3  VZ5 d   1      -4.654   1.308  14.805  0.00  0.00    -0.216 OA
BRANCH  36  37
ATOM     37  S1  VZ5 d   1      -5.274   0.781  16.111  0.00  0.00     0.360 S 
ATOM     38  O1  VZ5 d   1      -4.402   1.279  17.131  0.00  0.00    -0.176 OA
ATOM     39  O2  VZ5 d   1      -6.683   1.187  16.195  0.00  0.00    -0.176 OA
BRANCH  37  40
ATOM     40  N1  VZ5 d   1      -5.117  -0.739  15.948  0.00  0.00    -0.305 N 
ATOM     41  H2  VZ5 d   1      -5.441  -1.355  16.666  0.00  0.00     0.171 HD
ATOM     42  H3  VZ5 d   1      -4.690  -1.112  15.124  0.00  0.00     0.171 HD
ENDBRANCH  37  40
ENDBRANCH  36  37
ENDBRANCH   2  36
BRANCH   3  43
ATOM     43  C19 VZ5 d   1      -6.473   3.866  14.849  0.00  0.00    -0.042 C 
ATOM     44  H25 VZ5 d   1      -6.912   2.880  14.639  0.00  0.00     0.039 H 
ATOM     45  H26 VZ5 d   1      -6.959   4.625  14.219  0.00  0.00     0.039 H 
BRANCH  43  46
ATOM     46  C20 VZ5 d   1      -6.669   4.212  16.307  0.00  0.00    -0.073 C 
ATOM     47  H27 VZ5 d   1      -7.745   4.239  16.536  0.00  0.00     0.028 H 
ATOM     48  H28 VZ5 d   1      -6.226   5.197  16.513  0.00  0.00     0.028 H 
ATOM     49  H29 VZ5 d   1      -6.179   3.452  16.933  0.00  0.00     0.028 H 
ENDBRANCH  43  46
ENDBRANCH   3  43
BRANCH  13  50
ATOM     50  C18 VZ5 d   1      -0.160   8.881  14.838  0.00  0.00    -0.066 C 
ATOM     51  H22 VZ5 d   1      -0.652   8.107  15.446  0.00  0.00     0.028 H 
ATOM     52  H23 VZ5 d   1      -0.329   9.868  15.294  0.00  0.00     0.028 H 
ATOM     53  H24 VZ5 d   1       0.920   8.679  14.791  0.00  0.00     0.028 H 
ENDBRANCH  13  50
BRANCH  17  54
ATOM     54  O17 VZ5 d   1      -0.054  11.227  13.236  0.00  0.00    -0.395 OA
ATOM     55  H21 VZ5 d   1      -0.921  11.612  13.193  0.00  0.00     0.210 HD
ENDBRANCH  17  54
TORSDOF 7
