REMARK  17 active torsions:
REMARK  status: ('A' for Active; 'I' for Inactive)
REMARK    1  A    between atoms: C2_1  and  O39_38 
REMARK    2  A    between atoms: S8_7  and  C5_4 
REMARK    3  A    between atoms: N11_10  and  S8_7 
REMARK    4  A    between atoms: N11_10  and  C12_11 
REMARK    5  A    between atoms: C16_15  and  N11_10 
REMARK    6  A    between atoms: C12_11  and  C13_12 
REMARK    7  A    between atoms: C13_12  and  C14_13 
REMARK    8  A    between atoms: C13_12  and  C15_14 
REMARK    9  A    between atoms: C17_16  and  C16_15 
REMARK   10  A    between atoms: C17_16  and  O18_17 
REMARK   11  A    between atoms: C19_18  and  C17_16 
REMARK   12  A    between atoms: C19_18  and  N20_19 
REMARK   13  A    between atoms: C32_31  and  C19_18 
REMARK       I    between atoms: N20_19  and  C21_20 
REMARK   14  A    between atoms: C21_20  and  O23_22 
REMARK   15  A    between atoms: O23_22  and  C24_23 
REMARK   16  A    between atoms: C38_37  and  C32_31 
REMARK   17  A    between atoms: O39_38  and  C40_39 
ROOT
ATOM      1  C19 G52 d   1      14.950  23.032  16.754  0.00  0.00     0.044 C 
ATOM      2  H18 G52 d   1      15.875  22.500  16.486  0.00  0.00     0.077 H 
ENDROOT
BRANCH   1   3
ATOM      3  C17 G52 d   1      15.312  24.168  17.706  0.00  0.00     0.071 C 
ATOM      4  H16 G52 d   1      15.630  23.698  18.648  0.00  0.00     0.088 H 
BRANCH   3   5
ATOM      5  C16 G52 d   1      16.465  25.045  17.243  0.00  0.00     0.031 C 
ATOM      6  H14 G52 d   1      16.234  25.445  16.245  0.00  0.00     0.069 H 
ATOM      7  H15 G52 d   1      16.591  25.877  17.952  0.00  0.00     0.069 H 
BRANCH   5   8
ATOM      8  N11 G52 d   1      17.709  24.284  17.175  0.00  0.00    -0.304 N 
BRANCH   8   9
ATOM      9  S8  G52 d   1      18.403  24.084  15.694  0.00  0.00     0.260 S 
ATOM     10  O9  G52 d   1      17.322  24.004  14.667  0.00  0.00    -0.200 OA
ATOM     11  O10 G52 d   1      19.315  22.922  15.824  0.00  0.00    -0.200 OA
BRANCH   9  12
ATOM     12  C5  G52 d   1      19.390  25.481  15.281  0.00  0.00     0.079 C 
ATOM     13  C4  G52 d   1      18.869  26.578  14.598  0.00  0.00    -0.058 C 
ATOM     14  C3  G52 d   1      19.664  27.699  14.390  0.00  0.00    -0.049 C 
ATOM     15  H2  G52 d   1      17.849  26.557  14.231  0.00  0.00     0.086 H 
ATOM     16  C2  G52 d   1      21.001  27.716  14.781  0.00  0.00     0.068 C 
ATOM     17  H1  G52 d   1      19.236  28.575  13.915  0.00  0.00     0.087 H 
ATOM     18  C7  G52 d   1      21.574  26.558  15.309  0.00  0.00    -0.049 C 
ATOM     19  C6  G52 d   1      20.737  25.479  15.586  0.00  0.00    -0.058 C 
ATOM     20  H4  G52 d   1      22.640  26.500  15.498  0.00  0.00     0.087 H 
ATOM     21  H3  G52 d   1      21.161  24.601  16.061  0.00  0.00     0.086 H 
BRANCH  16  22
ATOM     22  O39 G52 d   1      21.713  28.862  14.577  0.00  0.00    -0.356 OA
BRANCH  22  23
ATOM     23  C40 G52 d   1      23.046  28.754  15.025  0.00  0.00     0.010 C 
ATOM     24  H34 G52 d   1      23.573  29.701  14.838  0.00  0.00     0.066 H 
ATOM     25  H35 G52 d   1      23.550  27.940  14.483  0.00  0.00     0.066 H 
ATOM     26  H36 G52 d   1      23.054  28.537  16.103  0.00  0.00     0.066 H 
ENDBRANCH  22  23
ENDBRANCH  16  22
ENDBRANCH   9  12
ENDBRANCH   8   9
BRANCH   8  27
ATOM     27  C12 G52 d   1      18.659  24.544  18.244  0.00  0.00     0.008 C 
ATOM     28  H5  G52 d   1      18.712  25.632  18.396  0.00  0.00     0.066 H 
ATOM     29  H6  G52 d   1      19.643  24.170  17.925  0.00  0.00     0.066 H 
BRANCH  27  30
ATOM     30  C13 G52 d   1      18.317  23.895  19.582  0.00  0.00    -0.045 C 
ATOM     31  H7  G52 d   1      17.345  24.294  19.908  0.00  0.00     0.041 H 
BRANCH  30  32
ATOM     32  C14 G52 d   1      18.211  22.373  19.559  0.00  0.00    -0.072 C 
ATOM     33  H8  G52 d   1      17.962  22.008  20.566  0.00  0.00     0.028 H 
ATOM     34  H9  G52 d   1      19.172  21.943  19.240  0.00  0.00     0.028 H 
ATOM     35  H10 G52 d   1      17.422  22.071  18.854  0.00  0.00     0.028 H 
ENDBRANCH  30  32
BRANCH  30  36
ATOM     36  C15 G52 d   1      19.394  24.292  20.611  0.00  0.00    -0.072 C 
ATOM     37  H11 G52 d   1      19.485  25.388  20.642  0.00  0.00     0.028 H 
ATOM     38  H12 G52 d   1      20.359  23.852  20.320  0.00  0.00     0.028 H 
ATOM     39  H13 G52 d   1      19.106  23.920  21.605  0.00  0.00     0.028 H 
ENDBRANCH  30  36
ENDBRANCH  27  30
ENDBRANCH   8  27
ENDBRANCH   5   8
ENDBRANCH   3   5
BRANCH   3  40
ATOM     40  O18 G52 d   1      14.168  24.975  17.992  0.00  0.00    -0.392 OA
ATOM     41  H17 G52 d   1      13.909  25.444  17.208  0.00  0.00     0.210 HD
ENDBRANCH   3  40
ENDBRANCH   1   3
BRANCH   1  42
ATOM     42  N20 G52 d   1      14.021  22.098  17.378  0.00  0.00    -0.329 N 
ATOM     43  C21 G52 d   1      14.271  20.836  17.717  0.00  0.00     0.361 C 
ATOM     44  O22 G52 d   1      15.390  20.329  17.512  0.00  0.00    -0.238 OA
ATOM     45  H19 G52 d   1      13.102  22.441  17.571  0.00  0.00     0.165 HD
BRANCH  43  46
ATOM     46  O23 G52 d   1      13.215  20.222  18.314  0.00  0.00    -0.296 OA
BRANCH  46  47
ATOM     47  C24 G52 d   1      13.408  18.838  18.587  0.00  0.00     0.078 C 
ATOM     48  C25 G52 d   1      12.887  18.580  19.991  0.00  0.00     0.048 C 
ATOM     49  O26 G52 d   1      11.459  18.498  19.875  0.00  0.00    -0.358 OA
ATOM     50  H21 G52 d   1      13.169  19.406  20.661  0.00  0.00     0.078 H 
ATOM     51  H22 G52 d   1      13.293  17.636  20.382  0.00  0.00     0.078 H 
ATOM     52  C27 G52 d   1      11.131  18.154  18.552  0.00  0.00     0.140 C 
ATOM     53  O28 G52 d   1      10.399  19.241  17.955  0.00  0.00    -0.331 OA
ATOM     54  C31 G52 d   1      12.408  18.015  17.744  0.00  0.00     0.030 C 
ATOM     55  H23 G52 d   1      10.546  17.223  18.530  0.00  0.00     0.129 H 
ATOM     56  C29 G52 d   1      10.939  19.619  16.716  0.00  0.00     0.138 C 
ATOM     57  C30 G52 d   1      12.078  18.649  16.406  0.00  0.00     0.006 C 
ATOM     58  O41 G52 d   1       9.922  19.392  15.703  0.00  0.00    -0.361 OA
ATOM     59  H24 G52 d   1      11.281  20.665  16.724  0.00  0.00     0.129 H 
ATOM     60  C43 G52 d   1      11.454  17.681  15.410  0.00  0.00    -0.037 C 
ATOM     61  H25 G52 d   1      12.961  19.145  15.977  0.00  0.00     0.048 H 
ATOM     62  C42 G52 d   1       9.950  17.952  15.514  0.00  0.00     0.023 C 
ATOM     63  H39 G52 d   1      11.682  16.640  15.682  0.00  0.00     0.036 H 
ATOM     64  H40 G52 d   1      11.817  17.882  14.391  0.00  0.00     0.036 H 
ATOM     65  H37 G52 d   1       9.425  17.658  14.593  0.00  0.00     0.074 H 
ATOM     66  H38 G52 d   1       9.506  17.426  16.372  0.00  0.00     0.074 H 
ATOM     67  H26 G52 d   1      12.741  16.974  17.620  0.00  0.00     0.052 H 
ATOM     68  H20 G52 d   1      14.454  18.531  18.442  0.00  0.00     0.088 H 
ENDBRANCH  46  47
ENDBRANCH  43  46
ENDBRANCH   1  42
BRANCH   1  69
ATOM     69  C32 G52 d   1      14.282  23.531  15.488  0.00  0.00    -0.020 C 
ATOM     70  H27 G52 d   1      14.954  24.239  14.981  0.00  0.00     0.043 H 
ATOM     71  H28 G52 d   1      13.344  24.040  15.752  0.00  0.00     0.043 H 
BRANCH  69  72
ATOM     72  C38 G52 d   1      13.970  22.360  14.534  0.00  0.00    -0.056 A 
ATOM     73  C33 G52 d   1      12.661  21.931  14.370  0.00  0.00    -0.077 A 
ATOM     74  C34 G52 d   1      12.328  20.861  13.535  0.00  0.00    -0.082 A 
ATOM     75  H29 G52 d   1      11.870  22.442  14.907  0.00  0.00     0.084 H 
ATOM     76  C35 G52 d   1      13.357  20.264  12.810  0.00  0.00    -0.083 A 
ATOM     77  H30 G52 d   1      11.306  20.508  13.454  0.00  0.00     0.083 H 
ATOM     78  C36 G52 d   1      14.670  20.669  13.005  0.00  0.00    -0.082 A 
ATOM     79  H31 G52 d   1      13.132  19.483  12.093  0.00  0.00     0.083 H 
ATOM     80  C37 G52 d   1      14.989  21.731  13.852  0.00  0.00    -0.077 A 
ATOM     81  H32 G52 d   1      15.467  20.148  12.487  0.00  0.00     0.083 H 
ATOM     82  H33 G52 d   1      16.017  22.055  13.971  0.00  0.00     0.084 H 
ENDBRANCH  69  72
ENDBRANCH   1  69
TORSDOF 17
