REMARK  6 active torsions:
REMARK  status: ('A' for Active; 'I' for Inactive)
REMARK    1  A    between atoms: CAI_9  and  CAA_1 
REMARK    2  A    between atoms: CAY_25  and  CAB_2 
REMARK    3  A    between atoms: SAZ_26  and  NAC_3 
REMARK    4  A    between atoms: CAR_18  and  CAI_9 
REMARK    5  A    between atoms: CAT_20  and  OAP_16 
REMARK    6  A    between atoms: OAP_16  and  SAZ_26 
ROOT
ATOM      1  OAD VZ4 d   1      -0.482  11.302  12.978  0.00  0.00    -0.297 OA
ATOM      2  CAG VZ4 d   1      -3.030   2.816  14.223  0.00  0.00    -0.042 A 
ATOM      3  CAH VZ4 d   1      -4.547   5.108  14.247  0.00  0.00    -0.067 A 
ATOM      4  CAJ VZ4 d   1       1.036   9.503  12.225  0.00  0.00    -0.009 C 
ATOM      5  CAK VZ4 d   1      -0.948   3.995  13.566  0.00  0.00    -0.040 C 
ATOM      6  CAL VZ4 d   1       1.041   8.056  12.767  0.00  0.00    -0.054 C 
ATOM      7  CAM VZ4 d   1      -0.540   5.241  12.769  0.00  0.00    -0.057 C 
ATOM      8  CAN VZ4 d   1      -3.008   7.799  14.407  0.00  0.00    -0.056 C 
ATOM      9  CAO VZ4 d   1      -2.423   9.114  13.813  0.00  0.00    -0.051 C 
ATOM     10  CAQ VZ4 d   1      -0.172  10.112  12.956  0.00  0.00     0.135 C 
ATOM     11  CAR VZ4 d   1      -5.120   3.869  14.566  0.00  0.00    -0.023 A 
ATOM     12  CAS VZ4 d   1      -2.439   4.049  13.910  0.00  0.00    -0.049 A 
ATOM     13  CAT VZ4 d   1      -4.371   2.679  14.563  0.00  0.00     0.098 A 
ATOM     14  CAU VZ4 d   1      -3.187   5.227  13.943  0.00  0.00    -0.047 A 
ATOM     15  CAV VZ4 d   1      -2.540   6.571  13.570  0.00  0.00    -0.024 C 
ATOM     16  CAW VZ4 d   1      -0.987   6.497  13.525  0.00  0.00    -0.042 C 
ATOM     17  CAX VZ4 d   1      -0.478   7.799  12.870  0.00  0.00    -0.036 C 
ATOM     18  CAY VZ4 d   1      -0.897   9.000  13.715  0.00  0.00     0.021 C 
ATOM     19  H9  VZ4 d   1      -2.411   1.927  14.199  0.00  0.00     0.088 H 
ATOM     20  H10 VZ4 d   1      -5.172   5.994  14.236  0.00  0.00     0.085 H 
ATOM     21  H13 VZ4 d   1       0.894   9.521  11.134  0.00  0.00     0.044 H 
ATOM     22  H14 VZ4 d   1       1.967  10.030  12.483  0.00  0.00     0.044 H 
ATOM     23  H15 VZ4 d   1      -0.362   3.951  14.496  0.00  0.00     0.040 H 
ATOM     24  H16 VZ4 d   1      -0.747   3.097  12.963  0.00  0.00     0.040 H 
ATOM     25  H17 VZ4 d   1       1.533   7.990  13.749  0.00  0.00     0.034 H 
ATOM     26  H18 VZ4 d   1       1.526   7.360  12.066  0.00  0.00     0.034 H 
ATOM     27  H19 VZ4 d   1      -1.020   5.218  11.780  0.00  0.00     0.034 H 
ATOM     28  H20 VZ4 d   1       0.553   5.256  12.646  0.00  0.00     0.034 H 
ATOM     29  H21 VZ4 d   1      -4.107   7.851  14.391  0.00  0.00     0.034 H 
ATOM     30  H22 VZ4 d   1      -2.661   7.684  15.445  0.00  0.00     0.034 H 
ATOM     31  H23 VZ4 d   1      -2.686   9.959  14.466  0.00  0.00     0.034 H 
ATOM     32  H24 VZ4 d   1      -2.843   9.281  12.810  0.00  0.00     0.034 H 
ATOM     33  H25 VZ4 d   1      -2.867   6.773  12.540  0.00  0.00     0.048 H 
ATOM     34  H26 VZ4 d   1      -0.596   6.440  14.551  0.00  0.00     0.041 H 
ATOM     35  H27 VZ4 d   1      -0.919   7.851  11.864  0.00  0.00     0.042 H 
ENDROOT
BRANCH  11  36
ATOM     36  CAI VZ4 d   1      -6.580   3.938  14.906  0.00  0.00    -0.042 C 
ATOM     37  H11 VZ4 d   1      -7.049   4.766  14.355  0.00  0.00     0.039 H 
ATOM     38  H12 VZ4 d   1      -7.069   2.991  14.632  0.00  0.00     0.039 H 
BRANCH  36  39
ATOM     39  CAA VZ4 d   1      -6.724   4.175  16.414  0.00  0.00    -0.073 C 
ATOM     40  H1  VZ4 d   1      -7.791   4.228  16.677  0.00  0.00     0.028 H 
ATOM     41  H2  VZ4 d   1      -6.233   5.121  16.685  0.00  0.00     0.028 H 
ATOM     42  H3  VZ4 d   1      -6.252   3.346  16.962  0.00  0.00     0.028 H 
ENDBRANCH  36  39
ENDBRANCH  11  36
BRANCH  13  43
ATOM     43  OAP VZ4 d   1      -4.847   1.380  14.831  0.00  0.00    -0.216 OA
BRANCH  43  44
ATOM     44  SAZ VZ4 d   1      -5.366   0.887  16.151  0.00  0.00     0.360 S 
ATOM     45  OAE VZ4 d   1      -4.565   1.486  17.225  0.00  0.00    -0.176 OA
ATOM     46  OAF VZ4 d   1      -6.803   1.281  16.233  0.00  0.00    -0.176 OA
BRANCH  44  47
ATOM     47  NAC VZ4 d   1      -5.238  -0.732  16.166  0.00  0.00    -0.305 N 
ATOM     48  H7  VZ4 d   1      -5.535  -1.250  16.968  0.00  0.00     0.171 HD
ATOM     49  H8  VZ4 d   1      -4.862  -1.211  15.373  0.00  0.00     0.171 HD
ENDBRANCH  44  47
ENDBRANCH  43  44
ENDBRANCH  13  43
BRANCH  18  50
ATOM     50  CAB VZ4 d   1      -0.285   8.999  15.113  0.00  0.00    -0.062 C 
ATOM     51  H4  VZ4 d   1      -0.627   9.887  15.664  0.00  0.00     0.029 H 
ATOM     52  H5  VZ4 d   1       0.812   9.017  15.033  0.00  0.00     0.029 H 
ATOM     53  H6  VZ4 d   1      -0.598   8.091  15.650  0.00  0.00     0.029 H 
ENDBRANCH  18  50
TORSDOF 6
