REMARK WARNING: 32 MAX_TORS EXCEEDED!!!
REMARK  35 active torsions:
REMARK  status: ('A' for Active; 'I' for Inactive)
REMARK    1  A    between atoms: O4_20  and  C1_1 
REMARK    2  A    between atoms: C2_2  and  O2_7 
REMARK    3  A    between atoms: C3_3  and  O3_8 
REMARK    4  A    between atoms: C4_4  and  O4_9 
REMARK    5  A    between atoms: C5_5  and  C6_6 
REMARK    6  A    between atoms: C6_6  and  O6_11 
REMARK    7  A    between atoms: O4_33  and  C1_12 
REMARK    8  A    between atoms: C2_13  and  O2_18 
REMARK    9  A    between atoms: C3_14  and  O3_19 
REMARK   10  A    between atoms: C4_15  and  O4_20 
REMARK   11  A    between atoms: C5_16  and  C6_17 
REMARK   12  A    between atoms: C6_17  and  O6_22 
REMARK   13  A    between atoms: N1_30  and  C1_23 
REMARK   14  A    between atoms: C2_24  and  O2_31 
REMARK   15  A    between atoms: C3_25  and  O3_32 
REMARK   16  A    between atoms: C4_26  and  O4_33 
REMARK   17  A    between atoms: C5_27  and  C6_28 
REMARK   18  A    between atoms: C6_28  and  O6_34 
REMARK   19  A    between atoms: C4A_40  and  N1_30 
REMARK   20  A    between atoms: O4_52  and  C1_35 
REMARK   21  A    between atoms: C2_37  and  O2_36 
REMARK   22  A    between atoms: C3A_38  and  O3A_39 
REMARK   23  A    between atoms: C5A_41  and  C6A_43 
REMARK   24  A    between atoms: O4_64  and  C1_44 
REMARK   25  A    between atoms: C2_45  and  O2_50 
REMARK   26  A    between atoms: C3_46  and  O3_51 
REMARK   27  A    between atoms: C4_47  and  O4_52 
REMARK   28  A    between atoms: C5_48  and  C6_49 
REMARK   29  A    between atoms: C6_49  and  O6_54 
REMARK   30  A    between atoms: C1_55  and  O1_61 
REMARK   31  A    between atoms: C2_56  and  O2_62 
REMARK   32  A    between atoms: C3_57  and  O3_63 
REMARK   33  A    between atoms: C4_58  and  O4_64 
REMARK   34  A    between atoms: C5_59  and  C6_60 
REMARK   35  A    between atoms: C6_60  and  O6_66 
ROOT
ATOM      1  H29 GLC d   1       8.536 -15.585 -22.071  0.00  0.00     0.278 HD
ATOM      2  H30 GLC d   1       8.230 -16.448 -20.704  0.00  0.00     0.278 HD
ATOM      3  N1  ACI d   1       8.755 -16.428 -21.564  0.00  0.00    -0.056 N 
ENDROOT
BRANCH   3   4
ATOM      4  C1  ACI d   1      10.210 -16.485 -21.274  0.00  0.00     0.146 C 
ATOM      5  C2  ACI d   1      11.092 -15.257 -21.157  0.00  0.00     0.093 C 
ATOM      6  C3  ACI d   1      11.793 -15.233 -22.503  0.00  0.00     0.091 C 
ATOM      7  H23 GLC d   1      11.873 -15.479 -20.415  0.00  0.00     0.090 H 
ATOM      8  C4  ACI d   1      12.621 -16.525 -22.669  0.00  0.00     0.092 C 
ATOM      9  H24 GLC d   1      11.018 -15.237 -23.283  0.00  0.00     0.091 H 
ATOM     10  C5  ACI d   1      12.166 -17.757 -21.852  0.00  0.00    -0.027 C 
ATOM     11  H25 GLC d   1      13.648 -16.297 -22.349  0.00  0.00     0.095 H 
ATOM     12  C7  ACI d   1      10.972 -17.794 -21.154  0.00  0.00    -0.064 C 
ATOM     13  H28 GLC d   1      10.621 -18.656 -20.588  0.00  0.00     0.080 H 
ATOM     14  H22 GLC d   1       9.993 -16.471 -20.196  0.00  0.00     0.095 H 
BRANCH   5  15
ATOM     15  O2  ACI d   1      10.427 -14.102 -20.614  0.00  0.00    -0.390 OA
ATOM     16  H31 GLC d   1       9.736 -13.829 -21.206  0.00  0.00     0.210 HD
ENDBRANCH   5  15
BRANCH   6  17
ATOM     17  O3  ACI d   1      12.560 -14.040 -22.687  0.00  0.00    -0.390 OA
ATOM     18  H32 GLC d   1      11.998 -13.283 -22.573  0.00  0.00     0.210 HD
ENDBRANCH   6  17
BRANCH   8  19
ATOM     19  O4  ACI d   1      12.638 -16.836 -24.057  0.00  0.00    -0.346 OA
BRANCH  19  20
ATOM     20  C1  GLC d   1      13.631 -16.236 -24.902  0.00  0.00     0.159 C 
ATOM     21  C2  GLC d   1      13.114 -16.062 -26.314  0.00  0.00     0.110 C 
ATOM     22  C3  GLC d   1      13.227 -17.330 -27.154  0.00  0.00     0.092 C 
ATOM     23  H13 GLC d   1      13.710 -15.276 -26.800  0.00  0.00     0.094 H 
ATOM     24  C4  GLC d   1      14.610 -17.898 -27.003  0.00  0.00     0.096 C 
ATOM     25  H14 GLC d   1      12.496 -18.064 -26.783  0.00  0.00     0.091 H 
ATOM     26  C5  GLC d   1      14.946 -18.151 -25.533  0.00  0.00     0.089 C 
ATOM     27  H15 GLC d   1      15.329 -17.166 -27.401  0.00  0.00     0.091 H 
ATOM     28  O5  GLC d   1      14.923 -16.885 -24.826  0.00  0.00    -0.348 OA
ATOM     29  H16 GLC d   1      14.164 -18.803 -25.117  0.00  0.00     0.090 H 
ATOM     30  H12 GLC d   1      13.789 -15.220 -24.511  0.00  0.00     0.133 H 
BRANCH  21  31
ATOM     31  O2  GLC d   1      11.759 -15.651 -26.277  0.00  0.00    -0.388 OA
ATOM     32  H19 GLC d   1      11.458 -15.478 -27.161  0.00  0.00     0.210 HD
ENDBRANCH  21  31
BRANCH  22  33
ATOM     33  O3  GLC d   1      12.955 -17.078 -28.517  0.00  0.00    -0.390 OA
ATOM     34  H20 GLC d   1      13.015 -17.890 -29.006  0.00  0.00     0.210 HD
ENDBRANCH  22  33
BRANCH  24  35
ATOM     35  O4  GLC d   1      14.736 -19.113 -27.753  0.00  0.00    -0.348 OA
BRANCH  35  36
ATOM     36  C1  GLC d   1      15.869 -19.130 -28.552  0.00  0.00     0.159 C 
ATOM     37  C2  GLC d   1      15.463 -19.188 -30.012  0.00  0.00     0.110 C 
ATOM     38  C3  GLC d   1      14.856 -20.552 -30.336  0.00  0.00     0.092 C 
ATOM     39  H2  GLC d   1      16.351 -19.032 -30.642  0.00  0.00     0.094 H 
ATOM     40  C4  GLC d   1      15.778 -21.667 -29.845  0.00  0.00     0.090 C 
ATOM     41  H3  GLC d   1      13.877 -20.643 -29.842  0.00  0.00     0.091 H 
ATOM     42  C5  GLC d   1      16.092 -21.489 -28.363  0.00  0.00     0.089 C 
ATOM     43  H4  GLC d   1      16.717 -21.633 -30.417  0.00  0.00     0.091 H 
ATOM     44  O5  GLC d   1      16.713 -20.218 -28.179  0.00  0.00    -0.348 OA
ATOM     45  H5  GLC d   1      15.145 -21.520 -27.804  0.00  0.00     0.090 H 
ATOM     46  H1  GLC d   1      16.426 -18.196 -28.389  0.00  0.00     0.133 H 
BRANCH  37  47
ATOM     47  O2  GLC d   1      14.525 -18.165 -30.269  0.00  0.00    -0.388 OA
ATOM     48  H8  GLC d   1      13.755 -18.300 -29.729  0.00  0.00     0.210 HD
ENDBRANCH  37  47
BRANCH  38  49
ATOM     49  O3  GLC d   1      14.693 -20.665 -31.734  0.00  0.00    -0.390 OA
ATOM     50  H9  GLC d   1      14.310 -21.510 -31.940  0.00  0.00     0.210 HD
ENDBRANCH  38  49
BRANCH  40  51
ATOM     51  O4  GLC d   1      15.153 -22.921 -30.049  0.00  0.00    -0.390 OA
ATOM     52  H10 GLC d   1      14.347 -22.957 -29.548  0.00  0.00     0.210 HD
ENDBRANCH  40  51
BRANCH  42  53
ATOM     53  C6  GLC d   1      17.011 -22.537 -27.799  0.00  0.00     0.043 C 
ATOM     54  H6  GLC d   1      16.427 -23.432 -27.539  0.00  0.00     0.078 H 
ATOM     55  H7  GLC d   1      17.501 -22.144 -26.896  0.00  0.00     0.078 H 
BRANCH  53  56
ATOM     56  O6  GLC d   1      17.996 -22.882 -28.755  0.00  0.00    -0.398 OA
ATOM     57  H11 GLC d   1      18.502 -22.110 -28.980  0.00  0.00     0.209 HD
ENDBRANCH  53  56
ENDBRANCH  42  53
ENDBRANCH  35  36
ENDBRANCH  24  35
BRANCH  26  58
ATOM     58  C6  GLC d   1      16.288 -18.836 -25.304  0.00  0.00     0.043 C 
ATOM     59  H17 GLC d   1      16.242 -19.852 -25.722  0.00  0.00     0.078 H 
ATOM     60  H18 GLC d   1      16.476 -18.893 -24.222  0.00  0.00     0.078 H 
BRANCH  58  61
ATOM     61  O6  GLC d   1      17.349 -18.147 -25.910  0.00  0.00    -0.398 OA
ATOM     62  H21 GLC d   1      17.401 -17.269 -25.550  0.00  0.00     0.209 HD
ENDBRANCH  58  61
ENDBRANCH  26  58
ENDBRANCH  19  20
ENDBRANCH   8  19
BRANCH  10  63
ATOM     63  C6  ACI d   1      13.086 -18.989 -21.840  0.00  0.00     0.039 C 
ATOM     64  H26 GLC d   1      13.707 -18.993 -22.748  0.00  0.00     0.081 H 
ATOM     65  H27 GLC d   1      12.475 -19.903 -21.810  0.00  0.00     0.081 H 
BRANCH  63  66
ATOM     66  O6  ACI d   1      13.927 -18.939 -20.687  0.00  0.00    -0.397 OA
ATOM     67  H33 GLC d   1      13.389 -18.936 -19.904  0.00  0.00     0.209 HD
ENDBRANCH  63  66
ENDBRANCH  10  63
ENDBRANCH   3   4
BRANCH   3  68
ATOM     68  C4A G6D d   1       8.433 -17.597 -22.374  0.00  0.00     0.154 C 
ATOM     69  C3A G6D d   1       7.341 -18.336 -21.621  0.00  0.00     0.094 C 
ATOM     70  C2  G6D d   1       6.825 -19.569 -22.371  0.00  0.00     0.110 C 
ATOM     71  H37 GLC d   1       6.494 -17.644 -21.505  0.00  0.00     0.090 H 
ATOM     72  C1  G6D d   1       6.520 -19.269 -23.842  0.00  0.00     0.159 C 
ATOM     73  H36 GLC d   1       7.582 -20.365 -22.319  0.00  0.00     0.094 H 
ATOM     74  O5  G6D d   1       7.596 -18.511 -24.419  0.00  0.00    -0.351 OA
ATOM     75  H34 GLC d   1       6.452 -20.230 -24.373  0.00  0.00     0.133 H 
ATOM     76  C5A G6D d   1       7.835 -17.264 -23.745  0.00  0.00     0.068 C 
ATOM     77  H40 GLC d   1       6.871 -16.763 -23.573  0.00  0.00     0.086 H 
ATOM     78  H39 GLC d   1       9.330 -18.221 -22.500  0.00  0.00     0.092 H 
BRANCH  69  79
ATOM     79  O3A G6D d   1       7.799 -18.697 -20.312  0.00  0.00    -0.391 OA
ATOM     80  H38 GLC d   1       7.081 -19.079 -19.821  0.00  0.00     0.210 HD
ENDBRANCH  69  79
BRANCH  70  81
ATOM     81  O2  G6D d   1       5.623 -20.002 -21.731  0.00  0.00    -0.388 OA
ATOM     82  H35 GLC d   1       4.969 -19.316 -21.791  0.00  0.00     0.210 HD
ENDBRANCH  70  81
BRANCH  72  83
ATOM     83  O4  GLC d   1       5.273 -18.582 -24.022  0.00  0.00    -0.348 OA
BRANCH  83  84
ATOM     84  C4  GLC d   1       4.243 -19.368 -24.647  0.00  0.00     0.096 C 
ATOM     85  C3  GLC d   1       2.978 -19.346 -23.742  0.00  0.00     0.092 C 
ATOM     86  C2  GLC d   1       1.709 -19.950 -24.478  0.00  0.00     0.110 C 
ATOM     87  H46 GLC d   1       2.763 -18.296 -23.494  0.00  0.00     0.091 H 
ATOM     88  C1  GLC d   1       1.551 -19.415 -25.895  0.00  0.00     0.159 C 
ATOM     89  H45 GLC d   1       1.872 -21.034 -24.574  0.00  0.00     0.094 H 
ATOM     90  O5  GLC d   1       2.748 -19.434 -26.600  0.00  0.00    -0.348 OA
ATOM     91  H44 GLC d   1       0.829 -20.056 -26.421  0.00  0.00     0.133 H 
ATOM     92  C5  GLC d   1       3.803 -18.673 -25.955  0.00  0.00     0.089 C 
ATOM     93  H48 GLC d   1       3.400 -17.692 -25.665  0.00  0.00     0.090 H 
ATOM     94  H47 GLC d   1       4.593 -20.395 -24.831  0.00  0.00     0.091 H 
BRANCH  85  95
ATOM     95  O3  GLC d   1       3.190 -20.053 -22.533  0.00  0.00    -0.390 OA
ATOM     96  H52 GLC d   1       3.908 -19.654 -22.056  0.00  0.00     0.210 HD
ENDBRANCH  85  95
BRANCH  86  97
ATOM     97  O2  GLC d   1       0.573 -19.777 -23.663  0.00  0.00    -0.388 OA
ATOM     98  H51 GLC d   1      -0.188 -20.138 -24.102  0.00  0.00     0.210 HD
ENDBRANCH  86  97
BRANCH  88  99
ATOM     99  O4  GLC d   1       1.062 -18.115 -25.880  0.00  0.00    -0.348 OA
BRANCH  99 100
ATOM    100  C4  GLC d   1      -0.172 -18.031 -26.585  0.00  0.00     0.096 C 
ATOM    101  C3  GLC d   1      -1.260 -17.476 -25.711  0.00  0.00     0.092 C 
ATOM    102  C2  GLC d   1      -2.562 -17.522 -26.478  0.00  0.00     0.110 C 
ATOM    103  H56 GLC d   1      -1.029 -16.434 -25.445  0.00  0.00     0.091 H 
ATOM    104  C1  GLC d   1      -2.399 -16.733 -27.793  0.00  0.00     0.156 C 
ATOM    105  H55 GLC d   1      -2.838 -18.563 -26.699  0.00  0.00     0.094 H 
ATOM    106  O5  GLC d   1      -1.334 -17.286 -28.593  0.00  0.00    -0.349 OA
ATOM    107  H54 GLC d   1      -3.342 -16.780 -28.358  0.00  0.00     0.133 H 
ATOM    108  C5  GLC d   1      -0.050 -17.240 -27.912  0.00  0.00     0.089 C 
ATOM    109  H58 GLC d   1       0.210 -16.198 -27.674  0.00  0.00     0.090 H 
ATOM    110  H57 GLC d   1      -0.461 -19.059 -26.851  0.00  0.00     0.091 H 
BRANCH 101 111
ATOM    111  O3  GLC d   1      -1.345 -18.256 -24.528  0.00  0.00    -0.390 OA
ATOM    112  H63 GLC d   1      -0.515 -18.222 -24.067  0.00  0.00     0.210 HD
ENDBRANCH 101 111
BRANCH 102 113
ATOM    113  O2  GLC d   1      -3.552 -16.917 -25.672  0.00  0.00    -0.388 OA
ATOM    114  H62 GLC d   1      -3.305 -16.018 -25.490  0.00  0.00     0.210 HD
ENDBRANCH 102 113
BRANCH 104 115
ATOM    115  O1  GLC d   1      -2.089 -15.408 -27.518  0.00  0.00    -0.369 OA
ATOM    116  H61 GLC d   1      -2.780 -15.025 -26.991  0.00  0.00     0.212 HD
ENDBRANCH 104 115
BRANCH 108 117
ATOM    117  C6  GLC d   1       0.988 -17.795 -28.872  0.00  0.00     0.043 C 
ATOM    118  H59 GLC d   1       0.677 -17.584 -29.906  0.00  0.00     0.078 H 
ATOM    119  H60 GLC d   1       1.071 -18.883 -28.729  0.00  0.00     0.078 H 
BRANCH 117 120
ATOM    120  O6  GLC d   1       2.251 -17.193 -28.630  0.00  0.00    -0.398 OA
ATOM    121  H64 GLC d   1       2.522 -17.376 -27.738  0.00  0.00     0.209 HD
ENDBRANCH 117 120
ENDBRANCH 108 117
ENDBRANCH  99 100
ENDBRANCH  88  99
BRANCH  92 122
ATOM    122  C6  GLC d   1       4.850 -18.428 -26.996  0.00  0.00     0.043 C 
ATOM    123  H49 GLC d   1       5.495 -17.597 -26.674  0.00  0.00     0.078 H 
ATOM    124  H50 GLC d   1       4.363 -18.167 -27.947  0.00  0.00     0.078 H 
BRANCH 122 125
ATOM    125  O6  GLC d   1       5.630 -19.574 -27.176  0.00  0.00    -0.398 OA
ATOM    126  H53 GLC d   1       6.290 -19.406 -27.838  0.00  0.00     0.209 HD
ENDBRANCH 122 125
ENDBRANCH  92 122
ENDBRANCH  83  84
ENDBRANCH  72  83
BRANCH  76 127
ATOM    127  C6A G6D d   1       8.665 -16.343 -24.637  0.00  0.00    -0.050 C 
ATOM    128  H41 GLC d   1       8.136 -16.178 -25.587  0.00  0.00     0.031 H 
ATOM    129  H42 GLC d   1       9.641 -16.808 -24.837  0.00  0.00     0.031 H 
ATOM    130  H43 GLC d   1       8.815 -15.379 -24.129  0.00  0.00     0.031 H 
ENDBRANCH  76 127
ENDBRANCH   3  68
TORSDOF 35
