REMARK  4 active torsions:
REMARK  status: ('A' for Active; 'I' for Inactive)
REMARK    1  A    between atoms: C1_1  and  C2_4 
REMARK    2  A    between atoms: C2_4  and  C3_6 
REMARK    3  A    between atoms: C3_6  and  C4_7 
REMARK    4  A    between atoms: C4_7  and  C5_8 
ROOT
ATOM      1  C3  AKG d   1      14.263  26.481  -3.484  0.00  0.00     0.010 C 
ATOM      2  H1  AKG d   1      15.273  26.917  -3.499  0.00  0.00     0.045 H 
ATOM      3  H2  AKG d   1      14.262  25.579  -2.855  0.00  0.00     0.045 H 
ENDROOT
BRANCH   1   4
ATOM      4  C2  AKG d   1      13.849  26.112  -4.899  0.00  0.00     0.225 C 
ATOM      5  O5  AKG d   1      13.197  26.910  -5.559  0.00  0.00    -0.286 OA
BRANCH   4   6
ATOM      6  C1  AKG d   1      14.212  24.798  -5.466  0.00  0.00     0.246 C 
ATOM      7  O1  AKG d   1      13.639  24.369  -6.514  0.00  0.00    -0.642 OA
ATOM      8  O2  AKG d   1      15.090  24.121  -4.887  0.00  0.00    -0.642 OA
ENDBRANCH   4   6
ENDBRANCH   1   4
BRANCH   1   9
ATOM      9  C4  AKG d   1      13.277  27.500  -2.914  0.00  0.00     0.022 C 
ATOM     10  H3  AKG d   1      12.269  27.060  -2.924  0.00  0.00     0.049 H 
ATOM     11  H4  AKG d   1      13.291  28.399  -3.548  0.00  0.00     0.049 H 
BRANCH   9  12
ATOM     12  C5  AKG d   1      13.619  27.900  -1.497  0.00  0.00     0.172 C 
ATOM     13  O3  AKG d   1      14.411  27.200  -0.828  0.00  0.00    -0.648 OA
ATOM     14  O4  AKG d   1      13.082  28.931  -1.038  0.00  0.00    -0.648 OA
ENDBRANCH   9  12
ENDBRANCH   1   9
TORSDOF 4
