REMARK  13 active torsions:
REMARK  status: ('A' for Active; 'I' for Inactive)
REMARK    1  A    between atoms: C_1  and  CH3_3 
REMARK    2  A    between atoms: CA_5  and  N_4 
REMARK    3  A    between atoms: C_6  and  CA_5 
REMARK    4  A    between atoms: CA_5  and  CB_8 
REMARK       I    between atoms: N_27  and  C_6 
REMARK    5  A    between atoms: CB_8  and  CG_9 
REMARK    6  A    between atoms: CZ_14  and  OH_15 
REMARK    7  A    between atoms: OH_15  and  P_16 
REMARK    8  A    between atoms: CA_29  and  N_27 
REMARK    9  A    between atoms: C_28  and  CA_29 
REMARK       I    between atoms: C_28  and  N_30 
REMARK   10  A    between atoms: N_30  and  CA_31 
REMARK   11  A    between atoms: CA_31  and  C_32 
REMARK   12  A    between atoms: CA_31  and  CB_34 
REMARK       I    between atoms: C_32  and  N_38 
REMARK   13  A    between atoms: CB_34  and  CG_35 
REMARK       I    between atoms: CG_35  and  ND2_37 
ROOT
ATOM      1  CAO 03E d   1      -8.211   3.442  -3.248  0.00  0.00    -0.065 C 
ATOM      2  CAP 03E d   1      -7.392   3.414  -1.887  0.00  0.00    -0.065 C 
ATOM      3  CAQ 03E d   1      -9.092   4.673  -3.354  0.00  0.00    -0.062 C 
ATOM      4  CAR 03E d   1      -6.418   4.552  -1.596  0.00  0.00    -0.062 C 
ATOM      5  CAS 03E d   1      -8.403   5.929  -3.925  0.00  0.00    -0.033 C 
ATOM      6  CAT 03E d   1      -6.169   5.618  -2.691  0.00  0.00    -0.033 C 
ATOM      7  CA  03E d   1      -7.325   6.589  -3.047  0.00  0.00     0.114 C 
ATOM      8  H12 03E d   1      -8.846   2.545  -3.299  0.00  0.00     0.033 H 
ATOM      9  H13 03E d   1      -7.503   3.438  -4.089  0.00  0.00     0.033 H 
ATOM     10  H14 03E d   1      -6.811   2.480  -1.877  0.00  0.00     0.033 H 
ATOM     11  H15 03E d   1      -8.126   3.398  -1.068  0.00  0.00     0.033 H 
ATOM     12  H16 03E d   1      -9.460   4.916  -2.346  0.00  0.00     0.033 H 
ATOM     13  H17 03E d   1      -9.943   4.427  -4.005  0.00  0.00     0.033 H 
ATOM     14  H18 03E d   1      -5.445   4.094  -1.364  0.00  0.00     0.033 H 
ATOM     15  H19 03E d   1      -6.795   5.082  -0.709  0.00  0.00     0.033 H 
ATOM     16  H20 03E d   1      -9.184   6.680  -4.114  0.00  0.00     0.037 H 
ATOM     17  H21 03E d   1      -7.929   5.645  -4.876  0.00  0.00     0.037 H 
ATOM     18  H22 03E d   1      -5.899   5.082  -3.612  0.00  0.00     0.037 H 
ATOM     19  H23 03E d   1      -5.318   6.232  -2.361  0.00  0.00     0.037 H 
ENDROOT
BRANCH   7  20
ATOM     20  N   03E d   1      -7.935   7.136  -1.833  0.00  0.00    -0.341 N 
ATOM     21  C   PTR d   1      -7.232   7.788  -0.892  0.00  0.00     0.241 C 
ATOM     22  O   PTR d   1      -6.044   8.095  -0.958  0.00  0.00    -0.271 OA
ATOM     23  H24 03E d   1      -8.919   7.019  -1.698  0.00  0.00     0.163 HD
BRANCH  21  24
ATOM     24  CA  PTR d   1      -8.006   8.167   0.351  0.00  0.00     0.092 C 
ATOM     25  H5  PTR d   1      -8.919   7.559   0.438  0.00  0.00     0.088 H 
BRANCH  24  26
ATOM     26  N   PTR d   1      -7.120   7.936   1.526  0.00  0.00    -0.359 N 
ATOM     27  C   ACT d   1      -7.582   7.145   2.538  0.00  0.00     0.148 C 
ATOM     28  O   ACT d   1      -8.773   6.560   2.577  0.00  0.00    -0.178 OA
ATOM     29  H4  PTR d   1      -6.211   8.350   1.572  0.00  0.00     0.162 HD
BRANCH  27  30
ATOM     30  CH3 ACT d   1      -6.772   7.005   3.688  0.00  0.00    -0.015 C 
ATOM     31  H1  ACT d   1      -5.819   7.531   3.531  0.00  0.00     0.038 H 
ATOM     32  H2  ACT d   1      -6.577   5.938   3.871  0.00  0.00     0.038 H 
ATOM     33  H3  ACT d   1      -7.290   7.437   4.556  0.00  0.00     0.038 H 
ENDBRANCH  27  30
ENDBRANCH  24  26
BRANCH  24  34
ATOM     34  CB  PTR d   1      -8.370   9.655   0.257  0.00  0.00    -0.014 C 
ATOM     35  H6  PTR d   1      -9.015   9.828  -0.617  0.00  0.00     0.043 H 
ATOM     36  H7  PTR d   1      -7.455  10.259   0.163  0.00  0.00     0.043 H 
BRANCH  34  37
ATOM     37  CG  PTR d   1      -9.121  10.039   1.546  0.00  0.00    -0.056 A 
ATOM     38  CD1 PTR d   1     -10.519   9.900   1.664  0.00  0.00    -0.074 A 
ATOM     39  CE1 PTR d   1     -11.198  10.202   2.870  0.00  0.00    -0.050 A 
ATOM     40  H8  PTR d   1     -11.089   9.553   0.810  0.00  0.00     0.084 H 
ATOM     41  CZ  PTR d   1     -10.419  10.681   3.939  0.00  0.00     0.082 A 
ATOM     42  H10 PTR d   1     -12.270  10.070   2.965  0.00  0.00     0.087 H 
ATOM     43  CE2 PTR d   1      -9.039  10.776   3.794  0.00  0.00    -0.050 A 
ATOM     44  CD2 PTR d   1      -8.364  10.492   2.600  0.00  0.00    -0.074 A 
ATOM     45  H11 PTR d   1      -8.454  11.087   4.652  0.00  0.00     0.087 H 
ATOM     46  H9  PTR d   1      -7.292  10.624   2.511  0.00  0.00     0.084 H 
BRANCH  41  47
ATOM     47  OH  PTR d   1     -10.874  11.027   5.218  0.00  0.00    -0.240 OA
BRANCH  47  48
ATOM     48  P   PTR d   1     -12.352  10.682   5.698  0.00  0.00     0.427 P 
ATOM     49  O1P PTR d   1     -13.312  11.754   5.128  0.00  0.00    -0.617 OA
ATOM     50  O2P PTR d   1     -12.670   9.238   5.367  0.00  0.00    -0.617 OA
ATOM     51  O3P PTR d   1     -12.260  10.872   7.254  0.00  0.00    -0.617 OA
ENDBRANCH  47  48
ENDBRANCH  41  47
ENDBRANCH  34  37
ENDBRANCH  24  34
ENDBRANCH  21  24
ENDBRANCH   7  20
BRANCH   7  52
ATOM     52  C   03E d   1      -6.709   7.691  -3.871  0.00  0.00     0.246 C 
ATOM     53  O   03E d   1      -5.703   7.487  -4.635  0.00  0.00    -0.271 OA
ATOM     54  N   ASN d   1      -7.401   8.836  -3.831  0.00  0.00    -0.345 N 
ATOM     55  H25 ASN d   1      -8.231   8.881  -3.275  0.00  0.00     0.163 HD
BRANCH  54  56
ATOM     56  CA  ASN d   1      -6.986  10.011  -4.567  0.00  0.00     0.097 C 
ATOM     57  H26 ASN d   1      -6.263   9.684  -5.328  0.00  0.00     0.088 H 
BRANCH  56  58
ATOM     58  C   ASN d   1      -6.266  11.009  -3.672  0.00  0.00     0.238 C 
ATOM     59  O   ASN d   1      -6.195  12.167  -4.075  0.00  0.00    -0.271 OA
ATOM     60  N   NH2 d   1      -5.732  10.594  -2.483  0.00  0.00    -0.368 N 
ATOM     61  H31 NH2 d   1      -5.258  11.247  -1.893  0.00  0.00     0.159 HD
ATOM     62  H32 NH2 d   1      -5.815   9.637  -2.204  0.00  0.00     0.159 HD
ENDBRANCH  56  58
BRANCH  56  63
ATOM     63  CB  ASN d   1      -8.200  10.641  -5.325  0.00  0.00     0.036 C 
ATOM     64  H27 ASN d   1      -8.695   9.854  -5.913  0.00  0.00     0.051 H 
ATOM     65  H28 ASN d   1      -7.825  11.424  -6.001  0.00  0.00     0.051 H 
BRANCH  63  66
ATOM     66  CG  ASN d   1      -9.247  11.275  -4.360  0.00  0.00     0.217 C 
ATOM     67  OD1 ASN d   1      -9.313  10.865  -3.178  0.00  0.00    -0.274 OA
ATOM     68  ND2 ASN d   1     -10.014  12.197  -4.887  0.00  0.00    -0.370 N 
ATOM     69  H29 ASN d   1     -10.709  12.649  -4.328  0.00  0.00     0.159 HD
ATOM     70  H30 ASN d   1      -9.904  12.449  -5.848  0.00  0.00     0.159 HD
ENDBRANCH  63  66
ENDBRANCH  56  63
ENDBRANCH  54  56
ENDBRANCH   7  52
TORSDOF 13
