REMARK  3 active torsions:
REMARK  status: ('A' for Active; 'I' for Inactive)
REMARK    1  A    between atoms: C2_2  and  N12_12 
REMARK    2  A    between atoms: N3_3  and  C11_11 
REMARK    3  A    between atoms: C5_5  and  C6_6 
ROOT
ATOM      1  C1  MPV d   1      24.299   7.514  11.056  0.00  0.00    -0.009 A 
ATOM      2  C2  MPV d   1      25.481   8.005  10.535  0.00  0.00     0.119 A 
ATOM      3  N3  MPV d   1      25.310   8.962   9.630  0.00  0.00    -0.258 N 
ATOM      4  N4  MPV d   1      23.923   9.138   9.476  0.00  0.00    -0.170 NA
ATOM      5  C5  MPV d   1      23.384   8.272  10.359  0.00  0.00     0.098 A 
ATOM      6  H1  MPV d   1      24.136   6.743  11.808  0.00  0.00     0.093 H 
ENDROOT
BRANCH   5   7
ATOM      7  C6  MPV d   1      21.911   8.113  10.497  0.00  0.00     0.035 A 
ATOM      8  S7  MPV d   1      20.811   8.687   9.316  0.00  0.00    -0.100 SA
ATOM      9  C8  MPV d   1      19.477   8.093  10.220  0.00  0.00    -0.044 A 
ATOM     10  C9  MPV d   1      19.898   7.450  11.375  0.00  0.00    -0.075 A 
ATOM     11  H2  MPV d   1      18.435   8.207   9.925  0.00  0.00     0.095 H 
ATOM     12  C10 MPV d   1      21.289   7.459  11.542  0.00  0.00    -0.064 A 
ATOM     13  H3  MPV d   1      19.214   6.984  12.083  0.00  0.00     0.084 H 
ATOM     14  H4  MPV d   1      21.811   7.009  12.385  0.00  0.00     0.085 H 
ENDBRANCH   5   7
BRANCH   2  15
ATOM     15  N12 MPV d   1      26.708   7.592  10.921  0.00  0.00    -0.384 N 
ATOM     16  H8  MPV d   1      26.802   6.847  11.626  0.00  0.00     0.157 HD
ATOM     17  H9  MPV d   1      27.549   8.022  10.511  0.00  0.00     0.157 HD
ENDBRANCH   2  15
BRANCH   3  18
ATOM     18  C11 MPV d   1      26.220   9.812   8.803  0.00  0.00     0.004 C 
ATOM     19  H5  MPV d   1      25.621  10.487   8.175  0.00  0.00     0.059 H 
ATOM     20  H6  MPV d   1      26.840   9.169   8.162  0.00  0.00     0.059 H 
ATOM     21  H7  MPV d   1      26.869  10.405   9.464  0.00  0.00     0.059 H 
ENDBRANCH   3  18
TORSDOF 3
