REMARK  17 active torsions:
REMARK  status: ('A' for Active; 'I' for Inactive)
REMARK    1  A    between atoms: C2_2  and  C3_3 
REMARK    2  A    between atoms: C3_3  and  C4_4 
REMARK    3  A    between atoms: C3_3  and  O8_8 
REMARK    4  A    between atoms: C4_4  and  C5_5 
REMARK    5  A    between atoms: C5_5  and  C6_6 
REMARK    6  A    between atoms: C5_5  and  C9_9 
REMARK       I    between atoms: C6_6  and  N18_18 
REMARK    7  A    between atoms: C9_9  and  C10_10 
REMARK    8  A    between atoms: C9_9  and  C11_11 
REMARK    9  A    between atoms: C14_14  and  C15_15 
REMARK   10  A    between atoms: N18_18  and  C14_14 
REMARK   11  A    between atoms: C15_15  and  C16_16 
REMARK   12  A    between atoms: C15_15  and  C17_17 
REMARK   13  A    between atoms: C21_21  and  N27_27 
REMARK   14  A    between atoms: N27_27  and  C28_28 
REMARK   15  A    between atoms: N27_27  and  S29_29 
REMARK   16  A    between atoms: S29_29  and  C30_30 
REMARK   17  A    between atoms: C36_36  and  C44_44 
ROOT
ATOM      1  N1  3OX d   1      -9.939 -27.878 -36.241  0.00  0.00    -0.348 N 
ATOM      2  C2  3OX d   1     -10.556 -28.391 -37.462  0.00  0.00     0.058 C 
ATOM      3  C7  3OX d   1     -11.164 -27.152 -38.174  0.00  0.00     0.041 C 
ATOM      4  O13 3OX d   1     -12.027 -26.402 -37.328  0.00  0.00    -0.385 OA
ATOM      5  C19 3OX d   1      -9.531 -27.695 -33.901  0.00  0.00     0.035 A 
ATOM      6  C20 3OX d   1      -8.690 -28.197 -32.914  0.00  0.00    -0.041 A 
ATOM      7  C21 3OX d   1      -8.263 -27.339 -31.886  0.00  0.00     0.046 A 
ATOM      8  C22 3OX d   1      -8.682 -26.007 -31.833  0.00  0.00    -0.041 A 
ATOM      9  C23 3OX d   1      -9.571 -25.525 -32.784  0.00  0.00     0.035 A 
ATOM     10  C24 3OX d   1      -9.988 -26.380 -33.801  0.00  0.00    -0.052 A 
ATOM     11  C25 3OX d   1     -10.102 -28.456 -35.044  0.00  0.00     0.252 C 
ATOM     12  C26 3OX d   1     -10.052 -24.099 -32.806  0.00  0.00     0.252 C 
ATOM     13  O31 3OX d   1      -9.305 -23.168 -32.588  0.00  0.00    -0.268 OA
ATOM     14  O32 3OX d   1     -10.739 -29.499 -34.856  0.00  0.00    -0.268 OA
ATOM     15  N35 3OX d   1     -11.325 -23.947 -33.081  0.00  0.00    -0.344 N 
ATOM     16  C36 3OX d   1     -12.191 -22.820 -33.385  0.00  0.00     0.063 C 
ATOM     17  C37 3OX d   1     -13.036 -23.242 -34.525  0.00  0.00    -0.030 A 
ATOM     18  C38 3OX d   1     -13.062 -24.378 -36.664  0.00  0.00    -0.034 A 
ATOM     19  C39 3OX d   1     -14.463 -24.255 -36.668  0.00  0.00    -0.075 A 
ATOM     20  C40 3OX d   1     -15.142 -23.662 -35.599  0.00  0.00    -0.082 A 
ATOM     21  C41 3OX d   1     -14.423 -23.170 -34.506  0.00  0.00    -0.074 A 
ATOM     22  C42 3OX d   1     -12.353 -23.887 -35.565  0.00  0.00    -0.066 A 
ATOM     23  C43 3OX d   1     -12.377 -25.082 -37.813  0.00  0.00     0.043 C 
ATOM     24  H1  3OX d   1      -9.369 -27.058 -36.302  0.00  0.00     0.163 HD
ATOM     25  H2  3OX d   1     -11.372 -29.073 -37.180  0.00  0.00     0.079 H 
ATOM     26  H7  3OX d   1     -11.738 -27.494 -39.048  0.00  0.00     0.077 H 
ATOM     27  H8  3OX d   1     -10.344 -26.500 -38.507  0.00  0.00     0.077 H 
ATOM     28  H27 3OX d   1      -8.369 -29.232 -32.937  0.00  0.00     0.088 H 
ATOM     29  H28 3OX d   1      -8.314 -25.352 -31.052  0.00  0.00     0.088 H 
ATOM     30  H29 3OX d   1     -10.691 -26.012 -34.540  0.00  0.00     0.086 H 
ATOM     31  H36 3OX d   1     -11.819 -24.816 -33.082  0.00  0.00     0.163 HD
ATOM     32  H37 3OX d   1     -11.559 -21.984 -33.719  0.00  0.00     0.088 H 
ATOM     33  H38 3OX d   1     -15.027 -24.627 -37.516  0.00  0.00     0.084 H 
ATOM     34  H39 3OX d   1     -16.223 -23.584 -35.618  0.00  0.00     0.083 H 
ATOM     35  H40 3OX d   1     -14.940 -22.739 -33.656  0.00  0.00     0.084 H 
ATOM     36  H41 3OX d   1     -11.277 -24.005 -35.517  0.00  0.00     0.085 H 
ATOM     37  H42 3OX d   1     -13.059 -25.160 -38.673  0.00  0.00     0.081 H 
ATOM     38  H43 3OX d   1     -11.472 -24.533 -38.111  0.00  0.00     0.081 H 
ENDROOT
BRANCH   2  39
ATOM     39  C3  3OX d   1      -9.602 -29.180 -38.360  0.00  0.00     0.058 C 
ATOM     40  H3  3OX d   1     -10.144 -29.477 -39.270  0.00  0.00     0.086 H 
BRANCH  39  41
ATOM     41  C4  3OX d   1      -9.140 -30.454 -37.614  0.00  0.00    -0.027 C 
ATOM     42  H4  3OX d   1      -9.975 -30.805 -36.990  0.00  0.00     0.038 H 
ATOM     43  H5  3OX d   1      -8.290 -30.182 -36.971  0.00  0.00     0.038 H 
BRANCH  41  44
ATOM     44  C5  3OX d   1      -8.702 -31.613 -38.513  0.00  0.00     0.029 C 
ATOM     45  H6  3OX d   1      -8.186 -31.220 -39.401  0.00  0.00     0.055 H 
BRANCH  44  46
ATOM     46  C6  3OX d   1      -9.972 -32.306 -38.935  0.00  0.00     0.222 C 
ATOM     47  O12 3OX d   1     -10.713 -32.753 -38.079  0.00  0.00    -0.273 OA
ATOM     48  N18 3OX d   1     -10.246 -32.399 -40.231  0.00  0.00    -0.360 N 
ATOM     49  H26 3OX d   1      -9.582 -32.004 -40.865  0.00  0.00     0.162 HD
BRANCH  48  50
ATOM     50  C14 3OX d   1     -11.435 -33.029 -40.817  0.00  0.00    -0.002 C 
ATOM     51  H17 3OX d   1     -12.145 -33.275 -40.013  0.00  0.00     0.064 H 
ATOM     52  H18 3OX d   1     -11.905 -32.325 -41.519  0.00  0.00     0.064 H 
BRANCH  50  53
ATOM     53  C15 3OX d   1     -11.068 -34.303 -41.562  0.00  0.00    -0.046 C 
ATOM     54  H19 3OX d   1     -10.654 -35.026 -40.843  0.00  0.00     0.041 H 
BRANCH  53  55
ATOM     55  C16 3OX d   1     -12.372 -34.865 -42.145  0.00  0.00    -0.072 C 
ATOM     56  H20 3OX d   1     -12.157 -35.792 -42.696  0.00  0.00     0.028 H 
ATOM     57  H21 3OX d   1     -12.816 -34.127 -42.828  0.00  0.00     0.028 H 
ATOM     58  H22 3OX d   1     -13.077 -35.079 -41.328  0.00  0.00     0.028 H 
ENDBRANCH  53  55
BRANCH  53  59
ATOM     59  C17 3OX d   1     -10.021 -34.077 -42.656  0.00  0.00    -0.072 C 
ATOM     60  H23 3OX d   1      -9.101 -33.675 -42.206  0.00  0.00     0.028 H 
ATOM     61  H24 3OX d   1     -10.411 -33.361 -43.395  0.00  0.00     0.028 H 
ATOM     62  H25 3OX d   1      -9.798 -35.032 -43.154  0.00  0.00     0.028 H 
ENDBRANCH  53  59
ENDBRANCH  50  53
ENDBRANCH  48  50
ENDBRANCH  44  46
BRANCH  44  63
ATOM     63  C9  3OX d   1      -7.737 -32.563 -37.766  0.00  0.00    -0.049 C 
ATOM     64  H10 3OX d   1      -8.232 -32.867 -36.832  0.00  0.00     0.040 H 
BRANCH  63  65
ATOM     65  C10 3OX d   1      -6.413 -31.891 -37.387  0.00  0.00    -0.072 C 
ATOM     66  H11 3OX d   1      -5.772 -32.614 -36.861  0.00  0.00     0.028 H 
ATOM     67  H12 3OX d   1      -6.613 -31.032 -36.730  0.00  0.00     0.028 H 
ATOM     68  H13 3OX d   1      -5.903 -31.545 -38.298  0.00  0.00     0.028 H 
ENDBRANCH  63  65
BRANCH  63  69
ATOM     69  C11 3OX d   1      -7.472 -33.828 -38.593  0.00  0.00    -0.072 C 
ATOM     70  H14 3OX d   1      -8.430 -34.300 -38.858  0.00  0.00     0.028 H 
ATOM     71  H15 3OX d   1      -6.867 -34.532 -38.003  0.00  0.00     0.028 H 
ATOM     72  H16 3OX d   1      -6.929 -33.559 -39.511  0.00  0.00     0.028 H 
ENDBRANCH  63  69
ENDBRANCH  44  63
ENDBRANCH  41  44
ENDBRANCH  39  41
BRANCH  39  73
ATOM     73  O8  3OX d   1      -8.464 -28.401 -38.747  0.00  0.00    -0.393 OA
ATOM     74  H9  3OX d   1      -8.756 -27.621 -39.204  0.00  0.00     0.210 HD
ENDBRANCH  39  73
ENDBRANCH   2  39
BRANCH   7  75
ATOM     75  N27 3OX d   1      -7.344 -27.843 -30.930  0.00  0.00    -0.281 N 
BRANCH  75  76
ATOM     76  C28 3OX d   1      -7.820 -28.943 -30.086  0.00  0.00    -0.004 C 
ATOM     77  H30 3OX d   1      -8.897 -29.093 -30.252  0.00  0.00     0.058 H 
ATOM     78  H31 3OX d   1      -7.643 -28.697 -29.029  0.00  0.00     0.058 H 
ATOM     79  H32 3OX d   1      -7.277 -29.864 -30.344  0.00  0.00     0.058 H 
ENDBRANCH  75  76
BRANCH  75  80
ATOM     80  S29 3OX d   1      -5.870 -27.368 -30.942  0.00  0.00     0.228 S 
ATOM     81  O33 3OX d   1      -5.138 -28.171 -31.931  0.00  0.00    -0.206 OA
ATOM     82  O34 3OX d   1      -5.246 -27.551 -29.656  0.00  0.00    -0.206 OA
BRANCH  80  83
ATOM     83  C30 3OX d   1      -5.779 -25.837 -31.416  0.00  0.00     0.033 C 
ATOM     84  H33 3OX d   1      -4.727 -25.516 -31.419  0.00  0.00     0.051 H 
ATOM     85  H34 3OX d   1      -6.354 -25.204 -30.724  0.00  0.00     0.051 H 
ATOM     86  H35 3OX d   1      -6.194 -25.742 -32.430  0.00  0.00     0.051 H 
ENDBRANCH  80  83
ENDBRANCH  75  80
ENDBRANCH   7  75
BRANCH  16  87
ATOM     87  C44 3OX d   1     -12.973 -22.323 -32.203  0.00  0.00    -0.031 A 
ATOM     88  C45 3OX d   1     -13.427 -23.185 -31.193  0.00  0.00    -0.074 A 
ATOM     89  C46 3OX d   1     -14.128 -22.698 -30.094  0.00  0.00    -0.082 A 
ATOM     90  H44 3OX d   1     -13.228 -24.248 -31.270  0.00  0.00     0.084 H 
ATOM     91  C47 3OX d   1     -14.377 -21.324 -29.994  0.00  0.00    -0.083 A 
ATOM     92  H45 3OX d   1     -14.478 -23.375 -29.323  0.00  0.00     0.083 H 
ATOM     93  C48 3OX d   1     -13.918 -20.461 -30.981  0.00  0.00    -0.082 A 
ATOM     94  H46 3OX d   1     -14.928 -20.933 -29.146  0.00  0.00     0.083 H 
ATOM     95  C49 3OX d   1     -13.220 -20.951 -32.081  0.00  0.00    -0.074 A 
ATOM     96  H47 3OX d   1     -14.105 -19.397 -30.894  0.00  0.00     0.083 H 
ATOM     97  H48 3OX d   1     -12.867 -20.268 -32.845  0.00  0.00     0.084 H 
ENDBRANCH  16  87
TORSDOF 17
