REMARK  11 active torsions:
REMARK  status: ('A' for Active; 'I' for Inactive)
REMARK    1  A    between atoms: CAM_13  and  CAA_1 
REMARK    2  A    between atoms: CAT_20  and  CAB_2 
REMARK    3  A    between atoms: CAT_20  and  CAC_3 
REMARK    4  A    between atoms: CAT_20  and  CAD_4 
REMARK    5  A    between atoms: SAU_21  and  NAE_5 
REMARK    6  A    between atoms: CAN_14  and  CAM_13 
REMARK    7  A    between atoms: CAS_19  and  CAN_14 
REMARK       I    between atoms: CAP_16  and  NAO_15 
REMARK    8  A    between atoms: NAO_15  and  CAQ_17 
REMARK    9  A    between atoms: CAS_19  and  CAP_16 
REMARK   10  A    between atoms: CAR_18  and  SAU_21 
REMARK   11  A    between atoms: CAS_19  and  CAT_20 
ROOT
ATOM      1  CAS OY0 d   1      -2.656   7.423  12.132  0.00  0.00     0.030 C 
ATOM      2  H24 OY0 d   1      -3.239   8.350  12.027  0.00  0.00     0.055 H 
ENDROOT
BRANCH   1   3
ATOM      3  CAN OY0 d   1      -1.435   7.754  12.918  0.00  0.00    -0.053 C 
ATOM      4  H21 OY0 d   1      -0.772   6.877  12.886  0.00  0.00     0.034 H 
ATOM      5  H22 OY0 d   1      -0.943   8.604  12.424  0.00  0.00     0.034 H 
BRANCH   3   6
ATOM      6  CAM OY0 d   1      -1.630   8.119  14.354  0.00  0.00    -0.068 C 
ATOM      7  H19 OY0 d   1      -2.676   8.436  14.478  0.00  0.00     0.032 H 
ATOM      8  H20 OY0 d   1      -1.447   7.216  14.955  0.00  0.00     0.032 H 
BRANCH   6   9
ATOM      9  CAA OY0 d   1      -0.763   9.203  14.893  0.00  0.00    -0.076 C 
ATOM     10  H1  OY0 d   1      -1.005   9.373  15.952  0.00  0.00     0.027 H 
ATOM     11  H2  OY0 d   1      -0.936  10.128  14.324  0.00  0.00     0.027 H 
ATOM     12  H3  OY0 d   1       0.293   8.908  14.801  0.00  0.00     0.027 H 
ENDBRANCH   6   9
ENDBRANCH   3   6
ENDBRANCH   1   3
BRANCH   1  13
ATOM     13  CAP OY0 d   1      -3.491   6.463  12.935  0.00  0.00     0.227 C 
ATOM     14  OAF OY0 d   1      -4.684   6.693  13.019  0.00  0.00    -0.273 OA
ATOM     15  NAO OY0 d   1      -2.938   5.307  13.604  0.00  0.00    -0.327 N 
ATOM     16  H23 OY0 d   1      -1.952   5.149  13.549  0.00  0.00     0.169 HD
BRANCH  15  17
ATOM     17  CAQ OY0 d   1      -3.753   4.363  14.354  0.00  0.00     0.034 A 
ATOM     18  CAI OY0 d   1      -3.091   3.255  14.858  0.00  0.00    -0.056 A 
ATOM     19  CAK OY0 d   1      -3.751   2.280  15.599  0.00  0.00    -0.058 A 
ATOM     20  H15 OY0 d   1      -2.029   3.145  14.670  0.00  0.00     0.087 H 
ATOM     21  CAR OY0 d   1      -5.115   2.341  15.807  0.00  0.00     0.079 A 
ATOM     22  H17 OY0 d   1      -3.184   1.458  16.021  0.00  0.00     0.086 H 
ATOM     23  CAL OY0 d   1      -5.818   3.447  15.274  0.00  0.00    -0.058 A 
ATOM     24  CAJ OY0 d   1      -5.138   4.449  14.558  0.00  0.00    -0.056 A 
ATOM     25  H18 OY0 d   1      -6.890   3.523  15.418  0.00  0.00     0.086 H 
ATOM     26  H16 OY0 d   1      -5.689   5.294  14.161  0.00  0.00     0.087 H 
BRANCH  21  27
ATOM     27  SAU OY0 d   1      -5.858   1.013  16.743  0.00  0.00     0.256 S 
ATOM     28  OAG OY0 d   1      -7.316   1.206  16.632  0.00  0.00    -0.201 OA
ATOM     29  OAH OY0 d   1      -5.382   1.219  18.121  0.00  0.00    -0.201 OA
BRANCH  27  30
ATOM     30  NAE OY0 d   1      -5.337  -0.429  16.128  0.00  0.00    -0.324 N 
ATOM     31  H13 OY0 d   1      -5.589  -0.696  15.198  0.00  0.00     0.169 HD
ATOM     32  H14 OY0 d   1      -4.770  -1.035  16.686  0.00  0.00     0.169 HD
ENDBRANCH  27  30
ENDBRANCH  21  27
ENDBRANCH  15  17
ENDBRANCH   1  13
BRANCH   1  33
ATOM     33  CAT OY0 d   1      -2.354   6.951  10.723  0.00  0.00    -0.039 C 
BRANCH  33  34
ATOM     34  CAB OY0 d   1      -0.966   6.422  10.607  0.00  0.00    -0.069 C 
ATOM     35  H4  OY0 d   1      -0.785   6.090   9.574  0.00  0.00     0.028 H 
ATOM     36  H5  OY0 d   1      -0.839   5.571  11.293  0.00  0.00     0.028 H 
ATOM     37  H6  OY0 d   1      -0.249   7.214  10.869  0.00  0.00     0.028 H 
ENDBRANCH  33  34
BRANCH  33  38
ATOM     38  CAC OY0 d   1      -2.471   8.106   9.782  0.00  0.00    -0.069 C 
ATOM     39  H7  OY0 d   1      -3.487   8.525   9.840  0.00  0.00     0.028 H 
ATOM     40  H8  OY0 d   1      -2.273   7.764   8.755  0.00  0.00     0.028 H 
ATOM     41  H9  OY0 d   1      -1.739   8.880  10.058  0.00  0.00     0.028 H 
ENDBRANCH  33  38
BRANCH  33  42
ATOM     42  CAD OY0 d   1      -3.333   5.895  10.297  0.00  0.00    -0.069 C 
ATOM     43  H10 OY0 d   1      -3.263   5.034  10.978  0.00  0.00     0.028 H 
ATOM     44  H11 OY0 d   1      -3.100   5.571   9.272  0.00  0.00     0.028 H 
ATOM     45  H12 OY0 d   1      -4.353   6.306  10.329  0.00  0.00     0.028 H 
ENDBRANCH  33  42
ENDBRANCH   1  33
TORSDOF 11
