REMARK  16 active torsions:
REMARK  status: ('A' for Active; 'I' for Inactive)
REMARK    1  A    between atoms: O4_22  and  C1_1 
REMARK    2  A    between atoms: C2_2  and  O2_7 
REMARK    3  A    between atoms: C3_3  and  O3_8 
REMARK    4  A    between atoms: C4_4  and  O4_9 
REMARK    5  A    between atoms: C5_5  and  C6_6 
REMARK    6  A    between atoms: C6_6  and  O6_11 
REMARK    7  A    between atoms: C2_13  and  C1_12 
REMARK    8  A    between atoms: C3_14  and  C2_13 
REMARK    9  A    between atoms: C2_13  and  O2_20 
REMARK   10  A    between atoms: C4_15  and  C3_14 
REMARK   11  A    between atoms: C3_14  and  O3_21 
REMARK   12  A    between atoms: C4_15  and  C5_16 
REMARK   13  A    between atoms: C4_15  and  O4_22 
REMARK   14  A    between atoms: C5_16  and  C6_17 
REMARK   15  A    between atoms: C5_16  and  O5_23 
REMARK   16  A    between atoms: C6_17  and  O6_24 
ROOT
ATOM      1  O4  GCO d   1      23.934  -0.874  17.379  0.00  0.00    -0.348 OA
ENDROOT
BRANCH   1   2
ATOM      2  C1  GAL d   1      23.349   0.191  17.929  0.00  0.00     0.159 C 
ATOM      3  C2  GAL d   1      23.911   1.460  17.283  0.00  0.00     0.110 C 
ATOM      4  C3  GAL d   1      23.193   2.699  17.826  0.00  0.00     0.092 C 
ATOM      5  H2  GAL d   1      23.746   1.405  16.197  0.00  0.00     0.094 H 
ATOM      6  C4  GAL d   1      21.677   2.529  17.703  0.00  0.00     0.090 C 
ATOM      7  H3  GAL d   1      23.446   2.810  18.891  0.00  0.00     0.091 H 
ATOM      8  C5  GAL d   1      21.256   1.236  18.410  0.00  0.00     0.089 C 
ATOM      9  H4  GAL d   1      21.176   3.382  18.183  0.00  0.00     0.091 H 
ATOM     10  O5  GAL d   1      21.930   0.140  17.824  0.00  0.00    -0.348 OA
ATOM     11  H5  GAL d   1      21.543   1.308  19.470  0.00  0.00     0.090 H 
ATOM     12  H1  GAL d   1      23.604   0.207  18.999  0.00  0.00     0.133 H 
BRANCH   3  13
ATOM     13  O2  GAL d   1      25.296   1.557  17.526  0.00  0.00    -0.388 OA
ATOM     14  H8  GAL d   1      25.731   0.784  17.186  0.00  0.00     0.210 HD
ENDBRANCH   3  13
BRANCH   4  15
ATOM     15  O3  GAL d   1      23.620   3.857  17.144  0.00  0.00    -0.390 OA
ATOM     16  H9  GAL d   1      23.392   3.784  16.225  0.00  0.00     0.210 HD
ENDBRANCH   4  15
BRANCH   6  17
ATOM     17  O4  GAL d   1      21.308   2.486  16.334  0.00  0.00    -0.390 OA
ATOM     18  H10 GAL d   1      20.366   2.387  16.264  0.00  0.00     0.210 HD
ENDBRANCH   6  17
BRANCH   8  19
ATOM     19  C6  GAL d   1      19.753   1.005  18.331  0.00  0.00     0.043 C 
ATOM     20  H6  GAL d   1      19.447   0.943  17.276  0.00  0.00     0.078 H 
ATOM     21  H7  GAL d   1      19.228   1.841  18.817  0.00  0.00     0.078 H 
BRANCH  19  22
ATOM     22  O6  GAL d   1      19.427  -0.196  18.985  0.00  0.00    -0.398 OA
ATOM     23  H11 GAL d   1      19.881  -0.917  18.565  0.00  0.00     0.209 HD
ENDBRANCH  19  22
ENDBRANCH   8  19
ENDBRANCH   1   2
BRANCH   1  24
ATOM     24  C4  GCO d   1      23.988  -2.190  17.951  0.00  0.00     0.096 C 
ATOM     25  H14 GAL d   1      23.214  -2.256  18.730  0.00  0.00     0.091 H 
BRANCH  24  26
ATOM     26  C3  GCO d   1      23.663  -3.239  16.877  0.00  0.00     0.097 C 
ATOM     27  H13 GAL d   1      24.523  -3.299  16.194  0.00  0.00     0.091 H 
BRANCH  26  28
ATOM     28  C2  GCO d   1      23.432  -4.638  17.467  0.00  0.00     0.146 C 
ATOM     29  H12 GAL d   1      24.310  -4.916  18.069  0.00  0.00     0.104 H 
BRANCH  28  30
ATOM     30  C1  GCO d   1      23.252  -5.655  16.375  0.00  0.00     0.205 C 
ATOM     31  O11 GCO d   1      22.235  -6.381  16.410  0.00  0.00    -0.646 OA
ATOM     32  O12 GCO d   1      24.112  -5.740  15.468  0.00  0.00    -0.646 OA
ENDBRANCH  28  30
BRANCH  28  33
ATOM     33  O2  GCO d   1      22.274  -4.632  18.310  0.00  0.00    -0.382 OA
ATOM     34  H18 GAL d   1      21.514  -4.379  17.800  0.00  0.00     0.210 HD
ENDBRANCH  28  33
ENDBRANCH  26  28
BRANCH  26  35
ATOM     35  O3  GCO d   1      22.514  -2.833  16.123  0.00  0.00    -0.390 OA
ATOM     36  H19 GAL d   1      21.770  -2.743  16.706  0.00  0.00     0.210 HD
ENDBRANCH  26  35
ENDBRANCH  24  26
BRANCH  24  37
ATOM     37  C5  GCO d   1      25.348  -2.437  18.627  0.00  0.00     0.083 C 
ATOM     38  H15 GAL d   1      25.434  -3.516  18.824  0.00  0.00     0.090 H 
BRANCH  37  39
ATOM     39  C6  GCO d   1      26.543  -2.021  17.767  0.00  0.00     0.043 C 
ATOM     40  H16 GAL d   1      26.457  -0.955  17.509  0.00  0.00     0.078 H 
ATOM     41  H17 GAL d   1      26.560  -2.621  16.845  0.00  0.00     0.078 H 
BRANCH  39  42
ATOM     42  O6  GCO d   1      27.752  -2.240  18.504  0.00  0.00    -0.398 OA
ATOM     43  H21 GAL d   1      27.735  -1.721  19.300  0.00  0.00     0.209 HD
ENDBRANCH  39  42
ENDBRANCH  37  39
BRANCH  37  44
ATOM     44  O5  GCO d   1      25.396  -1.737  19.878  0.00  0.00    -0.391 OA
ATOM     45  H20 GAL d   1      26.203  -1.953  20.330  0.00  0.00     0.210 HD
ENDBRANCH  37  44
ENDBRANCH  24  37
ENDBRANCH   1  24
TORSDOF 16
