REMARK  9 active torsions:
REMARK  status: ('A' for Active; 'I' for Inactive)
REMARK    1  A    between atoms: CAK_11  and  CAA_1 
REMARK    2  A    between atoms: CAR_18  and  CAB_2 
REMARK    3  A    between atoms: SAS_19  and  NAC_3 
REMARK    4  A    between atoms: CAR_18  and  CAK_11 
REMARK    5  A    between atoms: CAL_12  and  CAM_13 
REMARK    6  A    between atoms: CAO_15  and  CAL_12 
REMARK    7  A    between atoms: CAM_13  and  CAR_18 
REMARK       I    between atoms: NAN_14  and  CAO_15 
REMARK    8  A    between atoms: CAP_16  and  NAN_14 
REMARK    9  A    between atoms: CAQ_17  and  SAS_19 
ROOT
ATOM      1  OAD OYQ d   1      -4.763   6.714  13.032  0.00  0.00    -0.273 OA
ATOM      2  NAN OYQ d   1      -3.040   5.259  13.564  0.00  0.00    -0.327 N 
ATOM      3  CAO OYQ d   1      -3.575   6.435  12.959  0.00  0.00     0.222 C 
ATOM      4  H19 OYQ d   1      -2.059   5.090  13.472  0.00  0.00     0.169 HD
ENDROOT
BRANCH   3   5
ATOM      5  CAL OYQ d   1      -2.631   7.319  12.222  0.00  0.00     0.010 C 
ATOM      6  H15 OYQ d   1      -1.802   6.697  11.854  0.00  0.00     0.047 H 
ATOM      7  H16 OYQ d   1      -3.171   7.753  11.368  0.00  0.00     0.047 H 
BRANCH   5   8
ATOM      8  CAM OYQ d   1      -2.052   8.430  13.006  0.00  0.00    -0.054 C 
ATOM      9  H17 OYQ d   1      -2.853   8.883  13.608  0.00  0.00     0.034 H 
ATOM     10  H18 OYQ d   1      -1.653   9.178  12.305  0.00  0.00     0.034 H 
BRANCH   8  11
ATOM     11  CAR OYQ d   1      -0.962   8.016  13.916  0.00  0.00    -0.058 C 
ATOM     12  H20 OYQ d   1      -1.118   6.979  14.247  0.00  0.00     0.039 H 
BRANCH  11  13
ATOM     13  CAB OYQ d   1       0.327   8.121  13.167  0.00  0.00    -0.073 C 
ATOM     14  H4  OYQ d   1       1.157   7.818  13.822  0.00  0.00     0.028 H 
ATOM     15  H5  OYQ d   1       0.478   9.161  12.841  0.00  0.00     0.028 H 
ATOM     16  H6  OYQ d   1       0.295   7.462  12.287  0.00  0.00     0.028 H 
ENDBRANCH  11  13
BRANCH  11  17
ATOM     17  CAK OYQ d   1      -0.952   8.919  15.092  0.00  0.00    -0.065 C 
ATOM     18  H13 OYQ d   1      -1.997   9.104  15.380  0.00  0.00     0.033 H 
ATOM     19  H14 OYQ d   1      -0.433   8.397  15.909  0.00  0.00     0.033 H 
BRANCH  17  20
ATOM     20  CAA OYQ d   1      -0.291  10.245  14.908  0.00  0.00    -0.076 C 
ATOM     21  H1  OYQ d   1      -0.350  10.817  15.846  0.00  0.00     0.027 H 
ATOM     22  H2  OYQ d   1      -0.800  10.801  14.107  0.00  0.00     0.027 H 
ATOM     23  H3  OYQ d   1       0.764  10.094  14.636  0.00  0.00     0.027 H 
ENDBRANCH  17  20
ENDBRANCH  11  17
ENDBRANCH   8  11
ENDBRANCH   5   8
ENDBRANCH   3   5
BRANCH   2  24
ATOM     24  CAP OYQ d   1      -3.817   4.307  14.293  0.00  0.00     0.034 A 
ATOM     25  CAG OYQ d   1      -5.192   4.403  14.520  0.00  0.00    -0.056 A 
ATOM     26  CAI OYQ d   1      -5.837   3.389  15.243  0.00  0.00    -0.058 A 
ATOM     27  H9  OYQ d   1      -5.753   5.250  14.142  0.00  0.00     0.087 H 
ATOM     28  CAQ OYQ d   1      -5.092   2.298  15.743  0.00  0.00     0.079 A 
ATOM     29  H11 OYQ d   1      -6.905   3.442  15.418  0.00  0.00     0.086 H 
ATOM     30  CAJ OYQ d   1      -3.726   2.244  15.498  0.00  0.00    -0.058 A 
ATOM     31  CAH OYQ d   1      -3.102   3.228  14.768  0.00  0.00    -0.056 A 
ATOM     32  H12 OYQ d   1      -3.145   1.416  15.887  0.00  0.00     0.086 H 
ATOM     33  H10 OYQ d   1      -2.040   3.155  14.564  0.00  0.00     0.087 H 
BRANCH  28  34
ATOM     34  SAS OYQ d   1      -5.844   0.983  16.691  0.00  0.00     0.256 S 
ATOM     35  OAE OYQ d   1      -5.377   1.240  18.045  0.00  0.00    -0.201 OA
ATOM     36  OAF OYQ d   1      -7.316   1.181  16.540  0.00  0.00    -0.201 OA
BRANCH  34  37
ATOM     37  NAC OYQ d   1      -5.346  -0.452  16.060  0.00  0.00    -0.324 N 
ATOM     38  H7  OYQ d   1      -4.380  -0.706  16.097  0.00  0.00     0.169 HD
ATOM     39  H8  OYQ d   1      -6.010  -1.070  15.639  0.00  0.00     0.169 HD
ENDBRANCH  34  37
ENDBRANCH  28  34
ENDBRANCH   2  24
TORSDOF 9
