REMARK  12 active torsions:
REMARK  status: ('A' for Active; 'I' for Inactive)
REMARK    1  A    between atoms: C1_1  and  S1_2 
REMARK    2  A    between atoms: S1_2  and  C1'_13 
REMARK    3  A    between atoms: C2_3  and  O2_4 
REMARK    4  A    between atoms: C3_5  and  O3_6 
REMARK    5  A    between atoms: C4_7  and  O4_8 
REMARK    6  A    between atoms: C5_9  and  C6_11 
REMARK    7  A    between atoms: C6_11  and  O6_12 
REMARK    8  A    between atoms: C2'_14  and  O2'_15 
REMARK    9  A    between atoms: C3'_16  and  O3'_17 
REMARK   10  A    between atoms: C4'_18  and  O4'_19 
REMARK   11  A    between atoms: C5'_20  and  C6'_22 
REMARK   12  A    between atoms: C6'_22  and  O6'_23 
ROOT
ATOM      1  S1  TDG d   1      24.287  -0.931  17.098  0.00  0.00    -0.100 SA
ENDROOT
BRANCH   1   2
ATOM      2  C1  TDG d   1      23.385   0.365  17.897  0.00  0.00     0.112 C 
ATOM      3  C2  TDG d   1      23.766   1.736  17.328  0.00  0.00     0.096 C 
ATOM      4  C3  TDG d   1      22.860   2.823  17.915  0.00  0.00     0.090 C 
ATOM      5  H2  TDG d   1      23.642   1.714  16.235  0.00  0.00     0.092 H 
ATOM      6  C4  TDG d   1      21.392   2.460  17.713  0.00  0.00     0.089 C 
ATOM      7  H4  TDG d   1      23.056   2.885  18.996  0.00  0.00     0.091 H 
ATOM      8  C5  TDG d   1      21.144   1.114  18.386  0.00  0.00     0.087 C 
ATOM      9  H6  TDG d   1      20.753   3.228  18.173  0.00  0.00     0.091 H 
ATOM     10  O5  TDG d   1      21.972   0.130  17.744  0.00  0.00    -0.363 OA
ATOM     11  H8  TDG d   1      21.436   1.191  19.444  0.00  0.00     0.090 H 
ATOM     12  H1  TDG d   1      23.631   0.354  18.969  0.00  0.00     0.104 H 
BRANCH   3  13
ATOM     13  O2  TDG d   1      25.125   2.048  17.638  0.00  0.00    -0.389 OA
ATOM     14  H3  TDG d   1      25.343   2.900  17.278  0.00  0.00     0.210 HD
ENDBRANCH   3  13
BRANCH   4  15
ATOM     15  O3  TDG d   1      23.137   4.101  17.337  0.00  0.00    -0.390 OA
ATOM     16  H5  TDG d   1      22.992   4.061  16.399  0.00  0.00     0.210 HD
ENDBRANCH   4  15
BRANCH   6  17
ATOM     17  O4  TDG d   1      21.096   2.373  16.308  0.00  0.00    -0.390 OA
ATOM     18  H7  TDG d   1      20.181   2.147  16.192  0.00  0.00     0.210 HD
ENDBRANCH   6  17
BRANCH   8  19
ATOM     19  C6  TDG d   1      19.677   0.702  18.327  0.00  0.00     0.043 C 
ATOM     20  H9  TDG d   1      19.381   0.548  17.279  0.00  0.00     0.078 H 
ATOM     21  H10 TDG d   1      19.055   1.493  18.771  0.00  0.00     0.078 H 
BRANCH  19  22
ATOM     22  O6  TDG d   1      19.494  -0.522  19.062  0.00  0.00    -0.398 OA
ATOM     23  H11 TDG d   1      20.031  -1.204  18.677  0.00  0.00     0.209 HD
ENDBRANCH  19  22
ENDBRANCH   8  19
ENDBRANCH   1   2
BRANCH   1  24
ATOM     24  C1' TDG d   1      23.592  -2.302  17.977  0.00  0.00     0.112 C 
ATOM     25  C2' TDG d   1      23.232  -3.467  17.042  0.00  0.00     0.096 C 
ATOM     26  C3' TDG d   1      22.702  -4.652  17.864  0.00  0.00     0.090 C 
ATOM     27  H13 TDG d   1      24.134  -3.777  16.494  0.00  0.00     0.092 H 
ATOM     28  C4' TDG d   1      23.610  -4.996  19.048  0.00  0.00     0.089 C 
ATOM     29  H15 TDG d   1      21.720  -4.363  18.268  0.00  0.00     0.091 H 
ATOM     30  C5' TDG d   1      23.891  -3.731  19.865  0.00  0.00     0.087 C 
ATOM     31  H17 TDG d   1      23.107  -5.735  19.688  0.00  0.00     0.091 H 
ATOM     32  O5' TDG d   1      24.495  -2.750  19.004  0.00  0.00    -0.363 OA
ATOM     33  H19 TDG d   1      22.924  -3.329  20.201  0.00  0.00     0.090 H 
ATOM     34  H12 TDG d   1      22.666  -1.958  18.460  0.00  0.00     0.104 H 
BRANCH  25  35
ATOM     35  O2' TDG d   1      22.221  -3.077  16.102  0.00  0.00    -0.389 OA
ATOM     36  H14 TDG d   1      21.440  -2.810  16.572  0.00  0.00     0.210 HD
ENDBRANCH  25  35
BRANCH  26  37
ATOM     37  O3' TDG d   1      22.519  -5.804  17.036  0.00  0.00    -0.390 OA
ATOM     38  H16 TDG d   1      23.351  -6.048  16.647  0.00  0.00     0.210 HD
ENDBRANCH  26  37
BRANCH  28  39
ATOM     39  O4' TDG d   1      24.839  -5.550  18.567  0.00  0.00    -0.390 OA
ATOM     40  H18 TDG d   1      24.656  -6.338  18.070  0.00  0.00     0.210 HD
ENDBRANCH  28  39
BRANCH  30  41
ATOM     41  C6' TDG d   1      24.718  -4.013  21.126  0.00  0.00     0.043 C 
ATOM     42  H20 TDG d   1      24.732  -5.098  21.307  0.00  0.00     0.078 H 
ATOM     43  H21 TDG d   1      24.248  -3.505  21.981  0.00  0.00     0.078 H 
BRANCH  41  44
ATOM     44  O6' TDG d   1      26.067  -3.547  20.994  0.00  0.00    -0.398 OA
ATOM     45  H22 TDG d   1      26.064  -2.609  20.843  0.00  0.00     0.209 HD
ENDBRANCH  41  44
ENDBRANCH  30  41
ENDBRANCH   1  24
TORSDOF 12
