REMARK  8 active torsions:
REMARK  status: ('A' for Active; 'I' for Inactive)
REMARK    1  A    between atoms: C6'_21  and  P_1 
REMARK    2  A    between atoms: C1'_12  and  C9_11 
REMARK    3  A    between atoms: N4'_19  and  C1'_12 
REMARK    4  A    between atoms: C3'_15  and  O3'_16 
REMARK    5  A    between atoms: C4'_18  and  C3'_15 
REMARK    6  A    between atoms: C4'_18  and  N4'_19 
REMARK    7  A    between atoms: C5'_20  and  C4'_18 
REMARK    8  A    between atoms: C5'_20  and  C6'_21 
ROOT
ATOM      1  N4' SSI d   1      61.948  35.607  75.149  0.00  0.00    -0.065 N 
ATOM      2  H11 SSI d   1      61.407  36.258  75.697  0.00  0.00     0.278 HD
ATOM      3  H12 SSI d   1      61.337  34.903  74.765  0.00  0.00     0.278 HD
ENDROOT
BRANCH   1   4
ATOM      4  C1' SSI d   1      62.807  34.917  76.088  0.00  0.00     0.109 C 
ATOM      5  H5  SSI d   1      62.169  34.523  76.892  0.00  0.00     0.083 H 
ATOM      6  H6  SSI d   1      63.280  34.081  75.552  0.00  0.00     0.083 H 
BRANCH   4   7
ATOM      7  C9  SSI d   1      63.917  35.730  76.740  0.00  0.00     0.014 A 
ATOM      8  C4  SSI d   1      63.947  36.289  78.110  0.00  0.00     0.099 A 
ATOM      9  N3  SSI d   1      63.016  36.247  79.090  0.00  0.00    -0.241 NA
ATOM     10  C5  SSI d   1      65.246  36.946  78.282  0.00  0.00     0.130 A 
ATOM     11  C2  SSI d   1      63.306  36.834  80.254  0.00  0.00     0.067 A 
ATOM     12  N1  SSI d   1      64.474  37.454  80.488  0.00  0.00    -0.316 N 
ATOM     13  H2  SSI d   1      62.562  36.809  81.049  0.00  0.00     0.143 H 
ATOM     14  C6  SSI d   1      65.475  37.564  79.604  0.00  0.00     0.275 A 
ATOM     15  H1  SSI d   1      64.607  37.865  81.390  0.00  0.00     0.170 HD
ATOM     16  O6  SSI d   1      66.566  38.162  79.878  0.00  0.00    -0.266 OA
ATOM     17  N7  SSI d   1      65.920  36.807  77.128  0.00  0.00    -0.359 N 
ATOM     18  C8  SSI d   1      65.168  36.089  76.231  0.00  0.00    -0.012 A 
ATOM     19  H3  SSI d   1      66.861  37.183  76.944  0.00  0.00     0.165 HD
ATOM     20  H4  SSI d   1      65.510  35.828  75.231  0.00  0.00     0.112 H 
ENDBRANCH   4   7
ENDBRANCH   1   4
BRANCH   1  21
ATOM     21  C4' SSI d   1      62.448  36.367  74.006  0.00  0.00     0.123 C 
ATOM     22  H10 SSI d   1      62.859  37.319  74.372  0.00  0.00     0.087 H 
BRANCH  21  23
ATOM     23  C3' SSI d   1      61.272  36.651  73.079  0.00  0.00     0.043 C 
ATOM     24  H7  SSI d   1      61.560  37.442  72.371  0.00  0.00     0.077 H 
ATOM     25  H8  SSI d   1      61.027  35.734  72.524  0.00  0.00     0.077 H 
BRANCH  23  26
ATOM     26  O3' SSI d   1      60.108  37.079  73.807  0.00  0.00    -0.399 OA
ATOM     27  H9  SSI d   1      60.310  37.875  74.285  0.00  0.00     0.209 HD
ENDBRANCH  23  26
ENDBRANCH  21  23
BRANCH  21  28
ATOM     28  C5' SSI d   1      63.553  35.634  73.226  0.00  0.00    -0.025 C 
ATOM     29  H13 SSI d   1      63.097  34.827  72.634  0.00  0.00     0.037 H 
ATOM     30  H14 SSI d   1      64.270  35.204  73.941  0.00  0.00     0.037 H 
BRANCH  28  31
ATOM     31  C6' SSI d   1      64.302  36.582  72.280  0.00  0.00     0.041 C 
ATOM     32  H15 SSI d   1      63.604  36.929  71.504  0.00  0.00     0.053 H 
ATOM     33  H16 SSI d   1      64.665  37.444  72.859  0.00  0.00     0.053 H 
BRANCH  31  34
ATOM     34  P   SSI d   1      65.726  35.783  71.469  0.00  0.00     0.259 P 
ATOM     35  O1P SSI d   1      65.100  34.666  70.643  0.00  0.00    -0.640 OA
ATOM     36  O2P SSI d   1      66.368  36.881  70.670  0.00  0.00    -0.640 OA
ATOM     37  O3P SSI d   1      66.605  35.345  72.609  0.00  0.00    -0.640 OA
ENDBRANCH  31  34
ENDBRANCH  28  31
ENDBRANCH  21  28
ENDBRANCH   1  21
TORSDOF 8
