REMARK  5 active torsions:
REMARK  status: ('A' for Active; 'I' for Inactive)
REMARK    1  A    between atoms: CAM_13  and  CAB_2 
REMARK    2  A    between atoms: CAQ_17  and  CAC_3 
REMARK    3  A    between atoms: CAV_22  and  CAD_4 
REMARK    4  A    between atoms: OAK_11  and  CAM_13 
REMARK    5  A    between atoms: CAT_20  and  OAK_11 
ROOT
ATOM      1  CAA BGV d   1      13.042  16.039  17.380  0.00  0.00    -0.109 C 
ATOM      2  OAF BGV d   1      16.349  12.408  20.910  0.00  0.00    -0.292 OA
ATOM      3  OAG BGV d   1      12.414  15.002  14.710  0.00  0.00    -0.260 OA
ATOM      4  CAH BGV d   1      18.028  13.301  19.872  0.00  0.00    -0.041 A 
ATOM      5  CAI BGV d   1      18.233  13.874  18.729  0.00  0.00    -0.094 A 
ATOM      6  CAJ BGV d   1      16.041  13.261  15.699  0.00  0.00    -0.036 C 
ATOM      7  OAL BGV d   1      14.095  13.623  15.119  0.00  0.00    -0.311 OA
ATOM      8  CAN BGV d   1      13.646  15.034  16.680  0.00  0.00     0.017 C 
ATOM      9  CAO BGV d   1      16.790  12.976  19.962  0.00  0.00     0.160 A 
ATOM     10  CAP BGV d   1      13.292  14.587  15.435  0.00  0.00     0.289 C 
ATOM     11  CAQ BGV d   1      17.131  12.953  16.689  0.00  0.00    -0.048 C 
ATOM     12  CAR BGV d   1      14.695  13.147  16.263  0.00  0.00     0.058 C 
ATOM     13  CAS BGV d   1      16.969  13.829  17.873  0.00  0.00    -0.018 A 
ATOM     14  CAT BGV d   1      14.778  14.008  18.729  0.00  0.00     0.072 C 
ATOM     15  CAU BGV d   1      14.821  14.292  17.185  0.00  0.00     0.029 C 
ATOM     16  CAV BGV d   1      16.005  13.174  18.746  0.00  0.00     0.055 A 
ATOM     17  H1  BGV d   1      12.178  16.552  16.960  0.00  0.00     0.067 H 
ATOM     18  H2  BGV d   1      13.424  16.327  18.358  0.00  0.00     0.067 H 
ATOM     19  H12 BGV d   1      18.785  13.123  20.635  0.00  0.00     0.088 H 
ATOM     20  H13 BGV d   1      19.175  14.325  18.421  0.00  0.00     0.077 H 
ATOM     21  H14 BGV d   1      16.127  12.559  14.856  0.00  0.00     0.037 H 
ATOM     22  H15 BGV d   1      16.181  14.290  15.335  0.00  0.00     0.037 H 
ATOM     23  H16 BGV d   1      17.022  11.906  17.008  0.00  0.00     0.040 H 
ATOM     24  H17 BGV d   1      14.338  12.193  16.679  0.00  0.00     0.085 H 
ATOM     25  H18 BGV d   1      16.650  14.838  17.572  0.00  0.00     0.048 H 
ATOM     26  H19 BGV d   1      13.868  13.460  19.015  0.00  0.00     0.087 H 
ATOM     27  H20 BGV d   1      15.753  14.841  16.986  0.00  0.00     0.055 H 
ENDROOT
BRANCH  14  28
ATOM     28  OAK BGV d   1      14.955  15.108  19.613  0.00  0.00    -0.314 OA
BRANCH  28  29
ATOM     29  CAM BGV d   1      14.490  15.161  20.820  0.00  0.00     0.255 C 
ATOM     30  OAE BGV d   1      13.321  15.071  21.041  0.00  0.00    -0.266 OA
BRANCH  29  31
ATOM     31  CAB BGV d   1      15.434  15.470  21.904  0.00  0.00     0.004 C 
ATOM     32  H3  BGV d   1      14.898  15.480  22.865  0.00  0.00     0.041 H 
ATOM     33  H4  BGV d   1      15.887  16.457  21.726  0.00  0.00     0.041 H 
ATOM     34  H5  BGV d   1      16.223  14.704  21.933  0.00  0.00     0.041 H 
ENDBRANCH  29  31
ENDBRANCH  28  29
ENDBRANCH  14  28
BRANCH  16  35
ATOM     35  CAD BGV d   1      15.619  11.788  18.283  0.00  0.00    -0.059 C 
ATOM     36  H9  BGV d   1      16.508  11.140  18.283  0.00  0.00     0.029 H 
ATOM     37  H10 BGV d   1      15.206  11.843  17.265  0.00  0.00     0.029 H 
ATOM     38  H11 BGV d   1      14.862  11.372  18.964  0.00  0.00     0.029 H 
ENDBRANCH  16  35
BRANCH  11  39
ATOM     39  CAC BGV d   1      18.499  13.117  16.097  0.00  0.00    -0.072 C 
ATOM     40  H6  BGV d   1      18.600  12.460  15.221  0.00  0.00     0.028 H 
ATOM     41  H7  BGV d   1      19.258  12.848  16.847  0.00  0.00     0.028 H 
ATOM     42  H8  BGV d   1      18.642  14.163  15.789  0.00  0.00     0.028 H 
ENDBRANCH  11  39
TORSDOF 5
