REMARK  9 active torsions:
REMARK  status: ('A' for Active; 'I' for Inactive)
REMARK    1  A    between atoms: C1_1  and  O7_7 
REMARK    2  A    between atoms: C2_2  and  O8_8 
REMARK    3  A    between atoms: C5_5  and  C6_6 
REMARK    4  A    between atoms: C9_9  and  C10_10 
REMARK    5  A    between atoms: C10_10  and  N11_11 
REMARK       I    between atoms: N11_11  and  C12_12 
REMARK    6  A    between atoms: C12_12  and  C13_13 
REMARK    7  A    between atoms: C14_14  and  O20_20 
REMARK    8  A    between atoms: C15_15  and  O21_21 
REMARK    9  A    between atoms: C17_17  and  N19_19 
ROOT
ATOM      1  C10 OZR d   1     -20.222  29.838   8.792  0.00  0.00     0.010 C 
ATOM      2  H10 OZR d   1     -19.382  29.149   8.961  0.00  0.00     0.070 H 
ATOM      3  H11 OZR d   1     -19.933  30.593   8.047  0.00  0.00     0.070 H 
ENDROOT
BRANCH   1   4
ATOM      4  C9  OZR d   1     -20.530  30.530  10.071  0.00  0.00    -0.087 C 
ATOM      5  C6  OZR d   1     -19.609  30.701  11.020  0.00  0.00    -0.075 C 
ATOM      6  H6  OZR d   1     -18.604  30.325  10.838  0.00  0.00     0.080 H 
ATOM      7  H9  OZR d   1     -21.537  30.908  10.238  0.00  0.00     0.079 H 
BRANCH   5   8
ATOM      8  C5  OZR d   1     -19.887  31.384  12.322  0.00  0.00     0.082 C 
ATOM      9  C1  OZR d   1     -20.171  30.313  13.417  0.00  0.00     0.090 C 
ATOM     10  C2  OZR d   1     -21.015  31.148  14.428  0.00  0.00     0.083 C 
ATOM     11  H1  OZR d   1     -20.805  29.505  13.022  0.00  0.00     0.091 H 
ATOM     12  C3  OZR d   1     -21.894  31.960  13.460  0.00  0.00     0.047 C 
ATOM     13  H2  OZR d   1     -21.602  30.523  15.117  0.00  0.00     0.090 H 
ATOM     14  O4  OZR d   1     -21.080  32.213  12.291  0.00  0.00    -0.377 OA
ATOM     15  H3  OZR d   1     -22.198  32.909  13.926  0.00  0.00     0.078 H 
ATOM     16  H4  OZR d   1     -22.789  31.384  13.184  0.00  0.00     0.078 H 
ATOM     17  H5  OZR d   1     -19.015  31.996  12.597  0.00  0.00     0.093 H 
BRANCH   9  18
ATOM     18  O7  OZR d   1     -18.930  29.713  13.808  0.00  0.00    -0.390 OA
ATOM     19  H7  OZR d   1     -19.093  29.058  14.476  0.00  0.00     0.210 HD
ENDBRANCH   9  18
BRANCH  10  20
ATOM     20  O8  OZR d   1     -20.155  32.021  15.137  0.00  0.00    -0.391 OA
ATOM     21  H8  OZR d   1     -19.614  31.516  15.733  0.00  0.00     0.210 HD
ENDBRANCH  10  20
ENDBRANCH   5   8
ENDBRANCH   1   4
BRANCH   1  22
ATOM     22  N11 OZR d   1     -21.333  29.086   8.273  0.00  0.00    -0.353 N 
ATOM     23  C12 OZR d   1     -22.152  29.643   7.349  0.00  0.00     0.254 C 
ATOM     24  O22 OZR d   1     -22.005  30.840   7.022  0.00  0.00    -0.268 OA
ATOM     25  H12 OZR d   1     -21.500  28.154   8.594  0.00  0.00     0.163 HD
BRANCH  23  26
ATOM     26  C13 OZR d   1     -23.259  28.855   6.740  0.00  0.00     0.070 A 
ATOM     27  C14 OZR d   1     -23.312  27.451   6.925  0.00  0.00     0.114 A 
ATOM     28  C15 OZR d   1     -24.372  26.735   6.365  0.00  0.00     0.102 A 
ATOM     29  C16 OZR d   1     -25.363  27.359   5.600  0.00  0.00    -0.016 A 
ATOM     30  C17 OZR d   1     -25.283  28.760   5.437  0.00  0.00     0.106 A 
ATOM     31  H13 OZR d   1     -26.165  26.787   5.148  0.00  0.00     0.091 H 
ATOM     32  C18 OZR d   1     -24.262  29.499   6.005  0.00  0.00    -0.033 A 
ATOM     33  H14 OZR d   1     -24.238  30.576   5.882  0.00  0.00     0.089 H 
BRANCH  27  34
ATOM     34  O20 OZR d   1     -22.380  26.739   7.604  0.00  0.00    -0.357 OA
ATOM     35  H15 OZR d   1     -21.981  26.105   7.020  0.00  0.00     0.217 HD
ENDBRANCH  27  34
BRANCH  28  36
ATOM     36  O21 OZR d   1     -24.463  25.368   6.500  0.00  0.00    -0.358 OA
ATOM     37  H16 OZR d   1     -23.743  25.055   7.035  0.00  0.00     0.217 HD
ENDBRANCH  28  36
BRANCH  30  38
ATOM     38  N19 OZR d   1     -26.275  29.541   4.682  0.00  0.00    -0.116 N 
ATOM     39  O23 OZR d   1     -27.114  29.005   3.992  0.00  0.00    -0.532 OA
ATOM     40  O24 OZR d   1     -26.178  30.730   4.801  0.00  0.00    -0.532 OA
ENDBRANCH  30  38
ENDBRANCH  23  26
ENDBRANCH   1  22
TORSDOF 9
