REMARK  11 active torsions:
REMARK  status: ('A' for Active; 'I' for Inactive)
REMARK    1  A    between atoms: C1_1  and  O8_8 
REMARK    2  A    between atoms: C2_2  and  O9_9 
REMARK    3  A    between atoms: C3_3  and  N7_7 
REMARK    4  A    between atoms: C5_5  and  C6_6 
REMARK    5  A    between atoms: C10_10  and  C16_16 
REMARK    6  A    between atoms: C13_13  and  C15_15 
REMARK    7  A    between atoms: C16_16  and  N17_17 
REMARK       I    between atoms: N17_17  and  C18_18 
REMARK    8  A    between atoms: C18_18  and  C19_19 
REMARK    9  A    between atoms: C20_20  and  O26_26 
REMARK   10  A    between atoms: C21_21  and  O27_27 
REMARK   11  A    between atoms: C23_23  and  N25_25 
ROOT
ATOM      1  C6  OZS d   1     -19.822  30.271  10.765  0.00  0.00    -0.075 C 
ATOM      2  C10 OZS d   1     -20.629  29.660   9.915  0.00  0.00    -0.087 C 
ATOM      3  H5  OZS d   1     -19.270  31.155  10.450  0.00  0.00     0.080 H 
ATOM      4  H8  OZS d   1     -21.174  28.777  10.246  0.00  0.00     0.079 H 
ENDROOT
BRANCH   1   5
ATOM      5  C5  OZS d   1     -19.666  29.752  12.153  0.00  0.00     0.084 C 
ATOM      6  C1  OZS d   1     -20.031  30.877  13.189  0.00  0.00     0.092 C 
ATOM      7  C2  OZS d   1     -18.611  31.454  13.401  0.00  0.00     0.105 C 
ATOM      8  H1  OZS d   1     -20.733  31.626  12.794  0.00  0.00     0.091 H 
ATOM      9  C3  OZS d   1     -17.733  30.167  13.509  0.00  0.00     0.138 C 
ATOM     10  H2  OZS d   1     -18.303  32.063  12.538  0.00  0.00     0.093 H 
ATOM     11  O4  OZS d   1     -18.284  29.389  12.428  0.00  0.00    -0.352 OA
ATOM     12  H3  OZS d   1     -17.857  29.687  14.491  0.00  0.00     0.122 H 
ATOM     13  H4  OZS d   1     -20.320  28.878  12.290  0.00  0.00     0.093 H 
BRANCH   6  14
ATOM     14  O8  OZS d   1     -20.567  30.258  14.345  0.00  0.00    -0.390 OA
ATOM     15  H6  OZS d   1     -19.921  29.669  14.716  0.00  0.00     0.210 HD
ENDBRANCH   6  14
BRANCH   7  16
ATOM     16  O9  OZS d   1     -18.543  32.257  14.586  0.00  0.00    -0.388 OA
ATOM     17  H7  OZS d   1     -18.851  31.751  15.328  0.00  0.00     0.210 HD
ENDBRANCH   7  16
BRANCH   9  18
ATOM     18  N7  OZS d   1     -16.334  30.335  13.222  0.00  0.00    -0.319 N 
ATOM     19  C11 OZS d   1     -15.726  31.298  12.344  0.00  0.00     0.068 A 
ATOM     20  N14 OZS d   1     -14.422  31.123  12.299  0.00  0.00    -0.238 NA
ATOM     21  H9  OZS d   1     -16.268  32.065  11.793  0.00  0.00     0.143 H 
ATOM     22  C13 OZS d   1     -14.191  30.056  13.143  0.00  0.00     0.157 A 
ATOM     23  C12 OZS d   1     -15.343  29.554  13.734  0.00  0.00     0.016 A 
ATOM     24  H10 OZS d   1     -15.433  28.730  14.440  0.00  0.00     0.115 H 
BRANCH  22  25
ATOM     25  C15 OZS d   1     -12.840  29.492  13.376  0.00  0.00     0.435 C 
ATOM     26  F29 OZS d   1     -12.030  29.473  12.311  0.00  0.00    -0.165 F 
ATOM     27  F30 OZS d   1     -12.091  30.130  14.286  0.00  0.00    -0.165 F 
ATOM     28  F31 OZS d   1     -12.759  28.162  13.592  0.00  0.00    -0.165 F 
ENDBRANCH  22  25
ENDBRANCH   9  18
ENDBRANCH   1   5
BRANCH   2  29
ATOM     29  C16 OZS d   1     -20.820  30.156   8.479  0.00  0.00     0.010 C 
ATOM     30  H11 OZS d   1     -19.854  30.145   7.954  0.00  0.00     0.070 H 
ATOM     31  H12 OZS d   1     -21.218  31.181   8.493  0.00  0.00     0.070 H 
BRANCH  29  32
ATOM     32  N17 OZS d   1     -21.761  29.276   7.791  0.00  0.00    -0.353 N 
ATOM     33  C18 OZS d   1     -22.562  29.731   6.826  0.00  0.00     0.254 C 
ATOM     34  O28 OZS d   1     -22.396  30.930   6.402  0.00  0.00    -0.268 OA
ATOM     35  H13 OZS d   1     -21.806  28.311   8.049  0.00  0.00     0.163 HD
BRANCH  33  36
ATOM     36  C19 OZS d   1     -23.645  28.876   6.225  0.00  0.00     0.070 A 
ATOM     37  C20 OZS d   1     -23.670  27.475   6.497  0.00  0.00     0.114 A 
ATOM     38  C21 OZS d   1     -24.755  26.757   5.930  0.00  0.00     0.102 A 
ATOM     39  C22 OZS d   1     -25.711  27.322   5.135  0.00  0.00    -0.016 A 
ATOM     40  C23 OZS d   1     -25.661  28.739   4.945  0.00  0.00     0.106 A 
ATOM     41  H14 OZS d   1     -26.480  26.719   4.665  0.00  0.00     0.091 H 
ATOM     42  C24 OZS d   1     -24.607  29.520   5.473  0.00  0.00    -0.033 A 
ATOM     43  H15 OZS d   1     -24.556  30.588   5.293  0.00  0.00     0.089 H 
BRANCH  37  44
ATOM     44  O26 OZS d   1     -22.719  26.828   7.159  0.00  0.00    -0.357 OA
ATOM     45  H16 OZS d   1     -22.302  26.201   6.580  0.00  0.00     0.217 HD
ENDBRANCH  37  44
BRANCH  38  46
ATOM     46  O27 OZS d   1     -24.801  25.395   6.127  0.00  0.00    -0.358 OA
ATOM     47  H17 OZS d   1     -24.085  25.134   6.695  0.00  0.00     0.217 HD
ENDBRANCH  38  46
BRANCH  40  48
ATOM     48  N25 OZS d   1     -26.667  29.378   4.141  0.00  0.00    -0.116 N 
ATOM     49  O32 OZS d   1     -27.502  28.755   3.529  0.00  0.00    -0.532 OA
ATOM     50  O33 OZS d   1     -26.624  30.593   4.093  0.00  0.00    -0.532 OA
ENDBRANCH  40  48
ENDBRANCH  33  36
ENDBRANCH  29  32
ENDBRANCH   2  29
TORSDOF 11
