REMARK  7 active torsions:
REMARK  status: ('A' for Active; 'I' for Inactive)
REMARK    1  A    between atoms: N4_1  and  C3_2 
REMARK    2  A    between atoms: C3_2  and  C5_3 
REMARK    3  A    between atoms: C3_2  and  C2_5 
REMARK       I    between atoms: C5_3  and  N6_12 
REMARK    4  A    between atoms: C2_5  and  C1_6 
REMARK    5  A    between atoms: C13_13  and  C14_14 
REMARK       I    between atoms: C14_14  and  N16_19 
REMARK    6  A    between atoms: N16_19  and  C17_20 
REMARK    7  A    between atoms: C17_20  and  C18_21 
ROOT
ATOM      1  C5  99P d   1      17.473 -13.179  22.557  0.00  0.00     0.251 C 
ATOM      2  O7  99P d   1      16.557 -12.468  23.001  0.00  0.00    -0.271 OA
ATOM      3  N6  99P d   1      18.339 -12.783  21.565  0.00  0.00    -0.337 N 
ATOM      4  C13 99P d   1      18.205 -11.432  20.992  0.00  0.00     0.091 C 
ATOM      5  C19 99P d   1      19.194 -11.420  19.806  0.00  0.00    -0.036 C 
ATOM      6  C20 99P d   1      20.239 -12.402  20.272  0.00  0.00    -0.048 C 
ATOM      7  C21 99P d   1      19.457 -13.536  20.949  0.00  0.00    -0.001 C 
ATOM      8  H12 99P d   1      18.434 -10.642  21.722  0.00  0.00     0.087 H 
ATOM      9  H13 99P d   1      19.624 -10.419  19.652  0.00  0.00     0.036 H 
ATOM     10  H14 99P d   1      18.711 -11.758  18.877  0.00  0.00     0.036 H 
ATOM     11  H15 99P d   1      20.924 -11.925  20.989  0.00  0.00     0.035 H 
ATOM     12  H16 99P d   1      20.814 -12.787  19.417  0.00  0.00     0.035 H 
ATOM     13  H17 99P d   1      19.093 -14.270  20.215  0.00  0.00     0.064 H 
ATOM     14  H18 99P d   1      20.066 -14.048  21.709  0.00  0.00     0.064 H 
ENDROOT
BRANCH   1  15
ATOM     15  C3  99P d   1      17.699 -14.578  23.154  0.00  0.00     0.179 C 
ATOM     16  H4  99P d   1      18.453 -15.113  22.558  0.00  0.00     0.099 H 
BRANCH  15  17
ATOM     17  N4  99P d   1      16.385 -15.301  23.082  0.00  0.00    -0.066 N 
ATOM     18  H1  99P d   1      16.490 -16.227  23.465  0.00  0.00     0.275 HD
ATOM     19  H2  99P d   1      16.090 -15.367  22.120  0.00  0.00     0.275 HD
ATOM     20  H3  99P d   1      15.693 -14.794  23.612  0.00  0.00     0.275 HD
ENDBRANCH  15  17
BRANCH  15  21
ATOM     21  C2  99P d   1      18.178 -14.505  24.615  0.00  0.00    -0.006 C 
ATOM     22  H5  99P d   1      18.130 -15.509  25.062  0.00  0.00     0.043 H 
ATOM     23  H6  99P d   1      17.523 -13.822  25.177  0.00  0.00     0.043 H 
BRANCH  21  24
ATOM     24  C1  99P d   1      19.611 -13.994  24.683  0.00  0.00    -0.056 A 
ATOM     25  C8  99P d   1      20.671 -14.666  24.063  0.00  0.00    -0.077 A 
ATOM     26  C9  99P d   1      21.958 -14.160  24.154  0.00  0.00    -0.082 A 
ATOM     27  H7  99P d   1      20.485 -15.581  23.512  0.00  0.00     0.084 H 
ATOM     28  C10 99P d   1      22.209 -12.981  24.860  0.00  0.00    -0.083 A 
ATOM     29  H9  99P d   1      22.777 -14.683  23.673  0.00  0.00     0.083 H 
ATOM     30  C11 99P d   1      21.162 -12.304  25.482  0.00  0.00    -0.082 A 
ATOM     31  H11 99P d   1      23.219 -12.593  24.924  0.00  0.00     0.083 H 
ATOM     32  C12 99P d   1      19.878 -12.810  25.390  0.00  0.00    -0.077 A 
ATOM     33  H10 99P d   1      21.352 -11.390  26.033  0.00  0.00     0.083 H 
ATOM     34  H8  99P d   1      19.063 -12.283  25.872  0.00  0.00     0.084 H 
ENDBRANCH  21  24
ENDBRANCH  15  21
ENDBRANCH   1  15
BRANCH   4  35
ATOM     35  C14 99P d   1      16.746 -11.311  20.468  0.00  0.00     0.240 C 
ATOM     36  O15 99P d   1      16.260 -12.193  19.720  0.00  0.00    -0.271 OA
ATOM     37  N16 99P d   1      16.087 -10.143  20.716  0.00  0.00    -0.355 N 
ATOM     38  H19 99P d   1      16.529  -9.448  21.283  0.00  0.00     0.162 HD
BRANCH  37  39
ATOM     39  C17 99P d   1      14.761  -9.876  20.181  0.00  0.00     0.020 C 
ATOM     40  H20 99P d   1      14.668 -10.344  19.190  0.00  0.00     0.071 H 
ATOM     41  H21 99P d   1      14.618  -8.789  20.088  0.00  0.00     0.071 H 
BRANCH  39  42
ATOM     42  C18 99P d   1      13.718 -10.435  21.091  0.00  0.00    -0.023 A 
ATOM     43  C22 99P d   1      12.934  -9.622  21.887  0.00  0.00     0.009 A 
ATOM     44  N23 99P d   1      11.973 -10.082  22.730  0.00  0.00    -0.273 NA
ATOM     45  H22 99P d   1      13.096  -8.551  21.836  0.00  0.00     0.115 H 
ATOM     46  C24 99P d   1      11.779 -11.419  22.785  0.00  0.00     0.002 A 
ATOM     47  C25 99P d   1      12.517 -12.299  22.025  0.00  0.00    -0.065 A 
ATOM     48  H23 99P d   1      11.017 -11.811  23.449  0.00  0.00     0.114 H 
ATOM     49  C26 99P d   1      13.490 -11.794  21.177  0.00  0.00    -0.072 A 
ATOM     50  H24 99P d   1      12.340 -13.367  22.089  0.00  0.00     0.085 H 
ATOM     51  H25 99P d   1      14.079 -12.475  20.574  0.00  0.00     0.084 H 
ENDBRANCH  39  42
ENDBRANCH  37  39
ENDBRANCH   4  35
TORSDOF 7
