REMARK  10 active torsions:
REMARK  status: ('A' for Active; 'I' for Inactive)
REMARK    1  A    between atoms: N_1  and  CA_2 
REMARK    2  A    between atoms: CA_2  and  CB_3 
REMARK    3  A    between atoms: CA_2  and  C_6 
REMARK    4  A    between atoms: CB_3  and  CG_4 
REMARK    5  A    between atoms: CG_4  and  SD_5 
REMARK    6  A    between atoms: SD_5  and  C5'_9 
REMARK    7  A    between atoms: C5'_9  and  C4'_10 
REMARK    8  A    between atoms: C3'_12  and  O3'_13 
REMARK    9  A    between atoms: C2'_14  and  O2'_15 
REMARK   10  A    between atoms: C1'_16  and  N9_17 
ROOT
ATOM      1  C4' SAH d   1       9.931  10.977  -1.902  0.00  0.00     0.076 C 
ATOM      2  O4' SAH d   1       8.597  10.701  -2.349  0.00  0.00    -0.355 OA
ATOM      3  C3' SAH d   1      10.832  11.026  -3.119  0.00  0.00     0.090 C 
ATOM      4  C2' SAH d   1       9.855  10.825  -4.335  0.00  0.00     0.105 C 
ATOM      5  C1' SAH d   1       8.673  10.085  -3.673  0.00  0.00     0.139 C 
ATOM      6  H11 SAH d   1      10.300  10.206  -1.210  0.00  0.00     0.088 H 
ATOM      7  H12 SAH d   1      11.303  12.017  -3.197  0.00  0.00     0.091 H 
ATOM      8  H14 SAH d   1       9.520  11.810  -4.692  0.00  0.00     0.093 H 
ATOM      9  H16 SAH d   1       8.892   9.009  -3.599  0.00  0.00     0.122 H 
ENDROOT
BRANCH   1  10
ATOM     10  C5' SAH d   1       9.741  12.367  -1.135  0.00  0.00     0.003 C 
ATOM     11  H9  SAH d   1       9.469  13.155  -1.853  0.00  0.00     0.052 H 
ATOM     12  H10 SAH d   1       8.947  12.270  -0.379  0.00  0.00     0.052 H 
BRANCH  10  13
ATOM     13  SD  SAH d   1      11.296  12.783  -0.335  0.00  0.00    -0.166 SA
BRANCH  13  14
ATOM     14  CG  SAH d   1      11.899  11.451   0.649  0.00  0.00    -0.021 C 
ATOM     15  H7  SAH d   1      12.286  10.684  -0.037  0.00  0.00     0.049 H 
ATOM     16  H8  SAH d   1      12.723  11.842   1.264  0.00  0.00     0.049 H 
BRANCH  14  17
ATOM     17  CB  SAH d   1      10.929  10.778   1.574  0.00  0.00    -0.021 C 
ATOM     18  H5  SAH d   1      10.546  11.548   2.260  0.00  0.00     0.037 H 
ATOM     19  H6  SAH d   1      10.104  10.393   0.956  0.00  0.00     0.037 H 
BRANCH  17  20
ATOM     20  CA  SAH d   1      11.431   9.615   2.434  0.00  0.00     0.183 C 
ATOM     21  H4  SAH d   1      12.053   8.981   1.785  0.00  0.00     0.101 H 
BRANCH  20  22
ATOM     22  N   SAH d   1      10.376   8.867   2.877  0.00  0.00    -0.065 N 
ATOM     23  H1  SAH d   1       9.803   8.597   2.093  0.00  0.00     0.275 HD
ATOM     24  H2  SAH d   1       9.826   9.411   3.523  0.00  0.00     0.275 HD
ATOM     25  H3  SAH d   1      10.721   8.041   3.341  0.00  0.00     0.275 HD
ENDBRANCH  20  22
BRANCH  20  26
ATOM     26  C   SAH d   1      12.328  10.036   3.678  0.00  0.00     0.204 C 
ATOM     27  O   SAH d   1      13.404  10.158   3.268  0.00  0.00    -0.646 OA
ATOM     28  OXT SAH d   1      11.949  10.194   4.750  0.00  0.00    -0.646 OA
ENDBRANCH  20  26
ENDBRANCH  17  20
ENDBRANCH  14  17
ENDBRANCH  13  14
ENDBRANCH  10  13
ENDBRANCH   1  10
BRANCH   3  29
ATOM     29  O3' SAH d   1      11.898  10.030  -3.015  0.00  0.00    -0.390 OA
ATOM     30  H13 SAH d   1      11.515   9.163  -2.951  0.00  0.00     0.210 HD
ENDBRANCH   3  29
BRANCH   5  31
ATOM     31  N9  SAH d   1       7.349  10.271  -4.389  0.00  0.00    -0.294 N 
ATOM     32  C8  SAH d   1       6.792  11.480  -4.829  0.00  0.00     0.071 A 
ATOM     33  N7  SAH d   1       5.651  11.312  -5.473  0.00  0.00    -0.236 NA
ATOM     34  H17 SAH d   1       7.251  12.453  -4.658  0.00  0.00     0.144 H 
ATOM     35  C5  SAH d   1       5.488   9.887  -5.426  0.00  0.00     0.149 A 
ATOM     36  C6  SAH d   1       4.398   9.134  -5.984  0.00  0.00     0.155 A 
ATOM     37  C4  SAH d   1       6.488   9.257  -4.783  0.00  0.00     0.167 A 
ATOM     38  N6  SAH d   1       3.371   9.724  -6.640  0.00  0.00    -0.382 N 
ATOM     39  N1  SAH d   1       4.498   7.767  -5.790  0.00  0.00    -0.222 NA
ATOM     40  H18 SAH d   1       2.608   9.149  -7.026  0.00  0.00     0.157 HD
ATOM     41  H19 SAH d   1       3.353  10.748  -6.753  0.00  0.00     0.157 HD
ATOM     42  C2  SAH d   1       5.564   7.166  -5.109  0.00  0.00     0.091 A 
ATOM     43  N3  SAH d   1       6.614   7.906  -4.573  0.00  0.00    -0.222 NA
ATOM     44  H20 SAH d   1       5.572   6.088  -4.995  0.00  0.00     0.146 H 
ENDBRANCH   5  31
BRANCH   4  45
ATOM     45  O2' SAH d   1      10.383  10.144  -5.452  0.00  0.00    -0.388 OA
ATOM     46  H15 SAH d   1      10.659   9.274  -5.190  0.00  0.00     0.210 HD
ENDBRANCH   4  45
TORSDOF 10
