REMARK  9 active torsions:
REMARK  status: ('A' for Active; 'I' for Inactive)
REMARK       I    between atoms: C02_2  and  N03_3 
REMARK    1  A    between atoms: C02_2  and  C05_5 
REMARK    2  A    between atoms: C05_5  and  N06_6 
REMARK    3  A    between atoms: C05_5  and  C25_25 
REMARK       I    between atoms: N06_6  and  C07_7 
REMARK    4  A    between atoms: C07_7  and  C09_9 
REMARK    5  A    between atoms: C12_12  and  C15_15 
REMARK    6  A    between atoms: C16_16  and  C17_17 
REMARK    7  A    between atoms: C18_18  and  C19_19 
REMARK    8  A    between atoms: C25_25  and  C26_26 
REMARK    9  A    between atoms: C25_25  and  O27_27 
ROOT
ATOM      1  C09 3P3 d   1      32.204  -9.057 -13.442  0.00  0.00     0.032 A 
ATOM      2  C10 3P3 d   1      31.364  -9.800 -14.314  0.00  0.00    -0.066 A 
ATOM      3  C11 3P3 d   1      30.982  -9.270 -15.629  0.00  0.00    -0.064 A 
ATOM      4  C12 3P3 d   1      31.494  -8.026 -16.029  0.00  0.00     0.018 A 
ATOM      5  C13 3P3 d   1      32.349  -7.272 -15.147  0.00  0.00    -0.064 A 
ATOM      6  C14 3P3 d   1      32.730  -7.793 -13.839  0.00  0.00    -0.066 A 
ATOM      7  H3  3P3 d   1      31.000 -10.773 -14.004  0.00  0.00     0.085 H 
ATOM      8  H4  3P3 d   1      30.317  -9.829 -16.278  0.00  0.00     0.085 H 
ATOM      9  H5  3P3 d   1      32.715  -6.301 -15.461  0.00  0.00     0.085 H 
ATOM     10  H6  3P3 d   1      33.394  -7.235 -13.188  0.00  0.00     0.085 H 
ENDROOT
BRANCH   1  11
ATOM     11  C07 3P3 d   1      32.459  -9.618 -12.074  0.00  0.00     0.252 C 
ATOM     12  N06 3P3 d   1      31.331 -10.311 -11.514  0.00  0.00    -0.341 N 
ATOM     13  H2  3P3 d   1      30.502 -10.424 -12.062  0.00  0.00     0.163 HD
ATOM     14  O08 3P3 d   1      33.434  -9.337 -11.386  0.00  0.00    -0.268 OA
BRANCH  12  15
ATOM     15  C05 3P3 d   1      31.373 -10.846 -10.177  0.00  0.00     0.118 C 
ATOM     16  H1  3P3 d   1      32.404 -10.696  -9.823  0.00  0.00     0.091 H 
BRANCH  15  17
ATOM     17  C02 3P3 d   1      31.187 -12.341 -10.233  0.00  0.00     0.294 C 
ATOM     18  O01 3P3 d   1      30.157 -12.849 -10.724  0.00  0.00    -0.267 OA
ATOM     19  N03 3P3 d   1      32.110 -13.222  -9.637  0.00  0.00    -0.057 NA
ATOM     20  O04 3P3 d   1      31.809 -14.504  -9.701  0.00  0.00    -0.058 OA
ENDBRANCH  15  17
BRANCH  15  21
ATOM     21  C25 3P3 d   1      30.510 -10.067  -9.178  0.00  0.00     0.060 C 
ATOM     22  H12 3P3 d   1      30.837  -9.017  -9.143  0.00  0.00     0.086 H 
BRANCH  21  23
ATOM     23  C26 3P3 d   1      29.033 -10.126  -9.617  0.00  0.00    -0.050 C 
ATOM     24  H13 3P3 d   1      28.415  -9.567  -8.899  0.00  0.00     0.031 H 
ATOM     25  H14 3P3 d   1      28.701 -11.174  -9.648  0.00  0.00     0.031 H 
ATOM     26  H15 3P3 d   1      28.930  -9.679 -10.617  0.00  0.00     0.031 H 
ENDBRANCH  21  23
BRANCH  21  27
ATOM     27  O27 3P3 d   1      30.675 -10.664  -7.887  0.00  0.00    -0.393 OA
ATOM     28  H16 3P3 d   1      31.589 -10.619  -7.633  0.00  0.00     0.210 HD
ENDBRANCH  21  27
ENDBRANCH  15  21
ENDBRANCH  12  15
ENDBRANCH   1  11
BRANCH   4  29
ATOM     29  C15 3P3 d   1      31.142  -7.435 -17.268  0.00  0.00    -0.053 C 
ATOM     30  C16 3P3 d   1      30.835  -6.915 -18.290  0.00  0.00    -0.009 C 
BRANCH  30  31
ATOM     31  C17 3P3 d   1      30.465  -6.266 -19.435  0.00  0.00    -0.009 C 
ATOM     32  C18 3P3 d   1      30.135  -5.661 -20.408  0.00  0.00    -0.053 C 
BRANCH  32  33
ATOM     33  C19 3P3 d   1      29.733  -4.914 -21.547  0.00  0.00     0.018 A 
ATOM     34  C20 3P3 d   1      28.408  -4.861 -21.997  0.00  0.00    -0.065 A 
ATOM     35  C21 3P3 d   1      28.088  -4.098 -23.122  0.00  0.00    -0.082 A 
ATOM     36  H7  3P3 d   1      27.634  -5.410 -21.474  0.00  0.00     0.085 H 
ATOM     37  C22 3P3 d   1      29.073  -3.361 -23.784  0.00  0.00    -0.083 A 
ATOM     38  H8  3P3 d   1      27.067  -4.077 -23.485  0.00  0.00     0.083 H 
ATOM     39  C23 3P3 d   1      30.384  -3.406 -23.332  0.00  0.00    -0.082 A 
ATOM     40  H9  3P3 d   1      28.814  -2.757 -24.646  0.00  0.00     0.083 H 
ATOM     41  C24 3P3 d   1      30.706  -4.173 -22.215  0.00  0.00    -0.065 A 
ATOM     42  H10 3P3 d   1      31.156  -2.845 -23.847  0.00  0.00     0.083 H 
ATOM     43  H11 3P3 d   1      31.730  -4.194 -21.860  0.00  0.00     0.085 H 
ENDBRANCH  32  33
ENDBRANCH  30  31
ENDBRANCH   4  29
TORSDOF 9
