REMARK  5 active torsions:
REMARK  status: ('A' for Active; 'I' for Inactive)
REMARK    1  A    between atoms: CAN_14  and  OAC_3 
REMARK    2  A    between atoms: CAP_16  and  OAD_4 
REMARK    3  A    between atoms: CAQ_17  and  CAM_13 
REMARK    4  A    between atoms: CAM_13  and  CAR_18 
REMARK    5  A    between atoms: CAS_19  and  NAT_20 
ROOT
ATOM      1  CAK 3M1 d   1       0.734  -0.732  -5.837  0.00  0.00    -0.034 A 
ATOM      2  CAL 3M1 d   1      -0.975   0.844  -5.647  0.00  0.00    -0.034 A 
ATOM      3  CAN 3M1 d   1       0.854  -0.808  -4.417  0.00  0.00     0.102 A 
ATOM      4  CAP 3M1 d   1       0.026  -0.021  -3.648  0.00  0.00     0.132 A 
ATOM      5  CAQ 3M1 d   1      -0.219   0.126  -6.376  0.00  0.00     0.020 A 
ATOM      6  CAS 3M1 d   1      -0.852   0.784  -4.322  0.00  0.00     0.139 A 
ATOM      7  H7  3M1 d   1       1.370  -1.329  -6.480  0.00  0.00     0.089 H 
ATOM      8  H8  3M1 d   1      -1.712   1.498  -6.099  0.00  0.00     0.088 H 
ENDROOT
BRANCH   5   9
ATOM      9  CAM 3M1 d   1      -0.612   0.415  -7.790  0.00  0.00     0.195 C 
ATOM     10  OAA 3M1 d   1      -1.228   1.444  -8.096  0.00  0.00    -0.287 OA
BRANCH   9  11
ATOM     11  CAR 3M1 d   1      -0.270  -0.590  -8.793  0.00  0.00     0.053 A 
ATOM     12  CAJ 3M1 d   1      -0.391  -1.929  -8.491  0.00  0.00    -0.066 A 
ATOM     13  CAH 3M1 d   1      -0.042  -2.865  -9.443  0.00  0.00    -0.082 A 
ATOM     14  H6  3M1 d   1      -0.755  -2.243  -7.519  0.00  0.00     0.085 H 
ATOM     15  CAG 3M1 d   1       0.479  -2.544 -10.667  0.00  0.00    -0.080 A 
ATOM     16  H4  3M1 d   1      -0.189  -3.913  -9.208  0.00  0.00     0.083 H 
ATOM     17  CAI 3M1 d   1       0.552  -1.199 -10.979  0.00  0.00    -0.045 A 
ATOM     18  H3  3M1 d   1       0.818  -3.307 -11.358  0.00  0.00     0.083 H 
ATOM     19  CAO 3M1 d   1       0.166  -0.204 -10.055  0.00  0.00     0.130 A 
ATOM     20  H5  3M1 d   1       0.914  -0.901 -11.956  0.00  0.00     0.088 H 
ATOM     21  FAF 3M1 d   1       0.255   1.080 -10.373  0.00  0.00    -0.205 F 
ENDBRANCH   9  11
ENDBRANCH   5   9
BRANCH   3  22
ATOM     22  OAC 3M1 d   1       1.750  -1.620  -3.820  0.00  0.00    -0.358 OA
ATOM     23  H1  3M1 d   1       1.678  -1.530  -2.877  0.00  0.00     0.217 HD
ENDBRANCH   3  22
BRANCH   6  24
ATOM     24  NAT 3M1 d   1      -1.718   1.560  -3.873  0.00  0.00    -0.113 N 
ATOM     25  OAB 3M1 d   1      -1.890   1.625  -2.619  0.00  0.00    -0.532 OA
ATOM     26  OAE 3M1 d   1      -2.576   2.157  -4.762  0.00  0.00    -0.532 OA
ENDBRANCH   6  24
BRANCH   4  27
ATOM     27  OAD 3M1 d   1       0.043   0.001  -2.286  0.00  0.00    -0.356 OA
ATOM     28  H2  3M1 d   1      -0.611   0.615  -1.972  0.00  0.00     0.218 HD
ENDBRANCH   4  27
TORSDOF 5
