REMARK  7 active torsions:
REMARK  status: ('A' for Active; 'I' for Inactive)
REMARK    1  A    between atoms: CAO_15  and  CAA_1 
REMARK    2  A    between atoms: CAP_16  and  CAB_2 
REMARK    3  A    between atoms: CAH_8  and  CAI_9 
REMARK    4  A    between atoms: CAJ_10  and  CAH_8 
REMARK    5  A    between atoms: CAI_9  and  OAM_13 
REMARK    6  A    between atoms: CAR_18  and  CAJ_10 
REMARK    7  A    between atoms: OAM_13  and  CAQ_17 
ROOT
ATOM      1  CAH 3M3 d   1       0.567   0.318  -6.834  0.00  0.00    -0.041 C 
ATOM      2  H11 3M3 d   1       1.392  -0.377  -7.050  0.00  0.00     0.036 H 
ATOM      3  H12 3M3 d   1       0.869   1.341  -7.102  0.00  0.00     0.036 H 
ENDROOT
BRANCH   1   4
ATOM      4  CAI 3M3 d   1       0.276   0.275  -5.327  0.00  0.00     0.026 C 
ATOM      5  H13 3M3 d   1      -0.803   0.305  -5.113  0.00  0.00     0.075 H 
ATOM      6  H14 3M3 d   1       0.780   1.089  -4.785  0.00  0.00     0.075 H 
BRANCH   4   7
ATOM      7  OAM 3M3 d   1       0.843  -0.994  -5.032  0.00  0.00    -0.348 OA
BRANCH   7   8
ATOM      8  CAQ 3M3 d   1       1.341  -1.061  -3.766  0.00  0.00     0.107 A 
ATOM      9  CAG 3M3 d   1       0.677  -0.505  -2.683  0.00  0.00    -0.048 A 
ATOM     10  CAE 3M3 d   1       1.284  -0.665  -1.430  0.00  0.00    -0.080 A 
ATOM     11  H10 3M3 d   1      -0.261   0.025  -2.799  0.00  0.00     0.087 H 
ATOM     12  CAD 3M3 d   1       2.488  -1.343  -1.316  0.00  0.00    -0.080 A 
ATOM     13  H8  3M3 d   1       0.810  -0.256  -0.545  0.00  0.00     0.083 H 
ATOM     14  CAF 3M3 d   1       3.117  -1.889  -2.404  0.00  0.00    -0.043 A 
ATOM     15  H7  3M3 d   1       2.945  -1.444  -0.338  0.00  0.00     0.083 H 
ATOM     16  CAN 3M3 d   1       2.532  -1.761  -3.634  0.00  0.00     0.149 A 
ATOM     17  H9  3M3 d   1       4.060  -2.412  -2.292  0.00  0.00     0.088 H 
ATOM     18  FAC 3M3 d   1       3.144  -2.251  -4.739  0.00  0.00    -0.203 F 
ENDBRANCH   7   8
ENDBRANCH   4   7
ENDBRANCH   1   4
BRANCH   1  19
ATOM     19  CAJ 3M3 d   1      -0.648  -0.078  -7.702  0.00  0.00    -0.035 C 
ATOM     20  H15 3M3 d   1      -1.462   0.642  -7.528  0.00  0.00     0.040 H 
ATOM     21  H16 3M3 d   1      -0.981  -1.085  -7.412  0.00  0.00     0.040 H 
BRANCH  19  22
ATOM     22  CAR 3M3 d   1      -0.295  -0.080  -9.193  0.00  0.00    -0.008 A 
ATOM     23  CAO 3M3 d   1       0.024  -1.141 -10.015  0.00  0.00     0.059 A 
ATOM     24  NAK 3M3 d   1       0.257  -0.686 -11.259  0.00  0.00    -0.179 NA
ATOM     25  NAL 3M3 d   1       0.106   0.565 -11.295  0.00  0.00    -0.282 N 
ATOM     26  CAP 3M3 d   1      -0.228   0.993 -10.072  0.00  0.00     0.032 A 
ATOM     27  H17 3M3 d   1       0.221   1.159 -12.128  0.00  0.00     0.189 HD
BRANCH  23  28
ATOM     28  CAA 3M3 d   1       0.112  -2.597  -9.563  0.00  0.00    -0.033 C 
ATOM     29  H1  3M3 d   1      -0.132  -2.664  -8.492  0.00  0.00     0.035 H 
ATOM     30  H2  3M3 d   1       1.132  -2.972  -9.731  0.00  0.00     0.035 H 
ATOM     31  H3  3M3 d   1      -0.601  -3.204 -10.140  0.00  0.00     0.035 H 
ENDBRANCH  23  28
BRANCH  26  32
ATOM     32  CAB 3M3 d   1      -0.515   2.455  -9.724  0.00  0.00    -0.035 C 
ATOM     33  H4  3M3 d   1      -0.765   2.535  -8.656  0.00  0.00     0.035 H 
ATOM     34  H5  3M3 d   1      -1.361   2.816 -10.327  0.00  0.00     0.035 H 
ATOM     35  H6  3M3 d   1       0.375   3.065  -9.939  0.00  0.00     0.035 H 
ENDBRANCH  26  32
ENDBRANCH  19  22
ENDBRANCH   1  19
TORSDOF 7
