REMARK  9 active torsions:
REMARK  status: ('A' for Active; 'I' for Inactive)
REMARK    1  A    between atoms: CA_5  and  C_1 
REMARK    2  A    between atoms: CA_5  and  N_2 
REMARK       I    between atoms: N_2  and  CAF_12 
REMARK    3  A    between atoms: CB_6  and  CA_5 
REMARK    4  A    between atoms: CG_7  and  CB_6 
REMARK    5  A    between atoms: CAD_10  and  CAN_16 
REMARK    6  A    between atoms: CAF_12  and  CAE_11 
REMARK    7  A    between atoms: CAK_13  and  OAL_14 
REMARK    8  A    between atoms: CAN_16  and  OAU_18 
REMARK    9  A    between atoms: OAU_18  and  CAV_19 
ROOT
ATOM      1  CA  PMX d   1      17.715   6.669  11.920  0.00  0.00     0.100 C 
ATOM      2  H2  PMX d   1      16.963   7.452  12.095  0.00  0.00     0.090 H 
ENDROOT
BRANCH   1   3
ATOM      3  C   PMX d   1      17.203   5.891  10.741  0.00  0.00     0.197 C 
ATOM      4  O   PMX d   1      17.186   4.667  10.739  0.00  0.00    -0.646 OA
ATOM      5  OXT PMX d   1      16.677   6.558   9.660  0.00  0.00    -0.646 OA
ENDBRANCH   1   3
BRANCH   1   6
ATOM      6  N   PMX d   1      17.760   5.899  13.153  0.00  0.00    -0.343 N 
ATOM      7  CAF PMX d   1      16.579   5.595  13.922  0.00  0.00     0.242 C 
ATOM      8  OAA PMX d   1      15.514   6.121  13.647  0.00  0.00    -0.269 OA
ATOM      9  H1  PMX d   1      18.645   5.567  13.480  0.00  0.00     0.163 HD
BRANCH   7  10
ATOM     10  CAE PMX d   1      16.653   4.674  14.956  0.00  0.00    -0.012 C 
ATOM     11  CAD PMX d   1      15.587   4.320  15.506  0.00  0.00    -0.005 C 
ATOM     12  H6  PMX d   1      14.630   4.704  15.157  0.00  0.00     0.093 H 
ATOM     13  H7  PMX d   1      17.611   4.271  15.280  0.00  0.00     0.092 H 
BRANCH  11  14
ATOM     14  CAN PMX d   1      15.649   3.356  16.656  0.00  0.00     0.282 C 
ATOM     15  OAM PMX d   1      16.766   2.991  17.103  0.00  0.00    -0.260 OA
BRANCH  14  16
ATOM     16  OAU PMX d   1      14.567   2.862  17.105  0.00  0.00    -0.323 OA
BRANCH  16  17
ATOM     17  CAV PMX d   1      14.549   2.157  18.305  0.00  0.00     0.013 C 
ATOM     18  H9  PMX d   1      13.524   1.815  18.514  0.00  0.00     0.067 H 
ATOM     19  H10 PMX d   1      14.891   2.812  19.120  0.00  0.00     0.067 H 
ATOM     20  H11 PMX d   1      15.217   1.287  18.229  0.00  0.00     0.067 H 
ENDBRANCH  16  17
ENDBRANCH  14  16
ENDBRANCH  11  14
ENDBRANCH   7  10
ENDBRANCH   1   6
BRANCH   1  21
ATOM     21  CB  PMX d   1      19.016   7.416  11.643  0.00  0.00    -0.013 C 
ATOM     22  H3  PMX d   1      18.986   7.753  10.596  0.00  0.00     0.043 H 
ATOM     23  H4  PMX d   1      19.841   6.700  11.774  0.00  0.00     0.043 H 
BRANCH  21  24
ATOM     24  CG  PMX d   1      19.327   8.631  12.503  0.00  0.00    -0.054 A 
ATOM     25  CD1 PMX d   1      18.955   9.927  12.008  0.00  0.00    -0.053 A 
ATOM     26  CAS PMX d   1      19.247  11.161  12.813  0.00  0.00     0.067 A 
ATOM     27  H12 PMX d   1      18.460  10.015  11.047  0.00  0.00     0.087 H 
ATOM     28 CL   PMX d   1      18.844  12.513  12.297  0.00  0.00    -0.081 Cl
ATOM     29  CAK PMX d   1      19.920  11.034  14.114  0.00  0.00     0.087 A 
ATOM     30  CAC PMX d   1      20.314   9.695  14.637  0.00  0.00    -0.049 A 
ATOM     31  CD2 PMX d   1      20.026   8.497  13.849  0.00  0.00    -0.074 A 
ATOM     32  H5  PMX d   1      20.811   9.610  15.596  0.00  0.00     0.087 H 
ATOM     33  H13 PMX d   1      20.309   7.519  14.221  0.00  0.00     0.084 H 
BRANCH  29  34
ATOM     34  OAL PMX d   1      20.198  12.178  14.846  0.00  0.00    -0.359 OA
ATOM     35  H8  PMX d   1      19.883  12.939  14.373  0.00  0.00     0.217 HD
ENDBRANCH  29  34
ENDBRANCH  21  24
ENDBRANCH   1  21
TORSDOF 9
