REMARK  5 active torsions:
REMARK  status: ('A' for Active; 'I' for Inactive)
REMARK    1  A    between atoms: NAL_12  and  CAA_1 
REMARK    2  A    between atoms: CAJ_10  and  SAC_3 
REMARK    3  A    between atoms: CAI_9  and  CAK_11 
REMARK    4  A    between atoms: NAL_12  and  CAI_9 
REMARK    5  A    between atoms: CAJ_10  and  NAL_12 
ROOT
ATOM      1  CAI P58 d   1      -4.006   2.463  14.559  0.00  0.00     0.019 C 
ATOM      2  H10 P58 d   1      -3.438   3.405  14.575  0.00  0.00     0.071 H 
ATOM      3  H11 P58 d   1      -3.420   1.673  15.051  0.00  0.00     0.071 H 
ENDROOT
BRANCH   1   4
ATOM      4  CAK P58 d   1      -4.288   2.062  13.108  0.00  0.00    -0.040 A 
ATOM      5  CAG P58 d   1      -4.470   3.005  12.066  0.00  0.00    -0.075 A 
ATOM      6  CAE P58 d   1      -4.737   2.558  10.755  0.00  0.00    -0.082 A 
ATOM      7  H8  P58 d   1      -4.404   4.066  12.276  0.00  0.00     0.084 H 
ATOM      8  CAD P58 d   1      -4.882   1.159  10.494  0.00  0.00    -0.083 A 
ATOM      9  H6  P58 d   1      -4.832   3.274   9.946  0.00  0.00     0.083 H 
ATOM     10  CAF P58 d   1      -4.698   0.242  11.564  0.00  0.00    -0.082 A 
ATOM     11  H5  P58 d   1      -5.128   0.805   9.499  0.00  0.00     0.083 H 
ATOM     12  CAH P58 d   1      -4.420   0.690  12.878  0.00  0.00    -0.075 A 
ATOM     13  H7  P58 d   1      -4.772  -0.822  11.370  0.00  0.00     0.083 H 
ATOM     14  H9  P58 d   1      -4.311  -0.019  13.691  0.00  0.00     0.084 H 
ENDBRANCH   1   4
BRANCH   1  15
ATOM     15  NAL P58 d   1      -5.284   2.646  15.276  0.00  0.00    -0.367 N 
BRANCH  15  16
ATOM     16  CAA P58 d   1      -6.056   3.886  15.095  0.00  0.00    -0.017 C 
ATOM     17  H1  P58 d   1      -5.574   4.509  14.327  0.00  0.00     0.056 H 
ATOM     18  H2  P58 d   1      -6.092   4.438  16.046  0.00  0.00     0.056 H 
ATOM     19  H3  P58 d   1      -7.079   3.638  14.777  0.00  0.00     0.056 H 
ENDBRANCH  15  16
BRANCH  15  20
ATOM     20  CAJ P58 d   1      -5.682   1.654  16.211  0.00  0.00     0.133 C 
ATOM     21  SAB P58 d   1      -7.305   1.773  16.842  0.00  0.00    -0.053 SA
BRANCH  20  22
ATOM     22  SAC P58 d   1      -4.968   0.032  16.224  0.00  0.00    -0.114 SA
ATOM     23  H4  P58 d   1      -4.929  -0.309  17.172  0.00  0.00     0.109 HD
ENDBRANCH  20  22
ENDBRANCH  15  20
ENDBRANCH   1  15
TORSDOF 5
