REMARK  3 active torsions:
REMARK  status: ('A' for Active; 'I' for Inactive)
REMARK    1  A    between atoms: N22_2  and  CAN_15 
REMARK    2  A    between atoms: CAN_15  and  SAC_4 
REMARK    3  A    between atoms: CAO_16  and  CAQ_17 
ROOT
ATOM      1  N11 IT5 d   1      -4.691   4.196  10.894  0.00  0.00    -0.196 NA
ATOM      2  N22 IT5 d   1      -5.293   2.569  14.815  0.00  0.00    -0.367 N 
ATOM      3  CAD IT5 d   1      -4.416   4.379  11.991  0.00  0.00     0.074 C 
ATOM      4  CAJ IT5 d   1      -6.117   3.726  14.473  0.00  0.00    -0.002 C 
ATOM      5  CAK IT5 d   1      -4.221   2.235  13.903  0.00  0.00    -0.002 C 
ATOM      6  CAL IT5 d   1      -5.258   4.922  14.201  0.00  0.00    -0.027 C 
ATOM      7  CAM IT5 d   1      -3.341   3.416  13.902  0.00  0.00    -0.027 C 
ATOM      8  CAQ IT5 d   1      -4.043   4.629  13.463  0.00  0.00     0.079 C 
ATOM      9  H7  IT5 d   1      -6.793   3.949  15.312  0.00  0.00     0.064 H 
ATOM     10  H8  IT5 d   1      -6.710   3.495  13.576  0.00  0.00     0.064 H 
ATOM     11  H9  IT5 d   1      -4.616   2.046  12.894  0.00  0.00     0.064 H 
ATOM     12  H10 IT5 d   1      -3.676   1.347  14.255  0.00  0.00     0.064 H 
ATOM     13  H11 IT5 d   1      -4.976   5.370  15.165  0.00  0.00     0.038 H 
ATOM     14  H12 IT5 d   1      -5.848   5.645  13.619  0.00  0.00     0.038 H 
ATOM     15  H13 IT5 d   1      -2.497   3.229  13.222  0.00  0.00     0.038 H 
ATOM     16  H14 IT5 d   1      -2.961   3.576  14.922  0.00  0.00     0.038 H 
ENDROOT
BRANCH   8  17
ATOM     17  CAO IT5 d   1      -3.046   5.806  13.561  0.00  0.00    -0.035 A 
ATOM     18  CAH IT5 d   1      -1.957   5.884  12.621  0.00  0.00    -0.075 A 
ATOM     19  CAF IT5 d   1      -1.045   6.926  12.674  0.00  0.00    -0.082 A 
ATOM     20  H5  IT5 d   1      -1.850   5.117  11.862  0.00  0.00     0.084 H 
ATOM     21  CAE IT5 d   1      -1.195   7.935  13.688  0.00  0.00    -0.083 A 
ATOM     22  H3  IT5 d   1      -0.230   6.980  11.961  0.00  0.00     0.083 H 
ATOM     23  CAG IT5 d   1      -2.255   7.844  14.625  0.00  0.00    -0.082 A 
ATOM     24  H2  IT5 d   1      -0.498   8.764  13.736  0.00  0.00     0.083 H 
ATOM     25  CAI IT5 d   1      -3.183   6.799  14.582  0.00  0.00    -0.075 A 
ATOM     26  H4  IT5 d   1      -2.348   8.603  15.393  0.00  0.00     0.083 H 
ATOM     27  H6  IT5 d   1      -3.988   6.742  15.306  0.00  0.00     0.084 H 
ENDBRANCH   8  17
BRANCH   2  28
ATOM     28  CAN IT5 d   1      -5.680   1.712  15.859  0.00  0.00     0.134 C 
ATOM     29  SAB IT5 d   1      -4.914   0.147  15.950  0.00  0.00    -0.053 SA
BRANCH  28  30
ATOM     30  SAC IT5 d   1      -7.224   1.880  16.647  0.00  0.00    -0.114 SA
ATOM     31  H1  IT5 d   1      -7.561   2.822  16.525  0.00  0.00     0.109 HD
ENDBRANCH  28  30
ENDBRANCH   2  28
TORSDOF 3
