REMARK  8 active torsions:
REMARK  status: ('A' for Active; 'I' for Inactive)
REMARK    1  A    between atoms: C7_7  and  C6_8 
REMARK    2  A    between atoms: C15_14  and  O2_15 
REMARK    3  A    between atoms: O2_15  and  C16_16 
REMARK    4  A    between atoms: C20_22  and  C21_23 
REMARK    5  A    between atoms: C5_24  and  C4_25 
REMARK    6  A    between atoms: C4_25  and  C3_26 
REMARK       I    between atoms: C3_26  and  N1_28 
REMARK    7  A    between atoms: N1_28  and  C2_29 
REMARK    8  A    between atoms: C2_29  and  C1_30 
ROOT
ATOM      1  C6  EAM d   1      26.663  50.490  -2.501  0.00  0.00     0.074 C 
ATOM      2  N2  EAM d   1      25.434  50.735  -2.801  0.00  0.00    -0.275 NA
ATOM      3  C13 EAM d   1      27.272  50.437  -1.135  0.00  0.00     0.023 A 
ATOM      4  C19 EAM d   1      26.501  50.146  -0.008  0.00  0.00     0.055 A 
ATOM      5  C18 EAM d   1      26.942  50.562   1.250  0.00  0.00    -0.053 A 
ATOM      6  C17 EAM d   1      28.176  51.183   1.422  0.00  0.00    -0.049 A 
ATOM      7  C15 EAM d   1      28.986  51.423   0.312  0.00  0.00     0.069 A 
ATOM      8  C14 EAM d   1      28.532  51.031  -0.944  0.00  0.00    -0.036 A 
ATOM      9  N3  EAM d   1      25.199  49.554  -0.070  0.00  0.00    -0.282 N 
ATOM     10  C22 EAM d   1      24.184  50.097  -0.826  0.00  0.00     0.160 A 
ATOM     11  N5  EAM d   1      23.088  49.397  -0.656  0.00  0.00    -0.132 NA
ATOM     12  N4  EAM d   1      23.383  48.373   0.257  0.00  0.00    -0.135 NA
ATOM     13  C20 EAM d   1      24.644  48.484   0.599  0.00  0.00     0.131 A 
ATOM     14  C5  EAM d   1      24.529  51.247  -1.765  0.00  0.00     0.100 C 
ATOM     15  H5  EAM d   1      26.308  50.397   2.114  0.00  0.00     0.087 H 
ATOM     16  H6  EAM d   1      28.505  51.478   2.412  0.00  0.00     0.087 H 
ATOM     17  H10 EAM d   1      29.172  51.189  -1.805  0.00  0.00     0.089 H 
ATOM     18  H14 EAM d   1      24.996  52.066  -1.199  0.00  0.00     0.089 H 
ENDROOT
BRANCH  14  19
ATOM     19  C4  EAM d   1      23.293  51.752  -2.517  0.00  0.00     0.036 C 
ATOM     20  H15 EAM d   1      22.530  52.054  -1.785  0.00  0.00     0.051 H 
ATOM     21  H16 EAM d   1      22.899  50.937  -3.143  0.00  0.00     0.051 H 
BRANCH  19  22
ATOM     22  C3  EAM d   1      23.619  52.941  -3.406  0.00  0.00     0.220 C 
ATOM     23  O1  EAM d   1      24.611  53.627  -3.196  0.00  0.00    -0.274 OA
ATOM     24  N1  EAM d   1      22.776  53.200  -4.407  0.00  0.00    -0.361 N 
ATOM     25  H17 EAM d   1      21.974  52.617  -4.538  0.00  0.00     0.162 HD
BRANCH  24  26
ATOM     26  C2  EAM d   1      23.004  54.319  -5.312  0.00  0.00    -0.008 C 
ATOM     27  H18 EAM d   1      23.805  54.045  -6.014  0.00  0.00     0.063 H 
ATOM     28  H19 EAM d   1      23.318  55.191  -4.720  0.00  0.00     0.063 H 
BRANCH  26  29
ATOM     29  C1  EAM d   1      21.771  54.694  -6.108  0.00  0.00    -0.061 C 
ATOM     30  H20 EAM d   1      22.005  55.541  -6.770  0.00  0.00     0.029 H 
ATOM     31  H21 EAM d   1      20.963  54.980  -5.419  0.00  0.00     0.029 H 
ATOM     32  H22 EAM d   1      21.450  53.834  -6.713  0.00  0.00     0.029 H 
ENDBRANCH  26  29
ENDBRANCH  24  26
ENDBRANCH  19  22
ENDBRANCH  14  19
BRANCH   1  33
ATOM     33  C7  EAM d   1      27.518  50.066  -3.650  0.00  0.00    -0.007 A 
ATOM     34  C8  EAM d   1      28.650  49.282  -3.402  0.00  0.00    -0.069 A 
ATOM     35  C9  EAM d   1      29.438  48.830  -4.443  0.00  0.00    -0.061 A 
ATOM     36  H2  EAM d   1      28.912  49.026  -2.382  0.00  0.00     0.085 H 
ATOM     37  C10 EAM d   1      29.076  49.115  -5.748  0.00  0.00     0.034 A 
ATOM     38  H1  EAM d   1      30.334  48.256  -4.239  0.00  0.00     0.086 H 
ATOM     39 CL   EAM d   1      30.064  48.518  -7.050  0.00  0.00    -0.084 Cl
ATOM     40  C11 EAM d   1      27.937  49.864  -6.032  0.00  0.00    -0.061 A 
ATOM     41  C12 EAM d   1      27.149  50.323  -4.976  0.00  0.00    -0.069 A 
ATOM     42  H3  EAM d   1      27.667  50.087  -7.058  0.00  0.00     0.086 H 
ATOM     43  H4  EAM d   1      26.244  50.883  -5.184  0.00  0.00     0.085 H 
ENDBRANCH   1  33
BRANCH  13  44
ATOM     44  C21 EAM d   1      25.336  47.581   1.553  0.00  0.00    -0.019 C 
ATOM     45  H11 EAM d   1      24.628  46.824   1.921  0.00  0.00     0.037 H 
ATOM     46  H12 EAM d   1      25.719  48.167   2.401  0.00  0.00     0.037 H 
ATOM     47  H13 EAM d   1      26.174  47.083   1.044  0.00  0.00     0.037 H 
ENDBRANCH  13  44
BRANCH   7  48
ATOM     48  O2  EAM d   1      30.221  52.045   0.401  0.00  0.00    -0.356 OA
BRANCH  48  49
ATOM     49  C16 EAM d   1      30.829  52.239   1.680  0.00  0.00     0.010 C 
ATOM     50  H7  EAM d   1      31.797  52.745   1.553  0.00  0.00     0.066 H 
ATOM     51  H8  EAM d   1      30.986  51.263   2.163  0.00  0.00     0.066 H 
ATOM     52  H9  EAM d   1      30.172  52.858   2.308  0.00  0.00     0.066 H 
ENDBRANCH  48  49
ENDBRANCH   7  48
TORSDOF 8
