REMARK  3 active torsions:
REMARK  status: ('A' for Active; 'I' for Inactive)
REMARK    1  A    between atoms: CAE_5  and  NAA_1 
REMARK    2  A    between atoms: CAF_6  and  CAE_5 
REMARK    3  A    between atoms: CAF_6  and  PAG_7 
ROOT
ATOM      1  CAE P7I d   1      -3.438 -23.054  11.523  0.00  0.00     0.091 C 
ATOM      2  H4  P7I d   1      -3.482 -24.045  11.999  0.00  0.00     0.076 H 
ATOM      3  H5  P7I d   1      -4.242 -22.969  10.778  0.00  0.00     0.076 H 
ENDROOT
BRANCH   1   4
ATOM      4  NAA P7I d   1      -2.172 -22.912  10.860  0.00  0.00    -0.079 N 
ATOM      5  H1  P7I d   1      -2.075 -23.634  10.163  0.00  0.00     0.274 HD
ATOM      6  H2  P7I d   1      -1.428 -22.994  11.535  0.00  0.00     0.274 HD
ATOM      7  H3  P7I d   1      -2.125 -22.008  10.416  0.00  0.00     0.274 HD
ENDBRANCH   1   4
BRANCH   1   8
ATOM      8  CAF P7I d   1      -3.643 -21.953  12.621  0.00  0.00     0.061 C 
ATOM      9  H6  P7I d   1      -3.473 -20.963  12.174  0.00  0.00     0.056 H 
ATOM     10  H7  P7I d   1      -2.921 -22.117  13.434  0.00  0.00     0.056 H 
BRANCH   8  11
ATOM     11  PAG P7I d   1      -5.285 -22.016  13.283  0.00  0.00     0.261 P 
ATOM     12  OAB P7I d   1      -5.547 -23.467  13.849  0.00  0.00    -0.640 OA
ATOM     13  OAC P7I d   1      -5.327 -20.921  14.334  0.00  0.00    -0.640 OA
ATOM     14  OAD P7I d   1      -6.278 -21.771  12.048  0.00  0.00    -0.640 OA
ENDBRANCH   8  11
ENDBRANCH   1   8
TORSDOF 3
