REMARK  20 active torsions:
REMARK  status: ('A' for Active; 'I' for Inactive)
REMARK    1  A    between atoms: C25_1  and  O27_3 
REMARK       I    between atoms: N24_9  and  C25_1 
REMARK    2  A    between atoms: O27_3  and  C28_4 
REMARK    3  A    between atoms: C19_10  and  N24_9 
REMARK    4  A    between atoms: C19_10  and  C20_11 
REMARK    5  A    between atoms: C17_15  and  C19_10 
REMARK    6  A    between atoms: C20_11  and  C21_12 
REMARK    7  A    between atoms: C20_11  and  C22_13 
REMARK    8  A    between atoms: C20_11  and  C23_14 
REMARK       I    between atoms: N16_23  and  C17_15 
REMARK    9  A    between atoms: C12_19  and  C10_17 
REMARK       I    between atoms: C10_17  and  N9_49 
REMARK   10  A    between atoms: C14_21  and  O33_24 
REMARK   11  A    between atoms: O33_24  and  C34_25 
REMARK   12  A    between atoms: C42_33  and  O45_36 
REMARK   13  A    between atoms: O45_36  and  C46_37 
REMARK   14  A    between atoms: C50_41  and  N52_43 
REMARK       I    between atoms: N52_43  and  C53_44 
REMARK   15  A    between atoms: C53_44  and  C55_46 
REMARK   16  A    between atoms: C55_46  and  C56_47 
REMARK   17  A    between atoms: C55_46  and  C57_48 
REMARK   18  A    between atoms: N9_49  and  C4_50 
REMARK   19  A    between atoms: C4_50  and  C2_55 
REMARK   20  A    between atoms: C6_51  and  C7_53 
ROOT
ATOM      1  C17 L4T d   1      41.072  46.346   8.908  0.00  0.00     0.244 C 
ATOM      2  O18 L4T d   1      42.276  46.160   8.800  0.00  0.00    -0.271 OA
ATOM      3  C12 L4T d   1      41.109  47.768   6.884  0.00  0.00     0.094 C 
ATOM      4  C13 L4T d   1      40.042  48.666   6.219  0.00  0.00    -0.012 C 
ATOM      5  C14 L4T d   1      38.742  47.919   6.535  0.00  0.00     0.063 C 
ATOM      6  C15 L4T d   1      38.972  47.545   7.982  0.00  0.00     0.023 C 
ATOM      7  N16 L4T d   1      40.388  47.147   7.993  0.00  0.00    -0.334 N 
ATOM      8  H21 L4T d   1      41.508  47.018   6.186  0.00  0.00     0.088 H 
ATOM      9  H22 L4T d   1      40.205  48.741   5.134  0.00  0.00     0.040 H 
ATOM     10  H23 L4T d   1      40.039  49.674   6.660  0.00  0.00     0.040 H 
ATOM     11  H24 L4T d   1      37.836  48.516   6.352  0.00  0.00     0.086 H 
ATOM     12  H25 L4T d   1      38.323  46.710   8.284  0.00  0.00     0.068 H 
ATOM     13  H26 L4T d   1      38.797  48.404   8.646  0.00  0.00     0.068 H 
ENDROOT
BRANCH   5  14
ATOM     14  O33 L4T d   1      38.730  46.645   5.840  0.00  0.00    -0.343 OA
BRANCH  14  15
ATOM     15  C34 L4T d   1      38.278  46.540   4.535  0.00  0.00     0.084 A 
ATOM     16  C35 L4T d   1      37.654  47.716   3.876  0.00  0.00    -0.020 A 
ATOM     17  C36 L4T d   1      37.212  47.576   2.590  0.00  0.00     0.089 A 
ATOM     18  H27 L4T d   1      37.552  48.659   4.400  0.00  0.00     0.091 H 
ATOM     19  N37 L4T d   1      37.368  46.357   1.944  0.00  0.00    -0.244 NA
ATOM     20  C47 L4T d   1      36.567  48.622   1.884  0.00  0.00     0.095 A 
ATOM     21  C38 L4T d   1      37.929  45.212   2.470  0.00  0.00     0.090 A 
ATOM     22  C39 L4T d   1      38.407  45.342   3.877  0.00  0.00     0.028 A 
ATOM     23  C43 L4T d   1      38.049  44.042   1.785  0.00  0.00     0.073 A 
ATOM     24  C40 L4T d   1      39.019  44.131   4.548  0.00  0.00    -0.065 A 
ATOM     25  C41 L4T d   1      39.082  42.900   3.703  0.00  0.00    -0.048 A 
ATOM     26  H28 L4T d   1      39.385  44.155   5.568  0.00  0.00     0.085 H 
ATOM     27  C42 L4T d   1      38.630  42.842   2.402  0.00  0.00     0.087 A 
ATOM     28  H29 L4T d   1      39.507  42.002   4.138  0.00  0.00     0.087 H 
ATOM     29 BR44 L4T d   1      37.436  43.971  -0.032  0.00  0.00    -0.046 Br
ATOM     30  C48 L4T d   1      36.157  48.544   0.563  0.00  0.00    -0.011 A 
ATOM     31  N51 L4T d   1      36.292  49.804   2.530  0.00  0.00    -0.222 NA
ATOM     32  S49 L4T d   1      35.398  50.021   0.126  0.00  0.00    -0.061 SA
ATOM     33  H33 L4T d   1      36.294  47.685  -0.092  0.00  0.00     0.098 H 
ATOM     34  C50 L4T d   1      35.687  50.628   1.713  0.00  0.00     0.173 A 
BRANCH  27  35
ATOM     35  O45 L4T d   1      38.667  41.718   1.564  0.00  0.00    -0.355 OA
BRANCH  35  36
ATOM     36  C46 L4T d   1      39.212  40.476   2.071  0.00  0.00     0.010 C 
ATOM     37  H30 L4T d   1      39.163  39.707   1.286  0.00  0.00     0.066 H 
ATOM     38  H31 L4T d   1      38.627  40.148   2.943  0.00  0.00     0.066 H 
ATOM     39  H32 L4T d   1      40.260  40.630   2.369  0.00  0.00     0.066 H 
ENDBRANCH  35  36
ENDBRANCH  27  35
BRANCH  34  40
ATOM     40  N52 L4T d   1      35.297  51.875   2.158  0.00  0.00    -0.305 N 
ATOM     41  C53 L4T d   1      34.370  52.700   1.537  0.00  0.00     0.227 C 
ATOM     42  O54 L4T d   1      33.795  52.382   0.473  0.00  0.00    -0.273 OA
ATOM     43  H34 L4T d   1      35.718  52.213   3.000  0.00  0.00     0.171 HD
BRANCH  41  44
ATOM     44  C55 L4T d   1      34.128  54.013   2.314  0.00  0.00     0.017 C 
ATOM     45  H35 L4T d   1      35.021  54.204   2.928  0.00  0.00     0.053 H 
BRANCH  44  46
ATOM     46  C56 L4T d   1      32.928  53.870   3.259  0.00  0.00    -0.065 C 
ATOM     47  H36 L4T d   1      32.774  54.815   3.801  0.00  0.00     0.028 H 
ATOM     48  H37 L4T d   1      33.123  53.061   3.979  0.00  0.00     0.028 H 
ATOM     49  H38 L4T d   1      32.027  53.632   2.674  0.00  0.00     0.028 H 
ENDBRANCH  44  46
BRANCH  44  50
ATOM     50  C57 L4T d   1      33.940  55.212   1.391  0.00  0.00    -0.065 C 
ATOM     51  H39 L4T d   1      34.809  55.299   0.722  0.00  0.00     0.028 H 
ATOM     52  H40 L4T d   1      33.848  56.128   1.994  0.00  0.00     0.028 H 
ATOM     53  H41 L4T d   1      33.028  55.074   0.792  0.00  0.00     0.028 H 
ENDBRANCH  44  50
ENDBRANCH  41  44
ENDBRANCH  34  40
ENDBRANCH  14  15
ENDBRANCH   5  14
BRANCH   3  54
ATOM     54  C10 L4T d   1      42.235  48.652   7.430  0.00  0.00     0.241 C 
ATOM     55  O11 L4T d   1      42.088  49.335   8.447  0.00  0.00    -0.271 OA
ATOM     56  N9  L4T d   1      43.412  48.571   6.719  0.00  0.00    -0.340 N 
ATOM     57  H42 L4T d   1      43.391  48.221   5.782  0.00  0.00     0.163 HD
BRANCH  56  58
ATOM     58  C4  L4T d   1      44.680  48.978   7.290  0.00  0.00     0.129 A 
ATOM     59  C6  L4T d   1      45.308  48.023   8.335  0.00  0.00    -0.001 A 
ATOM     60  C5  L4T d   1      45.913  48.122   6.960  0.00  0.00    -0.022 A 
ATOM     61  H43 L4T d   1      44.756  47.112   8.611  0.00  0.00     0.051 H 
ATOM     62  H44 L4T d   1      46.893  48.603   6.827  0.00  0.00     0.038 H 
ATOM     63  H45 L4T d   1      45.821  47.278   6.260  0.00  0.00     0.038 H 
BRANCH  59  64
ATOM     64  C7  L4T d   1      46.032  48.494   9.528  0.00  0.00    -0.105 C 
ATOM     65  C8  L4T d   1      45.728  48.133  10.793  0.00  0.00    -0.124 C 
ATOM     66  H47 L4T d   1      46.311  48.524  11.626  0.00  0.00     0.066 H 
ATOM     67  H48 L4T d   1      44.900  47.451  10.980  0.00  0.00     0.066 H 
ATOM     68  H46 L4T d   1      46.867  49.178   9.380  0.00  0.00     0.076 H 
ENDBRANCH  59  64
BRANCH  58  69
ATOM     69  C2  L4T d   1      44.896  50.507   7.291  0.00  0.00     0.203 C 
ATOM     70  O3  L4T d   1      45.984  50.981   7.738  0.00  0.00    -0.646 OA
ATOM     71  O1  L4T d   1      43.963  51.265   6.799  0.00  0.00    -0.646 OA
ENDBRANCH  58  69
ENDBRANCH  56  58
ENDBRANCH   3  54
BRANCH   1  72
ATOM     72  C19 L4T d   1      40.277  45.712  10.076  0.00  0.00     0.098 C 
ATOM     73  H11 L4T d   1      39.213  45.947   9.928  0.00  0.00     0.088 H 
BRANCH  72  74
ATOM     74  N24 L4T d   1      40.437  44.291   9.965  0.00  0.00    -0.323 N 
ATOM     75  C25 L4T d   1      39.556  43.547   9.261  0.00  0.00     0.361 C 
ATOM     76  O26 L4T d   1      38.584  43.995   8.674  0.00  0.00    -0.238 OA
ATOM     77  H10 L4T d   1      41.211  43.845  10.415  0.00  0.00     0.165 HD
BRANCH  75  78
ATOM     78  O27 L4T d   1      39.893  42.239   9.325  0.00  0.00    -0.299 OA
BRANCH  78  79
ATOM     79  C28 L4T d   1      40.358  41.624   8.156  0.00  0.00     0.050 C 
ATOM     80  C29 L4T d   1      39.303  41.211   7.169  0.00  0.00    -0.040 C 
ATOM     81  C30 L4T d   1      40.110  40.301   6.248  0.00  0.00    -0.063 C 
ATOM     82  H2  L4T d   1      38.896  42.077   6.626  0.00  0.00     0.036 H 
ATOM     83  H3  L4T d   1      38.483  40.666   7.659  0.00  0.00     0.036 H 
ATOM     84  C31 L4T d   1      41.183  39.690   7.143  0.00  0.00    -0.063 C 
ATOM     85  H4  L4T d   1      40.569  40.882   5.435  0.00  0.00     0.033 H 
ATOM     86  H5  L4T d   1      39.469  39.516   5.821  0.00  0.00     0.033 H 
ATOM     87  C32 L4T d   1      40.903  40.254   8.523  0.00  0.00    -0.040 C 
ATOM     88  H6  L4T d   1      42.186  39.983   6.801  0.00  0.00     0.033 H 
ATOM     89  H7  L4T d   1      41.104  38.593   7.149  0.00  0.00     0.033 H 
ATOM     90  H8  L4T d   1      40.158  39.652   9.064  0.00  0.00     0.036 H 
ATOM     91  H9  L4T d   1      41.821  40.330   9.125  0.00  0.00     0.036 H 
ATOM     92  H1  L4T d   1      41.113  42.268   7.681  0.00  0.00     0.084 H 
ENDBRANCH  78  79
ENDBRANCH  75  78
ENDBRANCH  72  74
BRANCH  72  93
ATOM     93  C20 L4T d   1      40.669  46.271  11.487  0.00  0.00    -0.022 C 
BRANCH  93  94
ATOM     94  C21 L4T d   1      40.415  47.808  11.534  0.00  0.00    -0.067 C 
ATOM     95  H12 L4T d   1      40.691  48.195  12.526  0.00  0.00     0.028 H 
ATOM     96  H13 L4T d   1      39.350  48.010  11.346  0.00  0.00     0.028 H 
ATOM     97  H14 L4T d   1      41.024  48.304  10.764  0.00  0.00     0.028 H 
ENDBRANCH  93  94
BRANCH  93  98
ATOM     98  C22 L4T d   1      42.143  45.998  11.863  0.00  0.00    -0.067 C 
ATOM     99  H15 L4T d   1      42.334  44.915  11.833  0.00  0.00     0.028 H 
ATOM    100  H16 L4T d   1      42.339  46.377  12.877  0.00  0.00     0.028 H 
ATOM    101  H17 L4T d   1      42.804  46.507  11.147  0.00  0.00     0.028 H 
ENDBRANCH  93  98
BRANCH  93 102
ATOM    102  C23 L4T d   1      39.789  45.612  12.564  0.00  0.00    -0.067 C 
ATOM    103  H18 L4T d   1      38.729  45.786  12.328  0.00  0.00     0.028 H 
ATOM    104  H19 L4T d   1      40.023  46.048  13.546  0.00  0.00     0.028 H 
ATOM    105  H20 L4T d   1      39.986  44.530  12.587  0.00  0.00     0.028 H 
ENDBRANCH  93 102
ENDBRANCH  72  93
ENDBRANCH   1  72
TORSDOF 20
