REMARK  20 active torsions:
REMARK  status: ('A' for Active; 'I' for Inactive)
REMARK    1  A    between atoms: C25_1  and  O27_3 
REMARK       I    between atoms: N24_9  and  C25_1 
REMARK    2  A    between atoms: O27_3  and  C28_4 
REMARK    3  A    between atoms: C19_10  and  N24_9 
REMARK    4  A    between atoms: C19_10  and  C20_11 
REMARK    5  A    between atoms: C17_15  and  C19_10 
REMARK    6  A    between atoms: C20_11  and  C21_12 
REMARK    7  A    between atoms: C20_11  and  C22_13 
REMARK    8  A    between atoms: C20_11  and  C23_14 
REMARK       I    between atoms: N16_23  and  C17_15 
REMARK    9  A    between atoms: C12_19  and  C10_17 
REMARK       I    between atoms: C10_17  and  N9_48 
REMARK   10  A    between atoms: C14_21  and  O33_24 
REMARK   11  A    between atoms: O33_24  and  C34_25 
REMARK   12  A    between atoms: C42_33  and  O45_35 
REMARK   13  A    between atoms: O45_35  and  C46_36 
REMARK   14  A    between atoms: C50_40  and  N52_42 
REMARK       I    between atoms: N52_42  and  C53_43 
REMARK   15  A    between atoms: C53_43  and  C55_45 
REMARK   16  A    between atoms: C55_45  and  C56_46 
REMARK   17  A    between atoms: C55_45  and  C57_47 
REMARK   18  A    between atoms: N9_48  and  C4_49 
REMARK   19  A    between atoms: C4_49  and  C2_54 
REMARK   20  A    between atoms: C6_50  and  C7_52 
ROOT
ATOM      1  C17 L5T d   1      41.152  46.401   8.875  0.00  0.00     0.244 C 
ATOM      2  O18 L5T d   1      42.365  46.178   8.741  0.00  0.00    -0.271 OA
ATOM      3  C12 L5T d   1      41.269  47.912   6.878  0.00  0.00     0.094 C 
ATOM      4  C13 L5T d   1      40.210  48.775   6.153  0.00  0.00    -0.012 C 
ATOM      5  C14 L5T d   1      38.890  48.051   6.426  0.00  0.00     0.063 C 
ATOM      6  C15 L5T d   1      39.092  47.652   7.888  0.00  0.00     0.023 C 
ATOM      7  N16 L5T d   1      40.512  47.268   7.969  0.00  0.00    -0.334 N 
ATOM      8  H21 L5T d   1      41.689  47.151   6.203  0.00  0.00     0.088 H 
ATOM      9  H22 L5T d   1      40.415  48.820   5.073  0.00  0.00     0.040 H 
ATOM     10  H23 L5T d   1      40.189  49.795   6.565  0.00  0.00     0.040 H 
ATOM     11  H24 L5T d   1      38.001  48.675   6.253  0.00  0.00     0.086 H 
ATOM     12  H25 L5T d   1      38.444  46.804   8.153  0.00  0.00     0.068 H 
ATOM     13  H26 L5T d   1      38.879  48.500   8.556  0.00  0.00     0.068 H 
ENDROOT
BRANCH   5  14
ATOM     14  O33 L5T d   1      38.864  46.810   5.631  0.00  0.00    -0.343 OA
BRANCH  14  15
ATOM     15  C34 L5T d   1      38.313  46.800   4.322  0.00  0.00     0.084 A 
ATOM     16  C35 L5T d   1      37.645  48.029   3.809  0.00  0.00    -0.020 A 
ATOM     17  C36 L5T d   1      37.100  48.038   2.544  0.00  0.00     0.089 A 
ATOM     18  H27 L5T d   1      37.588  48.915   4.431  0.00  0.00     0.091 H 
ATOM     19  N37 L5T d   1      37.179  46.868   1.775  0.00  0.00    -0.246 NA
ATOM     20  C47 L5T d   1      36.446  49.195   2.007  0.00  0.00     0.095 A 
ATOM     21  C38 L5T d   1      37.781  45.665   2.158  0.00  0.00     0.073 A 
ATOM     22  C39 L5T d   1      38.374  45.656   3.545  0.00  0.00     0.026 A 
ATOM     23  C43 L5T d   1      37.823  44.550   1.375  0.00  0.00    -0.022 A 
ATOM     24  C40 L5T d   1      39.040  44.384   4.034  0.00  0.00    -0.065 A 
ATOM     25  C41 L5T d   1      39.018  43.221   3.060  0.00  0.00    -0.050 A 
ATOM     26  H28 L5T d   1      39.500  44.311   5.013  0.00  0.00     0.085 H 
ATOM     27  C42 L5T d   1      38.456  43.287   1.814  0.00  0.00     0.070 A 
ATOM     28  H29 L5T d   1      39.472  42.286   3.368  0.00  0.00     0.087 H 
ATOM     29  H30 L5T d   1      37.374  44.590   0.389  0.00  0.00     0.091 H 
ATOM     30  C48 L5T d   1      35.945  49.303   0.721  0.00  0.00    -0.011 A 
ATOM     31  N51 L5T d   1      36.272  50.309   2.806  0.00  0.00    -0.222 NA
ATOM     32  S49 L5T d   1      35.232  50.832   0.520  0.00  0.00    -0.061 SA
ATOM     33  H34 L5T d   1      35.999  48.529  -0.043  0.00  0.00     0.098 H 
ATOM     34  C50 L5T d   1      35.651  51.247   2.133  0.00  0.00     0.173 A 
BRANCH  27  35
ATOM     35  O45 L5T d   1      38.388  42.252   0.838  0.00  0.00    -0.356 OA
BRANCH  35  36
ATOM     36  C46 L5T d   1      38.955  40.957   1.123  0.00  0.00     0.010 C 
ATOM     37  H31 L5T d   1      38.808  40.294   0.258  0.00  0.00     0.066 H 
ATOM     38  H32 L5T d   1      38.459  40.525   2.005  0.00  0.00     0.066 H 
ATOM     39  H33 L5T d   1      40.031  41.064   1.324  0.00  0.00     0.066 H 
ENDBRANCH  35  36
ENDBRANCH  27  35
BRANCH  34  40
ATOM     40  N52 L5T d   1      35.347  52.457   2.726  0.00  0.00    -0.305 N 
ATOM     41  C53 L5T d   1      34.413  53.372   2.269  0.00  0.00     0.227 C 
ATOM     42  O54 L5T d   1      33.742  53.186   1.243  0.00  0.00    -0.273 OA
ATOM     43  H35 L5T d   1      35.846  52.694   3.560  0.00  0.00     0.171 HD
BRANCH  41  44
ATOM     44  C55 L5T d   1      34.298  54.633   3.171  0.00  0.00     0.017 C 
ATOM     45  H36 L5T d   1      34.958  54.482   4.038  0.00  0.00     0.053 H 
BRANCH  44  46
ATOM     46  C56 L5T d   1      32.867  54.831   3.703  0.00  0.00    -0.065 C 
ATOM     47  H37 L5T d   1      32.832  55.731   4.334  0.00  0.00     0.028 H 
ATOM     48  H38 L5T d   1      32.572  53.954   4.298  0.00  0.00     0.028 H 
ATOM     49  H39 L5T d   1      32.174  54.949   2.857  0.00  0.00     0.028 H 
ENDBRANCH  44  46
BRANCH  44  50
ATOM     50  C57 L5T d   1      34.780  55.889   2.427  0.00  0.00    -0.065 C 
ATOM     51  H40 L5T d   1      35.803  55.726   2.056  0.00  0.00     0.028 H 
ATOM     52  H41 L5T d   1      34.772  56.748   3.114  0.00  0.00     0.028 H 
ATOM     53  H42 L5T d   1      34.110  56.092   1.578  0.00  0.00     0.028 H 
ENDBRANCH  44  50
ENDBRANCH  41  44
ENDBRANCH  34  40
ENDBRANCH  14  15
ENDBRANCH   5  14
BRANCH   3  54
ATOM     54  C10 L5T d   1      42.412  48.825   7.393  0.00  0.00     0.241 C 
ATOM     55  O11 L5T d   1      42.269  49.559   8.366  0.00  0.00    -0.271 OA
ATOM     56  N9  L5T d   1      43.590  48.682   6.684  0.00  0.00    -0.340 N 
ATOM     57  H43 L5T d   1      43.544  48.325   5.751  0.00  0.00     0.163 HD
BRANCH  56  58
ATOM     58  C4  L5T d   1      44.901  49.028   7.235  0.00  0.00     0.129 A 
ATOM     59  C6  L5T d   1      45.482  48.050   8.287  0.00  0.00    -0.001 A 
ATOM     60  C5  L5T d   1      46.075  48.090   6.911  0.00  0.00    -0.022 A 
ATOM     61  H44 L5T d   1      44.868  47.186   8.580  0.00  0.00     0.051 H 
ATOM     62  H45 L5T d   1      47.082  48.507   6.762  0.00  0.00     0.038 H 
ATOM     63  H46 L5T d   1      45.924  47.242   6.226  0.00  0.00     0.038 H 
BRANCH  59  64
ATOM     64  C7  L5T d   1      46.269  48.451   9.451  0.00  0.00    -0.105 C 
ATOM     65  C8  L5T d   1      45.840  48.380  10.721  0.00  0.00    -0.124 C 
ATOM     66  H48 L5T d   1      46.490  48.700  11.534  0.00  0.00     0.066 H 
ATOM     67  H49 L5T d   1      44.842  48.003  10.938  0.00  0.00     0.066 H 
ATOM     68  H47 L5T d   1      47.273  48.834   9.276  0.00  0.00     0.076 H 
ENDBRANCH  59  64
BRANCH  58  69
ATOM     69  C2  L5T d   1      45.237  50.536   7.194  0.00  0.00     0.203 C 
ATOM     70  O1  L5T d   1      44.361  51.329   6.700  0.00  0.00    -0.646 OA
ATOM     71  O3  L5T d   1      46.348  50.947   7.617  0.00  0.00    -0.646 OA
ENDBRANCH  58  69
ENDBRANCH  56  58
ENDBRANCH   3  54
BRANCH   1  72
ATOM     72  C19 L5T d   1      40.331  45.744  10.027  0.00  0.00     0.098 C 
ATOM     73  H11 L5T d   1      39.287  46.056   9.876  0.00  0.00     0.088 H 
BRANCH  72  74
ATOM     74  N24 L5T d   1      40.356  44.298   9.841  0.00  0.00    -0.323 N 
ATOM     75  C25 L5T d   1      39.391  43.649   9.159  0.00  0.00     0.361 C 
ATOM     76  O26 L5T d   1      38.425  44.198   8.631  0.00  0.00    -0.238 OA
ATOM     77  H10 L5T d   1      41.112  43.772  10.231  0.00  0.00     0.165 HD
BRANCH  75  78
ATOM     78  O27 L5T d   1      39.641  42.307   9.143  0.00  0.00    -0.299 OA
BRANCH  78  79
ATOM     79  C28 L5T d   1      40.203  41.823   7.924  0.00  0.00     0.050 C 
ATOM     80  C29 L5T d   1      39.186  41.417   6.879  0.00  0.00    -0.040 C 
ATOM     81  C30 L5T d   1      40.013  40.570   5.924  0.00  0.00    -0.063 C 
ATOM     82  H2  L5T d   1      38.768  42.297   6.369  0.00  0.00     0.036 H 
ATOM     83  H3  L5T d   1      38.370  40.830   7.326  0.00  0.00     0.036 H 
ATOM     84  C31 L5T d   1      41.151  40.021   6.764  0.00  0.00    -0.063 C 
ATOM     85  H4  L5T d   1      40.404  41.186   5.101  0.00  0.00     0.033 H 
ATOM     86  H5  L5T d   1      39.407  39.750   5.512  0.00  0.00     0.033 H 
ATOM     87  C32 L5T d   1      40.866  40.488   8.176  0.00  0.00    -0.040 C 
ATOM     88  H6  L5T d   1      42.115  40.419   6.414  0.00  0.00     0.033 H 
ATOM     89  H7  L5T d   1      41.169  38.922   6.718  0.00  0.00     0.033 H 
ATOM     90  H8  L5T d   1      40.190  39.796   8.699  0.00  0.00     0.036 H 
ATOM     91  H9  L5T d   1      41.794  40.603   8.756  0.00  0.00     0.036 H 
ATOM     92  H1  L5T d   1      40.906  42.569   7.525  0.00  0.00     0.084 H 
ENDBRANCH  78  79
ENDBRANCH  75  78
ENDBRANCH  72  74
BRANCH  72  93
ATOM     93  C20 L5T d   1      40.698  46.238  11.489  0.00  0.00    -0.022 C 
BRANCH  93  94
ATOM     94  C21 L5T d   1      40.329  47.738  11.641  0.00  0.00    -0.067 C 
ATOM     95  H12 L5T d   1      40.585  48.078  12.656  0.00  0.00     0.028 H 
ATOM     96  H13 L5T d   1      39.250  47.869  11.471  0.00  0.00     0.028 H 
ATOM     97  H14 L5T d   1      40.891  48.330  10.904  0.00  0.00     0.028 H 
ENDBRANCH  93  94
BRANCH  93  98
ATOM     98  C22 L5T d   1      42.191  46.046  11.871  0.00  0.00    -0.067 C 
ATOM     99  H15 L5T d   1      42.463  44.985  11.767  0.00  0.00     0.028 H 
ATOM    100  H16 L5T d   1      42.347  46.363  12.913  0.00  0.00     0.028 H 
ATOM    101  H17 L5T d   1      42.821  46.653  11.204  0.00  0.00     0.028 H 
ENDBRANCH  93  98
BRANCH  93 102
ATOM    102  C23 L5T d   1      39.847  45.459  12.529  0.00  0.00    -0.067 C 
ATOM    103  H18 L5T d   1      38.780  45.573  12.289  0.00  0.00     0.028 H 
ATOM    104  H19 L5T d   1      40.041  45.859  13.535  0.00  0.00     0.028 H 
ATOM    105  H20 L5T d   1      40.117  44.393  12.500  0.00  0.00     0.028 H 
ENDBRANCH  93 102
ENDBRANCH  72  93
ENDBRANCH   1  72
TORSDOF 20
