REMARK  11 active torsions:
REMARK  status: ('A' for Active; 'I' for Inactive)
REMARK    1  A    between atoms: CA_3  and  C_1 
REMARK    2  A    between atoms: CA_3  and  N_2 
REMARK    3  A    between atoms: CB_4  and  CA_3 
REMARK    4  A    between atoms: CG_7  and  CB_4 
REMARK    5  A    between atoms: NE_6  and  CD_5 
REMARK    6  A    between atoms: CD_5  and  CG_7 
REMARK    7  A    between atoms: CZ_8  and  NE_6 
REMARK    8  A    between atoms: CH1_11  and  CZ_8 
REMARK    9  A    between atoms: CT1_15  and  CH1_11 
REMARK   10  A    between atoms: CI1_13  and  CK1_14 
REMARK   11  A    between atoms: CI1_13  and  CT1_15 
ROOT
ATOM      1  NE  LN6 d   1      -1.753  -3.724  18.314  0.00  0.00    -0.380 N 
ATOM      2  H9  LN6 d   1      -1.173  -4.499  18.666  0.00  0.00     0.160 HD
ENDROOT
BRANCH   1   3
ATOM      3  CD  LN6 d   1      -1.501  -2.358  18.797  0.00  0.00    -0.006 C 
ATOM      4  H7  LN6 d   1      -1.399  -1.687  17.931  0.00  0.00     0.064 H 
ATOM      5  H8  LN6 d   1      -0.567  -2.352  19.378  0.00  0.00     0.064 H 
BRANCH   3   6
ATOM      6  CG  LN6 d   1      -2.641  -1.853  19.685  0.00  0.00    -0.048 C 
ATOM      7  H10 LN6 d   1      -2.545  -0.764  19.806  0.00  0.00     0.035 H 
ATOM      8  H11 LN6 d   1      -3.601  -2.085  19.201  0.00  0.00     0.035 H 
BRANCH   6   9
ATOM      9  CB  LN6 d   1      -2.606  -2.513  21.065  0.00  0.00    -0.028 C 
ATOM     10  H5  LN6 d   1      -2.873  -3.575  20.960  0.00  0.00     0.036 H 
ATOM     11  H6  LN6 d   1      -1.589  -2.429  21.476  0.00  0.00     0.036 H 
BRANCH   9  12
ATOM     12  CA  LN6 d   1      -3.589  -1.846  22.030  0.00  0.00     0.182 C 
ATOM     13  H4  LN6 d   1      -3.440  -0.756  22.005  0.00  0.00     0.101 H 
BRANCH  12  14
ATOM     14  C   LN6 d   1      -5.029  -2.170  21.625  0.00  0.00     0.204 C 
ATOM     15  OA1 LN6 d   1      -5.461  -1.651  20.573  0.00  0.00    -0.646 OA
ATOM     16  OA2 LN6 d   1      -5.671  -2.927  22.384  0.00  0.00    -0.646 OA
ENDBRANCH  12  14
BRANCH  12  17
ATOM     17  N   LN6 d   1      -3.351  -2.342  23.393  0.00  0.00    -0.065 N 
ATOM     18  H1  LN6 d   1      -2.404  -2.132  23.666  0.00  0.00     0.275 HD
ATOM     19  H2  LN6 d   1      -3.494  -3.340  23.417  0.00  0.00     0.275 HD
ATOM     20  H3  LN6 d   1      -3.992  -1.895  24.030  0.00  0.00     0.275 HD
ENDBRANCH  12  17
ENDBRANCH   9  12
ENDBRANCH   6   9
ENDBRANCH   3   6
ENDBRANCH   1   3
BRANCH   1  21
ATOM     21  CZ  LN6 d   1      -2.715  -3.978  17.431  0.00  0.00     0.070 C 
ATOM     22  NH2 LN6 d   1      -3.445  -2.986  16.928  0.00  0.00    -0.389 N 
ATOM     23  H14 LN6 d   1      -4.189  -3.189  16.245  0.00  0.00     0.157 HD
ATOM     24  H15 LN6 d   1      -3.267  -2.015  17.222  0.00  0.00     0.157 HD
BRANCH  21  25
ATOM     25  CH1 LN6 d   1      -2.947  -5.412  16.951  0.00  0.00    -0.013 C 
ATOM     26  H12 LN6 d   1      -3.842  -5.436  16.312  0.00  0.00     0.044 H 
ATOM     27  H13 LN6 d   1      -3.102  -6.062  17.825  0.00  0.00     0.044 H 
BRANCH  25  28
ATOM     28  CT1 LN6 d   1      -1.749  -5.928  16.151  0.00  0.00    -0.059 C 
ATOM     29  H21 LN6 d   1      -1.934  -6.972  15.859  0.00  0.00     0.033 H 
ATOM     30  H22 LN6 d   1      -0.848  -5.877  16.779  0.00  0.00     0.033 H 
BRANCH  28  31
ATOM     31  CI1 LN6 d   1      -1.529  -5.088  14.891  0.00  0.00    -0.068 C 
ATOM     32  H16 LN6 d   1      -2.438  -5.122  14.273  0.00  0.00     0.032 H 
ATOM     33  H17 LN6 d   1      -1.323  -4.048  15.184  0.00  0.00     0.032 H 
BRANCH  31  34
ATOM     34  CK1 LN6 d   1      -0.349  -5.620  14.074  0.00  0.00    -0.077 C 
ATOM     35  H18 LN6 d   1      -0.215  -4.998  13.176  0.00  0.00     0.027 H 
ATOM     36  H19 LN6 d   1      -0.550  -6.659  13.774  0.00  0.00     0.027 H 
ATOM     37  H20 LN6 d   1       0.565  -5.585  14.685  0.00  0.00     0.027 H 
ENDBRANCH  31  34
ENDBRANCH  28  31
ENDBRANCH  25  28
ENDBRANCH  21  25
ENDBRANCH   1  21
TORSDOF 11
