REMARK  12 active torsions:
REMARK  status: ('A' for Active; 'I' for Inactive)
REMARK    1  A    between atoms: CA_14  and  C_1 
REMARK    2  A    between atoms: CA_14  and  N_2 
REMARK    3  A    between atoms: N6_10  and  C27_22 
REMARK    4  A    between atoms: C1'_19  and  N9_13 
REMARK    5  A    between atoms: CB_15  and  CA_14 
REMARK    6  A    between atoms: CG_18  and  CB_15 
REMARK    7  A    between atoms: CD_16  and  SD_17 
REMARK    8  A    between atoms: C4'_32  and  CD_16 
REMARK    9  A    between atoms: SD_17  and  CG_18 
REMARK   10  A    between atoms: C2'_20  and  O2'_21 
REMARK   11  A    between atoms: C27_22  and  C28_23 
REMARK   12  A    between atoms: C3'_25  and  O3'_26 
ROOT
ATOM      1  C1' 36A d   1       6.103   0.261  41.787  0.00  0.00     0.139 C 
ATOM      2  C2' 36A d   1       5.545   0.575  43.195  0.00  0.00     0.105 C 
ATOM      3  C3' 36A d   1       5.647  -0.770  43.912  0.00  0.00     0.090 C 
ATOM      4  C4' 36A d   1       5.700  -1.791  42.775  0.00  0.00     0.076 C 
ATOM      5  O4' 36A d   1       5.632  -1.071  41.529  0.00  0.00    -0.355 OA
ATOM      6  H14 36A d   1       7.201   0.334  41.779  0.00  0.00     0.122 H 
ATOM      7  H15 36A d   1       4.494   0.889  43.113  0.00  0.00     0.093 H 
ATOM      8  H20 36A d   1       4.783  -0.940  44.572  0.00  0.00     0.091 H 
ATOM      9  H25 36A d   1       6.662  -2.322  42.837  0.00  0.00     0.088 H 
ENDROOT
BRANCH   1  10
ATOM     10  N9  36A d   1       5.527   1.071  40.707  0.00  0.00    -0.294 N 
ATOM     11  C4  36A d   1       6.211   1.464  39.619  0.00  0.00     0.167 A 
ATOM     12  N3  36A d   1       7.515   1.259  39.274  0.00  0.00    -0.222 NA
ATOM     13  C5  36A d   1       5.357   2.197  38.809  0.00  0.00     0.149 A 
ATOM     14  C2  36A d   1       7.981   1.772  38.121  0.00  0.00     0.091 A 
ATOM     15  N1  36A d   1       7.185   2.474  37.293  0.00  0.00    -0.222 NA
ATOM     16  H4  36A d   1       9.020   1.617  37.853  0.00  0.00     0.146 H 
ATOM     17  C6  36A d   1       5.885   2.736  37.606  0.00  0.00     0.158 A 
ATOM     18  N6  36A d   1       5.177   3.459  36.709  0.00  0.00    -0.368 N 
ATOM     19  H5  36A d   1       5.619   3.662  35.801  0.00  0.00     0.161 HD
ATOM     20  N7  36A d   1       4.132   2.215  39.419  0.00  0.00    -0.236 NA
ATOM     21  C8  36A d   1       4.257   1.513  40.587  0.00  0.00     0.071 A 
ATOM     22  H6  36A d   1       3.458   1.338  41.306  0.00  0.00     0.144 H 
BRANCH  18  23
ATOM     23  C27 36A d   1       3.847   3.965  36.936  0.00  0.00     0.018 C 
ATOM     24  H17 36A d   1       3.796   5.003  36.577  0.00  0.00     0.071 H 
ATOM     25  H18 36A d   1       3.636   3.939  38.015  0.00  0.00     0.071 H 
BRANCH  23  26
ATOM     26  C28 36A d   1       2.803   3.149  36.217  0.00  0.00    -0.039 A 
ATOM     27  C29 36A d   1       3.077   2.640  34.940  0.00  0.00    -0.054 A 
ATOM     28  C30 36A d   1       2.102   1.912  34.289  0.00  0.00     0.034 A 
ATOM     29  H19 36A d   1       4.039   2.815  34.472  0.00  0.00     0.086 H 
ATOM     30  C31 36A d   1       0.846   1.682  34.864  0.00  0.00    -0.062 A 
ATOM     31 CL34 36A d   1       2.485   1.273  32.690  0.00  0.00    -0.084 Cl
ATOM     32  C32 36A d   1       0.577   2.188  36.140  0.00  0.00    -0.081 A 
ATOM     33  H22 36A d   1       0.091   1.119  34.327  0.00  0.00     0.086 H 
ATOM     34  C33 36A d   1       1.545   2.934  36.814  0.00  0.00    -0.075 A 
ATOM     35  H23 36A d   1      -0.384   2.001  36.606  0.00  0.00     0.083 H 
ATOM     36  H24 36A d   1       1.330   3.346  37.793  0.00  0.00     0.084 H 
ENDBRANCH  23  26
ENDBRANCH  18  23
ENDBRANCH   1  10
BRANCH   2  37
ATOM     37  O2' 36A d   1       6.253   1.580  43.916  0.00  0.00    -0.388 OA
ATOM     38  H16 36A d   1       7.155   1.306  44.036  0.00  0.00     0.210 HD
ENDBRANCH   2  37
BRANCH   3  39
ATOM     39  O3' 36A d   1       6.865  -0.843  44.656  0.00  0.00    -0.390 OA
ATOM     40  H21 36A d   1       6.884  -0.145  45.300  0.00  0.00     0.210 HD
ENDBRANCH   3  39
BRANCH   4  41
ATOM     41  CD  36A d   1       4.594  -2.825  42.795  0.00  0.00     0.003 C 
ATOM     42  H10 36A d   1       3.623  -2.309  42.795  0.00  0.00     0.052 H 
ATOM     43  H11 36A d   1       4.676  -3.452  41.895  0.00  0.00     0.052 H 
BRANCH  41  44
ATOM     44  SD  36A d   1       4.695  -3.867  44.236  0.00  0.00    -0.166 SA
BRANCH  44  45
ATOM     45  CG  36A d   1       6.167  -4.806  43.989  0.00  0.00    -0.021 C 
ATOM     46  H12 36A d   1       6.127  -5.243  42.980  0.00  0.00     0.049 H 
ATOM     47  H13 36A d   1       7.024  -4.120  44.058  0.00  0.00     0.049 H 
BRANCH  45  48
ATOM     48  CB  36A d   1       6.383  -5.928  44.978  0.00  0.00    -0.021 C 
ATOM     49  H8  36A d   1       6.628  -5.519  45.969  0.00  0.00     0.037 H 
ATOM     50  H9  36A d   1       5.479  -6.550  45.051  0.00  0.00     0.037 H 
BRANCH  48  51
ATOM     51  CA  36A d   1       7.568  -6.766  44.435  0.00  0.00     0.183 C 
ATOM     52  H7  36A d   1       8.321  -6.086  44.009  0.00  0.00     0.101 H 
BRANCH  51  53
ATOM     53  C   36A d   1       8.215  -7.526  45.584  0.00  0.00     0.204 C 
ATOM     54  O   36A d   1       8.646  -6.908  46.575  0.00  0.00    -0.646 OA
ATOM     55  OXT 36A d   1       8.330  -8.795  45.547  0.00  0.00    -0.646 OA
ENDBRANCH  51  53
BRANCH  51  56
ATOM     56  N   36A d   1       7.082  -7.634  43.364  0.00  0.00    -0.065 N 
ATOM     57  H1  36A d   1       6.667  -7.071  42.638  0.00  0.00     0.275 HD
ATOM     58  H2  36A d   1       6.391  -8.269  43.733  0.00  0.00     0.275 HD
ATOM     59  H3  36A d   1       7.852  -8.160  42.982  0.00  0.00     0.275 HD
ENDBRANCH  51  56
ENDBRANCH  48  51
ENDBRANCH  45  48
ENDBRANCH  44  45
ENDBRANCH  41  44
ENDBRANCH   4  41
TORSDOF 12
