REMARK WARNING: 32 MAX_TORS EXCEEDED!!!
REMARK  42 active torsions:
REMARK  status: ('A' for Active; 'I' for Inactive)
REMARK    1  A    between atoms: N_1  and  CA_2 
REMARK    2  A    between atoms: CA_2  and  C_3 
REMARK    3  A    between atoms: CA_2  and  CB_5 
REMARK       I    between atoms: C_3  and  N_7 
REMARK    4  A    between atoms: CB_5  and  OG_6 
REMARK    5  A    between atoms: N_7  and  CA_8 
REMARK    6  A    between atoms: CA_8  and  C_9 
REMARK    7  A    between atoms: CA_8  and  CB_11 
REMARK       I    between atoms: C_9  and  N_15 
REMARK    8  A    between atoms: CB_11  and  CG1_12 
REMARK    9  A    between atoms: CB_11  and  CG2_13 
REMARK   10  A    between atoms: CG1_12  and  CD1_14 
REMARK   11  A    between atoms: N_15  and  CA_16 
REMARK   12  A    between atoms: CA_16  and  C_17 
REMARK   13  A    between atoms: CA_16  and  CB_19 
REMARK       I    between atoms: C_17  and  N_23 
REMARK   14  A    between atoms: CB_19  and  CG1_20 
REMARK   15  A    between atoms: CB_19  and  CG2_21 
REMARK   16  A    between atoms: CG1_20  and  CD1_22 
REMARK   17  A    between atoms: N_23  and  CA_24 
REMARK   18  A    between atoms: CA_24  and  C_25 
REMARK   19  A    between atoms: CA_24  and  CB_27 
REMARK       I    between atoms: C_25  and  N_31 
REMARK   20  A    between atoms: CB_27  and  CG_28 
REMARK       I    between atoms: CG_28  and  ND2_30 
REMARK   21  A    between atoms: N_31  and  CA_32 
REMARK   22  A    between atoms: CA_32  and  C_33 
REMARK   23  A    between atoms: CA_32  and  CB_35 
REMARK       I    between atoms: C_33  and  N_42 
REMARK   24  A    between atoms: CB_35  and  CG_36 
REMARK   25  A    between atoms: N_42  and  CA_43 
REMARK   26  A    between atoms: CA_43  and  C_44 
REMARK   27  A    between atoms: CA_43  and  CB_46 
REMARK       I    between atoms: C_44  and  N_51 
REMARK   28  A    between atoms: CB_46  and  CG_47 
REMARK   29  A    between atoms: CG_47  and  CD_48 
REMARK   30  A    between atoms: N_51  and  CA_52 
REMARK   31  A    between atoms: CA_52  and  C_53 
REMARK   32  A    between atoms: CA_52  and  CB_55 
REMARK       I    between atoms: C_53  and  N_60 
REMARK   33  A    between atoms: CB_55  and  CG_56 
REMARK   34  A    between atoms: CG_56  and  CD_57 
REMARK   35  A    between atoms: CD_57  and  CE_58 
REMARK   36  A    between atoms: CE_58  and  NZ_59 
REMARK   37  A    between atoms: N_60  and  CA_61 
REMARK   38  A    between atoms: CA_61  and  C_62 
REMARK   39  A    between atoms: CA_61  and  CB_64 
REMARK   40  A    between atoms: CB_64  and  CG_65 
REMARK   41  A    between atoms: CG_65  and  CD1_66 
REMARK   42  A    between atoms: CG_65  and  CD2_67 
ROOT
ATOM      1  CA  PHE d   1     -17.283   8.155  31.072  0.00  0.00     0.093 C 
ATOM      2  H37 PHE d   1     -16.551   8.389  31.859  0.00  0.00     0.088 H 
ENDROOT
BRANCH   1   3
ATOM      3  N   PHE d   1     -17.735   6.785  31.293  0.00  0.00    -0.346 N 
ATOM      4  C   ASN d   1     -17.971   6.337  32.522  0.00  0.00     0.241 C 
ATOM      5  O   ASN d   1     -17.941   7.066  33.525  0.00  0.00    -0.271 OA
ATOM      6  H36 PHE d   1     -17.869   6.176  30.511  0.00  0.00     0.163 HD
BRANCH   4   7
ATOM      7  CA  ASN d   1     -18.300   4.862  32.651  0.00  0.00     0.097 C 
ATOM      8  H31 ASN d   1     -18.309   4.393  31.656  0.00  0.00     0.088 H 
BRANCH   7   9
ATOM      9  N   ASN d   1     -17.285   4.224  33.472  0.00  0.00    -0.346 N 
ATOM     10  C   ILE d   1     -16.118   3.823  32.966  0.00  0.00     0.241 C 
ATOM     11  O   ILE d   1     -15.918   3.737  31.761  0.00  0.00    -0.271 OA
ATOM     12  H30 ASN d   1     -17.467   4.081  34.445  0.00  0.00     0.163 HD
BRANCH  10  13
ATOM     13  CA  ILE d   1     -15.017   3.443  33.966  0.00  0.00     0.092 C 
ATOM     14  H20 ILE d   1     -15.476   2.915  34.815  0.00  0.00     0.088 H 
BRANCH  13  15
ATOM     15  N   ILE d   1     -14.015   2.562  33.356  0.00  0.00    -0.346 N 
ATOM     16  C   ILE d   1     -14.302   1.326  32.966  0.00  0.00     0.241 C 
ATOM     17  O   ILE d   1     -15.412   0.824  33.116  0.00  0.00    -0.271 OA
ATOM     18  H19 ILE d   1     -13.084   2.904  33.230  0.00  0.00     0.163 HD
BRANCH  16  19
ATOM     19  CA  ILE d   1     -13.176   0.537  32.305  0.00  0.00     0.092 C 
ATOM     20  H9  ILE d   1     -12.217   0.869  32.730  0.00  0.00     0.088 H 
BRANCH  19  21
ATOM     21  N   ILE d   1     -13.334  -0.885  32.574  0.00  0.00    -0.346 N 
ATOM     22  C   SER d   1     -13.134  -1.399  33.783  0.00  0.00     0.251 C 
ATOM     23  O   SER d   1     -12.851  -0.717  34.765  0.00  0.00    -0.271 OA
ATOM     24  H8  ILE d   1     -13.601  -1.493  31.826  0.00  0.00     0.163 HD
BRANCH  22  25
ATOM     25  CA  SER d   1     -13.250  -2.911  33.893  0.00  0.00     0.195 C 
ATOM     26  H4  SER d   1     -13.459  -3.333  32.899  0.00  0.00     0.102 H 
BRANCH  25  27
ATOM     27  N   SER d   1     -11.992  -3.437  34.384  0.00  0.00    -0.064 N 
ATOM     28  H1  SER d   1     -12.055  -4.440  34.462  0.00  0.00     0.275 HD
ATOM     29  H2  SER d   1     -11.793  -3.042  35.289  0.00  0.00     0.275 HD
ATOM     30  H3  SER d   1     -11.253  -3.196  33.742  0.00  0.00     0.275 HD
ENDBRANCH  25  27
BRANCH  25  31
ATOM     31  CB  SER d   1     -14.384  -3.289  34.841  0.00  0.00     0.051 C 
ATOM     32  H5  SER d   1     -14.255  -2.748  35.790  0.00  0.00     0.077 H 
ATOM     33  H6  SER d   1     -14.349  -4.372  35.029  0.00  0.00     0.077 H 
BRANCH  31  34
ATOM     34  OG  SER d   1     -15.642  -2.956  34.287  0.00  0.00    -0.398 OA
ATOM     35  H7  SER d   1     -15.760  -3.424  33.469  0.00  0.00     0.209 HD
ENDBRANCH  31  34
ENDBRANCH  25  31
ENDBRANCH  22  25
ENDBRANCH  19  21
BRANCH  19  36
ATOM     36  CB  ILE d   1     -13.158   0.808  30.770  0.00  0.00    -0.030 C 
ATOM     37  H10 ILE d   1     -12.497   0.064  30.302  0.00  0.00     0.043 H 
BRANCH  36  38
ATOM     38  CG1 ILE d   1     -12.601   2.193  30.466  0.00  0.00    -0.063 C 
ATOM     39  H11 ILE d   1     -11.627   2.297  30.967  0.00  0.00     0.033 H 
ATOM     40  H12 ILE d   1     -13.299   2.946  30.860  0.00  0.00     0.033 H 
BRANCH  38  41
ATOM     41  CD1 ILE d   1     -12.409   2.442  28.976  0.00  0.00    -0.076 C 
ATOM     42  H16 ILE d   1     -12.006   3.454  28.822  0.00  0.00     0.027 H 
ATOM     43  H17 ILE d   1     -13.377   2.350  28.461  0.00  0.00     0.027 H 
ATOM     44  H18 ILE d   1     -11.705   1.702  28.568  0.00  0.00     0.027 H 
ENDBRANCH  38  41
ENDBRANCH  36  38
BRANCH  36  45
ATOM     45  CG2 ILE d   1     -14.554   0.650  30.165  0.00  0.00    -0.071 C 
ATOM     46  H13 ILE d   1     -14.941  -0.354  30.393  0.00  0.00     0.028 H 
ATOM     47  H14 ILE d   1     -14.498   0.782  29.074  0.00  0.00     0.028 H 
ATOM     48  H15 ILE d   1     -15.227   1.408  30.592  0.00  0.00     0.028 H 
ENDBRANCH  36  45
ENDBRANCH  19  36
ENDBRANCH  16  19
ENDBRANCH  13  15
BRANCH  13  49
ATOM     49  CB  ILE d   1     -14.343   4.737  34.480  0.00  0.00    -0.030 C 
ATOM     50  H21 ILE d   1     -13.403   4.452  34.976  0.00  0.00     0.043 H 
BRANCH  49  51
ATOM     51  CG1 ILE d   1     -15.218   5.459  35.514  0.00  0.00    -0.063 C 
ATOM     52  H22 ILE d   1     -15.516   4.734  36.286  0.00  0.00     0.033 H 
ATOM     53  H23 ILE d   1     -16.115   5.843  35.005  0.00  0.00     0.033 H 
BRANCH  51  54
ATOM     54  CD1 ILE d   1     -14.513   6.624  36.193  0.00  0.00    -0.076 C 
ATOM     55  H27 ILE d   1     -15.195   7.093  36.918  0.00  0.00     0.027 H 
ATOM     56  H28 ILE d   1     -14.217   7.365  35.436  0.00  0.00     0.027 H 
ATOM     57  H29 ILE d   1     -13.618   6.256  36.716  0.00  0.00     0.027 H 
ENDBRANCH  51  54
ENDBRANCH  49  51
BRANCH  49  58
ATOM     58  CG2 ILE d   1     -13.997   5.666  33.311  0.00  0.00    -0.071 C 
ATOM     59  H24 ILE d   1     -13.371   5.125  32.586  0.00  0.00     0.028 H 
ATOM     60  H25 ILE d   1     -13.448   6.542  33.688  0.00  0.00     0.028 H 
ATOM     61  H26 ILE d   1     -14.924   5.998  32.820  0.00  0.00     0.028 H 
ENDBRANCH  49  58
ENDBRANCH  13  49
ENDBRANCH  10  13
ENDBRANCH   7   9
BRANCH   7  62
ATOM     62  CB  ASN d   1     -19.685   4.732  33.284  0.00  0.00     0.036 C 
ATOM     63  H32 ASN d   1     -20.418   5.229  32.632  0.00  0.00     0.051 H 
ATOM     64  H33 ASN d   1     -19.671   5.229  34.265  0.00  0.00     0.051 H 
BRANCH  62  65
ATOM     65  CG  ASN d   1     -20.104   3.302  33.475  0.00  0.00     0.217 C 
ATOM     66  OD1 ASN d   1     -20.612   2.667  32.550  0.00  0.00    -0.274 OA
ATOM     67  ND2 ASN d   1     -19.906   2.781  34.684  0.00  0.00    -0.370 N 
ATOM     68  H34 ASN d   1     -20.166   1.833  34.869  0.00  0.00     0.159 HD
ATOM     69  H35 ASN d   1     -19.497   3.337  35.407  0.00  0.00     0.159 HD
ENDBRANCH  62  65
ENDBRANCH   7  62
ENDBRANCH   4   7
ENDBRANCH   1   3
BRANCH   1  70
ATOM     70  C   PHE d   1     -18.414   9.171  31.193  0.00  0.00     0.241 C 
ATOM     71  O   PHE d   1     -19.563   8.878  30.857  0.00  0.00    -0.271 OA
ATOM     72  N   GLU d   1     -18.080  10.362  31.686  0.00  0.00    -0.346 N 
ATOM     73  H45 GLU d   1     -17.138  10.520  31.982  0.00  0.00     0.163 HD
BRANCH  72  74
ATOM     74  CA  GLU d   1     -19.052  11.443  31.806  0.00  0.00     0.090 C 
ATOM     75  H46 GLU d   1     -20.059  11.014  31.701  0.00  0.00     0.087 H 
BRANCH  74  76
ATOM     76  C   GLU d   1     -18.844  12.470  30.698  0.00  0.00     0.241 C 
ATOM     77  O   GLU d   1     -17.730  12.686  30.242  0.00  0.00    -0.271 OA
ATOM     78  N   LYS d   1     -19.925  13.115  30.286  0.00  0.00    -0.346 N 
ATOM     79  H51 LYS d   1     -20.791  12.969  30.765  0.00  0.00     0.163 HD
BRANCH  78  80
ATOM     80  CA  LYS d   1     -19.887  14.029  29.157  0.00  0.00     0.089 C 
ATOM     81  H52 LYS d   1     -19.435  13.477  28.320  0.00  0.00     0.087 H 
BRANCH  80  82
ATOM     82  C   LYS d   1     -19.025  15.267  29.372  0.00  0.00     0.241 C 
ATOM     83  O   LYS d   1     -18.970  15.832  30.466  0.00  0.00    -0.271 OA
ATOM     84  N   LEU d   1     -18.367  15.676  28.295  0.00  0.00    -0.345 N 
ATOM     85  H64 LEU d   1     -18.487  15.163  27.445  0.00  0.00     0.163 HD
BRANCH  84  86
ATOM     86  CA  LEU d   1     -17.483  16.827  28.283  0.00  0.00     0.096 C 
ATOM     87  H65 LEU d   1     -16.859  16.808  29.189  0.00  0.00     0.089 H 
BRANCH  86  88
ATOM     88  C   LEU d   1     -18.283  18.114  28.256  0.00  0.00     0.196 C 
ATOM     89  O   LEU d   1     -19.471  18.103  27.930  0.00  0.00    -0.646 OA
ATOM     90  OXT LEU d   1     -17.732  19.180  28.540  0.00  0.00    -0.646 OA
ENDBRANCH  86  88
BRANCH  86  91
ATOM     91  CB  LEU d   1     -16.583  16.781  27.049  0.00  0.00    -0.034 C 
ATOM     92  H66 LEU d   1     -16.024  17.727  27.003  0.00  0.00     0.037 H 
ATOM     93  H67 LEU d   1     -17.229  16.693  26.163  0.00  0.00     0.037 H 
BRANCH  91  94
ATOM     94  CG  LEU d   1     -15.574  15.640  27.007  0.00  0.00    -0.059 C 
ATOM     95  H68 LEU d   1     -16.119  14.687  26.935  0.00  0.00     0.038 H 
BRANCH  94  96
ATOM     96  CD1 LEU d   1     -14.679  15.772  25.799  0.00  0.00    -0.073 C 
ATOM     97  H69 LEU d   1     -13.958  14.941  25.784  0.00  0.00     0.028 H 
ATOM     98  H70 LEU d   1     -14.136  16.728  25.847  0.00  0.00     0.028 H 
ATOM     99  H71 LEU d   1     -15.290  15.743  24.885  0.00  0.00     0.028 H 
ENDBRANCH  94  96
BRANCH  94 100
ATOM    100  CD2 LEU d   1     -14.763  15.639  28.282  0.00  0.00    -0.073 C 
ATOM    101  H72 LEU d   1     -15.438  15.542  29.145  0.00  0.00     0.028 H 
ATOM    102  H73 LEU d   1     -14.201  16.581  28.360  0.00  0.00     0.028 H 
ATOM    103  H74 LEU d   1     -14.060  14.793  28.269  0.00  0.00     0.028 H 
ENDBRANCH  94 100
ENDBRANCH  91  94
ENDBRANCH  86  91
ENDBRANCH  84  86
ENDBRANCH  80  82
BRANCH  80 104
ATOM    104  CB  LYS d   1     -21.309  14.405  28.738  0.00  0.00    -0.038 C 
ATOM    105  H53 LYS d   1     -21.278  15.358  28.189  0.00  0.00     0.036 H 
ATOM    106  H54 LYS d   1     -21.927  14.522  29.641  0.00  0.00     0.036 H 
BRANCH 104 107
ATOM    107  CG  LYS d   1     -21.938  13.340  27.844  0.00  0.00    -0.061 C 
ATOM    108  H55 LYS d   1     -21.579  12.349  28.160  0.00  0.00     0.033 H 
ATOM    109  H56 LYS d   1     -21.637  13.524  26.802  0.00  0.00     0.033 H 
BRANCH 107 110
ATOM    110  CD  LYS d   1     -23.441  13.368  27.932  0.00  0.00    -0.043 C 
ATOM    111  H57 LYS d   1     -23.806  14.341  27.571  0.00  0.00     0.035 H 
ATOM    112  H58 LYS d   1     -23.744  13.229  28.980  0.00  0.00     0.035 H 
BRANCH 110 113
ATOM    113  CE  LYS d   1     -24.044  12.274  27.096  0.00  0.00     0.080 C 
ATOM    114  H59 LYS d   1     -23.625  11.306  27.410  0.00  0.00     0.075 H 
ATOM    115  H60 LYS d   1     -23.803  12.453  26.038  0.00  0.00     0.075 H 
BRANCH 113 116
ATOM    116  NZ  LYS d   1     -25.528  12.244  27.263  0.00  0.00    -0.079 N 
ATOM    117  H61 LYS d   1     -25.915  11.506  26.696  0.00  0.00     0.274 HD
ATOM    118  H62 LYS d   1     -25.917  13.128  26.974  0.00  0.00     0.274 HD
ATOM    119  H63 LYS d   1     -25.754  12.078  28.231  0.00  0.00     0.274 HD
ENDBRANCH 113 116
ENDBRANCH 110 113
ENDBRANCH 107 110
ENDBRANCH 104 107
ENDBRANCH  80 104
ENDBRANCH  78  80
ENDBRANCH  74  76
BRANCH  74 120
ATOM    120  CB  GLU d   1     -18.959  12.128  33.172  0.00  0.00    -0.029 C 
ATOM    121  H47 GLU d   1     -19.487  13.091  33.110  0.00  0.00     0.037 H 
ATOM    122  H48 GLU d   1     -17.897  12.305  33.396  0.00  0.00     0.037 H 
BRANCH 120 123
ATOM    123  CG  GLU d   1     -19.559  11.331  34.318  0.00  0.00     0.018 C 
ATOM    124  H49 GLU d   1     -19.324  11.840  35.264  0.00  0.00     0.049 H 
ATOM    125  H50 GLU d   1     -19.113  10.326  34.322  0.00  0.00     0.049 H 
BRANCH 123 126
ATOM    126  CD  GLU d   1     -21.066  11.195  34.199  0.00  0.00     0.172 C 
ATOM    127  OE1 GLU d   1     -21.737  12.219  33.952  0.00  0.00    -0.648 OA
ATOM    128  OE2 GLU d   1     -21.576  10.061  34.339  0.00  0.00    -0.648 OA
ENDBRANCH 123 126
ENDBRANCH 120 123
ENDBRANCH  74 120
ENDBRANCH  72  74
ENDBRANCH   1  70
BRANCH   1 129
ATOM    129  CB  PHE d   1     -16.561   8.277  29.717  0.00  0.00    -0.014 C 
ATOM    130  H38 PHE d   1     -16.362   9.341  29.521  0.00  0.00     0.043 H 
ATOM    131  H39 PHE d   1     -17.220   7.877  28.932  0.00  0.00     0.043 H 
BRANCH 129 132
ATOM    132  CG  PHE d   1     -15.253   7.529  29.672  0.00  0.00    -0.056 A 
ATOM    133  CD1 PHE d   1     -14.124   8.051  30.286  0.00  0.00    -0.077 A 
ATOM    134  CE1 PHE d   1     -12.911   7.359  30.276  0.00  0.00    -0.082 A 
ATOM    135  H40 PHE d   1     -14.184   9.013  30.782  0.00  0.00     0.084 H 
ATOM    136  CZ  PHE d   1     -12.827   6.135  29.639  0.00  0.00    -0.083 A 
ATOM    137  H42 PHE d   1     -12.040   7.779  30.765  0.00  0.00     0.083 H 
ATOM    138  CE2 PHE d   1     -13.948   5.601  29.013  0.00  0.00    -0.082 A 
ATOM    139  H44 PHE d   1     -11.889   5.592  29.628  0.00  0.00     0.083 H 
ATOM    140  CD2 PHE d   1     -15.161   6.298  29.043  0.00  0.00    -0.077 A 
ATOM    141  H43 PHE d   1     -13.882   4.647  28.503  0.00  0.00     0.083 H 
ATOM    142  H41 PHE d   1     -16.037   5.870  28.569  0.00  0.00     0.084 H 
ENDBRANCH 129 132
ENDBRANCH   1 129
TORSDOF 42
