REMARK WARNING: 32 MAX_TORS EXCEEDED!!!
REMARK  40 active torsions:
REMARK  status: ('A' for Active; 'I' for Inactive)
REMARK    1  A    between atoms: N_1  and  CA_2 
REMARK    2  A    between atoms: CA_2  and  C_3 
REMARK    3  A    between atoms: CA_2  and  CB_5 
REMARK       I    between atoms: C_3  and  N_7 
REMARK    4  A    between atoms: CB_5  and  OG_6 
REMARK    5  A    between atoms: N_7  and  CA_8 
REMARK    6  A    between atoms: CA_8  and  C_9 
REMARK    7  A    between atoms: CA_8  and  CB_11 
REMARK       I    between atoms: C_9  and  N_15 
REMARK    8  A    between atoms: CB_11  and  CG1_12 
REMARK    9  A    between atoms: CB_11  and  CG2_13 
REMARK   10  A    between atoms: CG1_12  and  CD1_14 
REMARK   11  A    between atoms: N_15  and  CA_16 
REMARK   12  A    between atoms: CA_16  and  C_17 
REMARK   13  A    between atoms: CA_16  and  CB_19 
REMARK       I    between atoms: C_17  and  N_23 
REMARK   14  A    between atoms: CB_19  and  CG1_20 
REMARK   15  A    between atoms: CB_19  and  CG2_21 
REMARK   16  A    between atoms: CG1_20  and  CD1_22 
REMARK   17  A    between atoms: N_23  and  CA_24 
REMARK   18  A    between atoms: CA_24  and  C_25 
REMARK       I    between atoms: C_25  and  N_27 
REMARK   19  A    between atoms: N_27  and  CA_28 
REMARK   20  A    between atoms: CA_28  and  C_29 
REMARK   21  A    between atoms: CA_28  and  CB_31 
REMARK       I    between atoms: C_29  and  N_38 
REMARK   22  A    between atoms: CB_31  and  CG_32 
REMARK   23  A    between atoms: N_38  and  CA_39 
REMARK   24  A    between atoms: CA_39  and  C_40 
REMARK   25  A    between atoms: CA_39  and  CB_42 
REMARK       I    between atoms: C_40  and  N_47 
REMARK   26  A    between atoms: CB_42  and  CG_43 
REMARK   27  A    between atoms: CG_43  and  CD_44 
REMARK   28  A    between atoms: N_47  and  CA_48 
REMARK   29  A    between atoms: CA_48  and  C_49 
REMARK   30  A    between atoms: CA_48  and  CB_51 
REMARK       I    between atoms: C_49  and  N_56 
REMARK   31  A    between atoms: CB_51  and  CG_52 
REMARK   32  A    between atoms: CG_52  and  CD_53 
REMARK   33  A    between atoms: CD_53  and  CE_54 
REMARK   34  A    between atoms: CE_54  and  NZ_55 
REMARK   35  A    between atoms: N_56  and  CA_57 
REMARK   36  A    between atoms: CA_57  and  C_58 
REMARK   37  A    between atoms: CA_57  and  CB_60 
REMARK   38  A    between atoms: CB_60  and  CG_61 
REMARK   39  A    between atoms: CG_61  and  CD1_62 
REMARK   40  A    between atoms: CG_61  and  CD2_63 
ROOT
ATOM      1  CA  PHE d   1      -3.218   8.217  -7.338  0.00  0.00     0.093 C 
ATOM      2  H34 PHE d   1      -2.518   8.455  -6.524  0.00  0.00     0.088 H 
ENDROOT
BRANCH   1   3
ATOM      3  N   PHE d   1      -3.592   6.815  -7.172  0.00  0.00    -0.346 N 
ATOM      4  C   GLY d   1      -3.678   6.291  -5.956  0.00  0.00     0.236 C 
ATOM      5  O   GLY d   1      -3.519   6.960  -4.935  0.00  0.00    -0.272 OA
ATOM      6  H33 PHE d   1      -3.783   6.250  -7.975  0.00  0.00     0.163 HD
BRANCH   4   7
ATOM      7  CA  GLY d   1      -3.952   4.808  -5.853  0.00  0.00     0.069 C 
ATOM      8  H31 GLY d   1      -4.941   4.630  -5.406  0.00  0.00     0.078 H 
ATOM      9  H32 GLY d   1      -3.909   4.339  -6.847  0.00  0.00     0.078 H 
BRANCH   7  10
ATOM     10  N   GLY d   1      -2.904   4.279  -4.996  0.00  0.00    -0.351 N 
ATOM     11  C   ILE d   1      -1.743   3.866  -5.490  0.00  0.00     0.241 C 
ATOM     12  O   ILE d   1      -1.552   3.718  -6.694  0.00  0.00    -0.271 OA
ATOM     13  H30 GLY d   1      -3.061   4.225  -4.010  0.00  0.00     0.163 HD
BRANCH  11  14
ATOM     14  CA  ILE d   1      -0.649   3.532  -4.478  0.00  0.00     0.092 C 
ATOM     15  H20 ILE d   1      -1.105   2.983  -3.641  0.00  0.00     0.088 H 
BRANCH  14  16
ATOM     16  N   ILE d   1       0.369   2.680  -5.081  0.00  0.00    -0.346 N 
ATOM     17  C   ILE d   1       0.101   1.438  -5.478  0.00  0.00     0.241 C 
ATOM     18  O   ILE d   1      -0.993   0.909  -5.304  0.00  0.00    -0.271 OA
ATOM     19  H19 ILE d   1       1.295   3.039  -5.200  0.00  0.00     0.163 HD
BRANCH  17  20
ATOM     20  CA  ILE d   1       1.242   0.677  -6.172  0.00  0.00     0.092 C 
ATOM     21  H9  ILE d   1       2.196   1.012  -5.739  0.00  0.00     0.088 H 
BRANCH  20  22
ATOM     22  N   ILE d   1       1.111  -0.757  -5.949  0.00  0.00    -0.346 N 
ATOM     23  C   SER d   1       1.445  -1.293  -4.782  0.00  0.00     0.251 C 
ATOM     24  O   SER d   1       1.879  -0.616  -3.839  0.00  0.00    -0.271 OA
ATOM     25  H8  ILE d   1       0.766  -1.343  -6.682  0.00  0.00     0.163 HD
BRANCH  23  26
ATOM     26  CA  SER d   1       1.293  -2.809  -4.658  0.00  0.00     0.195 C 
ATOM     27  H4  SER d   1       1.081  -3.229  -5.652  0.00  0.00     0.102 H 
BRANCH  26  28
ATOM     28  N   SER d   1       2.538  -3.374  -4.164  0.00  0.00    -0.064 N 
ATOM     29  H1  SER d   1       2.443  -4.374  -4.080  0.00  0.00     0.275 HD
ATOM     30  H2  SER d   1       2.751  -2.980  -3.261  0.00  0.00     0.275 HD
ATOM     31  H3  SER d   1       3.283  -3.160  -4.808  0.00  0.00     0.275 HD
ENDBRANCH  26  28
BRANCH  26  32
ATOM     32  CB  SER d   1       0.127  -3.158  -3.718  0.00  0.00     0.051 C 
ATOM     33  H5  SER d   1       0.226  -2.578  -2.789  0.00  0.00     0.077 H 
ATOM     34  H6  SER d   1       0.160  -4.232  -3.485  0.00  0.00     0.077 H 
BRANCH  32  35
ATOM     35  OG  SER d   1      -1.117  -2.851  -4.330  0.00  0.00    -0.398 OA
ATOM     36  H7  SER d   1      -1.206  -3.353  -5.132  0.00  0.00     0.209 HD
ENDBRANCH  32  35
ENDBRANCH  26  32
ENDBRANCH  23  26
ENDBRANCH  20  22
BRANCH  20  37
ATOM     37  CB  ILE d   1       1.259   0.980  -7.679  0.00  0.00    -0.030 C 
ATOM     38  H10 ILE d   1       1.942   0.265  -8.161  0.00  0.00     0.043 H 
BRANCH  37  39
ATOM     39  CG1 ILE d   1       1.767   2.390  -7.967  0.00  0.00    -0.063 C 
ATOM     40  H11 ILE d   1       2.716   2.540  -7.432  0.00  0.00     0.033 H 
ATOM     41  H12 ILE d   1       1.023   3.115  -7.605  0.00  0.00     0.033 H 
BRANCH  39  42
ATOM     42  CD1 ILE d   1       2.004   2.632  -9.482  0.00  0.00    -0.076 C 
ATOM     43  H16 ILE d   1       2.368   3.658  -9.637  0.00  0.00     0.027 H 
ATOM     44  H17 ILE d   1       1.059   2.492 -10.028  0.00  0.00     0.027 H 
ATOM     45  H18 ILE d   1       2.752   1.917  -9.855  0.00  0.00     0.027 H 
ENDBRANCH  39  42
ENDBRANCH  37  39
BRANCH  37  46
ATOM     46  CG2 ILE d   1      -0.115   0.797  -8.273  0.00  0.00    -0.071 C 
ATOM     47  H13 ILE d   1      -0.473  -0.221  -8.061  0.00  0.00     0.028 H 
ATOM     48  H14 ILE d   1      -0.067   0.950  -9.361  0.00  0.00     0.028 H 
ATOM     49  H15 ILE d   1      -0.806   1.529  -7.830  0.00  0.00     0.028 H 
ENDBRANCH  37  46
ENDBRANCH  20  37
ENDBRANCH  17  20
ENDBRANCH  14  16
BRANCH  14  50
ATOM     50  CB  ILE d   1      -0.026   4.836  -3.925  0.00  0.00    -0.030 C 
ATOM     51  H21 ILE d   1       0.881   4.565  -3.365  0.00  0.00     0.043 H 
BRANCH  50  52
ATOM     52  CG1 ILE d   1      -0.985   5.535  -2.954  0.00  0.00    -0.063 C 
ATOM     53  H22 ILE d   1      -1.405   4.779  -2.275  0.00  0.00     0.033 H 
ATOM     54  H23 ILE d   1      -1.796   5.996  -3.537  0.00  0.00     0.033 H 
BRANCH  52  55
ATOM     55  CD1 ILE d   1      -0.307   6.633  -2.105  0.00  0.00    -0.076 C 
ATOM     56  H27 ILE d   1      -1.050   7.089  -1.435  0.00  0.00     0.027 H 
ATOM     57  H28 ILE d   1       0.111   7.404  -2.769  0.00  0.00     0.027 H 
ATOM     58  H29 ILE d   1       0.501   6.187  -1.507  0.00  0.00     0.027 H 
ENDBRANCH  52  55
ENDBRANCH  50  52
BRANCH  50  59
ATOM     59  CG2 ILE d   1       0.389   5.778  -5.066  0.00  0.00    -0.071 C 
ATOM     60  H24 ILE d   1       1.075   5.251  -5.745  0.00  0.00     0.028 H 
ATOM     61  H25 ILE d   1       0.894   6.661  -4.647  0.00  0.00     0.028 H 
ATOM     62  H26 ILE d   1      -0.505   6.096  -5.622  0.00  0.00     0.028 H 
ENDBRANCH  50  59
ENDBRANCH  14  50
ENDBRANCH  11  14
ENDBRANCH   7  10
ENDBRANCH   4   7
ENDBRANCH   1   3
BRANCH   1  63
ATOM     63  C   PHE d   1      -4.398   9.193  -7.193  0.00  0.00     0.241 C 
ATOM     64  O   PHE d   1      -5.552   8.838  -7.437  0.00  0.00    -0.271 OA
ATOM     65  N   GLU d   1      -4.092  10.413  -6.758  0.00  0.00    -0.346 N 
ATOM     66  H42 GLU d   1      -3.143  10.612  -6.515  0.00  0.00     0.163 HD
BRANCH  65  67
ATOM     67  CA  GLU d   1      -5.090  11.474  -6.622  0.00  0.00     0.090 C 
ATOM     68  H43 GLU d   1      -6.092  11.035  -6.735  0.00  0.00     0.087 H 
BRANCH  67  69
ATOM     69  C   GLU d   1      -4.883  12.531  -7.701  0.00  0.00     0.241 C 
ATOM     70  O   GLU d   1      -3.757  12.791  -8.103  0.00  0.00    -0.271 OA
ATOM     71  N   LYS d   1      -5.974  13.153  -8.140  0.00  0.00    -0.346 N 
ATOM     72  H48 LYS d   1      -6.851  12.963  -7.698  0.00  0.00     0.163 HD
BRANCH  71  73
ATOM     73  CA  LYS d   1      -5.931  14.103  -9.246  0.00  0.00     0.089 C 
ATOM     74  H49 LYS d   1      -5.458  13.568 -10.082  0.00  0.00     0.087 H 
BRANCH  73  75
ATOM     75  C   LYS d   1      -5.077  15.351  -9.023  0.00  0.00     0.241 C 
ATOM     76  O   LYS d   1      -4.959  15.853  -7.907  0.00  0.00    -0.271 OA
ATOM     77  N   LEU d   1      -4.486  15.828 -10.116  0.00  0.00    -0.345 N 
ATOM     78  H61 LEU d   1      -4.667  15.371 -10.987  0.00  0.00     0.163 HD
BRANCH  77  79
ATOM     79  CA  LEU d   1      -3.590  16.979 -10.118  0.00  0.00     0.096 C 
ATOM     80  H62 LEU d   1      -2.981  16.964  -9.202  0.00  0.00     0.089 H 
BRANCH  79  81
ATOM     81  C   LEU d   1      -4.383  18.273 -10.183  0.00  0.00     0.196 C 
ATOM     82  O   LEU d   1      -5.514  18.258 -10.660  0.00  0.00    -0.646 OA
ATOM     83  OXT LEU d   1      -3.888  19.344  -9.815  0.00  0.00    -0.646 OA
ENDBRANCH  79  81
BRANCH  79  84
ATOM     84  CB  LEU d   1      -2.674  16.930 -11.352  0.00  0.00    -0.034 C 
ATOM     85  H63 LEU d   1      -2.137  17.888 -11.409  0.00  0.00     0.037 H 
ATOM     86  H64 LEU d   1      -3.313  16.815 -12.240  0.00  0.00     0.037 H 
BRANCH  84  87
ATOM     87  CG  LEU d   1      -1.636  15.813 -11.379  0.00  0.00    -0.059 C 
ATOM     88  H65 LEU d   1      -2.157  14.846 -11.436  0.00  0.00     0.038 H 
BRANCH  87  89
ATOM     89  CD1 LEU d   1      -0.752  15.956 -12.595  0.00  0.00    -0.073 C 
ATOM     90  H66 LEU d   1      -0.008  15.146 -12.604  0.00  0.00     0.028 H 
ATOM     91  H67 LEU d   1      -0.237  16.927 -12.562  0.00  0.00     0.028 H 
ATOM     92  H68 LEU d   1      -1.368  15.899 -13.505  0.00  0.00     0.028 H 
ENDBRANCH  87  89
BRANCH  87  93
ATOM     93  CD2 LEU d   1      -0.813  15.846 -10.105  0.00  0.00    -0.073 C 
ATOM     94  H69 LEU d   1      -1.479  15.740  -9.236  0.00  0.00     0.028 H 
ATOM     95  H70 LEU d   1      -0.275  16.803 -10.041  0.00  0.00     0.028 H 
ATOM     96  H71 LEU d   1      -0.089  15.018 -10.115  0.00  0.00     0.028 H 
ENDBRANCH  87  93
ENDBRANCH  84  87
ENDBRANCH  79  84
ENDBRANCH  77  79
ENDBRANCH  73  75
BRANCH  73  97
ATOM     97  CB  LYS d   1      -7.346  14.457  -9.699  0.00  0.00    -0.038 C 
ATOM     98  H50 LYS d   1      -7.304  15.340 -10.354  0.00  0.00     0.036 H 
ATOM     99  H51 LYS d   1      -7.960  14.685  -8.815  0.00  0.00     0.036 H 
BRANCH  97 100
ATOM    100  CG  LYS d   1      -7.983  13.295 -10.465  0.00  0.00    -0.061 C 
ATOM    101  H52 LYS d   1      -7.959  12.400  -9.826  0.00  0.00     0.033 H 
ATOM    102  H53 LYS d   1      -7.393  13.111 -11.375  0.00  0.00     0.033 H 
BRANCH 100 103
ATOM    103  CD  LYS d   1      -9.409  13.559 -10.865  0.00  0.00    -0.043 C 
ATOM    104  H54 LYS d   1      -9.434  14.341 -11.638  0.00  0.00     0.035 H 
ATOM    105  H55 LYS d   1      -9.980  13.893  -9.986  0.00  0.00     0.035 H 
BRANCH 103 106
ATOM    106  CE  LYS d   1     -10.023  12.290 -11.412  0.00  0.00     0.080 C 
ATOM    107  H56 LYS d   1      -9.503  12.004 -12.338  0.00  0.00     0.075 H 
ATOM    108  H57 LYS d   1     -11.088  12.464 -11.628  0.00  0.00     0.075 H 
BRANCH 106 109
ATOM    109  NZ  LYS d   1      -9.894  11.187 -10.410  0.00  0.00    -0.079 N 
ATOM    110  H58 LYS d   1     -10.305  10.345 -10.782  0.00  0.00     0.274 HD
ATOM    111  H59 LYS d   1     -10.371  11.447  -9.561  0.00  0.00     0.274 HD
ATOM    112  H60 LYS d   1      -8.919  11.025 -10.212  0.00  0.00     0.274 HD
ENDBRANCH 106 109
ENDBRANCH 103 106
ENDBRANCH 100 103
ENDBRANCH  97 100
ENDBRANCH  73  97
ENDBRANCH  71  73
ENDBRANCH  67  69
BRANCH  67 113
ATOM    113  CB  GLU d   1      -4.987  12.135  -5.250  0.00  0.00    -0.029 C 
ATOM    114  H44 GLU d   1      -5.560  13.073  -5.274  0.00  0.00     0.037 H 
ATOM    115  H45 GLU d   1      -3.928  12.357  -5.051  0.00  0.00     0.037 H 
BRANCH 113 116
ATOM    116  CG  GLU d   1      -5.515  11.283  -4.120  0.00  0.00     0.018 C 
ATOM    117  H46 GLU d   1      -5.278  11.773  -3.164  0.00  0.00     0.049 H 
ATOM    118  H47 GLU d   1      -5.027  10.298  -4.159  0.00  0.00     0.049 H 
BRANCH 116 119
ATOM    119  CD  GLU d   1      -7.023  11.089  -4.213  0.00  0.00     0.172 C 
ATOM    120  OE1 GLU d   1      -7.494   9.935  -4.110  0.00  0.00    -0.648 OA
ATOM    121  OE2 GLU d   1      -7.733  12.100  -4.395  0.00  0.00    -0.648 OA
ENDBRANCH 116 119
ENDBRANCH 113 116
ENDBRANCH  67 113
ENDBRANCH  65  67
ENDBRANCH   1  63
BRANCH   1 122
ATOM    122  CB  PHE d   1      -2.457   8.423  -8.659  0.00  0.00    -0.014 C 
ATOM    123  H35 PHE d   1      -2.252   9.497  -8.781  0.00  0.00     0.043 H 
ATOM    124  H36 PHE d   1      -3.093   8.075  -9.486  0.00  0.00     0.043 H 
BRANCH 122 125
ATOM    125  CG  PHE d   1      -1.156   7.681  -8.713  0.00  0.00    -0.056 A 
ATOM    126  CD1 PHE d   1      -0.011   8.226  -8.160  0.00  0.00    -0.077 A 
ATOM    127  CE1 PHE d   1       1.187   7.530  -8.191  0.00  0.00    -0.082 A 
ATOM    128  H37 PHE d   1      -0.051   9.206  -7.698  0.00  0.00     0.084 H 
ATOM    129  CZ  PHE d   1       1.246   6.291  -8.773  0.00  0.00    -0.083 A 
ATOM    130  H39 PHE d   1       2.078   7.966  -7.754  0.00  0.00     0.083 H 
ATOM    131  CE2 PHE d   1       0.114   5.733  -9.323  0.00  0.00    -0.082 A 
ATOM    132  H41 PHE d   1       2.185   5.750  -8.800  0.00  0.00     0.083 H 
ATOM    133  CD2 PHE d   1      -1.083   6.429  -9.286  0.00  0.00    -0.077 A 
ATOM    134  H40 PHE d   1       0.159   4.753  -9.783  0.00  0.00     0.083 H 
ATOM    135  H38 PHE d   1      -1.974   5.984  -9.713  0.00  0.00     0.084 H 
ENDBRANCH 122 125
ENDBRANCH   1 122
TORSDOF 40
