REMARK  10 active torsions:
REMARK  status: ('A' for Active; 'I' for Inactive)
REMARK    1  A    between atoms: OAP_16  and  CAA_1 
REMARK    2  A    between atoms: OAQ_17  and  CAB_2 
REMARK    3  A    between atoms: CAK_11  and  CAJ_10 
REMARK    4  A    between atoms: CAJ_10  and  CAL_12 
REMARK    5  A    between atoms: NAN_14  and  CAK_11 
REMARK    6  A    between atoms: CAL_12  and  NAV_22 
REMARK    7  A    between atoms: CAR_18  and  NAN_14 
REMARK    8  A    between atoms: CAS_19  and  NAO_15 
REMARK    9  A    between atoms: CAT_20  and  OAP_16 
REMARK   10  A    between atoms: OAQ_17  and  CAU_21 
ROOT
ATOM      1  SAC PBD d   1       8.104  49.684  17.124  0.00  0.00    -0.041 SA
ATOM      2  NAO PBD d   1       5.562  50.118  17.858  0.00  0.00    -0.333 N 
ATOM      3  CAR PBD d   1       6.790  49.820  18.269  0.00  0.00     0.172 C 
ATOM      4  H20 PBD d   1       5.450  50.304  16.882  0.00  0.00     0.168 HD
ENDROOT
BRANCH   2   5
ATOM      5  CAS PBD d   1       4.444  50.197  18.624  0.00  0.00     0.037 A 
ATOM      6  CAE PBD d   1       4.222  51.276  19.507  0.00  0.00    -0.054 A 
ATOM      7  CAF PBD d   1       3.022  51.288  20.274  0.00  0.00    -0.046 A 
ATOM      8  H8  PBD d   1       4.947  52.076  19.599  0.00  0.00     0.087 H 
ATOM      9  CAT PBD d   1       2.087  50.227  20.109  0.00  0.00     0.101 A 
ATOM     10  H9  PBD d   1       2.824  52.093  20.973  0.00  0.00     0.087 H 
ATOM     11  CAU PBD d   1       2.387  49.146  19.260  0.00  0.00     0.103 A 
ATOM     12  CAI PBD d   1       3.528  49.163  18.462  0.00  0.00    -0.022 A 
ATOM     13  H12 PBD d   1       3.699  48.384  17.728  0.00  0.00     0.091 H 
BRANCH   9  14
ATOM     14  OAP PBD d   1       0.914  50.070  20.863  0.00  0.00    -0.353 OA
BRANCH  14  15
ATOM     15  CAA PBD d   1       0.717  51.054  21.944  0.00  0.00     0.010 C 
ATOM     16  H1  PBD d   1      -0.227  50.840  22.467  0.00  0.00     0.066 H 
ATOM     17  H2  PBD d   1       0.677  52.066  21.516  0.00  0.00     0.066 H 
ATOM     18  H3  PBD d   1       1.554  50.990  22.655  0.00  0.00     0.066 H 
ENDBRANCH  14  15
ENDBRANCH   9  14
BRANCH  11  19
ATOM     19  OAQ PBD d   1       1.439  48.130  19.126  0.00  0.00    -0.353 OA
BRANCH  19  20
ATOM     20  CAB PBD d   1       1.739  46.984  18.275  0.00  0.00     0.010 C 
ATOM     21  H4  PBD d   1       0.888  46.287  18.285  0.00  0.00     0.066 H 
ATOM     22  H5  PBD d   1       2.637  46.472  18.652  0.00  0.00     0.066 H 
ATOM     23  H6  PBD d   1       1.918  47.328  17.246  0.00  0.00     0.066 H 
ENDBRANCH  19  20
ENDBRANCH  11  19
ENDBRANCH   2   5
BRANCH   3  24
ATOM     24  NAN PBD d   1       6.975  49.624  19.550  0.00  0.00    -0.367 N 
ATOM     25  H19 PBD d   1       6.186  49.712  20.157  0.00  0.00     0.161 HD
BRANCH  24  26
ATOM     26  CAK PBD d   1       8.281  49.281  20.153  0.00  0.00    -0.004 C 
ATOM     27  H15 PBD d   1       8.775  48.492  19.567  0.00  0.00     0.064 H 
ATOM     28  H16 PBD d   1       8.928  50.170  20.190  0.00  0.00     0.064 H 
BRANCH  26  29
ATOM     29  CAJ PBD d   1       7.992  48.792  21.539  0.00  0.00    -0.035 C 
ATOM     30  H13 PBD d   1       7.455  47.834  21.478  0.00  0.00     0.037 H 
ATOM     31  H14 PBD d   1       7.365  49.532  22.058  0.00  0.00     0.037 H 
BRANCH  29  32
ATOM     32  CAL PBD d   1       9.255  48.595  22.312  0.00  0.00     0.002 C 
ATOM     33  H17 PBD d   1       9.812  49.543  22.343  0.00  0.00     0.065 H 
ATOM     34  H18 PBD d   1       9.866  47.826  21.817  0.00  0.00     0.065 H 
BRANCH  32  35
ATOM     35  NAV PBD d   1       8.953  48.161  23.698  0.00  0.00    -0.350 N 
ATOM     36  CAG PBD d   1       8.682  46.955  24.164  0.00  0.00    -0.003 A 
ATOM     37  CAD PBD d   1       8.459  47.057  25.486  0.00  0.00     0.018 A 
ATOM     38  H10 PBD d   1       8.646  46.037  23.579  0.00  0.00     0.113 H 
ATOM     39  NAM PBD d   1       8.451  48.365  25.819  0.00  0.00    -0.255 NA
ATOM     40  H7  PBD d   1       8.310  46.225  26.172  0.00  0.00     0.117 H 
ATOM     41  CAH PBD d   1       8.800  49.037  24.694  0.00  0.00     0.065 A 
ATOM     42  H11 PBD d   1       8.934  50.115  24.616  0.00  0.00     0.143 H 
ENDBRANCH  32  35
ENDBRANCH  29  32
ENDBRANCH  26  29
ENDBRANCH  24  26
ENDBRANCH   3  24
TORSDOF 10
