REMARK  4 active torsions:
REMARK  status: ('A' for Active; 'I' for Inactive)
REMARK    1  A    between atoms: C_1  and  CT_3 
REMARK       I    between atoms: C_1  and  N_4 
REMARK    2  A    between atoms: N_4  and  CA_5 
REMARK    3  A    between atoms: CA_5  and  CB_6 
REMARK    4  A    between atoms: CB_6  and  CG_7 
ROOT
ATOM      1  CA  AHN d   1     -17.518 -13.649  16.936  0.00  0.00     0.000 C 
ATOM      2  H5  AHN d   1     -17.632 -14.601  16.397  0.00  0.00     0.064 H 
ATOM      3  H6  AHN d   1     -16.502 -13.258  16.777  0.00  0.00     0.064 H 
ENDROOT
BRANCH   1   4
ATOM      4  N   AHN d   1     -17.707 -13.883  18.325  0.00  0.00    -0.361 N 
ATOM      5  C   AHN d   1     -18.345 -14.981  18.688  0.00  0.00     0.213 C 
ATOM      6  O   AHN d   1     -18.875 -15.738  17.818  0.00  0.00    -0.274 OA
ATOM      7  H4  AHN d   1     -17.367 -13.236  19.007  0.00  0.00     0.162 HD
BRANCH   5   8
ATOM      8  CT  AHN d   1     -18.381 -15.239  20.234  0.00  0.00    -0.003 C 
ATOM      9  H1  AHN d   1     -17.847 -14.430  20.753  0.00  0.00     0.040 H 
ATOM     10  H2  AHN d   1     -17.896 -16.201  20.457  0.00  0.00     0.040 H 
ATOM     11  H3  AHN d   1     -19.426 -15.267  20.577  0.00  0.00     0.040 H 
ENDBRANCH   5   8
ENDBRANCH   1   4
BRANCH   1  12
ATOM     12  CB  AHN d   1     -18.557 -12.613  16.363  0.00  0.00    -0.009 C 
ATOM     13  H7  AHN d   1     -18.335 -11.609  16.753  0.00  0.00     0.044 H 
ATOM     14  H8  AHN d   1     -19.575 -12.905  16.659  0.00  0.00     0.044 H 
BRANCH  12  15
ATOM     15  CG  AHN d   1     -18.442 -12.612  14.830  0.00  0.00     0.052 A 
ATOM     16  CD2 AHN d   1     -18.666 -13.624  13.961  0.00  0.00     0.002 A 
ATOM     17  NE2 AHN d   1     -18.406 -13.211  12.701  0.00  0.00    -0.359 N 
ATOM     18  H9  AHN d   1     -19.005 -14.622  14.236  0.00  0.00     0.114 H 
ATOM     19  CE1 AHN d   1     -18.025 -11.941  12.834  0.00  0.00     0.064 A 
ATOM     20  H11 AHN d   1     -18.485 -13.757  11.831  0.00  0.00     0.166 HD
ATOM     21  ND1 AHN d   1     -18.002 -11.598  14.087  0.00  0.00    -0.247 NA
ATOM     22  H10 AHN d   1     -17.768 -11.281  12.006  0.00  0.00     0.143 H 
ENDBRANCH  12  15
ENDBRANCH   1  12
TORSDOF 4
