REMARK  2 active torsions:
REMARK  status: ('A' for Active; 'I' for Inactive)
REMARK    1  A    between atoms: N1_3  and  C4_6 
REMARK    2  A    between atoms: C4_6  and  C5_7 
ROOT
ATOM      1  C5  1BN d   1       8.662  14.445 -17.251  0.00  0.00    -0.040 A 
ATOM      2  C6  1BN d   1       7.310  14.453 -17.239  0.00  0.00    -0.075 A 
ATOM      3  C7  1BN d   1       9.377  15.340 -18.031  0.00  0.00    -0.075 A 
ATOM      4  C8  1BN d   1       6.568  15.375 -17.988  0.00  0.00    -0.082 A 
ATOM      5  C9  1BN d   1       8.702  16.322 -18.750  0.00  0.00    -0.082 A 
ATOM      6  C10 1BN d   1       7.294  16.302 -18.688  0.00  0.00    -0.083 A 
ATOM      7  H6  1BN d   1       6.785  13.725 -16.632  0.00  0.00     0.084 H 
ATOM      8  H7  1BN d   1      10.458  15.275 -18.081  0.00  0.00     0.084 H 
ATOM      9  H8  1BN d   1       5.484  15.356 -18.012  0.00  0.00     0.083 H 
ATOM     10  H9  1BN d   1       9.234  17.067 -19.330  0.00  0.00     0.083 H 
ATOM     11  H10 1BN d   1       6.751  17.069 -19.229  0.00  0.00     0.083 H 
ENDROOT
BRANCH   1  12
ATOM     12  C4  1BN d   1       9.462  13.460 -16.518  0.00  0.00     0.024 C 
ATOM     13  H4  1BN d   1       9.477  12.522 -17.092  0.00  0.00     0.072 H 
ATOM     14  H5  1BN d   1      10.488  13.845 -16.417  0.00  0.00     0.072 H 
BRANCH  12  15
ATOM     15  N1  1BN d   1       8.919  13.174 -15.145  0.00  0.00    -0.346 N 
ATOM     16  C1  1BN d   1       8.663  11.959 -14.669  0.00  0.00    -0.002 A 
ATOM     17  C2  1BN d   1       8.332  12.065 -13.369  0.00  0.00     0.018 A 
ATOM     18  H1  1BN d   1       8.713  11.031 -15.237  0.00  0.00     0.113 H 
ATOM     19  N2  1BN d   1       8.384  13.399 -13.038  0.00  0.00    -0.255 NA
ATOM     20  H2  1BN d   1       8.071  11.245 -12.701  0.00  0.00     0.117 H 
ATOM     21  C3  1BN d   1       8.776  14.035 -14.116  0.00  0.00     0.065 A 
ATOM     22  H3  1BN d   1       8.960  15.107 -14.173  0.00  0.00     0.143 H 
ENDBRANCH  12  15
ENDBRANCH   1  12
TORSDOF 2
