REMARK  11 active torsions:
REMARK  status: ('A' for Active; 'I' for Inactive)
REMARK    1  A    between atoms: OAP_16  and  CAA_1 
REMARK    2  A    between atoms: OAQ_17  and  CAB_2 
REMARK    3  A    between atoms: CAR_18  and  SAC_3 
REMARK    4  A    between atoms: CAK_11  and  CAJ_10 
REMARK    5  A    between atoms: CAJ_10  and  CAL_12 
REMARK    6  A    between atoms: NAN_14  and  CAK_11 
REMARK    7  A    between atoms: CAL_12  and  NAV_22 
REMARK    8  A    between atoms: CAR_18  and  NAN_14 
REMARK    9  A    between atoms: CAS_19  and  NAO_15 
REMARK   10  A    between atoms: CAT_20  and  OAP_16 
REMARK   11  A    between atoms: OAQ_17  and  CAU_21 
ROOT
ATOM      1  NAO PBD d   1       2.297  74.918   6.908  0.00  0.00    -0.225 NA
ATOM      2  CAR PBD d   1       1.086  75.113   7.494  0.00  0.00     0.160 C 
ENDROOT
BRANCH   2   3
ATOM      3  SAC PBD d   1       0.977  74.884   9.229  0.00  0.00    -0.105 SA
ATOM      4  H7  PBD d   1       1.883  74.633   9.591  0.00  0.00     0.110 HD
ENDBRANCH   2   3
BRANCH   2   5
ATOM      5  NAN PBD d   1      -0.012  75.461   6.755  0.00  0.00    -0.369 N 
ATOM      6  H20 PBD d   1       0.123  75.626   5.747  0.00  0.00     0.161 HD
BRANCH   5   7
ATOM      7  CAK PBD d   1      -1.371  75.617   7.296  0.00  0.00    -0.004 C 
ATOM      8  H16 PBD d   1      -1.626  74.778   7.959  0.00  0.00     0.064 H 
ATOM      9  H17 PBD d   1      -1.465  76.563   7.849  0.00  0.00     0.064 H 
BRANCH   7  10
ATOM     10  CAJ PBD d   1      -2.266  75.621   6.055  0.00  0.00    -0.035 C 
ATOM     11  H14 PBD d   1      -2.281  74.623   5.592  0.00  0.00     0.037 H 
ATOM     12  H15 PBD d   1      -1.903  76.359   5.325  0.00  0.00     0.037 H 
BRANCH  10  13
ATOM     13  CAL PBD d   1      -3.663  76.000   6.541  0.00  0.00     0.002 C 
ATOM     14  H18 PBD d   1      -3.654  76.999   7.001  0.00  0.00     0.065 H 
ATOM     15  H19 PBD d   1      -4.031  75.264   7.271  0.00  0.00     0.065 H 
BRANCH  13  16
ATOM     16  NAV PBD d   1      -4.507  75.995   5.330  0.00  0.00    -0.350 N 
ATOM     17  CAG PBD d   1      -4.994  74.875   4.741  0.00  0.00    -0.003 A 
ATOM     18  CAD PBD d   1      -5.627  75.309   3.637  0.00  0.00     0.018 A 
ATOM     19  H11 PBD d   1      -4.894  73.847   5.087  0.00  0.00     0.113 H 
ATOM     20  NAM PBD d   1      -5.521  76.673   3.620  0.00  0.00    -0.255 NA
ATOM     21  H8  PBD d   1      -6.130  74.691   2.895  0.00  0.00     0.117 H 
ATOM     22  CAH PBD d   1      -4.771  77.100   4.612  0.00  0.00     0.065 A 
ATOM     23  H12 PBD d   1      -4.439  78.118   4.808  0.00  0.00     0.143 H 
ENDBRANCH  13  16
ENDBRANCH  10  13
ENDBRANCH   7  10
ENDBRANCH   5   7
ENDBRANCH   2   5
BRANCH   1  24
ATOM     24  CAS PBD d   1       2.542  75.016   5.616  0.00  0.00     0.062 A 
ATOM     25  CAE PBD d   1       2.405  76.267   4.999  0.00  0.00    -0.052 A 
ATOM     26  CAF PBD d   1       2.698  76.412   3.643  0.00  0.00    -0.046 A 
ATOM     27  H9  PBD d   1       2.071  77.122   5.576  0.00  0.00     0.087 H 
ATOM     28  CAT PBD d   1       3.092  75.272   2.933  0.00  0.00     0.101 A 
ATOM     29  H10 PBD d   1       2.623  77.377   3.155  0.00  0.00     0.087 H 
ATOM     30  CAU PBD d   1       3.239  74.032   3.505  0.00  0.00     0.103 A 
ATOM     31  CAI PBD d   1       2.957  73.886   4.868  0.00  0.00    -0.020 A 
ATOM     32  H13 PBD d   1       3.055  72.918   5.347  0.00  0.00     0.091 H 
BRANCH  28  33
ATOM     33  OAP PBD d   1       3.384  75.260   1.616  0.00  0.00    -0.353 OA
BRANCH  33  34
ATOM     34  CAA PBD d   1       3.404  76.531   1.034  0.00  0.00     0.010 C 
ATOM     35  H1  PBD d   1       3.648  76.441  -0.035  0.00  0.00     0.066 H 
ATOM     36  H2  PBD d   1       4.164  77.151   1.532  0.00  0.00     0.066 H 
ATOM     37  H3  PBD d   1       2.416  77.001   1.146  0.00  0.00     0.066 H 
ENDBRANCH  33  34
ENDBRANCH  28  33
BRANCH  30  38
ATOM     38  OAQ PBD d   1       3.661  73.025   2.641  0.00  0.00    -0.353 OA
BRANCH  38  39
ATOM     39  CAB PBD d   1       3.619  71.674   3.284  0.00  0.00     0.010 C 
ATOM     40  H4  PBD d   1       3.960  70.915   2.565  0.00  0.00     0.066 H 
ATOM     41  H5  PBD d   1       2.588  71.448   3.595  0.00  0.00     0.066 H 
ATOM     42  H6  PBD d   1       4.278  71.666   4.165  0.00  0.00     0.066 H 
ENDBRANCH  38  39
ENDBRANCH  30  38
ENDBRANCH   1  24
TORSDOF 11
