REMARK  3 active torsions:
REMARK  status: ('A' for Active; 'I' for Inactive)
REMARK    1  A    between atoms: C7_4  and  C8_1 
REMARK    2  A    between atoms: C7_4  and  C1_5 
REMARK    3  A    between atoms: C3_7  and  O3_11 
ROOT
ATOM      1  C1  3HP d   1      13.875  11.539  41.177  0.00  0.00    -0.046 A 
ATOM      2  C2  3HP d   1      13.787  10.550  42.166  0.00  0.00    -0.044 A 
ATOM      3  C3  3HP d   1      14.395   9.293  41.931  0.00  0.00     0.066 A 
ATOM      4  C4  3HP d   1      15.084   9.019  40.754  0.00  0.00    -0.051 A 
ATOM      5  C5  3HP d   1      15.208   9.996  39.800  0.00  0.00    -0.080 A 
ATOM      6  C6  3HP d   1      14.578  11.260  39.996  0.00  0.00    -0.076 A 
ATOM      7  H3  3HP d   1      13.263  10.744  43.095  0.00  0.00     0.088 H 
ATOM      8  H4  3HP d   1      15.520   8.040  40.592  0.00  0.00     0.087 H 
ATOM      9  H5  3HP d   1      15.783   9.808  38.900  0.00  0.00     0.083 H 
ATOM     10  H6  3HP d   1      14.643  12.016  39.222  0.00  0.00     0.084 H 
ENDROOT
BRANCH   1  11
ATOM     11  C7  3HP d   1      13.241  12.899  41.241  0.00  0.00     0.040 C 
ATOM     12  H1  3HP d   1      13.187  13.300  40.218  0.00  0.00     0.056 H 
ATOM     13  H2  3HP d   1      12.224  12.784  41.644  0.00  0.00     0.056 H 
BRANCH  11  14
ATOM     14  C8  3HP d   1      13.986  13.913  42.112  0.00  0.00     0.176 C 
ATOM     15  O2  3HP d   1      15.054  14.468  41.722  0.00  0.00    -0.648 OA
ATOM     16  O1  3HP d   1      13.336  14.205  43.180  0.00  0.00    -0.648 OA
ENDBRANCH  11  14
ENDBRANCH   1  11
BRANCH   3  17
ATOM     17  O3  3HP d   1      14.328   8.326  42.893  0.00  0.00    -0.361 OA
ATOM     18  H7  3HP d   1      13.418   8.118  43.069  0.00  0.00     0.217 HD
ENDBRANCH   3  17
TORSDOF 3
