REMARK  2 active torsions:
REMARK  status: ('A' for Active; 'I' for Inactive)
REMARK    1  A    between atoms: C1_1  and  C7_9 
REMARK    2  A    between atoms: C4_5  and  O4_6 
ROOT
ATOM      1  C1  FHB d   1      14.893  12.354  40.667  0.00  0.00     0.043 A 
ATOM      2  C2  FHB d   1      15.485  11.337  39.878  0.00  0.00    -0.026 A 
ATOM      3  C3  FHB d   1      15.021  10.043  39.961  0.00  0.00     0.150 A 
ATOM      4  F3  FHB d   1      15.606   9.063  39.221  0.00  0.00    -0.203 F 
ATOM      5  C4  FHB d   1      13.899   9.751  40.752  0.00  0.00     0.104 A 
ATOM      6  C5  FHB d   1      13.306  10.735  41.522  0.00  0.00    -0.047 A 
ATOM      7  C6  FHB d   1      13.793  12.051  41.467  0.00  0.00    -0.064 A 
ATOM      8  H1  FHB d   1      16.303  11.577  39.209  0.00  0.00     0.090 H 
ATOM      9  H3  FHB d   1      12.468  10.491  42.166  0.00  0.00     0.087 H 
ATOM     10  H4  FHB d   1      13.313  12.831  42.047  0.00  0.00     0.085 H 
ENDROOT
BRANCH   1  11
ATOM     11  C7  FHB d   1      15.475  13.750  40.590  0.00  0.00     0.209 C 
ATOM     12  O2  FHB d   1      14.987  14.651  41.243  0.00  0.00    -0.644 OA
ATOM     13  O1  FHB d   1      16.405  14.010  39.825  0.00  0.00    -0.644 OA
ENDBRANCH   1  11
BRANCH   5  14
ATOM     14  O4  FHB d   1      13.470   8.441  40.765  0.00  0.00    -0.358 OA
ATOM     15  H2  FHB d   1      13.548   8.092  41.645  0.00  0.00     0.217 HD
ENDBRANCH   5  14
TORSDOF 2
