REMARK  3 active torsions:
REMARK  status: ('A' for Active; 'I' for Inactive)
REMARK    1  A    between atoms: C7_4  and  C8_1 
REMARK    2  A    between atoms: C7_4  and  C1_5 
REMARK    3  A    between atoms: C4_8  and  O4_11 
ROOT
ATOM      1  C1  4HP d   1      14.413  11.538  40.533  0.00  0.00    -0.048 A 
ATOM      2  C2  4HP d   1      15.106  10.451  39.940  0.00  0.00    -0.074 A 
ATOM      3  C3  4HP d   1      15.106   9.196  40.550  0.00  0.00    -0.051 A 
ATOM      4  C4  4HP d   1      14.492   9.065  41.808  0.00  0.00     0.065 A 
ATOM      5  C5  4HP d   1      13.835  10.146  42.416  0.00  0.00    -0.051 A 
ATOM      6  C6  4HP d   1      13.800  11.379  41.780  0.00  0.00    -0.074 A 
ATOM      7  H3  4HP d   1      15.639  10.597  39.007  0.00  0.00     0.084 H 
ATOM      8  H4  4HP d   1      15.568   8.343  40.066  0.00  0.00     0.087 H 
ATOM      9  H5  4HP d   1      13.356  10.018  43.380  0.00  0.00     0.087 H 
ATOM     10  H6  4HP d   1      13.298  12.218  42.249  0.00  0.00     0.084 H 
ENDROOT
BRANCH   1  11
ATOM     11  C7  4HP d   1      14.447  12.920  39.872  0.00  0.00     0.039 C 
ATOM     12  H1  4HP d   1      14.601  12.797  38.790  0.00  0.00     0.056 H 
ATOM     13  H2  4HP d   1      13.488  13.428  40.050  0.00  0.00     0.056 H 
BRANCH  11  14
ATOM     14  C8  4HP d   1      15.599  13.789  40.455  0.00  0.00     0.176 C 
ATOM     15  O2  4HP d   1      15.348  14.478  41.470  0.00  0.00    -0.648 OA
ATOM     16  O1  4HP d   1      16.770  13.675  40.029  0.00  0.00    -0.648 OA
ENDBRANCH  11  14
ENDBRANCH   1  11
BRANCH   4  17
ATOM     17  O4  4HP d   1      14.477   7.905  42.520  0.00  0.00    -0.361 OA
ATOM     18  H7  4HP d   1      14.040   7.230  42.014  0.00  0.00     0.217 HD
ENDBRANCH   4  17
TORSDOF 3
