REMARK  2 active torsions:
REMARK  status: ('A' for Active; 'I' for Inactive)
REMARK    1  A    between atoms: N1_1  and  O4_11 
REMARK    2  A    between atoms: C4_4  and  C7_7 
ROOT
ATOM      1  N1  INO d   1      13.361   9.797  41.481  0.00  0.00    -0.199 N 
ATOM      2  C2  INO d   1      14.350   9.585  40.641  0.00  0.00     0.272 A 
ATOM      3  C3  INO d   1      15.142  10.625  40.182  0.00  0.00     0.001 A 
ATOM      4  C4  INO d   1      14.877  11.941  40.608  0.00  0.00     0.047 A 
ATOM      5  C5  INO d   1      13.772  12.153  41.450  0.00  0.00    -0.049 A 
ATOM      6  C6  INO d   1      13.039  11.037  41.895  0.00  0.00     0.013 A 
ATOM      7  O3  INO d   1      14.598   8.443  40.239  0.00  0.00    -0.266 OA
ATOM      8  H1  INO d   1      15.964  10.426  39.496  0.00  0.00     0.093 H 
ATOM      9  H2  INO d   1      13.489  13.160  41.752  0.00  0.00     0.087 H 
ATOM     10  H3  INO d   1      12.204  11.178  42.580  0.00  0.00     0.115 H 
ENDROOT
BRANCH   4  11
ATOM     11  C7  INO d   1      15.786  13.106  40.164  0.00  0.00     0.209 C 
ATOM     12  O2  INO d   1      15.569  14.267  40.515  0.00  0.00    -0.644 OA
ATOM     13  O1  INO d   1      16.739  12.880  39.434  0.00  0.00    -0.644 OA
ENDBRANCH   4  11
BRANCH   1  14
ATOM     14  O4  INO d   1      12.605   8.790  41.888  0.00  0.00    -0.280 OA
ATOM     15  H4  INO d   1      12.940   7.978  41.526  0.00  0.00     0.245 HD
ENDBRANCH   1  14
TORSDOF 2
