REMARK  2 active torsions:
REMARK  status: ('A' for Active; 'I' for Inactive)
REMARK    1  A    between atoms: N1_1  and  O3_11 
REMARK    2  A    between atoms: C3_3  and  C7_7 
ROOT
ATOM      1  N1  NNO d   1      14.189   9.489  40.747  0.00  0.00    -0.198 N 
ATOM      2  C2  NNO d   1      14.955  10.455  40.300  0.00  0.00     0.028 A 
ATOM      3  C3  NNO d   1      14.800  11.816  40.690  0.00  0.00     0.059 A 
ATOM      4  C4  NNO d   1      13.750  12.119  41.557  0.00  0.00    -0.060 A 
ATOM      5  C5  NNO d   1      12.935  11.111  42.032  0.00  0.00    -0.014 A 
ATOM      6  C6  NNO d   1      13.175   9.793  41.594  0.00  0.00     0.271 A 
ATOM      7  O4  NNO d   1      12.361   8.880  41.984  0.00  0.00    -0.266 OA
ATOM      8  H1  NNO d   1      15.748  10.204  39.597  0.00  0.00     0.117 H 
ATOM      9  H2  NNO d   1      13.573  13.150  41.859  0.00  0.00     0.085 H 
ATOM     10  H3  NNO d   1      12.126  11.329  42.728  0.00  0.00     0.092 H 
ENDROOT
BRANCH   3  11
ATOM     11  C7  NNO d   1      15.776  12.915  40.228  0.00  0.00     0.210 C 
ATOM     12  O2  NNO d   1      15.657  14.089  40.575  0.00  0.00    -0.644 OA
ATOM     13  O1  NNO d   1      16.697  12.603  39.470  0.00  0.00    -0.644 OA
ENDBRANCH   3  11
BRANCH   1  14
ATOM     14  O3  NNO d   1      14.327   8.310  40.352  0.00  0.00    -0.280 OA
ATOM     15  H4  NNO d   1      14.466   7.741  41.100  0.00  0.00     0.245 HD
ENDBRANCH   1  14
TORSDOF 2
