REMARK  1 active torsions:
REMARK  status: ('A' for Active; 'I' for Inactive)
REMARK    1  A    between atoms: C5_11  and  C7_13 
ROOT
ATOM      1  C1  HA7 d   1      45.065  27.248  40.794  0.00  0.00     0.274 A 
ATOM      2  N1  HA7 d   1      45.029  28.486  41.278  0.00  0.00    -0.225 N 
ATOM      3  O1  HA7 d   1      45.896  28.510  42.422  0.00  0.00    -0.236 OA
ATOM      4  C2  HA7 d   1      45.902  26.461  41.559  0.00  0.00     0.048 A 
ATOM      5  N2  HA7 d   1      47.805  25.259  43.222  0.00  0.00    -0.055 N 
ATOM      6  C3  HA7 d   1      46.217  24.993  41.366  0.00  0.00    -0.011 C 
ATOM      7  C4  HA7 d   1      46.683  24.447  42.719  0.00  0.00     0.087 C 
ATOM      8  O4  HA7 d   1      44.449  26.846  39.812  0.00  0.00    -0.266 OA
ATOM      9  C5  HA7 d   1      47.406  26.637  43.594  0.00  0.00     0.232 C 
ATOM     10  C6  HA7 d   1      46.415  27.250  42.578  0.00  0.00     0.129 A 
ATOM     11  H1  HA7 d   1      44.500  29.253  40.915  0.00  0.00     0.198 HD
ATOM     12  H2  HA7 d   1      48.510  25.312  42.503  0.00  0.00     0.278 HD
ATOM     13  H3  HA7 d   1      48.189  24.806  44.036  0.00  0.00     0.278 HD
ATOM     14  H4  HA7 d   1      47.014  24.874  40.617  0.00  0.00     0.043 H 
ATOM     15  H5  HA7 d   1      45.317  24.455  41.033  0.00  0.00     0.043 H 
ATOM     16  H6  HA7 d   1      45.850  24.489  43.437  0.00  0.00     0.076 H 
ATOM     17  H7  HA7 d   1      47.011  23.404  42.599  0.00  0.00     0.076 H 
ATOM     18  H8  HA7 d   1      48.314  27.257  43.572  0.00  0.00     0.113 H 
ENDROOT
BRANCH   9  19
ATOM     19  C7  HA7 d   1      46.858  26.678  45.037  0.00  0.00     0.211 C 
ATOM     20  O2  HA7 d   1      45.867  27.405  45.254  0.00  0.00    -0.646 OA
ATOM     21  O3  HA7 d   1      47.481  26.015  45.896  0.00  0.00    -0.646 OA
ENDBRANCH   9  19
TORSDOF 1
