REMARK  1 active torsions:
REMARK  status: ('A' for Active; 'I' for Inactive)
REMARK    1  A    between atoms: C6_6  and  C7_7 
ROOT
ATOM      1  N1  HA5 d   1      57.258  27.221  47.171  0.00  0.00    -0.225 N 
ATOM      2  O2  HA5 d   1      58.466  27.704  46.481  0.00  0.00    -0.237 OA
ATOM      3  C3  HA5 d   1      58.334  27.361  45.177  0.00  0.00     0.114 A 
ATOM      4  C4  HA5 d   1      59.388  27.690  44.178  0.00  0.00     0.129 C 
ATOM      5  N5  HA5 d   1      59.244  26.644  43.101  0.00  0.00    -0.055 N 
ATOM      6  C6  HA5 d   1      57.843  26.745  42.543  0.00  0.00     0.189 C 
ATOM      7  C10 HA5 d   1      56.827  26.174  43.565  0.00  0.00     0.003 C 
ATOM      8  C11 HA5 d   1      57.194  26.685  44.924  0.00  0.00     0.048 A 
ATOM      9  C12 HA5 d   1      56.508  26.602  46.216  0.00  0.00     0.274 A 
ATOM     10  O13 HA5 d   1      55.402  26.039  46.439  0.00  0.00    -0.266 OA
ATOM     11  H1  HA5 d   1      57.034  27.326  48.140  0.00  0.00     0.198 HD
ATOM     12  H2  HA5 d   1      60.386  27.637  44.637  0.00  0.00     0.086 H 
ATOM     13  H3  HA5 d   1      59.228  28.696  43.764  0.00  0.00     0.086 H 
ATOM     14  H4  HA5 d   1      59.392  25.727  43.492  0.00  0.00     0.278 HD
ATOM     15  H5  HA5 d   1      59.917  26.810  42.369  0.00  0.00     0.278 HD
ATOM     16  H6  HA5 d   1      57.601  27.811  42.420  0.00  0.00     0.102 H 
ATOM     17  H7  HA5 d   1      56.868  25.075  43.557  0.00  0.00     0.044 H 
ATOM     18  H8  HA5 d   1      55.811  26.505  43.305  0.00  0.00     0.044 H 
ENDROOT
BRANCH   6  19
ATOM     19  C7  HA5 d   1      57.815  26.113  41.130  0.00  0.00     0.205 C 
ATOM     20  O8  HA5 d   1      56.676  25.792  40.756  0.00  0.00    -0.646 OA
ATOM     21  O9  HA5 d   1      58.915  25.999  40.523  0.00  0.00    -0.646 OA
ENDBRANCH   6  19
TORSDOF 1
