REMARK  3 active torsions:
REMARK  status: ('A' for Active; 'I' for Inactive)
REMARK    1  A    between atoms: C5_5  and  C23_23 
REMARK    2  A    between atoms: C10_10  and  N15_15 
REMARK    3  A    between atoms: N15_15  and  C16_16 
ROOT
ATOM      1  C1  3NG d   1      22.824 -31.100  13.914  0.00  0.00     0.071 A 
ATOM      2  C2  3NG d   1      22.968 -30.953  12.551  0.00  0.00     0.005 A 
ATOM      3  C3  3NG d   1      23.014 -32.101  11.711  0.00  0.00    -0.069 A 
ATOM      4  C4  3NG d   1      22.901 -33.376  12.276  0.00  0.00    -0.066 A 
ATOM      5  C5  3NG d   1      22.747 -33.534  13.665  0.00  0.00     0.043 A 
ATOM      6  C6  3NG d   1      22.712 -32.403  14.484  0.00  0.00    -0.038 A 
ATOM      7  C7  3NG d   1      23.029 -28.533  12.863  0.00  0.00     0.024 A 
ATOM      8  C8  3NG d   1      23.082 -29.604  11.990  0.00  0.00     0.008 A 
ATOM      9  N9  3NG d   1      22.763 -29.997  14.761  0.00  0.00    -0.230 NA
ATOM     10  C10 3NG d   1      22.863 -28.749  14.267  0.00  0.00     0.140 A 
ATOM     11  C11 3NG d   1      23.286 -27.039  10.950  0.00  0.00     0.003 A 
ATOM     12  N12 3NG d   1      23.334 -28.106  10.121  0.00  0.00    -0.272 NA
ATOM     13  C13 3NG d   1      23.231 -29.363  10.598  0.00  0.00     0.013 A 
ATOM     14  C14 3NG d   1      23.134 -27.213  12.323  0.00  0.00    -0.051 A 
ATOM     15  H1  3NG d   1      23.136 -31.988  10.640  0.00  0.00     0.085 H 
ATOM     16  H2  3NG d   1      22.933 -34.251  11.637  0.00  0.00     0.085 H 
ATOM     17  H3  3NG d   1      22.599 -32.516  15.556  0.00  0.00     0.088 H 
ATOM     18  H4  3NG d   1      23.367 -26.038  10.542  0.00  0.00     0.114 H 
ATOM     19  H5  3NG d   1      23.262 -30.200   9.910  0.00  0.00     0.116 H 
ATOM     20  H6  3NG d   1      23.095 -26.352  12.980  0.00  0.00     0.087 H 
ENDROOT
BRANCH  10  21
ATOM     21  N15 3NG d   1      22.782 -27.581  15.088  0.00  0.00    -0.340 N 
ATOM     22  H7  3NG d   1      22.833 -26.671  14.607  0.00  0.00     0.167 HD
BRANCH  21  23
ATOM     23  C16 3NG d   1      22.637 -27.551  16.510  0.00  0.00     0.035 A 
ATOM     24  C17 3NG d   1      23.077 -28.582  17.335  0.00  0.00    -0.036 A 
ATOM     25  C18 3NG d   1      22.916 -28.471  18.712  0.00  0.00     0.036 A 
ATOM     26  H8  3NG d   1      23.541 -29.464  16.908  0.00  0.00     0.089 H 
ATOM     27  C19 3NG d   1      22.321 -27.346  19.256  0.00  0.00    -0.062 A 
ATOM     28 CL22 3NG d   1      23.419 -29.736  19.782  0.00  0.00    -0.084 Cl
ATOM     29  C20 3NG d   1      21.894 -26.322  18.433  0.00  0.00    -0.079 A 
ATOM     30  H9  3NG d   1      22.190 -27.268  20.329  0.00  0.00     0.086 H 
ATOM     31  C21 3NG d   1      22.050 -26.422  17.065  0.00  0.00    -0.057 A 
ATOM     32  H10 3NG d   1      21.436 -25.438  18.862  0.00  0.00     0.083 H 
ATOM     33  H11 3NG d   1      21.713 -25.617  16.422  0.00  0.00     0.086 H 
ENDBRANCH  21  23
ENDBRANCH  10  21
BRANCH   5  34
ATOM     34  C23 3NG d   1      22.563 -34.906  14.246  0.00  0.00     0.209 C 
ATOM     35  O24 3NG d   1      22.724 -34.903  15.490  0.00  0.00    -0.644 OA
ATOM     36  O25 3NG d   1      22.150 -35.683  13.355  0.00  0.00    -0.644 OA
ENDBRANCH   5  34
TORSDOF 3
