REMARK  11 active torsions:
REMARK  status: ('A' for Active; 'I' for Inactive)
REMARK    1  A    between atoms: C8_8  and  S10_10 
REMARK    2  A    between atoms: S10_10  and  C11_11 
REMARK    3  A    between atoms: S10_10  and  O18_18 
REMARK    4  A    between atoms: C11_11  and  C12_12 
REMARK    5  A    between atoms: C16_16  and  O19_19 
REMARK    6  A    between atoms: C17_17  and  C25_25 
REMARK    7  A    between atoms: O19_19  and  C20_20 
REMARK    8  A    between atoms: C20_20  and  C21_21 
REMARK    9  A    between atoms: C21_21  and  C22_22 
REMARK   10  A    between atoms: C22_22  and  O23_23 
REMARK   11  A    between atoms: O23_23  and  C24_24 
ROOT
ATOM      1  C12 RZX d   1       0.520   9.266  -7.391  0.00  0.00     0.053 A 
ATOM      2  N13 RZX d   1       0.580   8.095  -8.041  0.00  0.00    -0.264 NA
ATOM      3  C14 RZX d   1       0.432   6.923  -7.413  0.00  0.00     0.005 A 
ATOM      4  C15 RZX d   1       0.171   6.850  -6.049  0.00  0.00    -0.033 A 
ATOM      5  C16 RZX d   1       0.073   8.037  -5.330  0.00  0.00     0.078 A 
ATOM      6  C17 RZX d   1       0.243   9.271  -5.999  0.00  0.00    -0.003 A 
ATOM      7  H8  RZX d   1       0.518   6.005  -7.983  0.00  0.00     0.114 H 
ATOM      8  H9  RZX d   1       0.047   5.892  -5.558  0.00  0.00     0.090 H 
ENDROOT
BRANCH   1   9
ATOM      9  C11 RZX d   1       0.720  10.440  -8.327  0.00  0.00     0.038 C 
ATOM     10  H6  RZX d   1       1.171  10.017  -9.237  0.00  0.00     0.061 H 
ATOM     11  H7  RZX d   1      -0.291  10.809  -8.556  0.00  0.00     0.061 H 
BRANCH   9  12
ATOM     12  S10 RZX d   1       1.652  11.846  -7.961  0.00  0.00    -0.016 S 
BRANCH  12  13
ATOM     13  C8  RZX d   1       2.510  12.009  -6.499  0.00  0.00     0.182 A 
ATOM     14  N7  RZX d   1       3.415  13.005  -6.362  0.00  0.00    -0.221 NA
ATOM     15  C3  RZX d   1       3.877  12.874  -5.101  0.00  0.00     0.086 A 
ATOM     16  C2  RZX d   1       3.165  11.725  -4.486  0.00  0.00     0.063 A 
ATOM     17  C4  RZX d   1       4.820  13.561  -4.351  0.00  0.00    -0.053 A 
ATOM     18  C1  RZX d   1       3.451  11.372  -3.179  0.00  0.00    -0.055 A 
ATOM     19  N9  RZX d   1       2.316  11.231  -5.417  0.00  0.00    -0.332 N 
ATOM     20  C6  RZX d   1       4.404  12.103  -2.475  0.00  0.00    -0.081 A 
ATOM     21  H1  RZX d   1       2.941  10.539  -2.710  0.00  0.00     0.087 H 
ATOM     22  C5  RZX d   1       5.084  13.173  -3.041  0.00  0.00    -0.081 A 
ATOM     23  H4  RZX d   1       4.623  11.827  -1.450  0.00  0.00     0.083 H 
ATOM     24  H3  RZX d   1       5.825  13.709  -2.459  0.00  0.00     0.083 H 
ATOM     25  H5  RZX d   1       1.667  10.437  -5.320  0.00  0.00     0.168 HD
ATOM     26  H2  RZX d   1       5.351  14.400  -4.785  0.00  0.00     0.087 H 
ENDBRANCH  12  13
BRANCH  12  27
ATOM     27  O18 RZX d   1       0.601  12.933  -7.994  0.00  0.00    -0.333 OA
ATOM     28  H10 RZX d   1      -0.066  12.747  -7.343  0.00  0.00     0.227 HD
ENDBRANCH  12  27
ENDBRANCH   9  12
ENDBRANCH   1   9
BRANCH   6  29
ATOM     29  C25 RZX d   1       0.134  10.544  -5.178  0.00  0.00    -0.047 C 
ATOM     30  H20 RZX d   1       0.288  11.416  -5.831  0.00  0.00     0.033 H 
ATOM     31  H21 RZX d   1       0.900  10.538  -4.388  0.00  0.00     0.033 H 
ATOM     32  H22 RZX d   1      -0.865  10.601  -4.720  0.00  0.00     0.033 H 
ENDBRANCH   6  29
BRANCH   5  33
ATOM     33  O19 RZX d   1      -0.185   7.965  -3.969  0.00  0.00    -0.350 OA
BRANCH  33  34
ATOM     34  C20 RZX d   1      -1.422   7.443  -3.469  0.00  0.00     0.028 C 
ATOM     35  H11 RZX d   1      -1.277   7.042  -2.455  0.00  0.00     0.075 H 
ATOM     36  H12 RZX d   1      -1.787   6.644  -4.131  0.00  0.00     0.075 H 
BRANCH  34  37
ATOM     37  C21 RZX d   1      -2.426   8.589  -3.436  0.00  0.00    -0.025 C 
ATOM     38  H13 RZX d   1      -2.524   9.003  -4.450  0.00  0.00     0.039 H 
ATOM     39  H14 RZX d   1      -2.051   9.369  -2.757  0.00  0.00     0.039 H 
BRANCH  37  40
ATOM     40  C22 RZX d   1      -3.795   8.142  -2.957  0.00  0.00     0.021 C 
ATOM     41  H15 RZX d   1      -3.904   8.331  -1.879  0.00  0.00     0.074 H 
ATOM     42  H16 RZX d   1      -3.939   7.070  -3.158  0.00  0.00     0.074 H 
BRANCH  40  43
ATOM     43  O23 RZX d   1      -4.743   8.920  -3.698  0.00  0.00    -0.396 OA
BRANCH  43  44
ATOM     44  C24 RZX d   1      -5.849   8.142  -4.163  0.00  0.00     0.004 C 
ATOM     45  H17 RZX d   1      -6.542   8.787  -4.723  0.00  0.00     0.066 H 
ATOM     46  H18 RZX d   1      -6.374   7.700  -3.303  0.00  0.00     0.066 H 
ATOM     47  H19 RZX d   1      -5.482   7.340  -4.821  0.00  0.00     0.066 H 
ENDBRANCH  43  44
ENDBRANCH  40  43
ENDBRANCH  37  40
ENDBRANCH  34  37
ENDBRANCH  33  34
ENDBRANCH   5  33
TORSDOF 11
