REMARK  6 active torsions:
REMARK  status: ('A' for Active; 'I' for Inactive)
REMARK    1  A    between atoms: C2'_10  and  O2'_11 
REMARK    2  A    between atoms: C1'_12  and  N9_13 
REMARK    3  A    between atoms: C2_20  and  N2_21 
REMARK    4  A    between atoms: C2A_33  and  O2A_34 
REMARK    5  A    between atoms: C1A_35  and  N91_36 
REMARK    6  A    between atoms: C21_43  and  N21_44 
ROOT
ATOM      1  P1  C2E d   1      29.114  33.484   4.733  0.00  0.00     0.408 P 
ATOM      2  O2P C2E d   1      28.868  32.892   6.104  0.00  0.00    -0.624 OA
ATOM      3  O1P C2E d   1      28.486  32.568   3.703  0.00  0.00    -0.624 OA
ATOM      4  O5' C2E d   1      28.336  34.869   4.731  0.00  0.00    -0.287 OA
ATOM      5  C5' C2E d   1      28.056  35.495   3.520  0.00  0.00     0.058 C 
ATOM      6  C4' C2E d   1      29.065  36.502   3.037  0.00  0.00     0.090 C 
ATOM      7  O4' C2E d   1      28.681  36.954   1.766  0.00  0.00    -0.353 OA
ATOM      8  C3' C2E d   1      29.145  37.767   3.859  0.00  0.00     0.106 C 
ATOM      9  O3' C2E d   1      30.315  38.463   3.566  0.00  0.00    -0.279 OA
ATOM     10  C2' C2E d   1      28.033  38.480   3.375  0.00  0.00     0.106 C 
ATOM     11  C1' C2E d   1      27.936  38.122   1.971  0.00  0.00     0.140 C 
ATOM     12  P11 C2E d   1      31.435  38.531   4.670  0.00  0.00     0.408 P 
ATOM     13  O21 C2E d   1      30.809  38.599   6.045  0.00  0.00    -0.624 OA
ATOM     14  O11 C2E d   1      32.401  39.674   4.488  0.00  0.00    -0.624 OA
ATOM     15  O5A C2E d   1      32.378  37.313   4.531  0.00  0.00    -0.287 OA
ATOM     16  C5A C2E d   1      31.966  36.329   5.359  0.00  0.00     0.058 C 
ATOM     17  C4A C2E d   1      32.476  35.050   4.886  0.00  0.00     0.090 C 
ATOM     18  O4A C2E d   1      33.757  34.898   5.570  0.00  0.00    -0.353 OA
ATOM     19  C3A C2E d   1      31.487  34.079   5.411  0.00  0.00     0.106 C 
ATOM     20  O3A C2E d   1      30.659  33.522   4.431  0.00  0.00    -0.279 OA
ATOM     21  C2A C2E d   1      32.288  33.183   6.263  0.00  0.00     0.106 C 
ATOM     22  C1A C2E d   1      33.532  34.000   6.612  0.00  0.00     0.140 C 
ATOM     23  H1  C2E d   1      27.091  36.013   3.626  0.00  0.00     0.079 H 
ATOM     24  H2  C2E d   1      27.970  34.713   2.751  0.00  0.00     0.079 H 
ATOM     25  H3  C2E d   1      30.054  36.021   3.001  0.00  0.00     0.090 H 
ATOM     26  H4  C2E d   1      29.076  37.567   4.938  0.00  0.00     0.092 H 
ATOM     27  H5  C2E d   1      27.136  38.127   3.905  0.00  0.00     0.093 H 
ATOM     28  H7  C2E d   1      28.419  38.936   1.410  0.00  0.00     0.122 H 
ATOM     29  H12 C2E d   1      30.866  36.301   5.377  0.00  0.00     0.079 H 
ATOM     30  H13 C2E d   1      32.344  36.522   6.374  0.00  0.00     0.079 H 
ATOM     31  H14 C2E d   1      32.580  34.992   3.792  0.00  0.00     0.090 H 
ATOM     32  H15 C2E d   1      30.804  34.624   6.079  0.00  0.00     0.092 H 
ATOM     33  H16 C2E d   1      31.735  32.943   7.183  0.00  0.00     0.093 H 
ATOM     34  H18 C2E d   1      34.380  33.300   6.583  0.00  0.00     0.122 H 
ENDROOT
BRANCH  11  35
ATOM     35  N9  C2E d   1      26.497  37.958   1.346  0.00  0.00    -0.293 N 
ATOM     36  C8  C2E d   1      25.403  37.584   2.044  0.00  0.00     0.071 A 
ATOM     37  N7  C2E d   1      24.382  37.489   1.179  0.00  0.00    -0.235 NA
ATOM     38  H8  C2E d   1      25.358  37.394   3.115  0.00  0.00     0.144 H 
ATOM     39  C5  C2E d   1      24.845  37.787  -0.059  0.00  0.00     0.159 A 
ATOM     40  C6  C2E d   1      24.224  37.842  -1.309  0.00  0.00     0.226 A 
ATOM     41  C4  C2E d   1      26.214  38.091   0.042  0.00  0.00     0.185 A 
ATOM     42  O6  C2E d   1      22.866  37.580  -1.445  0.00  0.00    -0.169 OA
ATOM     43  N1  C2E d   1      24.974  38.195  -2.374  0.00  0.00    -0.164 N 
ATOM     44  C2  C2E d   1      26.286  38.477  -2.253  0.00  0.00     0.702 A 
ATOM     45  H9  C2E d   1      24.545  38.249  -3.276  0.00  0.00     0.186 HD
ATOM     46  N3  C2E d   1      26.913  38.423  -1.061  0.00  0.00    -0.044 NA
BRANCH  44  47
ATOM     47  N2  C2E d   1      27.018  38.832  -3.433  0.00  0.00    -0.233 N 
ATOM     48  H10 C2E d   1      28.022  39.052  -3.369  0.00  0.00     0.174 HD
ATOM     49  H11 C2E d   1      26.540  38.867  -4.345  0.00  0.00     0.174 HD
ENDBRANCH  44  47
ENDBRANCH  11  35
BRANCH  10  50
ATOM     50  O2' C2E d   1      28.092  39.903   3.538  0.00  0.00    -0.388 OA
ATOM     51  H6  C2E d   1      28.850  40.242   3.076  0.00  0.00     0.210 HD
ENDBRANCH  10  50
BRANCH  21  52
ATOM     52  O2A C2E d   1      32.569  32.020   5.620  0.00  0.00    -0.388 OA
ATOM     53  H17 C2E d   1      31.758  31.581   5.394  0.00  0.00     0.210 HD
ENDBRANCH  21  52
BRANCH  22  54
ATOM     54  N91 C2E d   1      33.532  34.556   8.102  0.00  0.00    -0.293 N 
ATOM     55  C81 C2E d   1      32.695  35.498   8.571  0.00  0.00     0.071 A 
ATOM     56  N71 C2E d   1      32.798  35.573   9.910  0.00  0.00    -0.235 NA
ATOM     57  H19 C2E d   1      32.033  36.109   7.959  0.00  0.00     0.144 H 
ATOM     58  C51 C2E d   1      33.711  34.657  10.301  0.00  0.00     0.159 A 
ATOM     59  C61 C2E d   1      34.234  34.277  11.538  0.00  0.00     0.226 A 
ATOM     60  C41 C2E d   1      34.164  34.004   9.152  0.00  0.00     0.185 A 
ATOM     61  O61 C2E d   1      33.777  34.869  12.696  0.00  0.00    -0.169 OA
ATOM     62  N11 C2E d   1      35.158  33.290  11.583  0.00  0.00    -0.164 N 
ATOM     63  C21 C2E d   1      35.589  32.671  10.477  0.00  0.00     0.702 A 
ATOM     64  H20 C2E d   1      35.530  33.014  12.469  0.00  0.00     0.186 HD
ATOM     65  N31 C2E d   1      35.089  33.030   9.281  0.00  0.00    -0.044 NA
BRANCH  63  66
ATOM     66  N21 C2E d   1      36.616  31.681  10.556  0.00  0.00    -0.233 N 
ATOM     67  H21 C2E d   1      36.943  31.209   9.701  0.00  0.00     0.174 HD
ATOM     68  H22 C2E d   1      37.030  31.440  11.468  0.00  0.00     0.174 HD
ENDBRANCH  63  66
ENDBRANCH  22  54
TORSDOF 6
