REMARK  11 active torsions:
REMARK  status: ('A' for Active; 'I' for Inactive)
REMARK    1  A    between atoms: S_1  and  C4_11 
REMARK    2  A    between atoms: C5_14  and  S_1 
REMARK    3  A    between atoms: C2_5  and  C1_2 
REMARK    4  A    between atoms: C3_8  and  C2_5 
REMARK    5  A    between atoms: C14_24  and  O2_7 
REMARK    6  A    between atoms: C4_11  and  C3_8 
REMARK    7  A    between atoms: C10_20  and  N3_9 
REMARK    8  A    between atoms: C12_22  and  O3_10 
REMARK    9  A    between atoms: C11_21  and  O4_13 
REMARK   10  A    between atoms: C6_16  and  N5_15 
REMARK   11  A    between atoms: C13_23  and  C14_24 
ROOT
ATOM      1  N1  IVH d   1     111.387  89.060  25.502  0.00  0.00    -0.203 NA
ATOM      2  N2  IVH d   1     111.653  90.940  26.882  0.00  0.00    -0.202 NA
ATOM      3  N3  IVH d   1     112.592  90.360  29.085  0.00  0.00    -0.294 N 
ATOM      4  N4  IVH d   1     112.692  88.179  28.715  0.00  0.00    -0.236 NA
ATOM      5  C5  IVH d   1     111.284  90.378  25.746  0.00  0.00     0.192 A 
ATOM      6  C6  IVH d   1     111.831  88.236  26.407  0.00  0.00     0.157 A 
ATOM      7  C7  IVH d   1     112.218  88.769  27.608  0.00  0.00     0.149 A 
ATOM      8  C8  IVH d   1     112.123  90.154  27.849  0.00  0.00     0.168 A 
ATOM      9  C9  IVH d   1     112.928  89.155  29.589  0.00  0.00     0.071 A 
ATOM     10  H15 IVH d   1     113.340  89.000  30.585  0.00  0.00     0.144 H 
ENDROOT
BRANCH   3  11
ATOM     11  C10 IVH d   1     112.731  91.605  29.885  0.00  0.00     0.139 C 
ATOM     12  O1  IVH d   1     111.412  92.106  30.148  0.00  0.00    -0.353 OA
ATOM     13  C13 IVH d   1     111.464  93.562  30.115  0.00  0.00     0.088 C 
ATOM     14  C12 IVH d   1     112.405  93.838  29.003  0.00  0.00     0.091 C 
ATOM     15  H19 IVH d   1     111.830  93.993  31.059  0.00  0.00     0.090 H 
ATOM     16  C11 IVH d   1     113.432  92.697  29.134  0.00  0.00     0.105 C 
ATOM     17  H18 IVH d   1     111.889  93.781  28.033  0.00  0.00     0.091 H 
ATOM     18  H17 IVH d   1     113.823  92.370  28.159  0.00  0.00     0.093 H 
ATOM     19  H16 IVH d   1     113.266  91.386  30.821  0.00  0.00     0.122 H 
BRANCH  13  20
ATOM     20  C14 IVH d   1     110.053  94.025  29.834  0.00  0.00     0.043 C 
ATOM     21  H20 IVH d   1     110.010  95.115  29.694  0.00  0.00     0.078 H 
ATOM     22  H21 IVH d   1     109.637  93.525  28.947  0.00  0.00     0.078 H 
BRANCH  20  23
ATOM     23  O2  IVH d   1     109.361  93.620  31.042  0.00  0.00    -0.398 OA
ATOM     24  H6  IVH d   1     109.432  92.678  31.146  0.00  0.00     0.209 HD
ENDBRANCH  20  23
ENDBRANCH  13  20
BRANCH  14  25
ATOM     25  O3  IVH d   1     112.990  95.111  29.131  0.00  0.00    -0.390 OA
ATOM     26  H9  IVH d   1     113.401  95.185  29.984  0.00  0.00     0.210 HD
ENDBRANCH  14  25
BRANCH  16  27
ATOM     27  O4  IVH d   1     114.447  93.124  30.010  0.00  0.00    -0.388 OA
ATOM     28  H12 IVH d   1     115.025  92.395  30.202  0.00  0.00     0.210 HD
ENDBRANCH  16  27
ENDBRANCH   3  11
BRANCH   5  29
ATOM     29  S   IVH d   1     110.699  91.281  24.473  0.00  0.00    -0.090 SA
BRANCH  29  30
ATOM     30  C4  IVH d   1     111.397  92.848  24.941  0.00  0.00    -0.016 C 
ATOM     31  H10 IVH d   1     112.206  93.097  24.239  0.00  0.00     0.049 H 
ATOM     32  H11 IVH d   1     111.808  92.761  25.958  0.00  0.00     0.049 H 
BRANCH  30  33
ATOM     33  C3  IVH d   1     110.377  93.970  24.924  0.00  0.00    -0.057 C 
ATOM     34  H7  IVH d   1     109.962  94.083  25.937  0.00  0.00     0.034 H 
ATOM     35  H8  IVH d   1     110.884  94.901  24.629  0.00  0.00     0.034 H 
BRANCH  33  36
ATOM     36  C2  IVH d   1     109.229  93.713  23.954  0.00  0.00    -0.068 C 
ATOM     37  H4  IVH d   1     109.515  92.919  23.248  0.00  0.00     0.032 H 
ATOM     38  H5  IVH d   1     108.337  93.400  24.516  0.00  0.00     0.032 H 
BRANCH  36  39
ATOM     39  C1  IVH d   1     108.923  94.993  23.184  0.00  0.00    -0.076 C 
ATOM     40  H1  IVH d   1     108.095  94.810  22.483  0.00  0.00     0.027 H 
ATOM     41  H2  IVH d   1     109.816  95.306  22.623  0.00  0.00     0.027 H 
ATOM     42  H3  IVH d   1     108.637  95.786  23.890  0.00  0.00     0.027 H 
ENDBRANCH  36  39
ENDBRANCH  33  36
ENDBRANCH  30  33
ENDBRANCH  29  30
ENDBRANCH   5  29
BRANCH   6  43
ATOM     43  N5  IVH d   1     111.864  86.895  26.087  0.00  0.00    -0.382 N 
ATOM     44  H13 IVH d   1     112.208  86.210  26.775  0.00  0.00     0.157 HD
ATOM     45  H14 IVH d   1     111.544  86.579  25.160  0.00  0.00     0.157 HD
ENDBRANCH   6  43
TORSDOF 11
