REMARK  16 active torsions:
REMARK  status: ('A' for Active; 'I' for Inactive)
REMARK    1  A    between atoms: C5_1  and  C3_2 
REMARK    2  A    between atoms: C5_1  and  C6_6 
REMARK       I    between atoms: C3_2  and  N1_4 
REMARK    3  A    between atoms: N1_4  and  O2_5 
REMARK    4  A    between atoms: C6_6  and  C12_7 
REMARK    5  A    between atoms: C6_6  and  C7_9 
REMARK       I    between atoms: C12_7  and  N14_14 
REMARK    6  A    between atoms: C7_9  and  C8_10 
REMARK    7  A    between atoms: C8_10  and  C9_11 
REMARK    8  A    between atoms: C9_11  and  C10_12 
REMARK    9  A    between atoms: C10_12  and  C11_13 
REMARK   10  A    between atoms: N14_14  and  C15_15 
REMARK   11  A    between atoms: C15_15  and  C16_16 
REMARK   12  A    between atoms: C15_15  and  C19_19 
REMARK   13  A    between atoms: C16_16  and  C18_17 
REMARK   14  A    between atoms: C16_16  and  C17_18 
REMARK       I    between atoms: C19_19  and  N21_21 
REMARK   15  A    between atoms: C22_22  and  C26_26 
REMARK   16  A    between atoms: C26_26  and  O27_27 
ROOT
ATOM      1  C12 BB2 d   1       2.680  18.546  66.581  0.00  0.00     0.223 C 
ATOM      2  O13 BB2 d   1       2.786  17.749  67.537  0.00  0.00    -0.273 OA
ATOM      3  N14 BB2 d   1       3.194  19.780  66.590  0.00  0.00    -0.347 N 
ATOM      4  H17 BB2 d   1       3.133  20.341  65.765  0.00  0.00     0.163 HD
ENDROOT
BRANCH   3   5
ATOM      5  C15 BB2 d   1       3.842  20.325  67.778  0.00  0.00     0.092 C 
ATOM      6  H18 BB2 d   1       3.666  19.629  68.611  0.00  0.00     0.088 H 
BRANCH   5   7
ATOM      7  C16 BB2 d   1       5.380  20.478  67.675  0.00  0.00    -0.033 C 
ATOM      8  H19 BB2 d   1       5.737  20.866  68.640  0.00  0.00     0.042 H 
BRANCH   7   9
ATOM      9  C18 BB2 d   1       6.072  19.130  67.416  0.00  0.00    -0.071 C 
ATOM     10  H20 BB2 d   1       7.159  19.283  67.350  0.00  0.00     0.028 H 
ATOM     11  H21 BB2 d   1       5.704  18.704  66.471  0.00  0.00     0.028 H 
ATOM     12  H22 BB2 d   1       5.848  18.438  68.242  0.00  0.00     0.028 H 
ENDBRANCH   7   9
BRANCH   7  13
ATOM     13  C17 BB2 d   1       5.796  21.459  66.591  0.00  0.00    -0.071 C 
ATOM     14  H23 BB2 d   1       5.306  22.428  66.766  0.00  0.00     0.028 H 
ATOM     15  H24 BB2 d   1       5.495  21.069  65.608  0.00  0.00     0.028 H 
ATOM     16  H25 BB2 d   1       6.888  21.590  66.615  0.00  0.00     0.028 H 
ENDBRANCH   7  13
ENDBRANCH   5   7
BRANCH   5  17
ATOM     17  C19 BB2 d   1       3.056  21.630  68.072  0.00  0.00     0.243 C 
ATOM     18  O20 BB2 d   1       2.660  22.336  67.140  0.00  0.00    -0.271 OA
ATOM     19  N21 BB2 d   1       2.757  21.972  69.346  0.00  0.00    -0.344 N 
ATOM     20  C22 BB2 d   1       1.983  23.176  69.756  0.00  0.00     0.035 C 
ATOM     21  C23 BB2 d   1       3.171  21.146  70.524  0.00  0.00    -0.002 C 
ATOM     22  C25 BB2 d   1       1.548  22.866  71.207  0.00  0.00    -0.043 C 
ATOM     23  H26 BB2 d   1       1.106  23.308  69.105  0.00  0.00     0.076 H 
ATOM     24  C24 BB2 d   1       2.551  21.827  71.757  0.00  0.00    -0.048 C 
ATOM     25  H31 BB2 d   1       0.529  22.452  71.217  0.00  0.00     0.036 H 
ATOM     26  H32 BB2 d   1       1.578  23.782  71.816  0.00  0.00     0.036 H 
ATOM     27  H29 BB2 d   1       3.331  22.325  72.352  0.00  0.00     0.035 H 
ATOM     28  H30 BB2 d   1       2.031  21.086  72.382  0.00  0.00     0.035 H 
ATOM     29  H27 BB2 d   1       4.267  21.125  70.610  0.00  0.00     0.064 H 
ATOM     30  H28 BB2 d   1       2.791  20.119  70.423  0.00  0.00     0.064 H 
BRANCH  20  31
ATOM     31  C26 BB2 d   1       2.842  24.463  69.719  0.00  0.00     0.036 C 
ATOM     32  H33 BB2 d   1       3.298  24.566  68.723  0.00  0.00     0.077 H 
ATOM     33  H34 BB2 d   1       3.633  24.392  70.480  0.00  0.00     0.077 H 
BRANCH  31  34
ATOM     34  O27 BB2 d   1       2.028  25.617  69.988  0.00  0.00    -0.399 OA
ATOM     35  H35 BB2 d   1       1.345  25.681  69.331  0.00  0.00     0.209 HD
ENDBRANCH  31  34
ENDBRANCH  20  31
ENDBRANCH   5  17
ENDBRANCH   3   5
BRANCH   1  36
ATOM     36  C6  BB2 d   1       1.965  18.195  65.273  0.00  0.00     0.032 C 
ATOM     37  H5  BB2 d   1       2.245  18.924  64.498  0.00  0.00     0.055 H 
BRANCH  36  38
ATOM     38  C5  BB2 d   1       2.385  16.789  64.801  0.00  0.00     0.022 C 
ATOM     39  H1  BB2 d   1       3.466  16.655  64.953  0.00  0.00     0.048 H 
ATOM     40  H2  BB2 d   1       1.837  16.027  65.374  0.00  0.00     0.048 H 
BRANCH  38  41
ATOM     41  C3  BB2 d   1       2.060  16.655  63.346  0.00  0.00     0.241 C 
ATOM     42  O4  BB2 d   1       2.783  17.130  62.471  0.00  0.00    -0.271 OA
ATOM     43  N1  BB2 d   1       0.911  16.052  63.073  0.00  0.00    -0.237 N 
ATOM     44  H3  BB2 d   1       0.325  15.673  63.789  0.00  0.00     0.197 HD
BRANCH  43  45
ATOM     45  O2  BB2 d   1       0.582  15.983  61.750  0.00  0.00    -0.287 OA
ATOM     46  H4  BB2 d   1       1.255  15.502  61.282  0.00  0.00     0.244 HD
ENDBRANCH  43  45
ENDBRANCH  38  41
ENDBRANCH  36  38
BRANCH  36  47
ATOM     47  C7  BB2 d   1       0.425  18.285  65.524  0.00  0.00    -0.053 C 
ATOM     48  H6  BB2 d   1       0.167  17.720  66.432  0.00  0.00     0.034 H 
ATOM     49  H7  BB2 d   1      -0.113  17.861  64.663  0.00  0.00     0.034 H 
BRANCH  47  50
ATOM     50  C8  BB2 d   1       0.018  19.778  65.707  0.00  0.00    -0.064 C 
ATOM     51  H8  BB2 d   1       0.201  20.314  64.764  0.00  0.00     0.033 H 
ATOM     52  H9  BB2 d   1       0.634  20.219  66.505  0.00  0.00     0.033 H 
BRANCH  50  53
ATOM     53  C9  BB2 d   1      -1.469  19.930  66.085  0.00  0.00    -0.065 C 
ATOM     54  H10 BB2 d   1      -1.607  19.630  67.134  0.00  0.00     0.033 H 
ATOM     55  H11 BB2 d   1      -2.075  19.281  65.436  0.00  0.00     0.033 H 
BRANCH  53  56
ATOM     56  C10 BB2 d   1      -1.935  21.403  65.910  0.00  0.00    -0.069 C 
ATOM     57  H12 BB2 d   1      -3.028  21.430  65.787  0.00  0.00     0.032 H 
ATOM     58  H13 BB2 d   1      -1.455  21.836  65.020  0.00  0.00     0.032 H 
BRANCH  56  59
ATOM     59  C11 BB2 d   1      -1.539  22.213  67.150  0.00  0.00    -0.077 C 
ATOM     60  H14 BB2 d   1      -1.868  23.255  67.028  0.00  0.00     0.027 H 
ATOM     61  H15 BB2 d   1      -0.446  22.186  67.272  0.00  0.00     0.027 H 
ATOM     62  H16 BB2 d   1      -2.019  21.779  68.040  0.00  0.00     0.027 H 
ENDBRANCH  56  59
ENDBRANCH  53  56
ENDBRANCH  50  53
ENDBRANCH  47  50
ENDBRANCH  36  47
ENDBRANCH   1  36
TORSDOF 16
