REMARK  7 active torsions:
REMARK  status: ('A' for Active; 'I' for Inactive)
REMARK    1  A    between atoms: C2_2  and  C1_1 
REMARK    2  A    between atoms: O3_3  and  C2_2 
REMARK    3  A    between atoms: C4_4  and  O3_3 
REMARK    4  A    between atoms: C6_6  and  C4_4 
REMARK    5  A    between atoms: N12_12  and  C6_6 
REMARK    6  A    between atoms: C8_8  and  O7_7 
REMARK    7  A    between atoms: C13_13  and  N14_14 
REMARK       I    between atoms: C15_15  and  N16_16 
REMARK       I    between atoms: C15_15  and  N17_17 
ROOT
ATOM      1  C8  MKY d   1      11.511  -9.498  23.619  0.00  0.00     0.067 A 
ATOM      2  C9  MKY d   1      12.505  -8.771  22.976  0.00  0.00    -0.049 A 
ATOM      3  C10 MKY d   1      13.325  -9.334  22.015  0.00  0.00    -0.053 A 
ATOM      4  C11 MKY d   1      13.130 -10.684  21.657  0.00  0.00     0.054 A 
ATOM      5  N12 MKY d   1      13.893 -11.437  20.789  0.00  0.00    -0.316 N 
ATOM      6  C13 MKY d   1      13.669 -12.759  20.636  0.00  0.00     0.167 A 
ATOM      7  S18 MKY d   1      12.228 -13.055  21.650  0.00  0.00    -0.051 SA
ATOM      8  C19 MKY d   1      12.135 -11.405  22.337  0.00  0.00     0.038 A 
ATOM      9  C20 MKY d   1      11.321 -10.838  23.288  0.00  0.00    -0.032 A 
ATOM     10  H9  MKY d   1      12.643  -7.728  23.236  0.00  0.00     0.087 H 
ATOM     11  H10 MKY d   1      14.105  -8.747  21.544  0.00  0.00     0.087 H 
ATOM     12  H16 MKY d   1      10.546 -11.422  23.771  0.00  0.00     0.089 H 
ENDROOT
BRANCH   5  13
ATOM     13  C6  MKY d   1      15.142 -10.906  20.234  0.00  0.00     0.082 C 
ATOM     14  H6  MKY d   1      15.186 -11.105  19.153  0.00  0.00     0.080 H 
ATOM     15  H7  MKY d   1      15.199  -9.822  20.410  0.00  0.00     0.080 H 
BRANCH  13  16
ATOM     16  C4  MKY d   1      16.290 -11.603  20.934  0.00  0.00     0.277 C 
ATOM     17  O5  MKY d   1      16.119 -12.271  21.949  0.00  0.00    -0.263 OA
BRANCH  16  18
ATOM     18  O3  MKY d   1      17.509 -11.439  20.414  0.00  0.00    -0.321 OA
BRANCH  18  19
ATOM     19  C2  MKY d   1      18.577 -12.290  20.935  0.00  0.00     0.025 C 
ATOM     20  H4  MKY d   1      18.791 -12.014  21.978  0.00  0.00     0.074 H 
ATOM     21  H5  MKY d   1      18.262 -13.343  20.891  0.00  0.00     0.074 H 
BRANCH  19  22
ATOM     22  C1  MKY d   1      19.838 -12.096  20.085  0.00  0.00    -0.056 C 
ATOM     23  H1  MKY d   1      20.644 -12.735  20.474  0.00  0.00     0.030 H 
ATOM     24  H2  MKY d   1      20.151 -11.043  20.129  0.00  0.00     0.030 H 
ATOM     25  H3  MKY d   1      19.623 -12.371  19.042  0.00  0.00     0.030 H 
ENDBRANCH  19  22
ENDBRANCH  18  19
ENDBRANCH  16  18
ENDBRANCH  13  16
ENDBRANCH   5  13
BRANCH   6  26
ATOM     26  N14 MKY d   1      14.434 -13.586  19.939  0.00  0.00    -0.171 N 
ATOM     27  C15 MKY d   1      14.202 -14.901  19.926  0.00  0.00     0.671 C 
ATOM     28  N16 MKY d   1      13.769 -15.482  21.108  0.00  0.00    -0.235 N 
ATOM     29  N17 MKY d   1      14.483 -15.655  18.807  0.00  0.00    -0.235 N 
ATOM     30  H12 MKY d   1      13.578 -16.493  21.145  0.00  0.00     0.174 HD
ATOM     31  H13 MKY d   1      13.639 -14.902  21.949  0.00  0.00     0.174 HD
ATOM     32  H14 MKY d   1      14.803 -15.195  17.943  0.00  0.00     0.174 HD
ATOM     33  H15 MKY d   1      14.373 -16.679  18.835  0.00  0.00     0.174 HD
ATOM     34  H11 MKY d   1      15.223 -13.207  19.396  0.00  0.00     0.186 HD
ENDBRANCH   6  26
BRANCH   1  35
ATOM     35  O7  MKY d   1      10.727  -8.901  24.566  0.00  0.00    -0.361 OA
ATOM     36  H8  MKY d   1      10.103  -9.533  24.903  0.00  0.00     0.217 HD
ENDBRANCH   1  35
TORSDOF 7
