REMARK  7 active torsions:
REMARK  status: ('A' for Active; 'I' for Inactive)
REMARK    1  A    between atoms: OAK_11  and  CAA_1 
REMARK    2  A    between atoms: OAL_12  and  CAB_2 
REMARK    3  A    between atoms: CAQ_17  and  CAC_3 
REMARK    4  A    between atoms: SAS_19  and  NAD_4 
REMARK    5  A    between atoms: CAN_14  and  OAK_11 
REMARK    6  A    between atoms: CAO_15  and  OAL_12 
REMARK    7  A    between atoms: NAR_18  and  SAS_19 
ROOT
ATOM      1  CAG DT9 d   1      -4.589   3.302  11.601  0.00  0.00    -0.041 A 
ATOM      2  CAH DT9 d   1      -6.363   4.799  13.135  0.00  0.00    -0.039 A 
ATOM      3  CAI DT9 d   1      -4.167   1.636  13.414  0.00  0.00    -0.025 C 
ATOM      4  CAJ DT9 d   1      -4.192   1.642  14.947  0.00  0.00     0.011 C 
ATOM      5  CAM DT9 d   1      -4.885   2.885  12.895  0.00  0.00    -0.045 A 
ATOM      6  CAN DT9 d   1      -5.170   4.452  11.066  0.00  0.00     0.102 A 
ATOM      7  CAO DT9 d   1      -6.053   5.218  11.825  0.00  0.00     0.102 A 
ATOM      8  CAP DT9 d   1      -5.772   3.650  13.667  0.00  0.00    -0.026 A 
ATOM      9  CAQ DT9 d   1      -6.125   3.208  15.095  0.00  0.00     0.046 C 
ATOM     10  NAR DT9 d   1      -5.623   1.820  15.295  0.00  0.00    -0.285 N 
ATOM     11  H12 DT9 d   1      -3.896   2.724  10.999  0.00  0.00     0.088 H 
ATOM     12  H13 DT9 d   1      -7.063   5.371  13.733  0.00  0.00     0.088 H 
ATOM     13  H14 DT9 d   1      -4.678   0.736  13.041  0.00  0.00     0.042 H 
ATOM     14  H15 DT9 d   1      -3.125   1.638  13.063  0.00  0.00     0.042 H 
ATOM     15  H16 DT9 d   1      -3.590   2.473  15.342  0.00  0.00     0.066 H 
ATOM     16  H17 DT9 d   1      -3.811   0.691  15.346  0.00  0.00     0.066 H 
ATOM     17  H18 DT9 d   1      -7.221   3.187  15.190  0.00  0.00     0.081 H 
ENDROOT
BRANCH  10  18
ATOM     18  SAS DT9 d   1      -5.913   0.981  16.614  0.00  0.00     0.315 S 
ATOM     19  OAE DT9 d   1      -5.181   1.428  17.796  0.00  0.00    -0.183 OA
ATOM     20  OAF DT9 d   1      -7.363   1.211  16.833  0.00  0.00    -0.183 OA
BRANCH  18  21
ATOM     21  NAD DT9 d   1      -5.357  -0.601  16.218  0.00  0.00    -0.311 N 
ATOM     22  H10 DT9 d   1      -4.382  -0.765  16.069  0.00  0.00     0.170 HD
ATOM     23  H11 DT9 d   1      -6.009  -1.355  16.137  0.00  0.00     0.170 HD
ENDBRANCH  18  21
ENDBRANCH  10  18
BRANCH   9  24
ATOM     24  CAC DT9 d   1      -5.602   4.200  16.121  0.00  0.00    -0.053 C 
ATOM     25  H7  DT9 d   1      -6.014   5.198  15.909  0.00  0.00     0.030 H 
ATOM     26  H8  DT9 d   1      -4.504   4.238  16.068  0.00  0.00     0.030 H 
ATOM     27  H9  DT9 d   1      -5.910   3.882  17.128  0.00  0.00     0.030 H 
ENDBRANCH   9  24
BRANCH   7  28
ATOM     28  OAL DT9 d   1      -6.597   6.324  11.208  0.00  0.00    -0.353 OA
BRANCH  28  29
ATOM     29  CAB DT9 d   1      -7.315   7.213  12.057  0.00  0.00     0.010 C 
ATOM     30  H4  DT9 d   1      -7.703   8.054  11.463  0.00  0.00     0.066 H 
ATOM     31  H5  DT9 d   1      -6.643   7.596  12.839  0.00  0.00     0.066 H 
ATOM     32  H6  DT9 d   1      -8.154   6.676  12.524  0.00  0.00     0.066 H 
ENDBRANCH  28  29
ENDBRANCH   7  28
BRANCH   6  33
ATOM     33  OAK DT9 d   1      -4.878   4.863   9.783  0.00  0.00    -0.353 OA
BRANCH  33  34
ATOM     34  CAA DT9 d   1      -3.463   4.738   9.531  0.00  0.00     0.010 C 
ATOM     35  H1  DT9 d   1      -3.243   5.069   8.505  0.00  0.00     0.066 H 
ATOM     36  H2  DT9 d   1      -3.161   3.687   9.650  0.00  0.00     0.066 H 
ATOM     37  H3  DT9 d   1      -2.907   5.363  10.245  0.00  0.00     0.066 H 
ENDBRANCH  33  34
ENDBRANCH   6  33
TORSDOF 7
