REMARK  9 active torsions:
REMARK  status: ('A' for Active; 'I' for Inactive)
REMARK    1  A    between atoms: C2_2  and  C7_7 
REMARK    2  A    between atoms: C10_10  and  C12_12 
REMARK    3  A    between atoms: C12_12  and  C13_13 
REMARK    4  A    between atoms: C13_13  and  C15_15 
REMARK    5  A    between atoms: C15_15  and  C16_16 
REMARK    6  A    between atoms: C16_16  and  C17_17 
REMARK    7  A    between atoms: C17_17  and  C18_18 
REMARK    8  A    between atoms: C18_18  and  C19_19 
REMARK    9  A    between atoms: C19_19  and  C20_20 
ROOT
ATOM      1  C15 JG1 d   1      40.433 -41.767   6.525  0.00  0.00    -0.058 C 
ATOM      2  H7  JG1 d   1      40.172 -42.438   5.694  0.00  0.00     0.033 H 
ATOM      3  H8  JG1 d   1      40.562 -42.355   7.445  0.00  0.00     0.033 H 
ENDROOT
BRANCH   1   4
ATOM      4  C13 JG1 d   1      39.318 -40.748   6.725  0.00  0.00    -0.002 C 
ATOM      5  H5  JG1 d   1      39.617 -40.057   7.527  0.00  0.00     0.045 H 
ATOM      6  H6  JG1 d   1      39.187 -40.187   5.788  0.00  0.00     0.045 H 
BRANCH   4   7
ATOM      7  C12 JG1 d   1      37.970 -41.381   7.106  0.00  0.00     0.203 C 
ATOM      8  O14 JG1 d   1      37.883 -42.565   7.446  0.00  0.00    -0.288 OA
BRANCH   7   9
ATOM      9  C10 JG1 d   1      36.719 -40.527   7.076  0.00  0.00     0.239 A 
ATOM     10  N9  JG1 d   1      36.606 -39.261   6.673  0.00  0.00    -0.118 NA
ATOM     11  N8  JG1 d   1      35.427 -38.900   6.857  0.00  0.00    -0.119 NA
ATOM     12  C7  JG1 d   1      34.727 -39.884   7.447  0.00  0.00     0.221 A 
ATOM     13  O11 JG1 d   1      35.549 -40.946   7.631  0.00  0.00    -0.265 OA
BRANCH  12  14
ATOM     14  C2  JG1 d   1      33.395 -39.945   7.862  0.00  0.00     0.111 A 
ATOM     15  N1  JG1 d   1      32.553 -38.913   7.659  0.00  0.00    -0.257 NA
ATOM     16  C6  JG1 d   1      31.282 -38.948   8.033  0.00  0.00     0.003 A 
ATOM     17  C5  JG1 d   1      30.762 -40.065   8.683  0.00  0.00    -0.066 A 
ATOM     18  H4  JG1 d   1      30.640 -38.098   7.831  0.00  0.00     0.114 H 
ATOM     19  C4  JG1 d   1      31.614 -41.147   8.928  0.00  0.00    -0.079 A 
ATOM     20  H3  JG1 d   1      29.723 -40.095   8.991  0.00  0.00     0.085 H 
ATOM     21  C3  JG1 d   1      32.948 -41.090   8.519  0.00  0.00    -0.051 A 
ATOM     22  H2  JG1 d   1      31.239 -42.029   9.435  0.00  0.00     0.083 H 
ATOM     23  H1  JG1 d   1      33.621 -41.918   8.708  0.00  0.00     0.087 H 
ENDBRANCH  12  14
ENDBRANCH   7   9
ENDBRANCH   4   7
ENDBRANCH   1   4
BRANCH   1  24
ATOM     24  C16 JG1 d   1      41.741 -41.035   6.199  0.00  0.00    -0.065 C 
ATOM     25  H9  JG1 d   1      42.026 -40.414   7.061  0.00  0.00     0.033 H 
ATOM     26  H10 JG1 d   1      41.579 -40.391   5.322  0.00  0.00     0.033 H 
BRANCH  24  27
ATOM     27  C17 JG1 d   1      42.879 -42.010   5.894  0.00  0.00    -0.065 C 
ATOM     28  H11 JG1 d   1      43.782 -41.423   5.671  0.00  0.00     0.033 H 
ATOM     29  H12 JG1 d   1      42.597 -42.599   5.009  0.00  0.00     0.033 H 
BRANCH  27  30
ATOM     30  C18 JG1 d   1      43.210 -42.979   7.022  0.00  0.00    -0.061 C 
ATOM     31  H13 JG1 d   1      42.326 -43.589   7.258  0.00  0.00     0.033 H 
ATOM     32  H14 JG1 d   1      43.517 -42.416   7.916  0.00  0.00     0.033 H 
BRANCH  30  33
ATOM     33  C19 JG1 d   1      44.356 -43.887   6.565  0.00  0.00    -0.041 C 
ATOM     34  H15 JG1 d   1      45.233 -43.264   6.337  0.00  0.00     0.040 H 
ATOM     35  H16 JG1 d   1      44.043 -44.425   5.658  0.00  0.00     0.040 H 
BRANCH  33  36
ATOM     36  C20 JG1 d   1      44.742 -44.910   7.638  0.00  0.00    -0.058 A 
ATOM     37  C21 JG1 d   1      44.992 -46.228   7.271  0.00  0.00    -0.077 A 
ATOM     38  C22 JG1 d   1      45.348 -47.169   8.233  0.00  0.00    -0.082 A 
ATOM     39  H17 JG1 d   1      44.909 -46.524   6.231  0.00  0.00     0.084 H 
ATOM     40  C23 JG1 d   1      45.442 -46.796   9.569  0.00  0.00    -0.083 A 
ATOM     41  H18 JG1 d   1      45.552 -48.193   7.940  0.00  0.00     0.083 H 
ATOM     42  C24 JG1 d   1      45.183 -45.481   9.937  0.00  0.00    -0.082 A 
ATOM     43  H19 JG1 d   1      45.716 -47.528  10.320  0.00  0.00     0.083 H 
ATOM     44  C25 JG1 d   1      44.837 -44.538   8.972  0.00  0.00    -0.077 A 
ATOM     45  H20 JG1 d   1      45.251 -45.188  10.979  0.00  0.00     0.083 H 
ATOM     46  H21 JG1 d   1      44.642 -43.512   9.263  0.00  0.00     0.084 H 
ENDBRANCH  33  36
ENDBRANCH  30  33
ENDBRANCH  27  30
ENDBRANCH  24  27
ENDBRANCH   1  24
TORSDOF 9
