REMARK  5 active torsions:
REMARK  status: ('A' for Active; 'I' for Inactive)
REMARK    1  A    between atoms: N_1  and  CA_2 
REMARK    2  A    between atoms: N_1  and  C1_6 
REMARK    3  A    between atoms: N_1  and  C2_7 
REMARK    4  A    between atoms: N_1  and  C3_8 
REMARK    5  A    between atoms: CA_2  and  C_3 
ROOT
ATOM      1  N   BET d   1     -29.623 -29.755   9.196  0.00  0.00    -0.069 N 
ENDROOT
BRANCH   1   2
ATOM      2  CA  BET d   1     -29.809 -31.151   8.875  0.00  0.00     0.162 C 
ATOM      3  H1  BET d   1     -29.950 -31.200   7.785  0.00  0.00     0.093 H 
ATOM      4  H2  BET d   1     -30.736 -31.461   9.379  0.00  0.00     0.093 H 
BRANCH   2   5
ATOM      5  C   BET d   1     -28.759 -32.214   9.219  0.00  0.00     0.199 C 
ATOM      6  O1  BET d   1     -28.661 -33.263   8.647  0.00  0.00    -0.647 OA
ATOM      7  O2  BET d   1     -28.038 -31.888  10.205  0.00  0.00    -0.647 OA
ENDBRANCH   2   5
ENDBRANCH   1   2
BRANCH   1   8
ATOM      8  C1  BET d   1     -30.724 -28.960   8.578  0.00  0.00     0.068 C 
ATOM      9  H3  BET d   1     -30.588 -27.895   8.819  0.00  0.00     0.068 H 
ATOM     10  H4  BET d   1     -31.691 -29.304   8.973  0.00  0.00     0.068 H 
ATOM     11  H5  BET d   1     -30.705 -29.094   7.486  0.00  0.00     0.068 H 
ENDBRANCH   1   8
BRANCH   1  12
ATOM     12  C2  BET d   1     -28.365 -29.248   8.689  0.00  0.00     0.068 C 
ATOM     13  H6  BET d   1     -27.535 -29.819   9.131  0.00  0.00     0.068 H 
ATOM     14  H7  BET d   1     -28.263 -28.186   8.957  0.00  0.00     0.068 H 
ATOM     15  H8  BET d   1     -28.341 -29.354   7.594  0.00  0.00     0.068 H 
ENDBRANCH   1  12
BRANCH   1  16
ATOM     16  C3  BET d   1     -29.696 -29.575  10.627  0.00  0.00     0.068 C 
ATOM     17  H9  BET d   1     -30.656 -29.964  10.997  0.00  0.00     0.068 H 
ATOM     18  H10 BET d   1     -29.618 -28.504  10.866  0.00  0.00     0.068 H 
ATOM     19  H11 BET d   1     -28.870 -30.119  11.108  0.00  0.00     0.068 H 
ENDBRANCH   1  16
TORSDOF 5
