REMARK  6 active torsions:
REMARK  status: ('A' for Active; 'I' for Inactive)
REMARK    1  A    between atoms: C4_1  and  C5_2 
REMARK    2  A    between atoms: C4_1  and  O6_6 
REMARK    3  A    between atoms: C5_2  and  N1_7 
REMARK    4  A    between atoms: N1_7  and  C6_3 
REMARK    5  A    between atoms: N1_7  and  C7_4 
REMARK    6  A    between atoms: N1_7  and  C8_5 
ROOT
ATOM      1  N1  CHT d   1      29.791  28.447   8.665  0.00  0.00    -0.077 N 
ENDROOT
BRANCH   1   2
ATOM      2  C5  CHT d   1      30.083  29.885   8.766  0.00  0.00     0.103 C 
ATOM      3  H3  CHT d   1      30.772  30.021   9.613  0.00  0.00     0.079 H 
ATOM      4  H4  CHT d   1      30.584  30.184   7.834  0.00  0.00     0.079 H 
BRANCH   2   5
ATOM      5  C4  CHT d   1      28.904  30.841   8.978  0.00  0.00     0.040 C 
ATOM      6  H1  CHT d   1      29.316  31.853   9.102  0.00  0.00     0.076 H 
ATOM      7  H2  CHT d   1      28.394  30.537   9.904  0.00  0.00     0.076 H 
BRANCH   5   8
ATOM      8  O6  CHT d   1      28.060  30.892   8.091  0.00  0.00    -0.399 OA
ATOM      9  H14 CHT d   1      27.384  31.514   8.334  0.00  0.00     0.209 HD
ENDBRANCH   5   8
ENDBRANCH   2   5
ENDBRANCH   1   2
BRANCH   1  10
ATOM     10  C6  CHT d   1      29.541  28.058  10.029  0.00  0.00     0.067 C 
ATOM     11  H5  CHT d   1      29.309  26.983  10.067  0.00  0.00     0.068 H 
ATOM     12  H6  CHT d   1      28.689  28.631  10.424  0.00  0.00     0.068 H 
ATOM     13  H7  CHT d   1      30.434  28.262  10.638  0.00  0.00     0.068 H 
ENDBRANCH   1  10
BRANCH   1  14
ATOM     14  C7  CHT d   1      30.991  27.809   8.228  0.00  0.00     0.067 C 
ATOM     15  H8  CHT d   1      31.199  28.094   7.186  0.00  0.00     0.068 H 
ATOM     16  H9  CHT d   1      30.870  26.718   8.292  0.00  0.00     0.068 H 
ATOM     17  H10 CHT d   1      31.828  28.124   8.869  0.00  0.00     0.068 H 
ENDBRANCH   1  14
BRANCH   1  18
ATOM     18  C8  CHT d   1      28.745  27.910   7.814  0.00  0.00     0.067 C 
ATOM     19  H11 CHT d   1      27.780  28.358   8.092  0.00  0.00     0.068 H 
ATOM     20  H12 CHT d   1      28.693  26.819   7.941  0.00  0.00     0.068 H 
ATOM     21  H13 CHT d   1      28.970  28.146   6.763  0.00  0.00     0.068 H 
ENDBRANCH   1  18
TORSDOF 6
