REMARK  24 active torsions:
REMARK  status: ('A' for Active; 'I' for Inactive)
REMARK    1  A    between atoms: C6_6  and  C2_2 
REMARK    2  A    between atoms: O7_7  and  C6_6 
REMARK    3  A    between atoms: C10_8  and  O7_7 
REMARK       I    between atoms: N11_10  and  C10_8 
REMARK    4  A    between atoms: C12_11  and  N11_10 
REMARK    5  A    between atoms: C13_12  and  C12_11 
REMARK    6  A    between atoms: C12_11  and  C26_15 
REMARK    7  A    between atoms: C14_13  and  C13_12 
REMARK    8  A    between atoms: C13_12  and  O41_22 
REMARK    9  A    between atoms: C15_14  and  C14_13 
REMARK   10  A    between atoms: C15_14  and  C44_23 
REMARK   11  A    between atoms: N58_30  and  C15_14 
REMARK   12  A    between atoms: C26_15  and  C28_16 
REMARK   13  A    between atoms: C44_23  and  C45_24 
REMARK       I    between atoms: C18_33  and  N58_30 
REMARK   14  A    between atoms: C19_32  and  N20_31 
REMARK       I    between atoms: N20_31  and  C21_38 
REMARK   15  A    between atoms: C19_32  and  C18_33 
REMARK   16  A    between atoms: C19_32  and  C62_35 
REMARK   17  A    between atoms: C62_35  and  C64_36 
REMARK   18  A    between atoms: C62_35  and  C68_37 
REMARK       I    between atoms: C21_38  and  N74_39 
REMARK   19  A    between atoms: N74_39  and  C75_40 
REMARK   20  A    between atoms: N74_39  and  C95_50 
REMARK   21  A    between atoms: C75_40  and  C77_42 
REMARK   22  A    between atoms: C82_45  and  C85_47 
REMARK   23  A    between atoms: C85_47  and  C86_48 
REMARK   24  A    between atoms: C85_47  and  C90_49 
ROOT
ATOM      1  C15 RIT d   1      -0.978   4.164  10.074  0.00  0.00     0.018 C 
ATOM      2  H10 RIT d   1      -0.969   5.165  10.529  0.00  0.00     0.073 H 
ENDROOT
BRANCH   1   3
ATOM      3  C14 RIT d   1       0.481   3.689   9.894  0.00  0.00    -0.020 C 
ATOM      4  H8  RIT d   1       0.948   3.625  10.888  0.00  0.00     0.040 H 
ATOM      5  H9  RIT d   1       0.465   2.691   9.432  0.00  0.00     0.040 H 
BRANCH   3   6
ATOM      6  C13 RIT d   1       1.335   4.609   9.020  0.00  0.00     0.057 C 
ATOM      7  H7  RIT d   1       0.872   4.621   8.023  0.00  0.00     0.086 H 
BRANCH   6   8
ATOM      8  C12 RIT d   1       1.386   6.074   9.513  0.00  0.00     0.043 C 
ATOM      9  H6  RIT d   1       0.356   6.410   9.703  0.00  0.00     0.077 H 
BRANCH   8  10
ATOM     10  N11 RIT d   1       2.165   6.153  10.792  0.00  0.00    -0.329 N 
ATOM     11  C10 RIT d   1       1.677   6.956  11.786  0.00  0.00     0.361 C 
ATOM     12  O24 RIT d   1       0.595   7.510  11.861  0.00  0.00    -0.238 OA
ATOM     13  H5  RIT d   1       3.012   5.636  10.914  0.00  0.00     0.165 HD
BRANCH  11  14
ATOM     14  O7  RIT d   1       2.620   7.087  12.757  0.00  0.00    -0.299 OA
BRANCH  14  15
ATOM     15  C6  RIT d   1       2.335   8.209  13.632  0.00  0.00     0.061 C 
ATOM     16  H3  RIT d   1       2.550   9.142  13.091  0.00  0.00     0.083 H 
ATOM     17  H4  RIT d   1       1.270   8.181  13.906  0.00  0.00     0.083 H 
BRANCH  15  18
ATOM     18  C2  RIT d   1       3.140   8.181  14.863  0.00  0.00     0.025 A 
ATOM     19  C1  RIT d   1       2.789   8.636  16.129  0.00  0.00     0.017 A 
ATOM     20  N5  RIT d   1       3.759   8.480  17.115  0.00  0.00    -0.265 NA
ATOM     21  H1  RIT d   1       1.819   9.085  16.336  0.00  0.00     0.116 H 
ATOM     22  C4  RIT d   1       4.847   7.915  16.613  0.00  0.00     0.040 A 
ATOM     23  S3  RIT d   1       4.718   7.555  14.943  0.00  0.00    -0.084 SA
ATOM     24  H2  RIT d   1       5.736   7.700  17.204  0.00  0.00     0.126 H 
ENDBRANCH  15  18
ENDBRANCH  14  15
ENDBRANCH  11  14
ENDBRANCH   8  10
BRANCH   8  25
ATOM     25  C26 RIT d   1       2.026   7.026   8.458  0.00  0.00    -0.020 C 
ATOM     26  H11 RIT d   1       1.503   6.888   7.500  0.00  0.00     0.043 H 
ATOM     27  H12 RIT d   1       3.085   6.755   8.340  0.00  0.00     0.043 H 
BRANCH  25  28
ATOM     28  C28 RIT d   1       1.945   8.483   8.842  0.00  0.00    -0.056 A 
ATOM     29  C31 RIT d   1       0.752   9.189   8.602  0.00  0.00    -0.077 A 
ATOM     30  C32 RIT d   1       0.666  10.553   8.971  0.00  0.00    -0.082 A 
ATOM     31  H13 RIT d   1      -0.093   8.693   8.139  0.00  0.00     0.084 H 
ATOM     32  C33 RIT d   1       1.758  11.191   9.570  0.00  0.00    -0.083 A 
ATOM     33  H14 RIT d   1      -0.249  11.105   8.789  0.00  0.00     0.083 H 
ATOM     34  C34 RIT d   1       2.931  10.483   9.812  0.00  0.00    -0.082 A 
ATOM     35  H15 RIT d   1       1.690  12.237   9.845  0.00  0.00     0.083 H 
ATOM     36  C35 RIT d   1       3.036   9.129   9.440  0.00  0.00    -0.077 A 
ATOM     37  H16 RIT d   1       3.769  10.977  10.290  0.00  0.00     0.083 H 
ATOM     38  H17 RIT d   1       3.958   8.587   9.616  0.00  0.00     0.084 H 
ENDBRANCH  25  28
ENDBRANCH   8  25
ENDBRANCH   6   8
BRANCH   6  39
ATOM     39  O41 RIT d   1       2.662   4.094   8.874  0.00  0.00    -0.393 OA
ATOM     40  H18 RIT d   1       2.625   3.236   8.467  0.00  0.00     0.210 HD
ENDBRANCH   6  39
ENDBRANCH   3   6
ENDBRANCH   1   3
BRANCH   1  41
ATOM     41  C44 RIT d   1      -1.804   3.244  10.999  0.00  0.00    -0.022 C 
ATOM     42  H19 RIT d   1      -2.735   3.776  11.245  0.00  0.00     0.043 H 
ATOM     43  H20 RIT d   1      -1.217   3.088  11.916  0.00  0.00     0.043 H 
BRANCH  41  44
ATOM     44  C45 RIT d   1      -2.192   1.875  10.472  0.00  0.00    -0.056 A 
ATOM     45  C48 RIT d   1      -3.268   1.677   9.616  0.00  0.00    -0.077 A 
ATOM     46  C49 RIT d   1      -3.621   0.405   9.162  0.00  0.00    -0.082 A 
ATOM     47  H21 RIT d   1      -3.849   2.533   9.292  0.00  0.00     0.084 H 
ATOM     48  C50 RIT d   1      -2.869  -0.698   9.600  0.00  0.00    -0.083 A 
ATOM     49  H22 RIT d   1      -4.458   0.271   8.486  0.00  0.00     0.083 H 
ATOM     50  C51 RIT d   1      -1.792  -0.533  10.442  0.00  0.00    -0.082 A 
ATOM     51  H23 RIT d   1      -3.141  -1.694   9.270  0.00  0.00     0.083 H 
ATOM     52  C52 RIT d   1      -1.457   0.750  10.873  0.00  0.00    -0.077 A 
ATOM     53  H24 RIT d   1      -1.212  -1.390  10.766  0.00  0.00     0.083 H 
ATOM     54  H25 RIT d   1      -0.608   0.881  11.534  0.00  0.00     0.084 H 
ENDBRANCH  41  44
ENDBRANCH   1  41
BRANCH   1  55
ATOM     55  N58 RIT d   1      -1.544   4.265   8.718  0.00  0.00    -0.354 N 
ATOM     56  C18 RIT d   1      -2.510   5.212   8.488  0.00  0.00     0.241 C 
ATOM     57  O61 RIT d   1      -2.916   5.949   9.376  0.00  0.00    -0.271 OA
ATOM     58  H26 RIT d   1      -1.233   3.660   7.985  0.00  0.00     0.162 HD
BRANCH  56  59
ATOM     59  C19 RIT d   1      -3.043   5.197   7.036  0.00  0.00     0.093 C 
ATOM     60  H28 RIT d   1      -2.296   4.795   6.336  0.00  0.00     0.088 H 
BRANCH  59  61
ATOM     61  N20 RIT d   1      -4.244   4.326   7.075  0.00  0.00    -0.329 N 
ATOM     62  C21 RIT d   1      -4.400   3.398   6.059  0.00  0.00     0.319 C 
ATOM     63  N74 RIT d   1      -5.573   2.643   6.126  0.00  0.00    -0.333 N 
ATOM     64  O76 RIT d   1      -3.611   3.333   5.119  0.00  0.00    -0.247 OA
ATOM     65  H27 RIT d   1      -4.918   4.407   7.810  0.00  0.00     0.165 HD
BRANCH  63  66
ATOM     66  C75 RIT d   1      -5.852   1.720   5.029  0.00  0.00     0.039 C 
ATOM     67  H36 RIT d   1      -4.986   1.710   4.351  0.00  0.00     0.074 H 
ATOM     68  H37 RIT d   1      -6.738   2.080   4.486  0.00  0.00     0.074 H 
BRANCH  66  69
ATOM     69  C77 RIT d   1      -6.112   0.321   5.488  0.00  0.00     0.060 A 
ATOM     70  C80 RIT d   1      -5.126  -0.568   5.842  0.00  0.00    -0.018 A 
ATOM     71  S81 RIT d   1      -5.839  -2.045   6.317  0.00  0.00    -0.084 SA
ATOM     72  H38 RIT d   1      -4.057  -0.363   5.823  0.00  0.00     0.098 H 
ATOM     73  C82 RIT d   1      -7.399  -1.407   6.024  0.00  0.00     0.078 A 
ATOM     74  N83 RIT d   1      -7.394  -0.188   5.584  0.00  0.00    -0.248 NA
BRANCH  73  75
ATOM     75  C85 RIT d   1      -8.587  -2.304   6.290  0.00  0.00    -0.012 C 
ATOM     76  H39 RIT d   1      -9.404  -1.662   6.652  0.00  0.00     0.049 H 
BRANCH  75  77
ATOM     77  C86 RIT d   1      -9.081  -2.971   5.023  0.00  0.00    -0.067 C 
ATOM     78  H40 RIT d   1      -9.943  -3.613   5.258  0.00  0.00     0.028 H 
ATOM     79  H41 RIT d   1      -8.275  -3.583   4.593  0.00  0.00     0.028 H 
ATOM     80  H42 RIT d   1      -9.384  -2.201   4.298  0.00  0.00     0.028 H 
ENDBRANCH  75  77
BRANCH  75  81
ATOM     81  C90 RIT d   1      -8.279  -3.308   7.407  0.00  0.00    -0.067 C 
ATOM     82  H43 RIT d   1      -7.926  -2.768   8.298  0.00  0.00     0.028 H 
ATOM     83  H44 RIT d   1      -7.499  -4.006   7.068  0.00  0.00     0.028 H 
ATOM     84  H45 RIT d   1      -9.191  -3.870   7.656  0.00  0.00     0.028 H 
ENDBRANCH  75  81
ENDBRANCH  73  75
ENDBRANCH  66  69
ENDBRANCH  63  66
BRANCH  63  85
ATOM     85  C95 RIT d   1      -6.590   2.806   7.159  0.00  0.00    -0.014 C 
ATOM     86  H46 RIT d   1      -6.237   3.528   7.910  0.00  0.00     0.056 H 
ATOM     87  H47 RIT d   1      -6.780   1.837   7.643  0.00  0.00     0.056 H 
ATOM     88  H48 RIT d   1      -7.520   3.177   6.703  0.00  0.00     0.056 H 
ENDBRANCH  63  85
ENDBRANCH  59  61
BRANCH  59  89
ATOM     89  C62 RIT d   1      -3.398   6.657   6.656  0.00  0.00    -0.033 C 
ATOM     90  H29 RIT d   1      -4.108   7.065   7.391  0.00  0.00     0.042 H 
BRANCH  89  91
ATOM     91  C64 RIT d   1      -2.135   7.512   6.651  0.00  0.00    -0.071 C 
ATOM     92  H30 RIT d   1      -2.394   8.546   6.381  0.00  0.00     0.028 H 
ATOM     93  H31 RIT d   1      -1.422   7.109   5.917  0.00  0.00     0.028 H 
ATOM     94  H32 RIT d   1      -1.679   7.498   7.652  0.00  0.00     0.028 H 
ENDBRANCH  89  91
BRANCH  89  95
ATOM     95  C68 RIT d   1      -4.049   6.661   5.257  0.00  0.00    -0.071 C 
ATOM     96  H33 RIT d   1      -4.958   6.042   5.274  0.00  0.00     0.028 H 
ATOM     97  H34 RIT d   1      -3.340   6.252   4.522  0.00  0.00     0.028 H 
ATOM     98  H35 RIT d   1      -4.313   7.692   4.978  0.00  0.00     0.028 H 
ENDBRANCH  89  95
ENDBRANCH  59  89
ENDBRANCH  56  59
ENDBRANCH   1  55
TORSDOF 24
