REMARK  10 active torsions:
REMARK  status: ('A' for Active; 'I' for Inactive)
REMARK    1  A    between atoms: C12_20  and  C13_2 
REMARK    2  A    between atoms: C14_21  and  C15_3 
REMARK    3  A    between atoms: C16_22  and  C17_4 
REMARK    4  A    between atoms: C20_5  and  N21_25 
REMARK    5  A    between atoms: C26_8  and  C28_9 
REMARK    6  A    between atoms: C05_14  and  C26_8 
REMARK    7  A    between atoms: C26_8  and  O27_28 
REMARK       I    between atoms: C02_11  and  N03_12 
REMARK    8  A    between atoms: C05_14  and  C02_11 
REMARK    9  A    between atoms: N06_15  and  C05_14 
REMARK       I    between atoms: C07_16  and  N06_15 
REMARK   10  A    between atoms: C09_18  and  C07_16 
ROOT
ATOM      1  C10 ZH2 d   1      31.180  -9.567 -10.737  0.00  0.00    -0.066 A 
ATOM      2  C24 ZH2 d   1      32.625  -7.385 -11.738  0.00  0.00    -0.064 A 
ATOM      3  C09 ZH2 d   1      32.234  -9.024 -10.001  0.00  0.00     0.032 A 
ATOM      4  C11 ZH2 d   1      30.845  -9.029 -11.984  0.00  0.00    -0.064 A 
ATOM      5  C12 ZH2 d   1      31.588  -7.946 -12.485  0.00  0.00     0.018 A 
ATOM      6  C25 ZH2 d   1      32.965  -7.929 -10.491  0.00  0.00    -0.066 A 
ATOM      7  H1  ZH2 d   1      30.620 -10.407 -10.342  0.00  0.00     0.085 H 
ATOM      8  H3  ZH2 d   1      33.168  -6.529 -12.122  0.00  0.00     0.085 H 
ATOM      9  H10 ZH2 d   1      30.023  -9.442 -12.557  0.00  0.00     0.085 H 
ATOM     10  H16 ZH2 d   1      33.781  -7.510  -9.913  0.00  0.00     0.085 H 
ENDROOT
BRANCH   3  11
ATOM     11  C07 ZH2 d   1      32.516  -9.575  -8.647  0.00  0.00     0.252 C 
ATOM     12  N06 ZH2 d   1      31.473 -10.324  -8.022  0.00  0.00    -0.341 N 
ATOM     13  H9  ZH2 d   1      30.620 -10.500  -8.513  0.00  0.00     0.163 HD
ATOM     14  O08 ZH2 d   1      33.456  -9.164  -7.995  0.00  0.00    -0.268 OA
BRANCH  12  15
ATOM     15  C05 ZH2 d   1      31.651 -10.828  -6.677  0.00  0.00     0.118 C 
ATOM     16  H8  ZH2 d   1      32.695 -10.671  -6.367  0.00  0.00     0.091 H 
BRANCH  15  17
ATOM     17  C26 ZH2 d   1      30.758 -10.102  -5.709  0.00  0.00     0.060 C 
ATOM     18  H4  ZH2 d   1      31.123  -9.072  -5.588  0.00  0.00     0.086 H 
BRANCH  17  19
ATOM     19  C28 ZH2 d   1      29.358 -10.074  -6.225  0.00  0.00    -0.050 C 
ATOM     20  H5  ZH2 d   1      28.714  -9.541  -5.510  0.00  0.00     0.031 H 
ATOM     21  H6  ZH2 d   1      28.993 -11.104  -6.350  0.00  0.00     0.031 H 
ATOM     22  H7  ZH2 d   1      29.335  -9.556  -7.195  0.00  0.00     0.031 H 
ENDBRANCH  17  19
BRANCH  17  23
ATOM     23  O27 ZH2 d   1      30.762 -10.731  -4.492  0.00  0.00    -0.393 OA
ATOM     24  H17 ZH2 d   1      30.194 -10.261  -3.892  0.00  0.00     0.210 HD
ENDBRANCH  17  23
ENDBRANCH  15  17
BRANCH  15  25
ATOM     25  C02 ZH2 d   1      31.369 -12.301  -6.713  0.00  0.00     0.294 C 
ATOM     26  O01 ZH2 d   1      30.371 -12.736  -7.258  0.00  0.00    -0.267 OA
ATOM     27  N03 ZH2 d   1      32.298 -13.228  -6.167  0.00  0.00    -0.057 NA
ATOM     28  O04 ZH2 d   1      31.998 -14.492  -6.237  0.00  0.00    -0.058 OA
ENDBRANCH  15  25
ENDBRANCH  12  15
ENDBRANCH   3  11
BRANCH   5  29
ATOM     29  C13 ZH2 d   1      31.229  -7.322 -13.803  0.00  0.00    -0.053 C 
ATOM     30  C14 ZH2 d   1      30.941  -6.791 -14.869  0.00  0.00    -0.009 C 
BRANCH  30  31
ATOM     31  C15 ZH2 d   1      30.571  -6.101 -16.155  0.00  0.00    -0.009 C 
ATOM     32  C16 ZH2 d   1      30.250  -5.524 -17.186  0.00  0.00    -0.053 C 
BRANCH  32  33
ATOM     33  C17 ZH2 d   1      29.866  -4.816 -18.450  0.00  0.00     0.018 A 
ATOM     34  C18 ZH2 d   1      28.519  -4.791 -18.836  0.00  0.00    -0.063 A 
ATOM     35  C19 ZH2 d   1      28.151  -4.114 -19.999  0.00  0.00    -0.056 A 
ATOM     36  H11 ZH2 d   1      27.769  -5.294 -18.236  0.00  0.00     0.085 H 
ATOM     37  C20 ZH2 d   1      29.124  -3.455 -20.763  0.00  0.00     0.025 A 
ATOM     38  H12 ZH2 d   1      27.113  -4.098 -20.312  0.00  0.00     0.086 H 
ATOM     39  C22 ZH2 d   1      30.469  -3.472 -20.365  0.00  0.00    -0.056 A 
ATOM     40  C23 ZH2 d   1      30.840  -4.148 -19.203  0.00  0.00    -0.063 A 
ATOM     41  H2  ZH2 d   1      31.218  -2.961 -20.959  0.00  0.00     0.086 H 
ATOM     42  H15 ZH2 d   1      31.876  -4.156 -18.884  0.00  0.00     0.085 H 
BRANCH  37  43
ATOM     43  N21 ZH2 d   1      28.743  -2.754 -21.946  0.00  0.00    -0.399 N 
ATOM     44  H13 ZH2 d   1      29.456  -2.269 -22.509  0.00  0.00     0.156 HD
ATOM     45  H14 ZH2 d   1      27.755  -2.733 -22.237  0.00  0.00     0.156 HD
ENDBRANCH  37  43
ENDBRANCH  32  33
ENDBRANCH  30  31
ENDBRANCH   5  29
TORSDOF 10
