REMARK  3 active torsions:
REMARK  status: ('A' for Active; 'I' for Inactive)
REMARK    1  A    between atoms: C3_5  and  N1_2 
REMARK    2  A    between atoms: C2_3  and  O15_18 
REMARK    3  A    between atoms: C14_17  and  C17_20 
ROOT
ATOM      1  C1  CZ0 d   1      23.369   9.464  16.222  0.00  0.00    -0.048 A 
ATOM      2  C2  CZ0 d   1      24.145   8.366  15.893  0.00  0.00     0.099 A 
ATOM      3  C3  CZ0 d   1      24.399   7.377  16.821  0.00  0.00     0.147 A 
ATOM      4  C4  CZ0 d   1      22.838   9.569  17.497  0.00  0.00    -0.069 A 
ATOM      5  C5  CZ0 d   1      23.083   8.579  18.434  0.00  0.00    -0.022 A 
ATOM      6  C6  CZ0 d   1      23.869   7.473  18.111  0.00  0.00     0.013 A 
ATOM      7  C7  CZ0 d   1      24.099   6.488  19.080  0.00  0.00    -0.036 A 
ATOM      8  C8  CZ0 d   1      22.531   8.702  19.705  0.00  0.00    -0.059 A 
ATOM      9  C9  CZ0 d   1      22.764   7.722  20.662  0.00  0.00     0.005 A 
ATOM     10  C10 CZ0 d   1      23.544   6.612  20.360  0.00  0.00     0.091 A 
ATOM     11  O11 CZ0 d   1      23.761   5.651  21.330  0.00  0.00    -0.275 OA
ATOM     12  C12 CZ0 d   1      23.229   5.763  22.594  0.00  0.00     0.288 A 
ATOM     13  C13 CZ0 d   1      22.435   6.857  22.954  0.00  0.00    -0.004 A 
ATOM     14  C14 CZ0 d   1      22.184   7.853  22.022  0.00  0.00    -0.043 A 
ATOM     15  O16 CZ0 d   1      23.455   4.861  23.431  0.00  0.00    -0.260 OA
ATOM     16  H1  CZ0 d   1      23.178  10.237  15.486  0.00  0.00     0.087 H 
ATOM     17  H2  CZ0 d   1      22.230  10.427  17.762  0.00  0.00     0.085 H 
ATOM     18  H3  CZ0 d   1      24.709   5.626  18.838  0.00  0.00     0.089 H 
ATOM     19  H4  CZ0 d   1      21.919   9.563  19.949  0.00  0.00     0.086 H 
ATOM     20  H5  CZ0 d   1      22.017   6.926  23.957  0.00  0.00     0.093 H 
ENDROOT
BRANCH  14  21
ATOM     21  C17 CZ0 d   1      21.345   9.052  22.364  0.00  0.00    -0.050 C 
ATOM     22  H7  CZ0 d   1      21.274   9.712  21.487  0.00  0.00     0.033 H 
ATOM     23  H8  CZ0 d   1      21.810   9.599  23.198  0.00  0.00     0.033 H 
ATOM     24  H9  CZ0 d   1      20.337   8.723  22.658  0.00  0.00     0.033 H 
ENDBRANCH  14  21
BRANCH   3  25
ATOM     25  N1  CZ0 d   1      25.195   6.309  16.389  0.00  0.00    -0.112 N 
ATOM     26  O2  CZ0 d   1      25.487   5.377  17.123  0.00  0.00    -0.532 OA
ATOM     27  O3  CZ0 d   1      25.600   6.322  15.241  0.00  0.00    -0.532 OA
ENDBRANCH   3  25
BRANCH   2  28
ATOM     28  O15 CZ0 d   1      24.658   8.247  14.644  0.00  0.00    -0.358 OA
ATOM     29  H6  CZ0 d   1      24.327   7.453  14.241  0.00  0.00     0.217 HD
ENDBRANCH   2  28
TORSDOF 3
