REMARK  2 active torsions:
REMARK  status: ('A' for Active; 'I' for Inactive)
REMARK    1  A    between atoms: CAK_11  and  CAI_9 
REMARK    2  A    between atoms: CAJ_10  and  CAL_12 
ROOT
ATOM      1  CAE L14 d   1       0.377  23.189  46.016  0.00  0.00    -0.052 C 
ATOM      2  CAF L14 d   1      -0.743  23.575  46.981  0.00  0.00    -0.052 C 
ATOM      3  CAG L14 d   1       0.633  25.621  45.361  0.00  0.00    -0.052 C 
ATOM      4  CAH L14 d   1      -0.487  26.007  46.300  0.00  0.00    -0.052 C 
ATOM      5  CAK L14 d   1       1.343  24.373  45.871  0.00  0.00     0.030 C 
ATOM      6  CAL L14 d   1      -1.452  24.843  46.495  0.00  0.00     0.030 C 
ATOM      7  H1  L14 d   1      -0.052  22.941  45.034  0.00  0.00     0.034 H 
ATOM      8  H2  L14 d   1       0.919  22.317  46.410  0.00  0.00     0.034 H 
ATOM      9  H3  L14 d   1      -0.316  23.758  47.978  0.00  0.00     0.034 H 
ATOM     10  H4  L14 d   1      -1.471  22.752  47.039  0.00  0.00     0.034 H 
ATOM     11  H5  L14 d   1       1.355  26.449  45.297  0.00  0.00     0.034 H 
ATOM     12  H6  L14 d   1       0.217  25.419  44.363  0.00  0.00     0.034 H 
ATOM     13  H7  L14 d   1      -1.034  26.863  45.877  0.00  0.00     0.034 H 
ATOM     14  H8  L14 d   1      -0.061  26.290  47.274  0.00  0.00     0.034 H 
ATOM     15  H9  L14 d   1       1.792  24.571  46.855  0.00  0.00     0.056 H 
ATOM     16  H10 L14 d   1      -1.965  24.618  45.548  0.00  0.00     0.056 H 
ENDROOT
BRANCH   5  17
ATOM     17  CAI L14 d   1       2.420  24.138  44.866  0.00  0.00     0.177 C 
ATOM     18  OAA L14 d   1       2.271  23.263  43.981  0.00  0.00    -0.648 OA
ATOM     19  OAC L14 d   1       3.425  24.870  44.988  0.00  0.00    -0.648 OA
ENDBRANCH   5  17
BRANCH   6  20
ATOM     20  CAJ L14 d   1      -2.430  25.335  47.504  0.00  0.00     0.177 C 
ATOM     21  OAB L14 d   1      -3.529  25.713  47.062  0.00  0.00    -0.648 OA
ATOM     22  OAD L14 d   1      -2.102  25.366  48.712  0.00  0.00    -0.648 OA
ENDBRANCH   6  20
TORSDOF 2
