REMARK  16 active torsions:
REMARK  status: ('A' for Active; 'I' for Inactive)
REMARK    1  A    between atoms: C2_2  and  N1_1 
REMARK    2  A    between atoms: S8_8  and  C5_5 
REMARK    3  A    between atoms: N11_11  and  S8_8 
REMARK    4  A    between atoms: N11_11  and  C12_12 
REMARK    5  A    between atoms: C16_16  and  N11_11 
REMARK    6  A    between atoms: C12_12  and  C13_13 
REMARK    7  A    between atoms: C13_13  and  C14_14 
REMARK    8  A    between atoms: C13_13  and  C15_15 
REMARK    9  A    between atoms: C17_17  and  C16_16 
REMARK   10  A    between atoms: C17_17  and  O18_18 
REMARK   11  A    between atoms: C19_19  and  C17_17 
REMARK   12  A    between atoms: C19_19  and  N20_20 
REMARK   13  A    between atoms: C32_32  and  C19_19 
REMARK       I    between atoms: N20_20  and  C21_21 
REMARK   14  A    between atoms: C21_21  and  O23_23 
REMARK   15  A    between atoms: O23_23  and  C24_24 
REMARK   16  A    between atoms: C38_38  and  C32_32 
ROOT
ATOM      1  C19 017 d   1      14.043  20.018  17.124  0.00  0.00     0.044 C 
ATOM      2  H20 017 d   1      13.130  20.538  16.799  0.00  0.00     0.077 H 
ENDROOT
BRANCH   1   3
ATOM      3  C17 017 d   1      13.653  18.877  18.062  0.00  0.00     0.071 C 
ATOM      4  H18 017 d   1      13.271  19.331  18.988  0.00  0.00     0.088 H 
BRANCH   3   5
ATOM      5  C16 017 d   1      12.530  18.024  17.486  0.00  0.00     0.031 C 
ATOM      6  H16 017 d   1      12.752  17.787  16.435  0.00  0.00     0.069 H 
ATOM      7  H17 017 d   1      12.446  17.091  18.063  0.00  0.00     0.069 H 
BRANCH   5   8
ATOM      8  N11 017 d   1      11.278  18.754  17.562  0.00  0.00    -0.304 N 
BRANCH   8   9
ATOM      9  S8  017 d   1      10.573  19.060  16.115  0.00  0.00     0.260 S 
ATOM     10  O9  017 d   1      11.664  19.276  15.133  0.00  0.00    -0.200 OA
ATOM     11  O10 017 d   1       9.674  20.234  16.280  0.00  0.00    -0.200 OA
BRANCH   9  12
ATOM     12  C5  017 d   1       9.620  17.667  15.605  0.00  0.00     0.079 C 
ATOM     13  C4  017 d   1      10.176  16.619  14.883  0.00  0.00    -0.058 C 
ATOM     14  C3  017 d   1       9.376  15.509  14.577  0.00  0.00    -0.056 C 
ATOM     15  H4  017 d   1      11.210  16.659  14.562  0.00  0.00     0.086 H 
ATOM     16  C2  017 d   1       8.017  15.530  14.851  0.00  0.00     0.025 C 
ATOM     17  H3  017 d   1       9.822  14.631  14.124  0.00  0.00     0.086 H 
ATOM     18  C7  017 d   1       7.458  16.602  15.549  0.00  0.00    -0.056 C 
ATOM     19  C6  017 d   1       8.270  17.655  15.909  0.00  0.00    -0.058 C 
ATOM     20  H6  017 d   1       6.404  16.606  15.803  0.00  0.00     0.086 H 
ATOM     21  H5  017 d   1       7.841  18.495  16.444  0.00  0.00     0.086 H 
BRANCH  16  22
ATOM     22  N1  017 d   1       7.212  14.499  14.571  0.00  0.00    -0.399 N 
ATOM     23  H1  017 d   1       7.578  13.684  14.058  0.00  0.00     0.156 HD
ATOM     24  H2  017 d   1       6.226  14.520  14.869  0.00  0.00     0.156 HD
ENDBRANCH  16  22
ENDBRANCH   9  12
ENDBRANCH   8   9
BRANCH   8  25
ATOM     25  C12 017 d   1      10.405  18.410  18.655  0.00  0.00     0.008 C 
ATOM     26  H7  017 d   1      10.450  17.319  18.787  0.00  0.00     0.066 H 
ATOM     27  H8  017 d   1       9.384  18.703  18.370  0.00  0.00     0.066 H 
BRANCH  25  28
ATOM     28  C13 017 d   1      10.714  19.059  20.022  0.00  0.00    -0.045 C 
ATOM     29  H9  017 d   1      11.695  18.713  20.379  0.00  0.00     0.041 H 
BRANCH  28  30
ATOM     30  C14 017 d   1      10.719  20.582  19.929  0.00  0.00    -0.072 C 
ATOM     31  H10 017 d   1      10.942  21.009  20.918  0.00  0.00     0.028 H 
ATOM     32  H11 017 d   1       9.732  20.932  19.593  0.00  0.00     0.028 H 
ATOM     33  H12 017 d   1      11.487  20.903  19.210  0.00  0.00     0.028 H 
ENDBRANCH  28  30
BRANCH  28  34
ATOM     34  C15 017 d   1       9.606  18.624  21.013  0.00  0.00    -0.072 C 
ATOM     35  H13 017 d   1       9.592  17.527  21.089  0.00  0.00     0.028 H 
ATOM     36  H14 017 d   1       8.630  18.979  20.651  0.00  0.00     0.028 H 
ATOM     37  H15 017 d   1       9.809  19.058  22.003  0.00  0.00     0.028 H 
ENDBRANCH  28  34
ENDBRANCH  25  28
ENDBRANCH   8  25
ENDBRANCH   5   8
ENDBRANCH   3   5
BRANCH   3  38
ATOM     38  O18 017 d   1      14.787  18.103  18.409  0.00  0.00    -0.392 OA
ATOM     39  H19 017 d   1      15.117  17.662  17.635  0.00  0.00     0.210 HD
ENDBRANCH   3  38
ENDBRANCH   1   3
BRANCH   1  40
ATOM     40  N20 017 d   1      14.893  20.947  17.866  0.00  0.00    -0.329 N 
ATOM     41  C21 017 d   1      14.640  22.202  18.238  0.00  0.00     0.361 C 
ATOM     42  O22 017 d   1      13.566  22.758  17.991  0.00  0.00    -0.238 OA
ATOM     43  H21 017 d   1      15.789  20.592  18.132  0.00  0.00     0.165 HD
BRANCH  41  44
ATOM     44  O23 017 d   1      15.663  22.798  18.891  0.00  0.00    -0.296 OA
BRANCH  44  45
ATOM     45  C24 017 d   1      15.501  24.212  19.104  0.00  0.00     0.078 C 
ATOM     46  C25 017 d   1      16.076  24.542  20.488  0.00  0.00     0.048 C 
ATOM     47  O26 017 d   1      17.487  24.430  20.278  0.00  0.00    -0.358 OA
ATOM     48  H23 017 d   1      15.729  23.822  21.244  0.00  0.00     0.078 H 
ATOM     49  H24 017 d   1      15.801  25.561  20.799  0.00  0.00     0.078 H 
ATOM     50  C27 017 d   1      17.770  24.968  18.995  0.00  0.00     0.137 C 
ATOM     51  O28 017 d   1      18.722  24.140  18.306  0.00  0.00    -0.361 OA
ATOM     52  C31 017 d   1      16.475  24.940  18.195  0.00  0.00     0.023 C 
ATOM     53  H25 017 d   1      18.153  25.995  19.087  0.00  0.00     0.129 H 
ATOM     54  C29 017 d   1      18.043  23.390  17.346  0.00  0.00     0.023 C 
ATOM     55  C30 017 d   1      16.873  24.286  16.894  0.00  0.00    -0.035 C 
ATOM     56  H26 017 d   1      17.666  22.453  17.783  0.00  0.00     0.074 H 
ATOM     57  H27 017 d   1      18.704  23.159  16.497  0.00  0.00     0.074 H 
ATOM     58  H28 017 d   1      16.049  23.690  16.475  0.00  0.00     0.037 H 
ATOM     59  H29 017 d   1      17.200  25.031  16.153  0.00  0.00     0.037 H 
ATOM     60  H30 017 d   1      16.091  25.950  17.989  0.00  0.00     0.051 H 
ATOM     61  H22 017 d   1      14.457  24.534  18.974  0.00  0.00     0.088 H 
ENDBRANCH  44  45
ENDBRANCH  41  44
ENDBRANCH   1  40
BRANCH   1  62
ATOM     62  C32 017 d   1      14.785  19.527  15.892  0.00  0.00    -0.020 C 
ATOM     63  H31 017 d   1      14.141  18.825  15.342  0.00  0.00     0.043 H 
ATOM     64  H32 017 d   1      15.704  19.012  16.209  0.00  0.00     0.043 H 
BRANCH  62  65
ATOM     65  C38 017 d   1      15.158  20.688  14.969  0.00  0.00    -0.056 A 
ATOM     66  C33 017 d   1      16.481  21.074  14.838  0.00  0.00    -0.077 A 
ATOM     67  C34 017 d   1      16.823  22.165  14.044  0.00  0.00    -0.082 A 
ATOM     68  H33 017 d   1      17.256  20.523  15.357  0.00  0.00     0.084 H 
ATOM     69  C35 017 d   1      15.847  22.905  13.389  0.00  0.00    -0.083 A 
ATOM     70  H34 017 d   1      17.866  22.441  13.935  0.00  0.00     0.083 H 
ATOM     71  C36 017 d   1      14.529  22.474  13.498  0.00  0.00    -0.082 A 
ATOM     72  H35 017 d   1      16.103  23.787  12.813  0.00  0.00     0.083 H 
ATOM     73  C37 017 d   1      14.177  21.388  14.285  0.00  0.00    -0.077 A 
ATOM     74  H36 017 d   1      13.755  23.002  12.952  0.00  0.00     0.083 H 
ATOM     75  H37 017 d   1      13.139  21.088  14.365  0.00  0.00     0.084 H 
ENDBRANCH  62  65
ENDBRANCH   1  62
TORSDOF 16
