REMARK  3 active torsions:
REMARK  status: ('A' for Active; 'I' for Inactive)
REMARK    1  A    between atoms: C15_15  and  C11_11 
REMARK    2  A    between atoms: C12_12  and  C18_18 
REMARK    3  A    between atoms: C13_13  and  N20_20 
ROOT
ATOM      1  C10 3YY d   1      14.768   8.789 -35.881  0.00  0.00     0.015 A 
ATOM      2  C12 3YY d   1      14.554   7.725 -35.033  0.00  0.00     0.023 A 
ATOM      3  C15 3YY d   1      15.854   7.295 -34.653  0.00  0.00     0.098 A 
ATOM      4  N19 3YY d   1      16.804   8.043 -35.229  0.00  0.00    -0.167 NA
ATOM      5  N20 3YY d   1      16.122   8.930 -35.962  0.00  0.00    -0.244 N 
ATOM      6  H10 3YY d   1      14.013   9.392 -36.383  0.00  0.00     0.115 H 
ENDROOT
BRANCH   3   7
ATOM      7  C11 3YY d   1      16.268   6.247 -33.764  0.00  0.00    -0.005 A 
ATOM      8  C4  3YY d   1      15.656   5.016 -33.760  0.00  0.00    -0.068 A 
ATOM      9  C8  3YY d   1      16.093   4.038 -32.893  0.00  0.00    -0.045 A 
ATOM     10  H4  3YY d   1      14.833   4.815 -34.436  0.00  0.00     0.085 H 
ATOM     11  C14 3YY d   1      17.138   4.278 -32.030  0.00  0.00     0.116 A 
ATOM     12  H8  3YY d   1      15.608   3.068 -32.891  0.00  0.00     0.088 H 
ATOM     13  C9  3YY d   1      17.754   5.508 -32.027  0.00  0.00    -0.045 A 
ATOM     14  F25 3YY d   1      17.546   3.301 -31.179  0.00  0.00    -0.206 F 
ATOM     15  C5  3YY d   1      17.320   6.492 -32.898  0.00  0.00    -0.068 A 
ATOM     16  H9  3YY d   1      18.574   5.705 -31.346  0.00  0.00     0.088 H 
ATOM     17  H5  3YY d   1      17.807   7.461 -32.902  0.00  0.00     0.085 H 
ENDBRANCH   3   7
BRANCH   2  18
ATOM     18  C18 3YY d   1      13.247   7.186 -34.625  0.00  0.00     0.120 A 
ATOM     19  C16 3YY d   1      12.663   6.258 -35.660  0.00  0.00     0.253 A 
ATOM     20  N21 3YY d   1      11.510   6.806 -36.132  0.00  0.00    -0.277 N 
ATOM     21  O23 3YY d   1      13.124   5.174 -35.974  0.00  0.00    -0.270 OA
ATOM     22  C17 3YY d   1      11.216   7.982 -35.504  0.00  0.00     0.323 A 
ATOM     23  H12 3YY d   1      10.947   6.397 -36.851  0.00  0.00     0.173 HD
ATOM     24  N22 3YY d   1      12.259   8.246 -34.656  0.00  0.00    -0.325 N 
ATOM     25  O24 3YY d   1      10.216   8.657 -35.692  0.00  0.00    -0.247 OA
ATOM     26  H13 3YY d   1      12.331   9.084 -34.114  0.00  0.00     0.165 HD
ATOM     27  H11 3YY d   1      13.325   6.707 -33.638  0.00  0.00     0.095 H 
ENDBRANCH   2  18
BRANCH   5  28
ATOM     28  C13 3YY d   1      16.793   9.910 -36.689  0.00  0.00     0.058 A 
ATOM     29  C6  3YY d   1      16.117  10.590 -37.670  0.00  0.00    -0.055 A 
ATOM     30  C2  3YY d   1      16.790  11.560 -38.378  0.00  0.00    -0.081 A 
ATOM     31  H6  3YY d   1      15.077  10.369 -37.883  0.00  0.00     0.087 H 
ATOM     32  C1  3YY d   1      18.109  11.827 -38.090  0.00  0.00    -0.083 A 
ATOM     33  H2  3YY d   1      16.282  12.112 -39.160  0.00  0.00     0.083 H 
ATOM     34  C3  3YY d   1      18.768  11.136 -37.098  0.00  0.00    -0.081 A 
ATOM     35  H1  3YY d   1      18.636  12.591 -38.651  0.00  0.00     0.083 H 
ATOM     36  C7  3YY d   1      18.105  10.166 -36.381  0.00  0.00    -0.055 A 
ATOM     37  H3  3YY d   1      19.807  11.356 -36.882  0.00  0.00     0.083 H 
ATOM     38  H7  3YY d   1      18.607   9.618 -35.592  0.00  0.00     0.087 H 
ENDBRANCH   5  28
TORSDOF 3
