REMARK  4 active torsions:
REMARK  status: ('A' for Active; 'I' for Inactive)
REMARK    1  A    between atoms: N_1  and  CA_2 
REMARK    2  A    between atoms: CA_2  and  C_3 
REMARK    3  A    between atoms: CA_2  and  CB_5 
REMARK    4  A    between atoms: CB_5  and  OG_6 
ROOT
ATOM      1  CA  SER d   1      -2.847 -16.376 -10.394  0.00  0.00     0.202 C 
ATOM      2  H4  SER d   1      -1.990 -16.990 -10.080  0.00  0.00     0.104 H 
ENDROOT
BRANCH   1   3
ATOM      3  N   SER d   1      -2.619 -15.930 -11.802  0.00  0.00    -0.063 N 
ATOM      4  H1  SER d   1      -1.781 -15.371 -11.846  0.00  0.00     0.275 HD
ATOM      5  H2  SER d   1      -3.405 -15.381 -12.112  0.00  0.00     0.275 HD
ATOM      6  H3  SER d   1      -2.517 -16.737 -12.398  0.00  0.00     0.275 HD
ENDBRANCH   1   3
BRANCH   1   7
ATOM      7  C   SER d   1      -4.108 -17.223 -10.298  0.00  0.00     0.206 C 
ATOM      8  O   SER d   1      -4.830 -17.396 -11.278  0.00  0.00    -0.646 OA
ATOM      9  OXT SER d   1      -4.427 -17.749  -9.239  0.00  0.00    -0.646 OA
ENDBRANCH   1   7
BRANCH   1  10
ATOM     10  CB  SER d   1      -2.948 -15.168  -9.459  0.00  0.00     0.053 C 
ATOM     11  H5  SER d   1      -2.051 -14.543  -9.581  0.00  0.00     0.077 H 
ATOM     12  H6  SER d   1      -3.009 -15.523  -8.419  0.00  0.00     0.077 H 
BRANCH  10  13
ATOM     13  OG  SER d   1      -4.100 -14.388  -9.752  0.00  0.00    -0.398 OA
ATOM     14  H7  SER d   1      -4.138 -13.647  -9.159  0.00  0.00     0.209 HD
ENDBRANCH  10  13
ENDBRANCH   1  10
TORSDOF 4
