REMARK  5 active torsions:
REMARK  status: ('A' for Active; 'I' for Inactive)
REMARK    1  A    between atoms: C8_9  and  S_12 
REMARK    2  A    between atoms: S_12  and  N1'_15 
REMARK    3  A    between atoms: N1'_15  and  C1'_16 
REMARK    4  A    between atoms: C1'_16  and  C2'_17 
REMARK    5  A    between atoms: C2'_17  and  N2'_18 
ROOT
ATOM      1  C1  CKI d   1      29.234  10.747  69.976  0.00  0.00     0.014 A 
ATOM      2  N2  CKI d   1      28.839  11.414  71.085  0.00  0.00    -0.272 NA
ATOM      3  C3  CKI d   1      27.626  11.150  71.658  0.00  0.00     0.003 A 
ATOM      4  C4  CKI d   1      26.785  10.194  71.122  0.00  0.00    -0.054 A 
ATOM      5  C5  CKI d   1      26.339   8.394  69.323  0.00  0.00     0.045 A 
ATOM      6 CL5  CKI d   1      24.840   7.980  69.930  0.00  0.00    -0.083 Cl
ATOM      7  C6  CKI d   1      26.783   7.699  68.160  0.00  0.00    -0.060 A 
ATOM      8  C7  CKI d   1      28.005   8.003  67.607  0.00  0.00    -0.058 A 
ATOM      9  C8  CKI d   1      28.842   9.013  68.199  0.00  0.00     0.092 A 
ATOM     10  C9  CKI d   1      28.405   9.736  69.386  0.00  0.00     0.017 A 
ATOM     11  C10 CKI d   1      27.177   9.441  69.937  0.00  0.00     0.000 A 
ATOM     12  H1  CKI d   1      30.192  10.980  69.526  0.00  0.00     0.116 H 
ATOM     13  H2  CKI d   1      27.321  11.697  72.543  0.00  0.00     0.114 H 
ATOM     14  H3  CKI d   1      25.825  10.002  71.587  0.00  0.00     0.087 H 
ATOM     15  H4  CKI d   1      26.159   6.933  67.713  0.00  0.00     0.086 H 
ATOM     16  H5  CKI d   1      28.340   7.478  66.719  0.00  0.00     0.086 H 
ENDROOT
BRANCH   9  17
ATOM     17  S   CKI d   1      30.380   9.320  67.413  0.00  0.00     0.259 S 
ATOM     18  O1S CKI d   1      31.499   8.968  68.316  0.00  0.00    -0.201 OA
ATOM     19  O2S CKI d   1      30.476  10.798  67.070  0.00  0.00    -0.201 OA
BRANCH  17  20
ATOM     20  N1' CKI d   1      30.437   8.443  66.027  0.00  0.00    -0.314 N 
ATOM     21  H6  CKI d   1      30.093   8.759  65.143  0.00  0.00     0.172 HD
BRANCH  20  22
ATOM     22  C1' CKI d   1      31.063   7.127  66.259  0.00  0.00     0.025 C 
ATOM     23  H7  CKI d   1      32.151   7.265  66.174  0.00  0.00     0.067 H 
ATOM     24  H8  CKI d   1      30.715   6.457  65.460  0.00  0.00     0.067 H 
BRANCH  22  25
ATOM     25  C2' CKI d   1      30.799   6.413  67.598  0.00  0.00     0.095 C 
ATOM     26  H9  CKI d   1      29.741   6.112  67.599  0.00  0.00     0.077 H 
ATOM     27  H10 CKI d   1      30.971   7.151  68.396  0.00  0.00     0.077 H 
BRANCH  25  28
ATOM     28  N2' CKI d   1      31.586   5.220  67.939  0.00  0.00    -0.078 N 
ATOM     29  H11 CKI d   1      31.296   4.872  68.840  0.00  0.00     0.274 HD
ATOM     30  H12 CKI d   1      32.564   5.461  67.971  0.00  0.00     0.274 HD
ATOM     31  H13 CKI d   1      31.437   4.508  67.241  0.00  0.00     0.274 HD
ENDBRANCH  25  28
ENDBRANCH  22  25
ENDBRANCH  20  22
ENDBRANCH  17  20
ENDBRANCH   9  17
TORSDOF 5
