REMARK  15 active torsions:
REMARK  status: ('A' for Active; 'I' for Inactive)
REMARK    1  A    between atoms: C2_4  and  C1_1 
REMARK    2  A    between atoms: N1_2  and  C5_11 
REMARK       I    between atoms: C6_13  and  N1_2 
REMARK    3  A    between atoms: C2_4  and  C3_7 
REMARK    4  A    between atoms: C4_9  and  C2_4 
REMARK    5  A    between atoms: C8_15  and  N2_5 
REMARK    6  A    between atoms: C7_14  and  O2_6 
REMARK    7  A    between atoms: C13_20  and  O3_8 
REMARK    8  A    between atoms: O3_8  and  C14_21 
REMARK    9  A    between atoms: C5_11  and  C4_9 
REMARK   10  A    between atoms: C5_11  and  C23_30 
REMARK   11  A    between atoms: C7_14  and  C6_13 
REMARK   12  A    between atoms: C8_15  and  C7_14 
REMARK   13  A    between atoms: C9_16  and  C8_15 
REMARK   14  A    between atoms: C10_17  and  C9_16 
REMARK   15  A    between atoms: C14_21  and  C15_22 
ROOT
ATOM      1  C8  D50 d   1      12.436  11.906  12.317  0.00  0.00     0.136 C 
ATOM      2  H17 D50 d   1      12.134  10.866  12.511  0.00  0.00     0.089 H 
ENDROOT
BRANCH   1   3
ATOM      3  N2  D50 d   1      11.246  12.743  11.984  0.00  0.00    -0.072 N 
ATOM      4  H6  D50 d   1      10.577  12.690  12.736  0.00  0.00     0.274 HD
ATOM      5  H7  D50 d   1      10.824  12.404  11.134  0.00  0.00     0.274 HD
ATOM      6  H8  D50 d   1      11.534  13.701  11.857  0.00  0.00     0.274 HD
ENDBRANCH   1   3
BRANCH   1   7
ATOM      7  C7  D50 d   1      13.449  11.982  11.186  0.00  0.00     0.139 C 
ATOM      8  H16 D50 d   1      14.126  12.826  11.381  0.00  0.00     0.101 H 
BRANCH   7   9
ATOM      9  O2  D50 d   1      12.817  12.197   9.893  0.00  0.00    -0.384 OA
ATOM     10  H9  D50 d   1      13.486  12.260   9.221  0.00  0.00     0.210 HD
ENDBRANCH   7   9
BRANCH   7  11
ATOM     11  C6  D50 d   1      14.266  10.685  11.169  0.00  0.00     0.249 C 
ATOM     12  N1  D50 d   1      15.425  10.778  10.582  0.00  0.00    -0.344 N 
ATOM     13  H4  D50 d   1      15.674  11.605  10.079  0.00  0.00     0.163 HD
ATOM     14  O1  D50 d   1      13.939   9.619  11.724  0.00  0.00    -0.271 OA
BRANCH  12  15
ATOM     15  C5  D50 d   1      16.349   9.664  10.669  0.00  0.00     0.096 C 
ATOM     16  H15 D50 d   1      15.754   8.744  10.765  0.00  0.00     0.089 H 
BRANCH  15  17
ATOM     17  C4  D50 d   1      17.169   9.540   9.417  0.00  0.00    -0.034 C 
ATOM     18  H13 D50 d   1      17.578  10.528   9.161  0.00  0.00     0.037 H 
ATOM     19  H14 D50 d   1      17.995   8.838   9.602  0.00  0.00     0.037 H 
BRANCH  17  20
ATOM     20  C2  D50 d   1      16.342   9.029   8.241  0.00  0.00    -0.059 C 
ATOM     21  H5  D50 d   1      15.482   9.698   8.089  0.00  0.00     0.038 H 
BRANCH  20  22
ATOM     22  C1  D50 d   1      17.242   9.078   7.036  0.00  0.00    -0.073 C 
ATOM     23  H1  D50 d   1      16.693   8.718   6.153  0.00  0.00     0.028 H 
ATOM     24  H2  D50 d   1      18.120   8.438   7.208  0.00  0.00     0.028 H 
ATOM     25  H3  D50 d   1      17.571  10.114   6.866  0.00  0.00     0.028 H 
ENDBRANCH  20  22
BRANCH  20  26
ATOM     26  C3  D50 d   1      15.812   7.600   8.450  0.00  0.00    -0.073 C 
ATOM     27  H10 D50 d   1      15.156   7.578   9.333  0.00  0.00     0.028 H 
ATOM     28  H11 D50 d   1      16.658   6.914   8.604  0.00  0.00     0.028 H 
ATOM     29  H12 D50 d   1      15.243   7.287   7.562  0.00  0.00     0.028 H 
ENDBRANCH  20  26
ENDBRANCH  17  20
ENDBRANCH  15  17
BRANCH  15  30
ATOM     30  C23 D50 d   1      17.205   9.775  11.894  0.00  0.00     0.196 C 
ATOM     31  O4  D50 d   1      17.102  10.743  12.649  0.00  0.00    -0.646 OA
ATOM     32  O5  D50 d   1      18.075   8.816  12.141  0.00  0.00    -0.646 OA
ENDBRANCH  15  30
ENDBRANCH  12  15
ENDBRANCH   7  11
ENDBRANCH   1   7
BRANCH   1  33
ATOM     33  C9  D50 d   1      13.131  12.511  13.514  0.00  0.00    -0.012 C 
ATOM     34  H18 D50 d   1      12.831  13.567  13.580  0.00  0.00     0.043 H 
ATOM     35  H19 D50 d   1      14.216  12.448  13.341  0.00  0.00     0.043 H 
BRANCH  33  36
ATOM     36  C10 D50 d   1      12.838  11.865  14.841  0.00  0.00    -0.056 A 
ATOM     37  C11 D50 d   1      13.269  10.560  15.131  0.00  0.00    -0.074 A 
ATOM     38  C12 D50 d   1      13.023  10.008  16.384  0.00  0.00    -0.050 A 
ATOM     39  H20 D50 d   1      13.793   9.983  14.378  0.00  0.00     0.084 H 
ATOM     40  C13 D50 d   1      12.369  10.742  17.348  0.00  0.00     0.069 A 
ATOM     41  H21 D50 d   1      13.347   8.997  16.602  0.00  0.00     0.087 H 
ATOM     42  C21 D50 d   1      11.962  12.037  17.060  0.00  0.00    -0.050 A 
ATOM     43  C22 D50 d   1      12.193  12.621  15.807  0.00  0.00    -0.074 A 
ATOM     44  H29 D50 d   1      11.452  12.612  17.824  0.00  0.00     0.087 H 
ATOM     45  H30 D50 d   1      11.876  13.636  15.599  0.00  0.00     0.084 H 
BRANCH  40  46
ATOM     46  O3  D50 d   1      12.154  10.180  18.604  0.00  0.00    -0.347 OA
BRANCH  46  47
ATOM     47  C14 D50 d   1      11.028  10.406  19.446  0.00  0.00     0.050 C 
ATOM     48  H22 D50 d   1      10.096  10.248  18.884  0.00  0.00     0.082 H 
ATOM     49  H23 D50 d   1      11.049  11.433  19.840  0.00  0.00     0.082 H 
BRANCH  47  50
ATOM     50  C15 D50 d   1      11.128   9.411  20.578  0.00  0.00    -0.034 A 
ATOM     51  C16 D50 d   1      10.814   9.790  21.887  0.00  0.00    -0.075 A 
ATOM     52  C17 D50 d   1      10.911   8.866  22.927  0.00  0.00    -0.082 A 
ATOM     53  H24 D50 d   1      10.494  10.805  22.094  0.00  0.00     0.084 H 
ATOM     54  C18 D50 d   1      11.327   7.562  22.660  0.00  0.00    -0.083 A 
ATOM     55  H25 D50 d   1      10.664   9.161  23.940  0.00  0.00     0.083 H 
ATOM     56  C19 D50 d   1      11.654   7.162  21.358  0.00  0.00    -0.082 A 
ATOM     57  H26 D50 d   1      11.398   6.847  23.472  0.00  0.00     0.083 H 
ATOM     58  C20 D50 d   1      11.546   8.102  20.321  0.00  0.00    -0.075 A 
ATOM     59  H27 D50 d   1      11.983   6.149  21.156  0.00  0.00     0.083 H 
ATOM     60  H28 D50 d   1      11.790   7.809  19.306  0.00  0.00     0.084 H 
ENDBRANCH  47  50
ENDBRANCH  46  47
ENDBRANCH  40  46
ENDBRANCH  33  36
ENDBRANCH   1  33
TORSDOF 15
