REMARK  7 active torsions:
REMARK  status: ('A' for Active; 'I' for Inactive)
REMARK    1  A    between atoms: C8_11  and  C14_17 
REMARK    2  A    between atoms: C12_15  and  C15_18 
REMARK    3  A    between atoms: C15_18  and  C16_19 
REMARK    4  A    between atoms: C16_19  and  C17_20 
REMARK       I    between atoms: C17_20  and  N18_21 
REMARK    5  A    between atoms: N18_21  and  C30_33 
REMARK    6  A    between atoms: N21_24  and  C24_27 
REMARK    7  A    between atoms: C30_33  and  C31_34 
ROOT
ATOM      1  C   Q6W d   1      -5.600  -7.078 -15.223  0.00  0.00     0.044 A 
ATOM      2  N   Q6W d   1      -6.386  -8.613 -16.890  0.00  0.00    -0.259 NA
ATOM      3  O   Q6W d   1      -4.823  -6.197 -13.241  0.00  0.00    -0.287 OA
ATOM      4  C1  Q6W d   1      -6.617  -7.775 -15.856  0.00  0.00     0.070 A 
ATOM      5  C2  Q6W d   1      -8.034  -7.708 -15.554  0.00  0.00    -0.053 C 
ATOM      6  C3  Q6W d   1      -8.711  -6.754 -14.889  0.00  0.00    -0.070 C 
ATOM      7  C4  Q6W d   1      -8.318  -5.575 -14.167  0.00  0.00    -0.022 A 
ATOM      8  C5  Q6W d   1      -6.925  -5.344 -13.759  0.00  0.00     0.026 A 
ATOM      9  C6  Q6W d   1      -5.746  -6.218 -14.047  0.00  0.00     0.195 C 
ATOM     10  C7  Q6W d   1      -4.301  -7.224 -15.680  0.00  0.00    -0.055 A 
ATOM     11  C8  Q6W d   1      -4.051  -8.054 -16.755  0.00  0.00    -0.004 A 
ATOM     12  C9  Q6W d   1      -5.119  -8.736 -17.305  0.00  0.00     0.014 A 
ATOM     13  C10 Q6W d   1      -9.233  -4.670 -13.778  0.00  0.00    -0.072 A 
ATOM     14  C11 Q6W d   1      -8.894  -3.500 -12.999  0.00  0.00    -0.076 A 
ATOM     15  C12 Q6W d   1      -7.639  -3.265 -12.584  0.00  0.00    -0.057 A 
ATOM     16  C13 Q6W d   1      -6.557  -4.194 -12.896  0.00  0.00    -0.062 A 
ATOM     17  H1  Q6W d   1      -8.632  -8.544 -15.915  0.00  0.00     0.087 H 
ATOM     18  H2  Q6W d   1      -9.789  -6.909 -14.900  0.00  0.00     0.084 H 
ATOM     19  H3  Q6W d   1      -3.488  -6.692 -15.199  0.00  0.00     0.086 H 
ATOM     20  H4  Q6W d   1      -4.918  -9.415 -18.126  0.00  0.00     0.116 H 
ATOM     21  H5  Q6W d   1     -10.268  -4.824 -14.060  0.00  0.00     0.084 H 
ATOM     22  H6  Q6W d   1      -9.675  -2.793 -12.743  0.00  0.00     0.084 H 
ATOM     23  H7  Q6W d   1      -5.550  -4.053 -12.521  0.00  0.00     0.085 H 
ENDROOT
BRANCH  11  24
ATOM     24  C14 Q6W d   1      -2.709  -8.184 -17.286  0.00  0.00     0.012 A 
ATOM     25  C20 Q6W d   1      -2.380  -8.823 -18.463  0.00  0.00     0.011 A 
ATOM     26  N21 Q6W d   1      -1.030  -8.638 -18.610  0.00  0.00    -0.276 N 
ATOM     27  H13 Q6W d   1      -3.050  -9.360 -19.133  0.00  0.00     0.115 H 
ATOM     28  N22 Q6W d   1      -0.466  -7.900 -17.645  0.00  0.00    -0.184 NA
ATOM     29  C23 Q6W d   1      -1.495  -7.623 -16.823  0.00  0.00     0.034 A 
ATOM     30  H14 Q6W d   1      -1.404  -7.037 -15.910  0.00  0.00     0.118 H 
BRANCH  26  31
ATOM     31  C24 Q6W d   1      -0.202  -9.123 -19.707  0.00  0.00     0.037 C 
ATOM     32  C25 Q6W d   1       0.919 -10.011 -19.188  0.00  0.00    -0.022 C 
ATOM     33  C26 Q6W d   1       1.923 -10.350 -20.284  0.00  0.00     0.084 C 
ATOM     34  H16 Q6W d   1       0.484 -10.945 -18.802  0.00  0.00     0.038 H 
ATOM     35  H17 Q6W d   1       1.442  -9.486 -18.375  0.00  0.00     0.038 H 
ATOM     36  N27 Q6W d   1       2.425  -9.073 -20.847  0.00  0.00    -0.075 N 
ATOM     37  H18 Q6W d   1       1.432 -10.940 -21.072  0.00  0.00     0.075 H 
ATOM     38  H19 Q6W d   1       2.759 -10.927 -19.861  0.00  0.00     0.075 H 
ATOM     39  C28 Q6W d   1       1.348  -8.281 -21.500  0.00  0.00     0.084 C 
ATOM     40  H20 Q6W d   1       3.137  -9.278 -21.531  0.00  0.00     0.277 HD
ATOM     41  H21 Q6W d   1       2.824  -8.524 -20.101  0.00  0.00     0.277 HD
ATOM     42  C29 Q6W d   1       0.367  -7.906 -20.413  0.00  0.00    -0.022 C 
ATOM     43  H22 Q6W d   1       0.847  -8.885 -22.271  0.00  0.00     0.075 H 
ATOM     44  H23 Q6W d   1       1.769  -7.375 -21.960  0.00  0.00     0.075 H 
ATOM     45  H24 Q6W d   1       0.882  -7.276 -19.673  0.00  0.00     0.038 H 
ATOM     46  H25 Q6W d   1      -0.461  -7.339 -20.864  0.00  0.00     0.038 H 
ATOM     47  H15 Q6W d   1      -0.821  -9.702 -20.408  0.00  0.00     0.076 H 
ENDBRANCH  26  31
ENDBRANCH  11  24
BRANCH  15  48
ATOM     48  C15 Q6W d   1      -7.168  -2.106 -11.792  0.00  0.00    -0.033 C 
ATOM     49  H8  Q6W d   1      -6.429  -2.450 -11.053  0.00  0.00     0.040 H 
ATOM     50  H9  Q6W d   1      -8.024  -1.653 -11.271  0.00  0.00     0.040 H 
BRANCH  48  51
ATOM     51  C16 Q6W d   1      -6.525  -1.066 -12.694  0.00  0.00     0.013 C 
ATOM     52  H10 Q6W d   1      -6.553  -0.097 -12.175  0.00  0.00     0.047 H 
ATOM     53  H11 Q6W d   1      -7.114  -1.003 -13.621  0.00  0.00     0.047 H 
BRANCH  51  54
ATOM     54  C17 Q6W d   1      -5.089  -1.360 -13.067  0.00  0.00     0.218 C 
ATOM     55  N18 Q6W d   1      -4.647  -0.473 -14.031  0.00  0.00    -0.355 N 
ATOM     56  H12 Q6W d   1      -5.309   0.143 -14.459  0.00  0.00     0.162 HD
ATOM     57  O19 Q6W d   1      -4.402  -2.261 -12.590  0.00  0.00    -0.274 OA
BRANCH  55  58
ATOM     58  C30 Q6W d   1      -3.268  -0.404 -14.441  0.00  0.00     0.035 C 
ATOM     59  H26 Q6W d   1      -3.230  -0.099 -15.497  0.00  0.00     0.073 H 
ATOM     60  H27 Q6W d   1      -2.818  -1.402 -14.331  0.00  0.00     0.073 H 
BRANCH  58  61
ATOM     61  C31 Q6W d   1      -2.467   0.575 -13.630  0.00  0.00     0.051 A 
ATOM     62  N32 Q6W d   1      -1.636   1.380 -14.310  0.00  0.00    -0.264 NA
ATOM     63  C33 Q6W d   1      -0.921   2.255 -13.588  0.00  0.00     0.003 A 
ATOM     64  C34 Q6W d   1      -0.986   2.373 -12.215  0.00  0.00    -0.066 A 
ATOM     65  H28 Q6W d   1      -0.245   2.915 -14.120  0.00  0.00     0.114 H 
ATOM     66  C35 Q6W d   1      -1.847   1.533 -11.539  0.00  0.00    -0.080 A 
ATOM     67  H29 Q6W d   1      -0.382   3.100 -11.685  0.00  0.00     0.085 H 
ATOM     68  C36 Q6W d   1      -2.596   0.623 -12.257  0.00  0.00    -0.058 A 
ATOM     69  H30 Q6W d   1      -1.934   1.587 -10.460  0.00  0.00     0.083 H 
ATOM     70  H31 Q6W d   1      -3.279  -0.047 -11.748  0.00  0.00     0.086 H 
ENDBRANCH  58  61
ENDBRANCH  55  58
ENDBRANCH  51  54
ENDBRANCH  48  51
ENDBRANCH  15  48
TORSDOF 7
