REMARK  15 active torsions:
REMARK  status: ('A' for Active; 'I' for Inactive)
REMARK    1  A    between atoms: C6_6  and  N6_7 
REMARK    2  A    between atoms: C1'_13  and  N9_10 
REMARK    3  A    between atoms: O3A_26  and  PA_11 
REMARK    4  A    between atoms: PA_11  and  O5'_34 
REMARK    5  A    between atoms: PB_12  and  O3A_26 
REMARK    6  A    between atoms: O5D_36  and  PB_12 
REMARK    7  A    between atoms: C1D_16  and  O1D_17 
REMARK    8  A    between atoms: C2'_18  and  O2'_19 
REMARK    9  A    between atoms: C2D_22  and  O2D_23 
REMARK   10  A    between atoms: C3'_24  and  O3'_25 
REMARK   11  A    between atoms: C3D_27  and  O3D_28 
REMARK   12  A    between atoms: C5'_33  and  C4'_29 
REMARK   13  A    between atoms: C5D_35  and  C4D_31 
REMARK   14  A    between atoms: O5'_34  and  C5'_33 
REMARK   15  A    between atoms: C5D_35  and  O5D_36 
ROOT
ATOM      1  C5' AR6 d   1     -25.882  14.394 -22.416  0.00  0.00     0.058 C 
ATOM      2  H18 AR6 d   1     -26.092  15.048 -21.557  0.00  0.00     0.079 H 
ATOM      3  H19 AR6 d   1     -26.718  14.446 -23.129  0.00  0.00     0.079 H 
ENDROOT
BRANCH   1   4
ATOM      4  C4' AR6 d   1     -25.733  12.942 -21.919  0.00  0.00     0.089 C 
ATOM      5  C3' AR6 d   1     -24.418  12.760 -21.138  0.00  0.00     0.091 C 
ATOM      6  C2' AR6 d   1     -23.644  11.720 -21.937  0.00  0.00     0.105 C 
ATOM      7  H12 AR6 d   1     -23.861  13.704 -21.043  0.00  0.00     0.091 H 
ATOM      8  C1' AR6 d   1     -24.770  10.958 -22.588  0.00  0.00     0.139 C 
ATOM      9  H8  AR6 d   1     -22.952  12.172 -22.663  0.00  0.00     0.093 H 
ATOM     10  O4' AR6 d   1     -25.630  12.037 -23.031  0.00  0.00    -0.353 OA
ATOM     11  H5  AR6 d   1     -25.230  10.234 -21.900  0.00  0.00     0.122 H 
ATOM     12  H16 AR6 d   1     -26.595  12.682 -21.287  0.00  0.00     0.090 H 
BRANCH   5  13
ATOM     13  O3' AR6 d   1     -24.726  12.214 -19.858  0.00  0.00    -0.390 OA
ATOM     14  H13 AR6 d   1     -25.209  12.855 -19.350  0.00  0.00     0.210 HD
ENDBRANCH   5  13
BRANCH   6  15
ATOM     15  O2' AR6 d   1     -22.966  10.841 -21.060  0.00  0.00    -0.388 OA
ATOM     16  H9  AR6 d   1     -23.572  10.524 -20.400  0.00  0.00     0.210 HD
ENDBRANCH   6  15
BRANCH   8  17
ATOM     17  N9  AR6 d   1     -24.468  10.382 -23.879  0.00  0.00    -0.294 N 
ATOM     18  C4  AR6 d   1     -25.156   9.403 -24.457  0.00  0.00     0.167 A 
ATOM     19  N3  AR6 d   1     -26.209   8.654 -24.075  0.00  0.00    -0.222 NA
ATOM     20  C5  AR6 d   1     -24.576   9.187 -25.693  0.00  0.00     0.149 A 
ATOM     21  C2  AR6 d   1     -26.672   7.710 -24.900  0.00  0.00     0.091 A 
ATOM     22  N1  AR6 d   1     -26.141   7.481 -26.101  0.00  0.00    -0.222 NA
ATOM     23  H1  AR6 d   1     -27.513   7.106 -24.579  0.00  0.00     0.146 H 
ATOM     24  C6  AR6 d   1     -25.091   8.207 -26.525  0.00  0.00     0.155 A 
ATOM     25  N7  AR6 d   1     -23.571  10.048 -25.824  0.00  0.00    -0.236 NA
ATOM     26  C8  AR6 d   1     -23.505  10.784 -24.717  0.00  0.00     0.071 A 
ATOM     27  H4  AR6 d   1     -22.787  11.580 -24.525  0.00  0.00     0.144 H 
BRANCH  24  28
ATOM     28  N6  AR6 d   1     -24.525   8.009 -27.707  0.00  0.00    -0.382 N 
ATOM     29  H2  AR6 d   1     -23.722   8.585 -27.997  0.00  0.00     0.157 HD
ATOM     30  H3  AR6 d   1     -24.888   7.279 -28.336  0.00  0.00     0.157 HD
ENDBRANCH  24  28
ENDBRANCH   8  17
ENDBRANCH   1   4
BRANCH   1  31
ATOM     31  O5' AR6 d   1     -24.681  14.843 -23.066  0.00  0.00    -0.287 OA
BRANCH  31  32
ATOM     32  PA  AR6 d   1     -24.615  16.148 -24.010  0.00  0.00     0.417 P 
ATOM     33  O1A AR6 d   1     -24.530  15.670 -25.394  0.00  0.00    -0.624 OA
ATOM     34  O2A AR6 d   1     -23.530  17.007 -23.492  0.00  0.00    -0.624 OA
BRANCH  32  35
ATOM     35  O3A AR6 d   1     -26.041  16.845 -23.840  0.00  0.00    -0.180 OA
BRANCH  35  36
ATOM     36  PB  AR6 d   1     -26.494  17.973 -22.760  0.00  0.00     0.417 P 
ATOM     37  O1B AR6 d   1     -27.987  17.913 -22.776  0.00  0.00    -0.624 OA
ATOM     38  O2B AR6 d   1     -25.760  17.820 -21.487  0.00  0.00    -0.624 OA
BRANCH  36  39
ATOM     39  O5D AR6 d   1     -26.244  19.366 -23.499  0.00  0.00    -0.287 OA
BRANCH  39  40
ATOM     40  C5D AR6 d   1     -25.233  19.519 -24.480  0.00  0.00     0.058 C 
ATOM     41  H20 AR6 d   1     -24.491  20.245 -24.116  0.00  0.00     0.079 H 
ATOM     42  H21 AR6 d   1     -24.745  18.547 -24.644  0.00  0.00     0.079 H 
BRANCH  40  43
ATOM     43  C4D AR6 d   1     -25.787  20.003 -25.771  0.00  0.00     0.090 C 
ATOM     44  C3D AR6 d   1     -24.736  20.648 -26.649  0.00  0.00     0.092 C 
ATOM     45  C2D AR6 d   1     -24.713  22.069 -26.157  0.00  0.00     0.110 C 
ATOM     46  H14 AR6 d   1     -23.754  20.156 -26.595  0.00  0.00     0.091 H 
ATOM     47  C1D AR6 d   1     -26.079  22.247 -25.492  0.00  0.00     0.156 C 
ATOM     48  H10 AR6 d   1     -23.890  22.245 -25.449  0.00  0.00     0.094 H 
ATOM     49  O4D AR6 d   1     -26.755  21.003 -25.548  0.00  0.00    -0.349 OA
ATOM     50  H6  AR6 d   1     -25.975  22.653 -24.475  0.00  0.00     0.133 H 
ATOM     51  H17 AR6 d   1     -26.239  19.152 -26.301  0.00  0.00     0.090 H 
BRANCH  44  52
ATOM     52  O3D AR6 d   1     -25.279  20.644 -27.968  0.00  0.00    -0.390 OA
ATOM     53  H15 AR6 d   1     -24.735  21.178 -28.535  0.00  0.00     0.210 HD
ENDBRANCH  44  52
BRANCH  45  54
ATOM     54  O2D AR6 d   1     -24.606  22.935 -27.275  0.00  0.00    -0.388 OA
ATOM     55  H11 AR6 d   1     -25.290  22.728 -27.901  0.00  0.00     0.210 HD
ENDBRANCH  45  54
BRANCH  47  56
ATOM     56  O1D AR6 d   1     -26.945  22.973 -26.274  0.00  0.00    -0.369 OA
ATOM     57  H7  AR6 d   1     -26.992  22.583 -27.139  0.00  0.00     0.212 HD
ENDBRANCH  47  56
ENDBRANCH  40  43
ENDBRANCH  39  40
ENDBRANCH  36  39
ENDBRANCH  35  36
ENDBRANCH  32  35
ENDBRANCH  31  32
ENDBRANCH   1  31
TORSDOF 15
