REMARK  11 active torsions:
REMARK  status: ('A' for Active; 'I' for Inactive)
REMARK    1  A    between atoms: PG_1  and  N3B_5 
REMARK    2  A    between atoms: N3B_5  and  PB_6 
REMARK    3  A    between atoms: PB_6  and  O3A_9 
REMARK    4  A    between atoms: O3A_9  and  PA_10 
REMARK    5  A    between atoms: PA_10  and  O5'_13 
REMARK    6  A    between atoms: O5'_13  and  C5'_14 
REMARK    7  A    between atoms: C5'_14  and  C4'_15 
REMARK    8  A    between atoms: C3'_17  and  O3'_18 
REMARK    9  A    between atoms: C2'_19  and  O2'_20 
REMARK   10  A    between atoms: C1'_21  and  N9_22 
REMARK   11  A    between atoms: C2_29  and  N2_30 
ROOT
ATOM      1  C4' GNP d   1      -1.855 -19.721   7.042  0.00  0.00     0.089 C 
ATOM      2  O4' GNP d   1      -0.451 -20.043   7.191  0.00  0.00    -0.353 OA
ATOM      3  C3' GNP d   1      -2.342 -19.313   8.428  0.00  0.00     0.091 C 
ATOM      4  C2' GNP d   1      -1.068 -18.866   9.129  0.00  0.00     0.105 C 
ATOM      5  C1' GNP d   1      -0.063 -19.844   8.535  0.00  0.00     0.139 C 
ATOM      6  H4  GNP d   1      -2.410 -20.617   6.728  0.00  0.00     0.090 H 
ATOM      7  H5  GNP d   1      -3.079 -18.498   8.373  0.00  0.00     0.091 H 
ATOM      8  H7  GNP d   1      -0.816 -17.822   8.893  0.00  0.00     0.093 H 
ATOM      9  H9  GNP d   1      -0.105 -20.791   9.092  0.00  0.00     0.122 H 
ENDROOT
BRANCH   1  10
ATOM     10  C5' GNP d   1      -2.017 -18.672   5.958  0.00  0.00     0.058 C 
ATOM     11  H2  GNP d   1      -1.446 -18.982   5.071  0.00  0.00     0.079 H 
ATOM     12  H3  GNP d   1      -3.082 -18.587   5.697  0.00  0.00     0.079 H 
BRANCH  10  13
ATOM     13  O5' GNP d   1      -1.546 -17.409   6.392  0.00  0.00    -0.287 OA
BRANCH  13  14
ATOM     14  PA  GNP d   1      -1.892 -16.136   5.533  0.00  0.00     0.417 P 
ATOM     15  O1A GNP d   1      -3.366 -16.017   5.519  0.00  0.00    -0.624 OA
ATOM     16  O2A GNP d   1      -1.117 -15.001   6.072  0.00  0.00    -0.624 OA
BRANCH  14  17
ATOM     17  O3A GNP d   1      -1.451 -16.465   4.116  0.00  0.00    -0.186 OA
BRANCH  17  18
ATOM     18  PB  GNP d   1      -2.011 -15.716   2.918  0.00  0.00     0.379 P 
ATOM     19  O1B GNP d   1      -0.922 -15.654   1.916  0.00  0.00    -0.629 OA
ATOM     20  O2B GNP d   1      -2.547 -14.437   3.437  0.00  0.00    -0.629 OA
BRANCH  18  21
ATOM     21  N3B GNP d   1      -3.208 -16.601   2.366  0.00  0.00    -0.218 N 
ATOM     22  H1  GNP d   1      -3.242 -17.559   2.651  0.00  0.00     0.179 HD
BRANCH  21  23
ATOM     23  PG  GNP d   1      -4.356 -16.085   1.397  0.00  0.00     0.381 P 
ATOM     24  O1G GNP d   1      -3.842 -16.028  -0.023  0.00  0.00    -0.622 OA
ATOM     25  O2G GNP d   1      -5.515 -17.022   1.639  0.00  0.00    -0.622 OA
ATOM     26  O3G GNP d   1      -4.620 -14.650   1.744  0.00  0.00    -0.622 OA
ENDBRANCH  21  23
ENDBRANCH  18  21
ENDBRANCH  17  18
ENDBRANCH  14  17
ENDBRANCH  13  14
ENDBRANCH  10  13
ENDBRANCH   1  10
BRANCH   3  27
ATOM     27  O3' GNP d   1      -2.902 -20.433   9.094  0.00  0.00    -0.390 OA
ATOM     28  H6  GNP d   1      -3.203 -20.170   9.956  0.00  0.00     0.210 HD
ENDBRANCH   3  27
BRANCH   5  29
ATOM     29  N9  GNP d   1       1.311 -19.354   8.537  0.00  0.00    -0.295 N 
ATOM     30  C8  GNP d   1       1.786 -18.188   7.989  0.00  0.00     0.071 A 
ATOM     31  N7  GNP d   1       3.072 -18.034   8.151  0.00  0.00    -0.234 NA
ATOM     32  H10 GNP d   1       1.155 -17.466   7.473  0.00  0.00     0.144 H 
ATOM     33  C5  GNP d   1       3.474 -19.169   8.847  0.00  0.00     0.171 A 
ATOM     34  C6  GNP d   1       4.751 -19.566   9.309  0.00  0.00     0.292 A 
ATOM     35  C4  GNP d   1       2.396 -19.991   9.090  0.00  0.00     0.161 A 
ATOM     36  O6  GNP d   1       5.829 -18.969   9.193  0.00  0.00    -0.265 OA
ATOM     37  N1  GNP d   1       4.702 -20.795   9.964  0.00  0.00    -0.154 N 
ATOM     38  C2  GNP d   1       3.563 -21.543  10.154  0.00  0.00     0.680 A 
ATOM     39  H11 GNP d   1       5.560 -21.161  10.323  0.00  0.00     0.187 HD
ATOM     40  N3  GNP d   1       2.362 -21.185   9.730  0.00  0.00    -0.174 N 
ATOM     41  H14 GNP d   1       1.508 -21.744   9.869  0.00  0.00     0.186 HD
BRANCH  38  42
ATOM     42  N2  GNP d   1       3.704 -22.700  10.813  0.00  0.00    -0.234 N 
ATOM     43  H12 GNP d   1       2.884 -23.299  10.983  0.00  0.00     0.174 HD
ATOM     44  H13 GNP d   1       4.633 -22.991  11.150  0.00  0.00     0.174 HD
ENDBRANCH  38  42
ENDBRANCH   5  29
BRANCH   4  45
ATOM     45  O2' GNP d   1      -1.158 -19.034  10.532  0.00  0.00    -0.388 OA
ATOM     46  H8  GNP d   1      -1.304 -19.951  10.731  0.00  0.00     0.210 HD
ENDBRANCH   4  45
TORSDOF 11
