REMARK  19 active torsions:
REMARK  status: ('A' for Active; 'I' for Inactive)
REMARK    1  A    between atoms: C2_1  and  O39_38 
REMARK    2  A    between atoms: S8_7  and  C5_4 
REMARK    3  A    between atoms: N11_10  and  S8_7 
REMARK    4  A    between atoms: N11_10  and  C12_11 
REMARK    5  A    between atoms: C16_15  and  N11_10 
REMARK    6  A    between atoms: C12_11  and  C13_12 
REMARK    7  A    between atoms: C13_12  and  C14_13 
REMARK    8  A    between atoms: C13_12  and  C15_14 
REMARK    9  A    between atoms: C17_16  and  C16_15 
REMARK   10  A    between atoms: C17_16  and  O18_17 
REMARK   11  A    between atoms: C19_18  and  C17_16 
REMARK   12  A    between atoms: C19_18  and  N20_19 
REMARK   13  A    between atoms: C32_31  and  C19_18 
REMARK       I    between atoms: N20_19  and  C21_20 
REMARK   14  A    between atoms: C21_20  and  O23_22 
REMARK   15  A    between atoms: O23_22  and  C24_23 
REMARK   16  A    between atoms: C30_29  and  O41_40 
REMARK   17  A    between atoms: C38_37  and  C32_31 
REMARK   18  A    between atoms: O39_38  and  C40_39 
REMARK   19  A    between atoms: O41_40  and  C42_41 
ROOT
ATOM      1  C19 G04 d   1      14.874  22.929  16.903  0.00  0.00     0.044 C 
ATOM      2  H18 G04 d   1      15.780  22.380  16.608  0.00  0.00     0.077 H 
ENDROOT
BRANCH   1   3
ATOM      3  C17 G04 d   1      15.264  24.046  17.872  0.00  0.00     0.071 C 
ATOM      4  H16 G04 d   1      15.646  23.562  18.783  0.00  0.00     0.088 H 
BRANCH   3   5
ATOM      5  C16 G04 d   1      16.396  24.927  17.345  0.00  0.00     0.031 C 
ATOM      6  H14 G04 d   1      16.151  25.253  16.323  0.00  0.00     0.069 H 
ATOM      7  H15 G04 d   1      16.499  25.807  17.996  0.00  0.00     0.069 H 
BRANCH   5   8
ATOM      8  N11 G04 d   1      17.662  24.199  17.323  0.00  0.00    -0.304 N 
BRANCH   8   9
ATOM      9  S8  G04 d   1      18.405  23.975  15.877  0.00  0.00     0.260 S 
ATOM     10  O9  G04 d   1      17.354  23.831  14.832  0.00  0.00    -0.200 OA
ATOM     11  O10 G04 d   1      19.304  22.781  15.968  0.00  0.00    -0.200 OA
BRANCH   9  12
ATOM     12  C5  G04 d   1      19.372  25.381  15.448  0.00  0.00     0.079 C 
ATOM     13  C4  G04 d   1      18.832  26.428  14.708  0.00  0.00    -0.058 C 
ATOM     14  C3  G04 d   1      19.594  27.562  14.444  0.00  0.00    -0.049 C 
ATOM     15  H2  G04 d   1      17.816  26.360  14.336  0.00  0.00     0.086 H 
ATOM     16  C2  G04 d   1      20.942  27.615  14.779  0.00  0.00     0.068 C 
ATOM     17  H1  G04 d   1      19.129  28.418  13.969  0.00  0.00     0.087 H 
ATOM     18  C7  G04 d   1      21.525  26.536  15.443  0.00  0.00    -0.049 C 
ATOM     19  C6  G04 d   1      20.716  25.451  15.757  0.00  0.00    -0.058 C 
ATOM     20  H4  G04 d   1      22.577  26.544  15.706  0.00  0.00     0.087 H 
ATOM     21  H3  G04 d   1      21.166  24.611  16.274  0.00  0.00     0.086 H 
BRANCH  16  22
ATOM     22  O39 G04 d   1      21.705  28.733  14.545  0.00  0.00    -0.356 OA
BRANCH  22  23
ATOM     23  C40 G04 d   1      23.072  28.373  14.796  0.00  0.00     0.010 C 
ATOM     24  H35 G04 d   1      23.719  29.245  14.619  0.00  0.00     0.066 H 
ATOM     25  H36 G04 d   1      23.366  27.555  14.121  0.00  0.00     0.066 H 
ATOM     26  H37 G04 d   1      23.179  28.043  15.840  0.00  0.00     0.066 H 
ENDBRANCH  22  23
ENDBRANCH  16  22
ENDBRANCH   9  12
ENDBRANCH   8   9
BRANCH   8  27
ATOM     27  C12 G04 d   1      18.544  24.578  18.409  0.00  0.00     0.008 C 
ATOM     28  H5  G04 d   1      18.377  25.642  18.631  0.00  0.00     0.066 H 
ATOM     29  H6  G04 d   1      19.582  24.432  18.075  0.00  0.00     0.066 H 
BRANCH  27  30
ATOM     30  C13 G04 d   1      18.342  23.783  19.702  0.00  0.00    -0.045 C 
ATOM     31  H7  G04 d   1      17.433  24.160  20.192  0.00  0.00     0.041 H 
BRANCH  30  32
ATOM     32  C14 G04 d   1      18.166  22.287  19.484  0.00  0.00    -0.072 C 
ATOM     33  H8  G04 d   1      18.027  21.789  20.455  0.00  0.00     0.028 H 
ATOM     34  H9  G04 d   1      19.060  21.881  18.988  0.00  0.00     0.028 H 
ATOM     35  H10 G04 d   1      17.284  22.110  18.852  0.00  0.00     0.028 H 
ENDBRANCH  30  32
BRANCH  30  36
ATOM     36  C15 G04 d   1      19.543  24.031  20.629  0.00  0.00    -0.072 C 
ATOM     37  H11 G04 d   1      19.668  25.113  20.785  0.00  0.00     0.028 H 
ATOM     38  H12 G04 d   1      20.453  23.619  20.168  0.00  0.00     0.028 H 
ATOM     39  H13 G04 d   1      19.367  23.539  21.597  0.00  0.00     0.028 H 
ENDBRANCH  30  36
ENDBRANCH  27  30
ENDBRANCH   8  27
ENDBRANCH   5   8
ENDBRANCH   3   5
BRANCH   3  40
ATOM     40  O18 G04 d   1      14.104  24.793  18.251  0.00  0.00    -0.392 OA
ATOM     41  H17 G04 d   1      13.774  25.267  17.497  0.00  0.00     0.210 HD
ENDBRANCH   3  40
ENDBRANCH   1   3
BRANCH   1  42
ATOM     42  N20 G04 d   1      13.944  22.023  17.585  0.00  0.00    -0.329 N 
ATOM     43  C21 G04 d   1      14.204  20.751  17.919  0.00  0.00     0.361 C 
ATOM     44  O22 G04 d   1      15.300  20.222  17.681  0.00  0.00    -0.238 OA
ATOM     45  H19 G04 d   1      13.041  22.384  17.820  0.00  0.00     0.165 HD
BRANCH  43  46
ATOM     46  O23 G04 d   1      13.176  20.092  18.526  0.00  0.00    -0.296 OA
BRANCH  46  47
ATOM     47  C24 G04 d   1      13.381  18.710  18.820  0.00  0.00     0.080 C 
ATOM     48  C25 G04 d   1      12.923  18.477  20.263  0.00  0.00     0.048 C 
ATOM     49  O26 G04 d   1      11.492  18.480  20.191  0.00  0.00    -0.358 OA
ATOM     50  H21 G04 d   1      13.281  19.284  20.919  0.00  0.00     0.078 H 
ATOM     51  H22 G04 d   1      13.291  17.510  20.636  0.00  0.00     0.078 H 
ATOM     52  C27 G04 d   1      11.077  18.047  18.907  0.00  0.00     0.139 C 
ATOM     53  O28 G04 d   1      10.263  19.037  18.270  0.00  0.00    -0.358 OA
ATOM     54  C31 G04 d   1      12.336  17.859  18.081  0.00  0.00     0.048 C 
ATOM     55  H23 G04 d   1      10.520  17.102  18.987  0.00  0.00     0.129 H 
ATOM     56  C29 G04 d   1      10.858  19.453  17.053  0.00  0.00     0.047 C 
ATOM     57  C30 G04 d   1      11.925  18.417  16.710  0.00  0.00     0.069 C 
ATOM     58  H24 G04 d   1      11.318  20.445  17.175  0.00  0.00     0.078 H 
ATOM     59  H25 G04 d   1      10.101  19.496  16.256  0.00  0.00     0.078 H 
ATOM     60  H26 G04 d   1      12.760  18.839  16.132  0.00  0.00     0.087 H 
ATOM     61  H27 G04 d   1      12.660  16.811  18.005  0.00  0.00     0.055 H 
ATOM     62  H20 G04 d   1      14.418  18.398  18.624  0.00  0.00     0.088 H 
BRANCH  57  63
ATOM     63  O41 G04 d   1      11.299  17.294  16.048  0.00  0.00    -0.388 OA
BRANCH  63  64
ATOM     64  C42 G04 d   1      11.318  17.463  14.635  0.00  0.00     0.005 C 
ATOM     65  H38 G04 d   1      10.837  16.598  14.156  0.00  0.00     0.066 H 
ATOM     66  H39 G04 d   1      12.359  17.542  14.289  0.00  0.00     0.066 H 
ATOM     67  H40 G04 d   1      10.772  18.380  14.368  0.00  0.00     0.066 H 
ENDBRANCH  63  64
ENDBRANCH  57  63
ENDBRANCH  46  47
ENDBRANCH  43  46
ENDBRANCH   1  42
BRANCH   1  68
ATOM     68  C32 G04 d   1      14.179  23.469  15.638  0.00  0.00    -0.020 C 
ATOM     69  H28 G04 d   1      14.870  24.134  15.100  0.00  0.00     0.043 H 
ATOM     70  H29 G04 d   1      13.280  24.032  15.930  0.00  0.00     0.043 H 
BRANCH  68  71
ATOM     71  C38 G04 d   1      13.772  22.304  14.716  0.00  0.00    -0.056 A 
ATOM     72  C33 G04 d   1      12.440  21.908  14.626  0.00  0.00    -0.077 A 
ATOM     73  C34 G04 d   1      12.056  20.815  13.853  0.00  0.00    -0.082 A 
ATOM     74  H30 G04 d   1      11.685  22.463  15.170  0.00  0.00     0.084 H 
ATOM     75  C35 G04 d   1      12.992  20.110  13.090  0.00  0.00    -0.083 A 
ATOM     76  H31 G04 d   1      11.017  20.506  13.843  0.00  0.00     0.083 H 
ATOM     77  C36 G04 d   1      14.325  20.532  13.161  0.00  0.00    -0.082 A 
ATOM     78  H32 G04 d   1      12.698  19.271  12.469  0.00  0.00     0.083 H 
ATOM     79  C37 G04 d   1      14.717  21.607  13.963  0.00  0.00    -0.077 A 
ATOM     80  H33 G04 d   1      15.074  20.010  12.577  0.00  0.00     0.083 H 
ATOM     81  H34 G04 d   1      15.760  21.901  14.000  0.00  0.00     0.084 H 
ENDBRANCH  68  71
ENDBRANCH   1  68
TORSDOF 19
