REMARK  2 active torsions:
REMARK  status: ('A' for Active; 'I' for Inactive)
REMARK    1  A    between atoms: C4_6  and  N3_7 
REMARK    2  A    between atoms: C1_11  and  S1_12 
ROOT
ATOM      1  O1  B55 d   1       0.784  -1.603  11.105  0.00  0.00    -0.265 OA
ATOM      2  C5  B55 d   1       1.432  -2.105  12.024  0.00  0.00     0.290 A 
ATOM      3  C2  B55 d   1       1.576  -1.541  13.363  0.00  0.00     0.150 A 
ATOM      4  N1  B55 d   1       1.091  -0.362  13.901  0.00  0.00    -0.328 N 
ATOM      5  N4  B55 d   1       2.096  -3.322  11.982  0.00  0.00    -0.154 N 
ATOM      6  C4  B55 d   1       2.822  -3.925  13.004  0.00  0.00     0.680 A 
ATOM      7  N2  B55 d   1       2.928  -3.432  14.203  0.00  0.00    -0.172 N 
ATOM      8  C3  B55 d   1       2.294  -2.230  14.264  0.00  0.00     0.178 A 
ATOM      9  N5  B55 d   1       2.261  -1.457  15.432  0.00  0.00    -0.204 NA
ATOM     10  C1  B55 d   1       1.513  -0.384  15.144  0.00  0.00     0.166 A 
ATOM     11  H1  B55 d   1       0.529   0.364  13.434  0.00  0.00     0.168 HD
ATOM     12  H2  B55 d   1       2.047  -3.823  11.118  0.00  0.00     0.187 HD
ATOM     13  H5  B55 d   1       3.418  -3.884  14.988  0.00  0.00     0.186 HD
ENDROOT
BRANCH   6  14
ATOM     14  N3  B55 d   1       3.401  -5.121  12.740  0.00  0.00    -0.234 N 
ATOM     15  H3  B55 d   1       3.947  -5.601  13.470  0.00  0.00     0.174 HD
ATOM     16  H4  B55 d   1       3.295  -5.550  11.810  0.00  0.00     0.174 HD
ENDBRANCH   6  14
BRANCH  10  17
ATOM     17  S1  B55 d   1       1.193   0.813  16.388  0.00  0.00    -0.105 SA
ATOM     18  H6  B55 d   1       0.620   1.548  16.005  0.00  0.00     0.110 HD
ENDBRANCH  10  17
TORSDOF 2
