REMARK  7 active torsions:
REMARK  status: ('A' for Active; 'I' for Inactive)
REMARK    1  A    between atoms: C2_2  and  N2_3 
REMARK    2  A    between atoms: CAH_16  and  N9_11 
REMARK    3  A    between atoms: OAM_18  and  CAA_12 
REMARK    4  A    between atoms: CAN_19  and  CAB_13 
REMARK    5  A    between atoms: CAP_20  and  CAC_14 
REMARK    6  A    between atoms: CAR_21  and  CAH_16 
REMARK    7  A    between atoms: CAS_22  and  OAM_18 
ROOT
ATOM      1  CAF 94M d   1      -6.267  32.775  23.983  0.00  0.00     0.011 A 
ATOM      2  NAI 94M d   1      -5.263  33.626  23.672  0.00  0.00    -0.263 NA
ATOM      3  CAN 94M d   1      -6.019  31.493  24.468  0.00  0.00    -0.011 A 
ATOM      4  CAP 94M d   1      -3.686  31.925  24.239  0.00  0.00    -0.002 A 
ATOM      5  CAR 94M d   1      -3.987  33.243  23.785  0.00  0.00     0.061 A 
ATOM      6  CAS 94M d   1      -4.713  31.054  24.546  0.00  0.00     0.083 A 
ATOM      7  H13 94M d   1      -7.293  33.099  23.851  0.00  0.00     0.115 H 
ENDROOT
BRANCH   5   8
ATOM      8  CAH 94M d   1      -2.948  34.274  23.367  0.00  0.00     0.043 C 
ATOM      9  H14 94M d   1      -2.210  33.796  22.706  0.00  0.00     0.074 H 
ATOM     10  H15 94M d   1      -3.447  35.093  22.829  0.00  0.00     0.074 H 
BRANCH   8  11
ATOM     11  N9  94M d   1      -2.257  34.821  24.549  0.00  0.00    -0.318 N 
ATOM     12  C4  94M d   1      -0.948  34.742  24.759  0.00  0.00     0.182 A 
ATOM     13  N3  94M d   1       0.096  34.220  24.079  0.00  0.00    -0.043 NA
ATOM     14  C5  94M d   1      -0.721  35.339  26.019  0.00  0.00     0.145 A 
ATOM     15  C2  94M d   1       1.323  34.299  24.601  0.00  0.00     0.723 A 
ATOM     16  N1  94M d   1       1.594  34.875  25.758  0.00  0.00    -0.048 NA
ATOM     17  C6  94M d   1       0.578  35.389  26.470  0.00  0.00     0.177 A 
ATOM     18 CL6  94M d   1       0.977  36.135  28.008  0.00  0.00    -0.059 Cl
ATOM     19  N7  94M d   1      -1.924  35.812  26.448  0.00  0.00    -0.237 NA
ATOM     20  C8  94M d   1      -2.862  35.442  25.574  0.00  0.00     0.069 A 
ATOM     21  H3  94M d   1      -3.933  35.614  25.675  0.00  0.00     0.143 H 
BRANCH  15  22
ATOM     22  N2  94M d   1       2.343  33.800  23.949  0.00  0.00    -0.231 N 
ATOM     23  H1  94M d   1       3.290  33.860  24.350  0.00  0.00     0.174 HD
ATOM     24  H2  94M d   1       2.199  33.347  23.035  0.00  0.00     0.174 HD
ENDBRANCH  15  22
ENDBRANCH   8  11
ENDBRANCH   5   8
BRANCH   4  25
ATOM     25  CAC 94M d   1      -2.259  31.386  24.380  0.00  0.00    -0.047 C 
ATOM     26  H10 94M d   1      -1.541  32.173  24.107  0.00  0.00     0.033 H 
ATOM     27  H11 94M d   1      -2.126  30.522  23.713  0.00  0.00     0.033 H 
ATOM     28  H12 94M d   1      -2.085  31.076  25.421  0.00  0.00     0.033 H 
ENDBRANCH   4  25
BRANCH   6  29
ATOM     29  OAM 94M d   1      -4.445  29.789  25.002  0.00  0.00    -0.355 OA
BRANCH  29  30
ATOM     30  CAA 94M d   1      -4.544  29.495  26.388  0.00  0.00     0.010 C 
ATOM     31  H4  94M d   1      -4.293  28.437  26.557  0.00  0.00     0.066 H 
ATOM     32  H5  94M d   1      -5.571  29.688  26.731  0.00  0.00     0.066 H 
ATOM     33  H6  94M d   1      -3.844  30.132  26.949  0.00  0.00     0.066 H 
ENDBRANCH  29  30
ENDBRANCH   6  29
BRANCH   3  34
ATOM     34  CAB 94M d   1      -7.160  30.551  24.786  0.00  0.00    -0.047 C 
ATOM     35  H7  94M d   1      -8.117  31.081  24.668  0.00  0.00     0.033 H 
ATOM     36  H8  94M d   1      -7.064  30.195  25.822  0.00  0.00     0.033 H 
ATOM     37  H9  94M d   1      -7.129  29.693  24.099  0.00  0.00     0.033 H 
ENDBRANCH   3  34
TORSDOF 7
