REMARK WARNING: 32 MAX_TORS EXCEEDED!!!
REMARK  38 active torsions:
REMARK  status: ('A' for Active; 'I' for Inactive)
REMARK    1  A    between atoms: N_1  and  CA_2 
REMARK    2  A    between atoms: CA_2  and  C_3 
REMARK    3  A    between atoms: CA_2  and  CB_5 
REMARK       I    between atoms: C_3  and  N_6 
REMARK    4  A    between atoms: N_6  and  CA_7 
REMARK    5  A    between atoms: CA_7  and  C_8 
REMARK    6  A    between atoms: CA_7  and  CB_10 
REMARK       I    between atoms: C_8  and  N_11 
REMARK    7  A    between atoms: N_11  and  CA_12 
REMARK    8  A    between atoms: CA_12  and  C_13 
REMARK       I    between atoms: C_13  and  N_15 
REMARK    9  A    between atoms: N_15  and  CA_16 
REMARK   10  A    between atoms: CA_16  and  C_17 
REMARK   11  A    between atoms: CA_16  and  CB_19 
REMARK       I    between atoms: C_17  and  N_23 
REMARK   12  A    between atoms: CB_19  and  CG1_20 
REMARK   13  A    between atoms: CB_19  and  CG2_21 
REMARK   14  A    between atoms: CG1_20  and  CD1_22 
REMARK   15  A    between atoms: N_23  and  CA_24 
REMARK   16  A    between atoms: CA_24  and  C_25 
REMARK       I    between atoms: C_25  and  N_27 
REMARK   17  A    between atoms: N_27  and  CA_28 
REMARK   18  A    between atoms: CA_28  and  C_29 
REMARK   19  A    between atoms: CA_28  and  CB_31 
REMARK       I    between atoms: C_29  and  N_35 
REMARK   20  A    between atoms: CB_31  and  CG1_32 
REMARK   21  A    between atoms: CB_31  and  CG2_33 
REMARK   22  A    between atoms: CG1_32  and  CD1_34 
REMARK   23  A    between atoms: N_35  and  CA_36 
REMARK   24  A    between atoms: CA_36  and  C_37 
REMARK   25  A    between atoms: CA_36  and  CB_39 
REMARK       I    between atoms: C_37  and  N_43 
REMARK   26  A    between atoms: CB_39  and  CG_40 
REMARK   27  A    between atoms: CG_40  and  CD1_41 
REMARK   28  A    between atoms: CG_40  and  CD2_42 
REMARK   29  A    between atoms: N_43  and  CA_44 
REMARK   30  A    between atoms: CA_44  and  C_45 
REMARK   31  A    between atoms: CA_44  and  CB_47 
REMARK       I    between atoms: C_45  and  N_50 
REMARK   32  A    between atoms: CB_47  and  OG1_48 
REMARK   33  A    between atoms: CB_47  and  CG2_49 
REMARK   34  A    between atoms: N_50  and  CA_51 
REMARK   35  A    between atoms: CA_51  and  C_52 
REMARK   36  A    between atoms: CA_51  and  CB_54 
REMARK   37  A    between atoms: CB_54  and  CG1_55 
REMARK   38  A    between atoms: CB_54  and  CG2_56 
ROOT
ATOM      1  CA  ILE d   1      32.742  -3.801  36.768  0.00  0.00     0.092 C 
ATOM      2  H31 ILE d   1      32.508  -4.485  35.939  0.00  0.00     0.088 H 
ENDROOT
BRANCH   1   3
ATOM      3  N   ILE d   1      33.068  -4.564  37.957  0.00  0.00    -0.346 N 
ATOM      4  C   GLY d   1      33.569  -5.794  37.898  0.00  0.00     0.236 C 
ATOM      5  O   GLY d   1      33.871  -6.358  36.832  0.00  0.00    -0.272 OA
ATOM      6  H30 ILE d   1      32.910  -4.150  38.854  0.00  0.00     0.163 HD
BRANCH   4   7
ATOM      7  CA  GLY d   1      33.762  -6.482  39.235  0.00  0.00     0.069 C 
ATOM      8  H28 GLY d   1      33.517  -7.548  39.117  0.00  0.00     0.078 H 
ATOM      9  H29 GLY d   1      34.816  -6.379  39.531  0.00  0.00     0.078 H 
BRANCH   7  10
ATOM     10  N   GLY d   1      32.920  -5.926  40.308  0.00  0.00    -0.351 N 
ATOM     11  C   ILE d   1      31.679  -6.358  40.415  0.00  0.00     0.241 C 
ATOM     12  O   ILE d   1      31.236  -7.224  39.653  0.00  0.00    -0.271 OA
ATOM     13  H27 GLY d   1      33.280  -5.239  40.939  0.00  0.00     0.163 HD
BRANCH  11  14
ATOM     14  CA  ILE d   1      30.788  -5.720  41.491  0.00  0.00     0.092 C 
ATOM     15  H17 ILE d   1      30.733  -4.633  41.333  0.00  0.00     0.088 H 
BRANCH  14  16
ATOM     16  N   ILE d   1      29.486  -6.300  41.316  0.00  0.00    -0.346 N 
ATOM     17  C   GLY d   1      28.397  -5.573  41.125  0.00  0.00     0.236 C 
ATOM     18  O   GLY d   1      28.342  -4.368  41.358  0.00  0.00    -0.272 OA
ATOM     19  H16 ILE d   1      29.399  -7.296  41.340  0.00  0.00     0.163 HD
BRANCH  17  20
ATOM     20  CA  GLY d   1      27.195  -6.373  40.668  0.00  0.00     0.069 C 
ATOM     21  H14 GLY d   1      27.347  -6.631  39.610  0.00  0.00     0.078 H 
ATOM     22  H15 GLY d   1      27.157  -7.294  41.269  0.00  0.00     0.078 H 
BRANCH  20  23
ATOM     23  N   GLY d   1      25.892  -5.709  40.784  0.00  0.00    -0.351 N 
ATOM     24  C   ALA d   1      25.171  -5.758  41.898  0.00  0.00     0.240 C 
ATOM     25  O   ALA d   1      25.575  -6.315  42.959  0.00  0.00    -0.271 OA
ATOM     26  H13 GLY d   1      25.535  -5.203  39.999  0.00  0.00     0.163 HD
BRANCH  24  27
ATOM     27  CA  ALA d   1      23.814  -5.040  41.821  0.00  0.00     0.086 C 
ATOM     28  H9  ALA d   1      23.259  -5.457  40.968  0.00  0.00     0.086 H 
BRANCH  27  29
ATOM     29  N   ALA d   1      23.015  -5.248  43.030  0.00  0.00    -0.346 N 
ATOM     30  C   ALA d   1      22.331  -6.377  43.216  0.00  0.00     0.248 C 
ATOM     31  O   ALA d   1      22.434  -7.361  42.456  0.00  0.00    -0.271 OA
ATOM     32  H8  ALA d   1      22.982  -4.532  43.727  0.00  0.00     0.163 HD
BRANCH  30  33
ATOM     33  CA  ALA d   1      21.418  -6.420  44.433  0.00  0.00     0.172 C 
ATOM     34  H4  ALA d   1      21.085  -5.396  44.660  0.00  0.00     0.098 H 
BRANCH  33  35
ATOM     35  N   ALA d   1      20.216  -7.256  44.139  0.00  0.00    -0.067 N 
ATOM     36  H1  ALA d   1      19.617  -7.279  44.949  0.00  0.00     0.275 HD
ATOM     37  H2  ALA d   1      20.507  -8.193  43.909  0.00  0.00     0.275 HD
ATOM     38  H3  ALA d   1      19.713  -6.859  43.361  0.00  0.00     0.275 HD
ENDBRANCH  33  35
BRANCH  33  39
ATOM     39  CB  ALA d   1      22.154  -6.949  45.614  0.00  0.00    -0.042 C 
ATOM     40  H5  ALA d   1      23.033  -6.318  45.811  0.00  0.00     0.030 H 
ATOM     41  H6  ALA d   1      22.480  -7.980  45.411  0.00  0.00     0.030 H 
ATOM     42  H7  ALA d   1      21.492  -6.940  46.493  0.00  0.00     0.030 H 
ENDBRANCH  33  39
ENDBRANCH  30  33
ENDBRANCH  27  29
BRANCH  27  43
ATOM     43  CB  ALA d   1      24.010  -3.514  41.580  0.00  0.00    -0.049 C 
ATOM     44  H10 ALA d   1      24.610  -3.361  40.671  0.00  0.00     0.030 H 
ATOM     45  H11 ALA d   1      24.530  -3.070  42.442  0.00  0.00     0.030 H 
ATOM     46  H12 ALA d   1      23.028  -3.033  41.456  0.00  0.00     0.030 H 
ENDBRANCH  27  43
ENDBRANCH  24  27
ENDBRANCH  20  23
ENDBRANCH  17  20
ENDBRANCH  14  16
BRANCH  14  47
ATOM     47  CB  ILE d   1      31.353  -5.986  42.905  0.00  0.00    -0.030 C 
ATOM     48  H18 ILE d   1      32.348  -5.520  42.958  0.00  0.00     0.043 H 
BRANCH  47  49
ATOM     49  CG1 ILE d   1      31.541  -7.488  43.143  0.00  0.00    -0.063 C 
ATOM     50  H19 ILE d   1      31.954  -7.934  42.226  0.00  0.00     0.033 H 
ATOM     51  H20 ILE d   1      30.556  -7.930  43.355  0.00  0.00     0.033 H 
BRANCH  49  52
ATOM     52  CD1 ILE d   1      32.480  -7.824  44.307  0.00  0.00    -0.076 C 
ATOM     53  H24 ILE d   1      32.560  -8.916  44.410  0.00  0.00     0.027 H 
ATOM     54  H25 ILE d   1      32.078  -7.397  45.237  0.00  0.00     0.027 H 
ATOM     55  H26 ILE d   1      33.476  -7.400  44.109  0.00  0.00     0.027 H 
ENDBRANCH  49  52
ENDBRANCH  47  49
BRANCH  47  56
ATOM     56  CG2 ILE d   1      30.487  -5.326  43.976  0.00  0.00    -0.071 C 
ATOM     57  H21 ILE d   1      30.386  -4.253  43.756  0.00  0.00     0.028 H 
ATOM     58  H22 ILE d   1      30.960  -5.455  44.961  0.00  0.00     0.028 H 
ATOM     59  H23 ILE d   1      29.492  -5.794  43.983  0.00  0.00     0.028 H 
ENDBRANCH  47  56
ENDBRANCH  14  47
ENDBRANCH  11  14
ENDBRANCH   7  10
ENDBRANCH   4   7
ENDBRANCH   1   3
BRANCH   1  60
ATOM     60  C   ILE d   1      33.974  -2.960  36.409  0.00  0.00     0.241 C 
ATOM     61  O   ILE d   1      34.345  -2.022  37.130  0.00  0.00    -0.271 OA
ATOM     62  N   LEU d   1      34.604  -3.316  35.296  0.00  0.00    -0.346 N 
ATOM     63  H41 LEU d   1      34.208  -4.032  34.721  0.00  0.00     0.163 HD
BRANCH  62  64
ATOM     64  CA  LEU d   1      35.868  -2.686  34.886  0.00  0.00     0.089 C 
ATOM     65  H42 LEU d   1      36.281  -2.146  35.751  0.00  0.00     0.087 H 
BRANCH  64  66
ATOM     66  C   LEU d   1      35.648  -1.709  33.762  0.00  0.00     0.241 C 
ATOM     67  O   LEU d   1      34.722  -1.842  32.973  0.00  0.00    -0.271 OA
ATOM     68  N   THR d   1      36.560  -0.758  33.663  0.00  0.00    -0.344 N 
ATOM     69  H52 THR d   1      37.266  -0.682  34.368  0.00  0.00     0.163 HD
BRANCH  68  70
ATOM     70  CA  THR d   1      36.561   0.183  32.550  0.00  0.00     0.113 C 
ATOM     71  H53 THR d   1      35.561   0.638  32.493  0.00  0.00     0.091 H 
BRANCH  70  72
ATOM     72  C   THR d   1      36.833  -0.524  31.212  0.00  0.00     0.243 C 
ATOM     73  O   THR d   1      37.588  -1.494  31.150  0.00  0.00    -0.271 OA
ATOM     74  N   VAL d   1      36.225  -0.007  30.155  0.00  0.00    -0.344 N 
ATOM     75  H59 VAL d   1      35.579   0.744  30.292  0.00  0.00     0.163 HD
BRANCH  74  76
ATOM     76  CA  VAL d   1      36.460  -0.488  28.806  0.00  0.00     0.099 C 
ATOM     77  H60 VAL d   1      36.395  -1.585  28.857  0.00  0.00     0.090 H 
BRANCH  76  78
ATOM     78  C   VAL d   1      37.848  -0.156  28.221  0.00  0.00     0.197 C 
ATOM     79  O   VAL d   1      38.638   0.656  28.798  0.00  0.00    -0.646 OA
ATOM     80  OXT VAL d   1      38.238  -0.718  27.153  0.00  0.00    -0.646 OA
ENDBRANCH  76  78
BRANCH  76  81
ATOM     81  CB  VAL d   1      35.372  -0.013  27.839  0.00  0.00    -0.032 C 
ATOM     82  H61 VAL d   1      35.542  -0.517  26.876  0.00  0.00     0.042 H 
BRANCH  81  83
ATOM     83  CG1 VAL d   1      33.981  -0.426  28.322  0.00  0.00    -0.071 C 
ATOM     84  H62 VAL d   1      33.224  -0.071  27.607  0.00  0.00     0.028 H 
ATOM     85  H63 VAL d   1      33.789   0.018  29.310  0.00  0.00     0.028 H 
ATOM     86  H64 VAL d   1      33.929  -1.522  28.396  0.00  0.00     0.028 H 
ENDBRANCH  81  83
BRANCH  81  87
ATOM     87  CG2 VAL d   1      35.498   1.518  27.584  0.00  0.00    -0.071 C 
ATOM     88  H65 VAL d   1      36.517   1.750  27.240  0.00  0.00     0.028 H 
ATOM     89  H66 VAL d   1      35.293   2.063  28.517  0.00  0.00     0.028 H 
ATOM     90  H67 VAL d   1      34.773   1.823  26.814  0.00  0.00     0.028 H 
ENDBRANCH  81  87
ENDBRANCH  76  81
ENDBRANCH  74  76
ENDBRANCH  70  72
BRANCH  70  91
ATOM     91  CB  THR d   1      37.604   1.334  32.791  0.00  0.00     0.060 C 
ATOM     92  H54 THR d   1      37.667   1.952  31.884  0.00  0.00     0.086 H 
BRANCH  91  93
ATOM     93  OG1 THR d   1      38.885   0.768  33.065  0.00  0.00    -0.393 OA
ATOM     94  H55 THR d   1      38.830   0.223  33.841  0.00  0.00     0.210 HD
ENDBRANCH  91  93
BRANCH  91  95
ATOM     95  CG2 THR d   1      37.181   2.231  33.983  0.00  0.00    -0.050 C 
ATOM     96  H56 THR d   1      37.928   3.025  34.127  0.00  0.00     0.031 H 
ATOM     97  H57 THR d   1      37.114   1.621  34.896  0.00  0.00     0.031 H 
ATOM     98  H58 THR d   1      36.201   2.683  33.772  0.00  0.00     0.031 H 
ENDBRANCH  91  95
ENDBRANCH  70  91
ENDBRANCH  68  70
ENDBRANCH  64  66
BRANCH  64  99
ATOM     99  CB  LEU d   1      36.890  -3.740  34.424  0.00  0.00    -0.035 C 
ATOM    100  H43 LEU d   1      37.361  -3.364  33.504  0.00  0.00     0.037 H 
ATOM    101  H44 LEU d   1      36.336  -4.664  34.202  0.00  0.00     0.037 H 
BRANCH  99 102
ATOM    102  CG  LEU d   1      38.004  -4.097  35.395  0.00  0.00    -0.059 C 
ATOM    103  H45 LEU d   1      38.452  -3.160  35.758  0.00  0.00     0.038 H 
BRANCH 102 104
ATOM    104  CD1 LEU d   1      37.438  -4.838  36.597  0.00  0.00    -0.073 C 
ATOM    105  H46 LEU d   1      38.254  -5.090  37.290  0.00  0.00     0.028 H 
ATOM    106  H47 LEU d   1      36.946  -5.762  36.260  0.00  0.00     0.028 H 
ATOM    107  H48 LEU d   1      36.705  -4.198  37.110  0.00  0.00     0.028 H 
ENDBRANCH 102 104
BRANCH 102 108
ATOM    108  CD2 LEU d   1      39.100  -4.894  34.697  0.00  0.00    -0.073 C 
ATOM    109  H49 LEU d   1      39.478  -4.322  33.837  0.00  0.00     0.028 H 
ATOM    110  H50 LEU d   1      38.690  -5.853  34.347  0.00  0.00     0.028 H 
ATOM    111  H51 LEU d   1      39.922  -5.082  35.403  0.00  0.00     0.028 H 
ENDBRANCH 102 108
ENDBRANCH  99 102
ENDBRANCH  64  99
ENDBRANCH  62  64
ENDBRANCH   1  60
BRANCH   1 112
ATOM    112  CB  ILE d   1      31.509  -2.895  37.043  0.00  0.00    -0.030 C 
ATOM    113  H32 ILE d   1      31.762  -2.293  37.928  0.00  0.00     0.043 H 
BRANCH 112 114
ATOM    114  CG1 ILE d   1      30.288  -3.747  37.455  0.00  0.00    -0.063 C 
ATOM    115  H33 ILE d   1      29.413  -3.082  37.508  0.00  0.00     0.033 H 
ATOM    116  H34 ILE d   1      30.489  -4.169  38.451  0.00  0.00     0.033 H 
BRANCH 114 117
ATOM    117  CD1 ILE d   1      29.953  -4.877  36.535  0.00  0.00    -0.076 C 
ATOM    118  H38 ILE d   1      29.074  -5.415  36.919  0.00  0.00     0.027 H 
ATOM    119  H39 ILE d   1      30.808  -5.567  36.476  0.00  0.00     0.027 H 
ATOM    120  H40 ILE d   1      29.731  -4.481  35.533  0.00  0.00     0.027 H 
ENDBRANCH 114 117
ENDBRANCH 112 114
BRANCH 112 121
ATOM    121  CG2 ILE d   1      31.258  -1.869  35.913  0.00  0.00    -0.071 C 
ATOM    122  H35 ILE d   1      32.188  -1.321  35.702  0.00  0.00     0.028 H 
ATOM    123  H36 ILE d   1      30.479  -1.160  36.228  0.00  0.00     0.028 H 
ATOM    124  H37 ILE d   1      30.929  -2.396  35.005  0.00  0.00     0.028 H 
ENDBRANCH 112 121
ENDBRANCH   1 112
TORSDOF 38
