REMARK  4 active torsions:
REMARK  status: ('A' for Active; 'I' for Inactive)
REMARK    1  A    between atoms: O4_1  and  C4_2 
REMARK    2  A    between atoms: C3_3  and  O3_4 
REMARK    3  A    between atoms: C5_8  and  C6_9 
REMARK    4  A    between atoms: C6_9  and  O6_10 
ROOT
ATOM      1  C4  IFM d   1      11.672  42.882  85.342  0.00  0.00     0.069 C 
ATOM      2  C3  IFM d   1      12.158  44.198  84.756  0.00  0.00     0.084 C 
ATOM      3  C2  IFM d   1      11.063  44.892  83.930  0.00  0.00     0.107 C 
ATOM      4  N   IFM d   1      10.556  43.951  82.879  0.00  0.00    -0.072 N 
ATOM      5  C1  IFM d   1      10.068  42.661  83.405  0.00  0.00     0.089 C 
ATOM      6  C5  IFM d   1      11.183  41.971  84.197  0.00  0.00     0.017 C 
ATOM      7  H2  IFM d   1      10.844  43.046  86.047  0.00  0.00     0.087 H 
ATOM      8  H3  IFM d   1      13.024  44.011  84.103  0.00  0.00     0.089 H 
ATOM      9  H5  IFM d   1      11.480  45.789  83.448  0.00  0.00     0.079 H 
ATOM     10  H6  IFM d   1      10.234  45.183  84.592  0.00  0.00     0.079 H 
ATOM     11  H7  IFM d   1      11.307  43.765  82.233  0.00  0.00     0.277 HD
ATOM     12  H8  IFM d   1       9.797  44.401  82.392  0.00  0.00     0.277 HD
ATOM     13  H9  IFM d   1       9.762  42.017  82.567  0.00  0.00     0.076 H 
ATOM     14  H10 IFM d   1       9.206  42.838  84.065  0.00  0.00     0.076 H 
ATOM     15  H11 IFM d   1      12.039  41.832  83.520  0.00  0.00     0.049 H 
ENDROOT
BRANCH   6  16
ATOM     16  C6  IFM d   1      10.716  40.552  84.623  0.00  0.00     0.024 C 
ATOM     17  H12 IFM d   1      11.415  40.154  85.374  0.00  0.00     0.074 H 
ATOM     18  H13 IFM d   1      10.713  39.895  83.741  0.00  0.00     0.074 H 
BRANCH  16  19
ATOM     19  O6  IFM d   1       9.404  40.589  85.181  0.00  0.00    -0.400 OA
ATOM     20  H14 IFM d   1       8.796  40.928  84.535  0.00  0.00     0.209 HD
ENDBRANCH  16  19
ENDBRANCH   6  16
BRANCH   1  21
ATOM     21  O4  IFM d   1      12.815  42.374  86.038  0.00  0.00    -0.392 OA
ATOM     22  H1  IFM d   1      12.596  41.542  86.440  0.00  0.00     0.210 HD
ENDBRANCH   1  21
BRANCH   2  23
ATOM     23  O3  IFM d   1      12.554  45.002  85.853  0.00  0.00    -0.391 OA
ATOM     24  H4  IFM d   1      12.867  45.840  85.533  0.00  0.00     0.210 HD
ENDBRANCH   2  23
TORSDOF 4
