REMARK  2 active torsions:
REMARK  status: ('A' for Active; 'I' for Inactive)
REMARK    1  A    between atoms: C7_12  and  C1_1 
REMARK       I    between atoms: N2_5  and  C7_12 
REMARK    2  A    between atoms: C16_21  and  C9_14 
ROOT
ATOM      1  O1  L7A d   1      36.047  48.725  10.588  0.00  0.00    -0.266 OA
ATOM      2  N2  L7A d   1      35.881  50.064  12.912  0.00  0.00    -0.208 NA
ATOM      3  O2  L7A d   1      36.643  51.445  14.670  0.00  0.00    -0.265 OA
ATOM      4  N3  L7A d   1      38.317  48.999  10.260  0.00  0.00    -0.331 N 
ATOM      5  C7  L7A d   1      35.776  50.816  14.064  0.00  0.00     0.277 C 
ATOM      6  C8  L7A d   1      39.559  49.583  10.666  0.00  0.00    -0.013 A 
ATOM      7  C9  L7A d   1      39.492  50.334  11.927  0.00  0.00    -0.026 A 
ATOM      8  C10 L7A d   1      38.256  50.521  12.710  0.00  0.00     0.007 A 
ATOM      9  C11 L7A d   1      37.071  49.950  12.263  0.00  0.00     0.110 A 
ATOM     10  C12 L7A d   1      37.094  49.177  10.995  0.00  0.00     0.270 A 
ATOM     11  H3  L7A d   1      38.299  48.443   9.429  0.00  0.00     0.168 HD
ATOM     12  H7  L7A d   1      40.477  49.479  10.089  0.00  0.00     0.112 H 
ATOM     13  H8  L7A d   1      38.082  51.605  12.780  0.00  0.00     0.050 H 
ATOM     14  H9  L7A d   1      38.448  50.115  13.714  0.00  0.00     0.050 H 
ENDROOT
BRANCH   5  15
ATOM     15  C1  L7A d   1      34.362  50.805  14.603  0.00  0.00     0.034 A 
ATOM     16  C2  L7A d   1      34.200  51.554  15.871  0.00  0.00    -0.068 A 
ATOM     17  C3  L7A d   1      32.865  51.601  16.497  0.00  0.00    -0.082 A 
ATOM     18  H1  L7A d   1      35.044  52.057  16.329  0.00  0.00     0.085 H 
ATOM     19  C4  L7A d   1      31.714  50.927  15.844  0.00  0.00    -0.083 A 
ATOM     20  H2  L7A d   1      32.724  52.128  17.434  0.00  0.00     0.083 H 
ATOM     21  C5  L7A d   1      31.871  50.200  14.563  0.00  0.00    -0.082 A 
ATOM     22  H4  L7A d   1      30.738  50.968  16.315  0.00  0.00     0.083 H 
ATOM     23  C6  L7A d   1      33.199  50.120  13.935  0.00  0.00    -0.068 A 
ATOM     24  H5  L7A d   1      31.015  49.731  14.092  0.00  0.00     0.083 H 
ATOM     25  H6  L7A d   1      33.338  49.577  13.007  0.00  0.00     0.085 H 
ENDBRANCH   5  15
BRANCH   7  26
ATOM     26  C16 L7A d   1      40.784  51.028  12.445  0.00  0.00    -0.025 A 
ATOM     27  C15 L7A d   1      42.148  50.506  11.968  0.00  0.00    -0.056 A 
ATOM     28  C14 L7A d   1      43.361  51.102  12.482  0.00  0.00     0.003 A 
ATOM     29  H12 L7A d   1      42.201  49.696  11.250  0.00  0.00     0.087 H 
ATOM     30  N1  L7A d   1      43.185  52.167  13.425  0.00  0.00    -0.273 NA
ATOM     31  H11 L7A d   1      44.343  50.764  12.173  0.00  0.00     0.114 H 
ATOM     32  C13 L7A d   1      41.938  52.717  13.924  0.00  0.00     0.003 A 
ATOM     33  C17 L7A d   1      40.694  52.146  13.435  0.00  0.00    -0.056 A 
ATOM     34  H10 L7A d   1      41.934  53.530  14.641  0.00  0.00     0.114 H 
ATOM     35  H13 L7A d   1      39.734  52.517  13.776  0.00  0.00     0.087 H 
ENDBRANCH   7  26
TORSDOF 2
