REMARK  6 active torsions:
REMARK  status: ('A' for Active; 'I' for Inactive)
REMARK    1  A    between atoms: C20_28  and  N1_2 
REMARK       I    between atoms: C7_15  and  N2_5 
REMARK    2  A    between atoms: N2_5  and  C11_19 
REMARK    3  A    between atoms: C14_22  and  N4_10 
REMARK    4  A    between atoms: N4_10  and  C22_30 
REMARK    5  A    between atoms: C17_25  and  C7_15 
REMARK    6  A    between atoms: C9_17  and  C15_23 
ROOT
ATOM      1  N2  L7O d   1      35.640  50.007  12.767  0.00  0.00    -0.340 N 
ATOM      2  O2  L7O d   1      36.137  51.129  14.690  0.00  0.00    -0.268 OA
ATOM      3  C7  L7O d   1      35.322  50.551  13.962  0.00  0.00     0.252 C 
ATOM      4  H5  L7O d   1      34.914  49.595  12.216  0.00  0.00     0.164 HD
ENDROOT
BRANCH   3   5
ATOM      5  C17 L7O d   1      33.920  50.396  14.342  0.00  0.00     0.032 A 
ATOM      6  C6  L7O d   1      33.041  49.647  13.503  0.00  0.00    -0.066 A 
ATOM      7  C21 L7O d   1      31.666  49.527  13.844  0.00  0.00    -0.061 A 
ATOM      8  H13 L7O d   1      33.421  49.170  12.607  0.00  0.00     0.085 H 
ATOM      9  C20 L7O d   1      31.134  50.232  14.982  0.00  0.00     0.010 A 
ATOM     10  H21 L7O d   1      31.015  48.902  13.244  0.00  0.00     0.086 H 
ATOM     11  C19 L7O d   1      32.019  50.981  15.833  0.00  0.00    -0.061 A 
ATOM     12  C18 L7O d   1      33.397  51.100  15.489  0.00  0.00    -0.066 A 
ATOM     13  H20 L7O d   1      31.640  51.453  16.732  0.00  0.00     0.086 H 
ATOM     14  H19 L7O d   1      34.053  51.720  16.089  0.00  0.00     0.085 H 
BRANCH   9  15
ATOM     15  N1  L7O d   1      29.750  50.145  15.290  0.00  0.00    -0.283 NA
ATOM     16  C1  L7O d   1      28.928  50.907  14.301  0.00  0.00    -0.016 C 
ATOM     17  C2  L7O d   1      27.481  51.071  14.876  0.00  0.00    -0.054 C 
ATOM     18  H1  L7O d   1      28.889  50.357  13.349  0.00  0.00     0.056 H 
ATOM     19  H2  L7O d   1      29.375  51.898  14.133  0.00  0.00     0.056 H 
ATOM     20  C3  L7O d   1      26.851  49.688  15.227  0.00  0.00    -0.063 C 
ATOM     21  H3  L7O d   1      26.852  51.571  14.125  0.00  0.00     0.034 H 
ATOM     22  H4  L7O d   1      27.525  51.686  15.787  0.00  0.00     0.034 H 
ATOM     23  C4  L7O d   1      27.802  48.847  16.129  0.00  0.00    -0.054 C 
ATOM     24  H6  L7O d   1      26.658  49.135  14.296  0.00  0.00     0.033 H 
ATOM     25  H7  L7O d   1      25.903  49.851  15.760  0.00  0.00     0.033 H 
ATOM     26  C5  L7O d   1      29.233  48.767  15.527  0.00  0.00    -0.016 C 
ATOM     27  H8  L7O d   1      27.397  47.829  16.224  0.00  0.00     0.034 H 
ATOM     28  H9  L7O d   1      27.858  49.314  17.123  0.00  0.00     0.034 H 
ATOM     29  H11 L7O d   1      29.897  48.242  16.229  0.00  0.00     0.056 H 
ATOM     30  H12 L7O d   1      29.200  48.219  14.574  0.00  0.00     0.056 H 
ENDBRANCH   9  15
ENDBRANCH   3   5
BRANCH   1  31
ATOM     31  C11 L7O d   1      37.007  50.000  12.252  0.00  0.00     0.109 A 
ATOM     32  C10 L7O d   1      38.159  50.715  12.799  0.00  0.00    -0.059 A 
ATOM     33  C9  L7O d   1      39.475  50.529  12.167  0.00  0.00     0.010 A 
ATOM     34  H15 L7O d   1      38.045  51.373  13.659  0.00  0.00     0.082 H 
ATOM     35  C8  L7O d   1      39.587  49.697  10.945  0.00  0.00     0.018 A 
ATOM     36  N3  L7O d   1      38.450  49.074  10.448  0.00  0.00    -0.224 NA
ATOM     37  H14 L7O d   1      40.547  49.576  10.445  0.00  0.00     0.116 H 
ATOM     38  C12 L7O d   1      37.223  49.194  11.040  0.00  0.00     0.269 A 
ATOM     39  O1  L7O d   1      36.204  48.649  10.627  0.00  0.00    -0.269 OA
ATOM     40  H16 L7O d   1      37.243  49.146  12.903  0.00  0.00     0.094 H 
BRANCH  33  41
ATOM     41  C15 L7O d   1      40.630  51.229  12.718  0.00  0.00     0.088 A 
ATOM     42  N6  L7O d   1      41.853  50.730  12.336  0.00  0.00    -0.062 NA
ATOM     43  C14 L7O d   1      42.986  51.287  12.854  0.00  0.00     0.722 A 
ATOM     44  N5  L7O d   1      42.931  52.311  13.759  0.00  0.00    -0.075 NA
ATOM     45  C13 L7O d   1      41.733  52.832  14.150  0.00  0.00     0.023 A 
ATOM     46  C16 L7O d   1      40.523  52.308  13.656  0.00  0.00    -0.036 A 
ATOM     47  H17 L7O d   1      41.712  53.660  14.850  0.00  0.00     0.115 H 
ATOM     48  H18 L7O d   1      39.562  52.700  13.968  0.00  0.00     0.089 H 
BRANCH  43  49
ATOM     49  N4  L7O d   1      44.269  50.790  12.494  0.00  0.00    -0.227 N 
ATOM     50  H10 L7O d   1      45.138  51.089  12.959  0.00  0.00     0.177 HD
BRANCH  49  51
ATOM     51  C22 L7O d   1      44.243  49.808  11.395  0.00  0.00    -0.005 C 
ATOM     52  H22 L7O d   1      45.268  49.474  11.178  0.00  0.00     0.057 H 
ATOM     53  H23 L7O d   1      43.811  50.274  10.497  0.00  0.00     0.057 H 
ATOM     54  H24 L7O d   1      43.630  48.943  11.690  0.00  0.00     0.057 H 
ENDBRANCH  49  51
ENDBRANCH  43  49
ENDBRANCH  33  41
ENDBRANCH   1  31
TORSDOF 6
