REMARK  18 active torsions:
REMARK  status: ('A' for Active; 'I' for Inactive)
REMARK    1  A    between atoms: N1_2  and  C5_16 
REMARK    2  A    between atoms: S1_4  and  N5_17 
REMARK    3  A    between atoms: C26_41  and  S1_4 
REMARK    4  A    between atoms: C18_33  and  N2_7 
REMARK    5  A    between atoms: C37_52  and  S2_9 
REMARK    6  A    between atoms: S2_9  and  C38_53 
REMARK    7  A    between atoms: C5_16  and  C6_18 
REMARK    8  A    between atoms: N5_17  and  C25_40 
REMARK    9  A    between atoms: C28_43  and  N6_19 
REMARK   10  A    between atoms: N7_21  and  C29_44 
REMARK   11  A    between atoms: C32_47  and  N7_21 
REMARK   12  A    between atoms: C34_49  and  N8_23 
REMARK   13  A    between atoms: N8_23  and  C35_50 
REMARK   14  A    between atoms: N8_23  and  C36_51 
REMARK   15  A    between atoms: C11_26  and  C12_27 
REMARK   16  A    between atoms: C33_48  and  C32_47 
REMARK   17  A    between atoms: C32_47  and  C37_52 
REMARK   18  A    between atoms: C33_48  and  C34_49 
ROOT
ATOM      1  N3  HI0 d   1     -11.361 -12.760  13.972  0.00  0.00    -0.241 NA
ATOM      2  N4  HI0 d   1     -11.679 -10.720  12.847  0.00  0.00    -0.223 NA
ATOM      3  C18 HI0 d   1     -12.307 -15.708  11.984  0.00  0.00     0.032 A 
ATOM      4  C19 HI0 d   1     -11.851 -14.910  13.051  0.00  0.00    -0.029 A 
ATOM      5  C20 HI0 d   1     -12.735 -15.080  10.812  0.00  0.00    -0.056 A 
ATOM      6  C21 HI0 d   1     -12.706 -13.692  10.700  0.00  0.00    -0.065 A 
ATOM      7  C22 HI0 d   1     -12.233 -12.910  11.762  0.00  0.00     0.039 A 
ATOM      8  C23 HI0 d   1     -11.807 -13.517  12.943  0.00  0.00     0.074 A 
ATOM      9  C24 HI0 d   1     -11.294 -11.411  13.932  0.00  0.00     0.089 A 
ATOM     10  C25 HI0 d   1     -12.171 -11.460  11.683  0.00  0.00     0.151 A 
ATOM     11  H23 HI0 d   1     -11.529 -15.384  13.971  0.00  0.00     0.090 H 
ATOM     12  H24 HI0 d   1     -13.093 -15.678   9.982  0.00  0.00     0.086 H 
ATOM     13  H25 HI0 d   1     -13.050 -13.216   9.789  0.00  0.00     0.085 H 
ATOM     14  H26 HI0 d   1     -10.921 -10.874  14.796  0.00  0.00     0.146 H 
ENDROOT
BRANCH  10  15
ATOM     15  N5  HI0 d   1     -12.600 -10.790  10.479  0.00  0.00    -0.263 N 
ATOM     16  H12 HI0 d   1     -13.101 -11.324   9.798  0.00  0.00     0.180 HD
BRANCH  15  17
ATOM     17  S1  HI0 d   1     -12.318  -9.212  10.158  0.00  0.00     0.264 S 
ATOM     18  O1  HI0 d   1     -12.983  -8.453  11.167  0.00  0.00    -0.200 OA
ATOM     19  O2  HI0 d   1     -12.701  -9.015   8.795  0.00  0.00    -0.200 OA
BRANCH  17  20
ATOM     20  C26 HI0 d   1     -10.673  -8.972  10.261  0.00  0.00     0.082 A 
ATOM     21  C27 HI0 d   1      -9.863  -9.275   9.173  0.00  0.00    -0.026 A 
ATOM     22  C28 HI0 d   1      -8.476  -9.101   9.194  0.00  0.00     0.130 A 
ATOM     23  H27 HI0 d   1     -10.325  -9.662   8.272  0.00  0.00     0.089 H 
ATOM     24  C29 HI0 d   1      -7.847  -8.598  10.349  0.00  0.00     0.061 A 
ATOM     25  C30 HI0 d   1      -8.656  -8.290  11.450  0.00  0.00    -0.054 A 
ATOM     26  C31 HI0 d   1     -10.045  -8.474  11.410  0.00  0.00    -0.058 A 
ATOM     27  H28 HI0 d   1      -8.198  -7.901  12.352  0.00  0.00     0.087 H 
ATOM     28  H29 HI0 d   1     -10.642  -8.227  12.281  0.00  0.00     0.086 H 
BRANCH  22  29
ATOM     29  N6  HI0 d   1      -7.796  -9.445   8.056  0.00  0.00    -0.113 N 
ATOM     30  O3  HI0 d   1      -8.380  -9.877   7.072  0.00  0.00    -0.532 OA
ATOM     31  O4  HI0 d   1      -6.584  -9.330   7.945  0.00  0.00    -0.532 OA
ENDBRANCH  22  29
BRANCH  24  32
ATOM     32  N7  HI0 d   1      -6.481  -8.423  10.396  0.00  0.00    -0.383 N 
ATOM     33  H14 HI0 d   1      -5.987  -8.400   9.492  0.00  0.00     0.160 HD
BRANCH  32  34
ATOM     34  C32 HI0 d   1      -5.651  -8.265  11.610  0.00  0.00     0.019 C 
ATOM     35  H30 HI0 d   1      -6.143  -7.477  12.199  0.00  0.00     0.073 H 
BRANCH  34  36
ATOM     36  C33 HI0 d   1      -4.204  -7.803  11.342  0.00  0.00    -0.023 C 
ATOM     37  H31 HI0 d   1      -3.589  -8.703  11.193  0.00  0.00     0.038 H 
ATOM     38  H32 HI0 d   1      -3.855  -7.264  12.235  0.00  0.00     0.038 H 
BRANCH  36  39
ATOM     39  C34 HI0 d   1      -3.988  -6.886  10.131  0.00  0.00     0.085 C 
ATOM     40  H33 HI0 d   1      -3.363  -7.418   9.399  0.00  0.00     0.076 H 
ATOM     41  H34 HI0 d   1      -4.968  -6.663   9.684  0.00  0.00     0.076 H 
BRANCH  39  42
ATOM     42  N8  HI0 d   1      -3.326  -5.607  10.470  0.00  0.00    -0.079 N 
ATOM     43  H16 HI0 d   1      -3.923  -5.096  11.101  0.00  0.00     0.278 HD
BRANCH  42  44
ATOM     44  C35 HI0 d   1      -3.118  -4.823   9.244  0.00  0.00     0.066 C 
ATOM     45  H35 HI0 d   1      -2.626  -3.872   9.496  0.00  0.00     0.068 H 
ATOM     46  H36 HI0 d   1      -4.089  -4.619   8.770  0.00  0.00     0.068 H 
ATOM     47  H37 HI0 d   1      -2.483  -5.391   8.549  0.00  0.00     0.068 H 
ENDBRANCH  42  44
BRANCH  42  48
ATOM     48  C36 HI0 d   1      -2.009  -5.791  11.102  0.00  0.00     0.066 C 
ATOM     49  H38 HI0 d   1      -2.124  -6.376  12.027  0.00  0.00     0.068 H 
ATOM     50  H39 HI0 d   1      -1.577  -4.808  11.341  0.00  0.00     0.068 H 
ATOM     51  H40 HI0 d   1      -1.342  -6.327  10.410  0.00  0.00     0.068 H 
ENDBRANCH  42  48
ENDBRANCH  39  42
ENDBRANCH  36  39
ENDBRANCH  34  36
BRANCH  34  52
ATOM     52  C37 HI0 d   1      -5.539  -9.499  12.517  0.00  0.00     0.000 C 
ATOM     53  H41 HI0 d   1      -4.774  -9.293  13.280  0.00  0.00     0.052 H 
ATOM     54  H42 HI0 d   1      -6.512  -9.653  13.006  0.00  0.00     0.052 H 
BRANCH  52  55
ATOM     55  S2  HI0 d   1      -5.098 -10.998  11.688  0.00  0.00    -0.128 SA
BRANCH  55  56
ATOM     56  C38 HI0 d   1      -6.492 -11.808  11.163  0.00  0.00     0.000 A 
ATOM     57  C39 HI0 d   1      -7.536 -12.030  12.065  0.00  0.00    -0.067 A 
ATOM     58  C40 HI0 d   1      -8.683 -12.700  11.635  0.00  0.00    -0.082 A 
ATOM     59  H43 HI0 d   1      -7.456 -11.685  13.089  0.00  0.00     0.085 H 
ATOM     60  C41 HI0 d   1      -8.775 -13.135  10.316  0.00  0.00    -0.083 A 
ATOM     61  H44 HI0 d   1      -9.499 -12.881  12.326  0.00  0.00     0.083 H 
ATOM     62  C42 HI0 d   1      -7.742 -12.907   9.414  0.00  0.00    -0.082 A 
ATOM     63  H45 HI0 d   1      -9.665 -13.659   9.987  0.00  0.00     0.083 H 
ATOM     64  C43 HI0 d   1      -6.592 -12.245   9.839  0.00  0.00    -0.067 A 
ATOM     65  H46 HI0 d   1      -7.831 -13.242   8.387  0.00  0.00     0.083 H 
ATOM     66  H47 HI0 d   1      -5.778 -12.069   9.145  0.00  0.00     0.085 H 
ENDBRANCH  55  56
ENDBRANCH  52  55
ENDBRANCH  34  52
ENDBRANCH  32  34
ENDBRANCH  24  32
ENDBRANCH  17  20
ENDBRANCH  15  17
ENDBRANCH  10  15
BRANCH   3  67
ATOM     67  N2  HI0 d   1     -12.339 -17.067  12.098  0.00  0.00    -0.378 N 
ATOM     68  C3  HI0 d   1     -12.031 -17.682  13.402  0.00  0.00     0.018 C 
ATOM     69  C2  HI0 d   1     -11.686 -19.172  13.334  0.00  0.00     0.098 C 
ATOM     70  H6  HI0 d   1     -11.173 -17.150  13.839  0.00  0.00     0.066 H 
ATOM     71  H7  HI0 d   1     -12.908 -17.562  14.055  0.00  0.00     0.066 H 
ATOM     72  N1  HI0 d   1     -12.582 -19.859  12.380  0.00  0.00    -0.064 N 
ATOM     73  H4  HI0 d   1     -10.644 -19.289  13.003  0.00  0.00     0.078 H 
ATOM     74  H5  HI0 d   1     -11.806 -19.619  14.332  0.00  0.00     0.078 H 
ATOM     75  C1  HI0 d   1     -12.430 -19.244  11.038  0.00  0.00     0.098 C 
ATOM     76  H3  HI0 d   1     -13.534 -19.724  12.683  0.00  0.00     0.280 HD
ATOM     77  C4  HI0 d   1     -13.025 -17.846  11.062  0.00  0.00     0.018 C 
ATOM     78  H1  HI0 d   1     -12.957 -19.856  10.291  0.00  0.00     0.078 H 
ATOM     79  H2  HI0 d   1     -11.363 -19.186  10.778  0.00  0.00     0.078 H 
ATOM     80  H8  HI0 d   1     -14.099 -17.904  11.291  0.00  0.00     0.066 H 
ATOM     81  H9  HI0 d   1     -12.884 -17.366  10.082  0.00  0.00     0.066 H 
BRANCH  72  82
ATOM     82  C5  HI0 d   1     -12.315 -21.309  12.356  0.00  0.00     0.108 C 
ATOM     83  H10 HI0 d   1     -12.542 -21.733  13.345  0.00  0.00     0.083 H 
ATOM     84  H11 HI0 d   1     -11.254 -21.476  12.120  0.00  0.00     0.083 H 
BRANCH  82  85
ATOM     85  C6  HI0 d   1     -13.178 -22.008  11.301  0.00  0.00    -0.021 A 
ATOM     86  C7  HI0 d   1     -14.576 -22.010  11.456  0.00  0.00    -0.074 A 
ATOM     87  C8  HI0 d   1     -15.399 -22.624  10.509  0.00  0.00    -0.082 A 
ATOM     88  H13 HI0 d   1     -15.020 -21.529  12.320  0.00  0.00     0.084 H 
ATOM     89  C9  HI0 d   1     -14.834 -23.241   9.399  0.00  0.00    -0.082 A 
ATOM     90  H15 HI0 d   1     -16.475 -22.619  10.639  0.00  0.00     0.083 H 
ATOM     91  C10 HI0 d   1     -13.445 -23.246   9.235  0.00  0.00    -0.072 A 
ATOM     92  H17 HI0 d   1     -15.469 -23.718   8.661  0.00  0.00     0.083 H 
ATOM     93  C11 HI0 d   1     -12.607 -22.636  10.179  0.00  0.00    -0.018 A 
ATOM     94  H18 HI0 d   1     -13.011 -23.728   8.367  0.00  0.00     0.084 H 
BRANCH  93  95
ATOM     95  C12 HI0 d   1     -11.222 -22.663   9.970  0.00  0.00    -0.025 A 
ATOM     96  C13 HI0 d   1     -10.674 -22.036   8.843  0.00  0.00    -0.071 A 
ATOM     97  C14 HI0 d   1      -9.314 -22.187   8.549  0.00  0.00    -0.061 A 
ATOM     98  H19 HI0 d   1     -11.304 -21.434   8.198  0.00  0.00     0.084 H 
ATOM     99  C15 HI0 d   1      -8.493 -22.970   9.366  0.00  0.00     0.034 A 
ATOM    100  H20 HI0 d   1      -8.894 -21.693   7.681  0.00  0.00     0.086 H 
ATOM    101 CL1  HI0 d   1      -6.744 -23.154   8.978  0.00  0.00    -0.084 Cl
ATOM    102  C16 HI0 d   1      -9.036 -23.599  10.494  0.00  0.00    -0.061 A 
ATOM    103  C17 HI0 d   1     -10.395 -23.448  10.792  0.00  0.00    -0.071 A 
ATOM    104  H21 HI0 d   1      -8.404 -24.202  11.136  0.00  0.00     0.086 H 
ATOM    105  H22 HI0 d   1     -10.813 -23.940  11.663  0.00  0.00     0.084 H 
ENDBRANCH  93  95
ENDBRANCH  82  85
ENDBRANCH  72  82
ENDBRANCH   3  67
TORSDOF 18
