REMARK  15 active torsions:
REMARK  status: ('A' for Active; 'I' for Inactive)
REMARK    1  A    between atoms: C1_1  and  C2_4 
REMARK    2  A    between atoms: C2_4  and  C3_5 
REMARK    3  A    between atoms: C3_5  and  C4_6 
REMARK    4  A    between atoms: C4_6  and  C5_7 
REMARK    5  A    between atoms: C5_7  and  C6_8 
REMARK    6  A    between atoms: C6_8  and  C7_9 
REMARK    7  A    between atoms: C7_9  and  C8_10 
REMARK    8  A    between atoms: C8_10  and  C9_11 
REMARK    9  A    between atoms: C9_11  and  CA_12 
REMARK   10  A    between atoms: CA_12  and  CB_13 
REMARK   11  A    between atoms: CB_13  and  CC_14 
REMARK   12  A    between atoms: CC_14  and  CD_15 
REMARK   13  A    between atoms: CD_15  and  CE_16 
REMARK   14  A    between atoms: CE_16  and  CF_17 
REMARK   15  A    between atoms: CF_17  and  CG_18 
ROOT
ATOM      1  C9  PLM d   1     -36.086  17.212  -8.537  0.00  0.00    -0.065 C 
ATOM      2  H15 PLM d   1     -36.900  16.495  -8.356  0.00  0.00     0.033 H 
ATOM      3  H16 PLM d   1     -35.499  16.888  -9.409  0.00  0.00     0.033 H 
ENDROOT
BRANCH   1   4
ATOM      4  C8  PLM d   1     -35.132  17.175  -7.281  0.00  0.00    -0.065 C 
ATOM      5  H13 PLM d   1     -35.760  17.335  -6.392  0.00  0.00     0.033 H 
ATOM      6  H14 PLM d   1     -34.688  16.169  -7.240  0.00  0.00     0.033 H 
BRANCH   4   7
ATOM      7  C7  PLM d   1     -33.956  18.200  -7.204  0.00  0.00    -0.065 C 
ATOM      8  H11 PLM d   1     -34.298  19.151  -7.638  0.00  0.00     0.033 H 
ATOM      9  H12 PLM d   1     -33.698  18.351  -6.145  0.00  0.00     0.033 H 
BRANCH   7  10
ATOM     10  C6  PLM d   1     -32.685  17.756  -7.953  0.00  0.00    -0.065 C 
ATOM     11  H9  PLM d   1     -31.862  17.671  -7.229  0.00  0.00     0.033 H 
ATOM     12  H10 PLM d   1     -32.872  16.774  -8.413  0.00  0.00     0.033 H 
BRANCH  10  13
ATOM     13  C5  PLM d   1     -32.267  18.750  -9.062  0.00  0.00    -0.065 C 
ATOM     14  H7  PLM d   1     -32.438  19.777  -8.709  0.00  0.00     0.033 H 
ATOM     15  H8  PLM d   1     -31.199  18.613  -9.286  0.00  0.00     0.033 H 
BRANCH  13  16
ATOM     16  C4  PLM d   1     -33.089  18.513 -10.350  0.00  0.00    -0.065 C 
ATOM     17  H5  PLM d   1     -34.142  18.343 -10.080  0.00  0.00     0.033 H 
ATOM     18  H6  PLM d   1     -33.014  19.401 -10.994  0.00  0.00     0.033 H 
BRANCH  16  19
ATOM     19  C3  PLM d   1     -32.568  17.307 -11.104  0.00  0.00    -0.056 C 
ATOM     20  H3  PLM d   1     -31.688  16.897 -10.588  0.00  0.00     0.033 H 
ATOM     21  H4  PLM d   1     -33.351  16.537 -11.162  0.00  0.00     0.033 H 
BRANCH  19  22
ATOM     22  C2  PLM d   1     -32.185  17.751 -12.493  0.00  0.00     0.016 C 
ATOM     23  H1  PLM d   1     -32.940  17.398 -13.211  0.00  0.00     0.049 H 
ATOM     24  H2  PLM d   1     -32.133  18.849 -12.525  0.00  0.00     0.049 H 
BRANCH  22  25
ATOM     25  C1  PLM d   1     -30.827  17.169 -12.858  0.00  0.00     0.172 C 
ATOM     26  O1  PLM d   1     -30.818  15.972 -13.261  0.00  0.00    -0.648 OA
ATOM     27  O2  PLM d   1     -29.833  17.937 -12.733  0.00  0.00    -0.648 OA
ENDBRANCH  22  25
ENDBRANCH  19  22
ENDBRANCH  16  19
ENDBRANCH  13  16
ENDBRANCH  10  13
ENDBRANCH   7  10
ENDBRANCH   4   7
ENDBRANCH   1   4
BRANCH   1  28
ATOM     28  CA  PLM d   1     -36.730  18.567  -8.889  0.00  0.00    -0.065 C 
ATOM     29  H17 PLM d   1     -36.342  18.916  -9.857  0.00  0.00     0.033 H 
ATOM     30  H18 PLM d   1     -36.483  19.302  -8.109  0.00  0.00     0.033 H 
BRANCH  28  31
ATOM     31  CB  PLM d   1     -38.238  18.412  -8.977  0.00  0.00    -0.065 C 
ATOM     32  H19 PLM d   1     -38.485  17.857  -9.894  0.00  0.00     0.033 H 
ATOM     33  H20 PLM d   1     -38.696  19.411  -9.019  0.00  0.00     0.033 H 
BRANCH  31  34
ATOM     34  CC  PLM d   1     -38.806  17.660  -7.778  0.00  0.00    -0.065 C 
ATOM     35  H21 PLM d   1     -38.753  16.582  -7.993  0.00  0.00     0.033 H 
ATOM     36  H22 PLM d   1     -39.858  17.958  -7.654  0.00  0.00     0.033 H 
BRANCH  34  37
ATOM     37  CD  PLM d   1     -38.072  17.921  -6.444  0.00  0.00    -0.065 C 
ATOM     38  H23 PLM d   1     -37.436  17.050  -6.227  0.00  0.00     0.033 H 
ATOM     39  H24 PLM d   1     -38.828  18.029  -5.653  0.00  0.00     0.033 H 
BRANCH  37  40
ATOM     40  CE  PLM d   1     -37.182  19.179  -6.431  0.00  0.00    -0.065 C 
ATOM     41  H25 PLM d   1     -37.757  20.012  -5.999  0.00  0.00     0.033 H 
ATOM     42  H26 PLM d   1     -36.904  19.424  -7.467  0.00  0.00     0.033 H 
BRANCH  40  43
ATOM     43  CF  PLM d   1     -35.915  18.994  -5.621  0.00  0.00    -0.069 C 
ATOM     44  H27 PLM d   1     -35.499  19.983  -5.379  0.00  0.00     0.032 H 
ATOM     45  H28 PLM d   1     -35.188  18.427  -6.221  0.00  0.00     0.032 H 
BRANCH  43  46
ATOM     46  CG  PLM d   1     -36.176  18.244  -4.332  0.00  0.00    -0.077 C 
ATOM     47  H29 PLM d   1     -35.234  18.132  -3.776  0.00  0.00     0.027 H 
ATOM     48  H30 PLM d   1     -36.586  17.250  -4.563  0.00  0.00     0.027 H 
ATOM     49  H31 PLM d   1     -36.898  18.806  -3.721  0.00  0.00     0.027 H 
ENDBRANCH  43  46
ENDBRANCH  40  43
ENDBRANCH  37  40
ENDBRANCH  34  37
ENDBRANCH  31  34
ENDBRANCH  28  31
ENDBRANCH   1  28
TORSDOF 15
