REMARK  10 active torsions:
REMARK  status: ('A' for Active; 'I' for Inactive)
REMARK    1  A    between atoms: N_1  and  CA_2 
REMARK    2  A    between atoms: CA_2  and  CB_3 
REMARK    3  A    between atoms: CA_2  and  C_6 
REMARK    4  A    between atoms: CB_3  and  CG_4 
REMARK    5  A    between atoms: CG_4  and  SD_5 
REMARK    6  A    between atoms: SD_5  and  C5'_9 
REMARK    7  A    between atoms: C5'_9  and  C4'_10 
REMARK    8  A    between atoms: C3'_12  and  O3'_13 
REMARK    9  A    between atoms: C2'_14  and  O2'_15 
REMARK   10  A    between atoms: C1'_16  and  N9_17 
ROOT
ATOM      1  C4' SAH d   1      44.138  50.863   6.241  0.00  0.00     0.076 C 
ATOM      2  O4' SAH d   1      44.605  49.515   6.344  0.00  0.00    -0.355 OA
ATOM      3  C3' SAH d   1      43.954  51.352   7.682  0.00  0.00     0.090 C 
ATOM      4  C2' SAH d   1      44.417  50.191   8.549  0.00  0.00     0.105 C 
ATOM      5  C1' SAH d   1      44.175  49.034   7.614  0.00  0.00     0.139 C 
ATOM      6  H11 SAH d   1      43.173  50.901   5.714  0.00  0.00     0.088 H 
ATOM      7  H12 SAH d   1      44.545  52.259   7.875  0.00  0.00     0.091 H 
ATOM      8  H14 SAH d   1      45.472  50.288   8.844  0.00  0.00     0.093 H 
ATOM      9  H16 SAH d   1      43.100  48.805   7.576  0.00  0.00     0.122 H 
ENDROOT
BRANCH   1  10
ATOM     10  C5' SAH d   1      45.171  51.663   5.449  0.00  0.00     0.003 C 
ATOM     11  H9  SAH d   1      46.045  51.862   6.086  0.00  0.00     0.052 H 
ATOM     12  H10 SAH d   1      45.484  51.084   4.568  0.00  0.00     0.052 H 
BRANCH  10  13
ATOM     13  SD  SAH d   1      44.465  53.198   4.923  0.00  0.00    -0.166 SA
BRANCH  13  14
ATOM     14  CG  SAH d   1      43.807  52.857   3.314  0.00  0.00    -0.021 C 
ATOM     15  H7  SAH d   1      44.214  53.584   2.595  0.00  0.00     0.049 H 
ATOM     16  H8  SAH d   1      44.098  51.840   3.012  0.00  0.00     0.049 H 
BRANCH  14  17
ATOM     17  CB  SAH d   1      42.276  52.961   3.326  0.00  0.00    -0.021 C 
ATOM     18  H5  SAH d   1      41.888  52.212   4.032  0.00  0.00     0.037 H 
ATOM     19  H6  SAH d   1      42.005  53.968   3.674  0.00  0.00     0.037 H 
BRANCH  17  20
ATOM     20  CA  SAH d   1      41.595  52.727   1.956  0.00  0.00     0.183 C 
ATOM     21  H4  SAH d   1      40.510  52.853   2.089  0.00  0.00     0.101 H 
BRANCH  20  22
ATOM     22  N   SAH d   1      41.856  51.336   1.443  0.00  0.00    -0.065 N 
ATOM     23  H1  SAH d   1      41.542  50.662   2.124  0.00  0.00     0.275 HD
ATOM     24  H2  SAH d   1      42.844  51.217   1.283  0.00  0.00     0.275 HD
ATOM     25  H3  SAH d   1      41.357  51.197   0.579  0.00  0.00     0.275 HD
ENDBRANCH  20  22
BRANCH  20  26
ATOM     26  C   SAH d   1      42.071  53.724   0.924  0.00  0.00     0.204 C 
ATOM     27  O   SAH d   1      41.541  54.835   0.783  0.00  0.00    -0.646 OA
ATOM     28  OXT SAH d   1      43.014  53.445   0.185  0.00  0.00    -0.646 OA
ENDBRANCH  20  26
ENDBRANCH  17  20
ENDBRANCH  14  17
ENDBRANCH  13  14
ENDBRANCH  10  13
ENDBRANCH   1  10
BRANCH   3  29
ATOM     29  O3' SAH d   1      42.565  51.595   7.937  0.00  0.00    -0.390 OA
ATOM     30  H13 SAH d   1      42.076  50.790   7.812  0.00  0.00     0.210 HD
ENDBRANCH   3  29
BRANCH   5  31
ATOM     31  N9  SAH d   1      44.882  47.821   8.042  0.00  0.00    -0.294 N 
ATOM     32  C8  SAH d   1      46.178  47.738   8.447  0.00  0.00     0.071 A 
ATOM     33  N7  SAH d   1      46.474  46.462   8.767  0.00  0.00    -0.236 NA
ATOM     34  H17 SAH d   1      46.872  48.576   8.504  0.00  0.00     0.144 H 
ATOM     35  C5  SAH d   1      45.367  45.706   8.577  0.00  0.00     0.149 A 
ATOM     36  C6  SAH d   1      44.995  44.272   8.731  0.00  0.00     0.155 A 
ATOM     37  C4  SAH d   1      44.317  46.614   8.089  0.00  0.00     0.167 A 
ATOM     38  N6  SAH d   1      45.893  43.358   9.177  0.00  0.00    -0.382 N 
ATOM     39  N1  SAH d   1      43.722  43.909   8.415  0.00  0.00    -0.222 NA
ATOM     40  H18 SAH d   1      45.617  42.371   9.277  0.00  0.00     0.157 HD
ATOM     41  H19 SAH d   1      46.851  43.651   9.416  0.00  0.00     0.157 HD
ATOM     42  C2  SAH d   1      42.815  44.809   7.968  0.00  0.00     0.091 A 
ATOM     43  N3  SAH d   1      43.087  46.119   7.816  0.00  0.00    -0.222 NA
ATOM     44  H20 SAH d   1      41.820  44.458   7.720  0.00  0.00     0.146 H 
ENDBRANCH   5  31
BRANCH   4  45
ATOM     45  O2' SAH d   1      43.589  50.031   9.696  0.00  0.00    -0.388 OA
ATOM     46  H15 SAH d   1      42.696  49.862   9.419  0.00  0.00     0.210 HD
ENDBRANCH   4  45
TORSDOF 10
