REMARK  10 active torsions:
REMARK  status: ('A' for Active; 'I' for Inactive)
REMARK    1  A    between atoms: C3_3  and  O3_4 
REMARK    2  A    between atoms: C7_8  and  O7_9 
REMARK    3  A    between atoms: C10_12  and  C19_22 
REMARK    4  A    between atoms: C12_14  and  O12_15 
REMARK    5  A    between atoms: C13_16  and  C18_21 
REMARK    6  A    between atoms: C17_20  and  C20_23 
REMARK    7  A    between atoms: C20_23  and  C21_24 
REMARK    8  A    between atoms: C20_23  and  C22_25 
REMARK    9  A    between atoms: C22_25  and  C23_26 
REMARK   10  A    between atoms: C23_26  and  C24_28 
ROOT
ATOM      1  C1  CHD d   1      -9.118  -4.958 -15.746  0.00  0.00    -0.055 C 
ATOM      2  C2  CHD d   1      -8.286  -5.661 -16.805  0.00  0.00    -0.040 C 
ATOM      3  C3  CHD d   1      -7.272  -4.661 -17.314  0.00  0.00     0.036 C 
ATOM      4  C4  CHD d   1      -6.601  -3.966 -16.129  0.00  0.00    -0.037 C 
ATOM      5  C5  CHD d   1      -6.837  -4.594 -14.747  0.00  0.00    -0.042 C 
ATOM      6  C6  CHD d   1      -6.204  -3.696 -13.679  0.00  0.00    -0.037 C 
ATOM      7  C7  CHD d   1      -6.759  -3.990 -12.284  0.00  0.00     0.040 C 
ATOM      8  C8  CHD d   1      -8.258  -3.668 -12.211  0.00  0.00    -0.021 C 
ATOM      9  C9  CHD d   1      -8.844  -3.685 -13.621  0.00  0.00    -0.038 C 
ATOM     10  C10 CHD d   1      -8.317  -4.848 -14.456  0.00  0.00    -0.036 C 
ATOM     11  C11 CHD d   1     -10.369  -3.657 -13.562  0.00  0.00    -0.036 C 
ATOM     12  C12 CHD d   1     -10.920  -2.405 -12.849  0.00  0.00     0.043 C 
ATOM     13  C13 CHD d   1     -10.163  -2.113 -11.529  0.00  0.00    -0.010 C 
ATOM     14  C14 CHD d   1      -8.650  -2.308 -11.626  0.00  0.00    -0.038 C 
ATOM     15  C15 CHD d   1      -8.209  -1.931 -10.217  0.00  0.00    -0.060 C 
ATOM     16  C16 CHD d   1      -9.118  -0.725  -9.906  0.00  0.00    -0.060 C 
ATOM     17  C17 CHD d   1     -10.224  -0.691 -10.969  0.00  0.00    -0.041 C 
ATOM     18  H1  CHD d   1     -10.036  -5.535 -15.559  0.00  0.00     0.034 H 
ATOM     19  H2  CHD d   1      -9.384  -3.951 -16.099  0.00  0.00     0.034 H 
ATOM     20  H3  CHD d   1      -8.931  -5.996 -17.630  0.00  0.00     0.036 H 
ATOM     21  H4  CHD d   1      -7.772  -6.529 -16.366  0.00  0.00     0.036 H 
ATOM     22  H5  CHD d   1      -6.511  -5.171 -17.923  0.00  0.00     0.082 H 
ATOM     23  H7  CHD d   1      -6.972  -2.931 -16.094  0.00  0.00     0.037 H 
ATOM     24  H8  CHD d   1      -5.517  -3.961 -16.314  0.00  0.00     0.037 H 
ATOM     25  H9  CHD d   1      -6.325  -5.567 -14.725  0.00  0.00     0.041 H 
ATOM     26  H10 CHD d   1      -6.411  -2.645 -13.930  0.00  0.00     0.037 H 
ATOM     27  H11 CHD d   1      -5.117  -3.864 -13.672  0.00  0.00     0.037 H 
ATOM     28  H12 CHD d   1      -6.639  -5.066 -12.092  0.00  0.00     0.083 H 
ATOM     29  H14 CHD d   1      -8.733  -4.452 -11.602  0.00  0.00     0.045 H 
ATOM     30  H15 CHD d   1      -8.519  -2.760 -14.121  0.00  0.00     0.042 H 
ATOM     31  H16 CHD d   1     -10.716  -4.550 -13.021  0.00  0.00     0.037 H 
ATOM     32  H17 CHD d   1     -10.760  -3.676 -14.590  0.00  0.00     0.037 H 
ATOM     33  H18 CHD d   1     -11.951  -2.651 -12.554  0.00  0.00     0.084 H 
ATOM     34  H20 CHD d   1      -8.234  -1.560 -12.317  0.00  0.00     0.042 H 
ATOM     35  H21 CHD d   1      -7.147  -1.647 -10.194  0.00  0.00     0.033 H 
ATOM     36  H22 CHD d   1      -8.384  -2.755  -9.510  0.00  0.00     0.033 H 
ATOM     37  H23 CHD d   1      -8.533   0.205  -9.944  0.00  0.00     0.033 H 
ATOM     38  H24 CHD d   1      -9.562  -0.838  -8.906  0.00  0.00     0.033 H 
ATOM     39  H25 CHD d   1      -9.972   0.032 -11.759  0.00  0.00     0.042 H 
ENDROOT
BRANCH  17  40
ATOM     40  C20 CHD d   1     -11.582  -0.288 -10.382  0.00  0.00    -0.053 C 
ATOM     41  H32 CHD d   1     -12.144  -1.215 -10.194  0.00  0.00     0.040 H 
BRANCH  40  42
ATOM     42  C21 CHD d   1     -12.404   0.558 -11.360  0.00  0.00    -0.072 C 
ATOM     43  H33 CHD d   1     -13.366   0.822 -10.897  0.00  0.00     0.028 H 
ATOM     44  H34 CHD d   1     -12.585  -0.017 -12.280  0.00  0.00     0.028 H 
ATOM     45  H35 CHD d   1     -11.851   1.476 -11.605  0.00  0.00     0.028 H 
ENDBRANCH  40  42
BRANCH  40  46
ATOM     46  C22 CHD d   1     -11.427   0.436  -9.043  0.00  0.00    -0.053 C 
ATOM     47  H36 CHD d   1     -10.378   0.354  -8.722  0.00  0.00     0.034 H 
ATOM     48  H37 CHD d   1     -12.077  -0.055  -8.304  0.00  0.00     0.034 H 
BRANCH  46  49
ATOM     49  C23 CHD d   1     -11.801   1.922  -9.108  0.00  0.00     0.016 C 
ATOM     50  H38 CHD d   1     -12.173   2.236  -8.122  0.00  0.00     0.049 H 
ATOM     51  H39 CHD d   1     -12.594   2.054  -9.858  0.00  0.00     0.049 H 
BRANCH  49  52
ATOM     52  C24 CHD d   1     -10.622   2.800  -9.486  0.00  0.00     0.172 C 
ATOM     53  O25 CHD d   1      -9.614   2.786  -8.731  0.00  0.00    -0.648 OA
ATOM     54  O26 CHD d   1     -10.913   3.818 -10.154  0.00  0.00    -0.648 OA
ENDBRANCH  49  52
ENDBRANCH  46  49
ENDBRANCH  40  46
ENDBRANCH  17  40
BRANCH  13  55
ATOM     55  C18 CHD d   1     -10.692  -3.047 -10.439  0.00  0.00    -0.066 C 
ATOM     56  H26 CHD d   1     -10.666  -4.085 -10.801  0.00  0.00     0.028 H 
ATOM     57  H27 CHD d   1     -11.728  -2.772 -10.191  0.00  0.00     0.028 H 
ATOM     58  H28 CHD d   1     -10.063  -2.956  -9.541  0.00  0.00     0.028 H 
ENDBRANCH  13  55
BRANCH  12  59
ATOM     59  O12 CHD d   1     -11.030  -1.266 -13.733  0.00  0.00    -0.395 OA
ATOM     60  H19 CHD d   1     -10.172  -1.052 -14.079  0.00  0.00     0.210 HD
ENDBRANCH  12  59
BRANCH   7  61
ATOM     61  O7  CHD d   1      -6.012  -3.284 -11.289  0.00  0.00    -0.395 OA
ATOM     62  H13 CHD d   1      -6.070  -2.350 -11.454  0.00  0.00     0.210 HD
ENDBRANCH   7  61
BRANCH  10  63
ATOM     63  C19 CHD d   1      -8.469  -6.172 -13.702  0.00  0.00    -0.068 C 
ATOM     64  H29 CHD d   1      -8.083  -6.994 -14.323  0.00  0.00     0.028 H 
ATOM     65  H30 CHD d   1      -9.532  -6.348 -13.480  0.00  0.00     0.028 H 
ATOM     66  H31 CHD d   1      -7.901  -6.125 -12.761  0.00  0.00     0.028 H 
ENDBRANCH  10  63
BRANCH   3  67
ATOM     67  O3  CHD d   1      -7.971  -3.698 -18.110  0.00  0.00    -0.396 OA
ATOM     68  H6  CHD d   1      -8.626  -3.263 -17.576  0.00  0.00     0.210 HD
ENDBRANCH   3  67
TORSDOF 10
