REMARK  13 active torsions:
REMARK  status: ('A' for Active; 'I' for Inactive)
REMARK    1  A    between atoms: C3_3  and  O3_4 
REMARK    2  A    between atoms: C7_8  and  O7_9 
REMARK    3  A    between atoms: C10_12  and  C19_22 
REMARK    4  A    between atoms: C12_14  and  O12_15 
REMARK    5  A    between atoms: C13_16  and  C18_21 
REMARK    6  A    between atoms: C17_20  and  C20_23 
REMARK    7  A    between atoms: C20_23  and  C21_24 
REMARK    8  A    between atoms: C20_23  and  C22_25 
REMARK    9  A    between atoms: C22_25  and  C23_26 
REMARK   10  A    between atoms: C23_26  and  C24_27 
REMARK       I    between atoms: C24_27  and  N24_28 
REMARK   11  A    between atoms: N24_28  and  C25_30 
REMARK   12  A    between atoms: C25_30  and  C26_31 
REMARK   13  A    between atoms: C26_31  and  S26_32 
ROOT
ATOM      1  C1  TCH d   1     -10.872 -16.930 -11.691  0.00  0.00    -0.055 C 
ATOM      2  C2  TCH d   1     -12.350 -17.192 -11.960  0.00  0.00    -0.040 C 
ATOM      3  C3  TCH d   1     -13.266 -16.484 -10.985  0.00  0.00     0.036 C 
ATOM      4  C4  TCH d   1     -12.689 -16.673  -9.588  0.00  0.00    -0.037 C 
ATOM      5  C5  TCH d   1     -11.801 -17.876  -9.839  0.00  0.00    -0.042 C 
ATOM      6  C6  TCH d   1     -11.465 -19.010  -8.899  0.00  0.00    -0.037 C 
ATOM      7  C7  TCH d   1     -11.326 -20.157  -9.845  0.00  0.00     0.040 C 
ATOM      8  C8  TCH d   1      -9.890 -20.068  -9.742  0.00  0.00    -0.021 C 
ATOM      9  C9  TCH d   1      -9.534 -18.676 -10.303  0.00  0.00    -0.038 C 
ATOM     10  C10 TCH d   1     -10.483 -17.443 -10.322  0.00  0.00    -0.036 C 
ATOM     11  C11 TCH d   1      -8.032 -18.432 -10.193  0.00  0.00    -0.036 C 
ATOM     12  C12 TCH d   1      -7.211 -19.734 -10.282  0.00  0.00     0.043 C 
ATOM     13  C13 TCH d   1      -7.895 -21.107 -10.565  0.00  0.00    -0.010 C 
ATOM     14  C14 TCH d   1      -9.396 -21.047 -10.727  0.00  0.00    -0.038 C 
ATOM     15  C15 TCH d   1      -9.868 -22.451 -10.867  0.00  0.00    -0.060 C 
ATOM     16  C16 TCH d   1      -8.737 -22.964 -11.779  0.00  0.00    -0.060 C 
ATOM     17  C17 TCH d   1      -7.690 -21.857 -11.871  0.00  0.00    -0.041 C 
ATOM     18  H1  TCH d   1     -10.682 -15.848 -11.739  0.00  0.00     0.034 H 
ATOM     19  H2  TCH d   1     -10.269 -17.443 -12.454  0.00  0.00     0.034 H 
ATOM     20  H3  TCH d   1     -12.532 -18.274 -11.889  0.00  0.00     0.036 H 
ATOM     21  H4  TCH d   1     -12.587 -16.847 -12.977  0.00  0.00     0.036 H 
ATOM     22  H5  TCH d   1     -14.209 -17.050 -10.974  0.00  0.00     0.082 H 
ATOM     23  H7  TCH d   1     -13.473 -16.890  -8.847  0.00  0.00     0.037 H 
ATOM     24  H8  TCH d   1     -12.109 -15.797  -9.262  0.00  0.00     0.037 H 
ATOM     25  H9  TCH d   1     -12.311 -18.375 -10.676  0.00  0.00     0.041 H 
ATOM     26  H10 TCH d   1     -12.274 -19.184  -8.175  0.00  0.00     0.037 H 
ATOM     27  H11 TCH d   1     -10.525 -18.819  -8.360  0.00  0.00     0.037 H 
ATOM     28  H12 TCH d   1     -11.853 -21.091  -9.601  0.00  0.00     0.083 H 
ATOM     29  H14 TCH d   1      -9.508 -20.238  -8.725  0.00  0.00     0.045 H 
ATOM     30  H15 TCH d   1      -9.606 -18.913 -11.375  0.00  0.00     0.042 H 
ATOM     31  H16 TCH d   1      -7.823 -17.950  -9.227  0.00  0.00     0.037 H 
ATOM     32  H17 TCH d   1      -7.723 -17.764 -11.011  0.00  0.00     0.037 H 
ATOM     33  H18 TCH d   1      -6.951 -19.887  -9.224  0.00  0.00     0.084 H 
ATOM     34  H20 TCH d   1      -9.617 -20.587 -11.701  0.00  0.00     0.042 H 
ATOM     35  H21 TCH d   1     -10.854 -22.513 -11.350  0.00  0.00     0.033 H 
ATOM     36  H22 TCH d   1      -9.898 -22.979  -9.903  0.00  0.00     0.033 H 
ATOM     37  H23 TCH d   1      -9.134 -23.191 -12.780  0.00  0.00     0.033 H 
ATOM     38  H24 TCH d   1      -8.289 -23.871 -11.348  0.00  0.00     0.033 H 
ATOM     39  H25 TCH d   1      -7.935 -21.190 -12.710  0.00  0.00     0.042 H 
ENDROOT
BRANCH  17  40
ATOM     40  C20 TCH d   1      -6.295 -22.369 -12.112  0.00  0.00    -0.053 C 
ATOM     41  H32 TCH d   1      -5.647 -21.489 -12.237  0.00  0.00     0.040 H 
BRANCH  40  42
ATOM     42  C21 TCH d   1      -5.827 -23.099 -10.887  0.00  0.00    -0.072 C 
ATOM     43  H33 TCH d   1      -4.808 -23.477 -11.053  0.00  0.00     0.028 H 
ATOM     44  H34 TCH d   1      -6.503 -23.943 -10.682  0.00  0.00     0.028 H 
ATOM     45  H35 TCH d   1      -5.828 -22.412 -10.028  0.00  0.00     0.028 H 
ENDBRANCH  40  42
BRANCH  40  46
ATOM     46  C22 TCH d   1      -6.137 -23.194 -13.371  0.00  0.00    -0.054 C 
ATOM     47  H36 TCH d   1      -6.000 -24.245 -13.076  0.00  0.00     0.034 H 
ATOM     48  H37 TCH d   1      -5.239 -22.841 -13.900  0.00  0.00     0.034 H 
BRANCH  46  49
ATOM     49  C23 TCH d   1      -7.308 -23.124 -14.332  0.00  0.00     0.009 C 
ATOM     50  H38 TCH d   1      -6.980 -22.685 -15.286  0.00  0.00     0.047 H 
ATOM     51  H39 TCH d   1      -8.107 -22.505 -13.899  0.00  0.00     0.047 H 
BRANCH  49  52
ATOM     52  C24 TCH d   1      -7.813 -24.508 -14.563  0.00  0.00     0.217 C 
ATOM     53  N24 TCH d   1      -7.635 -25.089 -15.745  0.00  0.00    -0.360 N 
ATOM     54  H40 TCH d   1      -7.428 -24.524 -16.544  0.00  0.00     0.162 HD
ATOM     55  O24 TCH d   1      -8.352 -25.059 -13.653  0.00  0.00    -0.274 OA
BRANCH  53  56
ATOM     56  C25 TCH d   1      -7.736 -26.542 -15.900  0.00  0.00     0.010 C 
ATOM     57  H41 TCH d   1      -8.737 -26.782 -16.288  0.00  0.00     0.065 H 
ATOM     58  H42 TCH d   1      -7.604 -27.008 -14.912  0.00  0.00     0.065 H 
BRANCH  56  59
ATOM     59  C26 TCH d   1      -6.693 -27.128 -16.855  0.00  0.00     0.060 C 
ATOM     60  H43 TCH d   1      -5.703 -26.893 -16.436  0.00  0.00     0.062 H 
ATOM     61  H44 TCH d   1      -6.814 -26.614 -17.820  0.00  0.00     0.062 H 
BRANCH  59  62
ATOM     62  S26 TCH d   1      -6.717 -28.765 -17.166  0.00  0.00     0.103 S 
ATOM     63  O1S TCH d   1      -7.436 -29.517 -16.133  0.00  0.00    -0.595 OA
ATOM     64  O2S TCH d   1      -5.339 -29.232 -17.316  0.00  0.00    -0.595 OA
ATOM     65  O3S TCH d   1      -7.358 -29.087 -18.442  0.00  0.00    -0.595 OA
ENDBRANCH  59  62
ENDBRANCH  56  59
ENDBRANCH  53  56
ENDBRANCH  49  52
ENDBRANCH  46  49
ENDBRANCH  40  46
ENDBRANCH  17  40
BRANCH  13  66
ATOM     66  C18 TCH d   1      -7.554 -22.080  -9.456  0.00  0.00    -0.066 C 
ATOM     67  H26 TCH d   1      -7.686 -21.586  -8.482  0.00  0.00     0.028 H 
ATOM     68  H27 TCH d   1      -6.509 -22.407  -9.563  0.00  0.00     0.028 H 
ATOM     69  H28 TCH d   1      -8.219 -22.954  -9.517  0.00  0.00     0.028 H 
ENDBRANCH  13  66
BRANCH  12  70
ATOM     70  O12 TCH d   1      -5.914 -19.453 -10.851  0.00  0.00    -0.395 OA
ATOM     71  H19 TCH d   1      -5.412 -20.258 -10.904  0.00  0.00     0.210 HD
ENDBRANCH  12  70
BRANCH   7  72
ATOM     72  O7  TCH d   1     -11.437 -19.697 -11.196  0.00  0.00    -0.395 OA
ATOM     73  H13 TCH d   1     -11.347 -20.434 -11.789  0.00  0.00     0.210 HD
ENDBRANCH   7  72
BRANCH  10  74
ATOM     74  C19 TCH d   1     -10.027 -16.248  -9.485  0.00  0.00    -0.068 C 
ATOM     75  H29 TCH d   1     -10.766 -15.438  -9.569  0.00  0.00     0.028 H 
ATOM     76  H30 TCH d   1      -9.052 -15.894  -9.851  0.00  0.00     0.028 H 
ATOM     77  H31 TCH d   1      -9.935 -16.552  -8.432  0.00  0.00     0.028 H 
ENDBRANCH  10  74
BRANCH   3  78
ATOM     78  O3  TCH d   1     -13.655 -15.168 -11.472  0.00  0.00    -0.396 OA
ATOM     79  H6  TCH d   1     -14.112 -15.260 -12.300  0.00  0.00     0.210 HD
ENDBRANCH   3  78
TORSDOF 13
