REMARK  4 active torsions:
REMARK  status: ('A' for Active; 'I' for Inactive)
REMARK    1  A    between atoms: NAM_13  and  CAP_16 
REMARK    2  A    between atoms: CAQ_17  and  NAM_13 
REMARK    3  A    between atoms: CAR_18  and  CAN_14 
REMARK    4  A    between atoms: CAO_15  and  CAS_19 
ROOT
ATOM      1  NAM 17C d   1      30.863  -6.520  28.758  0.00  0.00    -0.354 N 
ATOM      2  H9  17C d   1      30.328  -5.809  28.239  0.00  0.00     0.166 HD
ENDROOT
BRANCH   1   3
ATOM      3  CAP 17C d   1      31.993  -6.959  28.152  0.00  0.00     0.049 A 
ATOM      4  CAI 17C d   1      32.848  -7.886  28.745  0.00  0.00    -0.056 A 
ATOM      5  CAE 17C d   1      34.003  -8.306  28.084  0.00  0.00    -0.081 A 
ATOM      6  H5  17C d   1      32.614  -8.283  29.726  0.00  0.00     0.086 H 
ATOM      7  CAG 17C d   1      34.321  -7.816  26.824  0.00  0.00    -0.082 A 
ATOM      8  H1  17C d   1      34.661  -9.024  28.560  0.00  0.00     0.083 H 
ATOM      9  CAK 17C d   1      33.480  -6.885  26.221  0.00  0.00    -0.064 A 
ATOM     10  H3  17C d   1      35.216  -8.155  26.315  0.00  0.00     0.083 H 
ATOM     11  CAR 17C d   1      32.327  -6.474  26.879  0.00  0.00     0.067 A 
ATOM     12  H7  17C d   1      33.723  -6.483  25.244  0.00  0.00     0.085 H 
BRANCH  11  13
ATOM     13  CAN 17C d   1      31.448  -5.447  26.201  0.00  0.00     0.211 C 
ATOM     14  OAA 17C d   1      30.702  -4.771  26.929  0.00  0.00    -0.644 OA
ATOM     15  OAC 17C d   1      31.554  -5.287  24.971  0.00  0.00    -0.644 OA
ENDBRANCH  11  13
ENDBRANCH   1   3
BRANCH   1  16
ATOM     16  CAQ 17C d   1      30.342  -6.889  29.953  0.00  0.00     0.049 A 
ATOM     17  CAJ 17C d   1      31.147  -7.165  31.060  0.00  0.00    -0.056 A 
ATOM     18  CAF 17C d   1      30.596  -7.528  32.285  0.00  0.00    -0.081 A 
ATOM     19  H6  17C d   1      32.224  -7.095  30.963  0.00  0.00     0.086 H 
ATOM     20  CAH 17C d   1      29.212  -7.609  32.432  0.00  0.00    -0.082 A 
ATOM     21  H2  17C d   1      31.244  -7.748  33.126  0.00  0.00     0.083 H 
ATOM     22  CAL 17C d   1      28.399  -7.334  31.341  0.00  0.00    -0.064 A 
ATOM     23  H4  17C d   1      28.776  -7.883  33.386  0.00  0.00     0.083 H 
ATOM     24  CAS 17C d   1      28.954  -6.963  30.121  0.00  0.00     0.067 A 
ATOM     25  H8  17C d   1      27.322  -7.409  31.441  0.00  0.00     0.085 H 
BRANCH  24  26
ATOM     26  CAO 17C d   1      27.990  -6.688  28.976  0.00  0.00     0.211 C 
ATOM     27  OAB 17C d   1      26.916  -7.336  28.972  0.00  0.00    -0.644 OA
ATOM     28  OAD 17C d   1      28.307  -5.856  28.103  0.00  0.00    -0.644 OA
ENDBRANCH  24  26
ENDBRANCH   1  16
TORSDOF 4
