REMARK  8 active torsions:
REMARK  status: ('A' for Active; 'I' for Inactive)
REMARK    1  A    between atoms: C3_2  and  N22_1 
REMARK    2  A    between atoms: C4_3  and  C3_2 
REMARK    3  A    between atoms: C3_2  and  C2_5 
REMARK       I    between atoms: N23_12  and  C4_3 
REMARK    4  A    between atoms: C2_5  and  C1_6 
REMARK    5  A    between atoms: C11_14  and  C10_13 
REMARK       I    between atoms: N26_26  and  C11_14 
REMARK    6  A    between atoms: C13_20  and  C12_19 
REMARK    7  A    between atoms: C12_19  and  N26_26 
REMARK    8  A    between atoms: N27_27  and  C18_22 
ROOT
ATOM      1  C4  10P d   1      17.315 -13.946  22.408  0.00  0.00     0.251 C 
ATOM      2  O24 10P d   1      16.410 -13.245  22.848  0.00  0.00    -0.271 OA
ATOM      3  N23 10P d   1      18.110 -13.515  21.434  0.00  0.00    -0.337 N 
ATOM      4  C10 10P d   1      17.905 -12.176  20.858  0.00  0.00     0.091 C 
ATOM      5  C14 10P d   1      18.937 -12.097  19.740  0.00  0.00    -0.036 C 
ATOM      6  C15 10P d   1      19.988 -13.147  20.081  0.00  0.00    -0.048 C 
ATOM      7  C16 10P d   1      19.224 -14.240  20.809  0.00  0.00    -0.001 C 
ATOM      8  H12 10P d   1      18.095 -11.399  21.613  0.00  0.00     0.087 H 
ATOM      9  H13 10P d   1      19.391 -11.096  19.706  0.00  0.00     0.036 H 
ATOM     10  H14 10P d   1      18.470 -12.321  18.770  0.00  0.00     0.036 H 
ATOM     11  H15 10P d   1      20.766 -12.720  20.731  0.00  0.00     0.035 H 
ATOM     12  H16 10P d   1      20.452 -13.543  19.165  0.00  0.00     0.035 H 
ATOM     13  H17 10P d   1      18.854 -14.999  20.104  0.00  0.00     0.064 H 
ATOM     14  H18 10P d   1      19.856 -14.723  21.569  0.00  0.00     0.064 H 
ENDROOT
BRANCH   1  15
ATOM     15  C3  10P d   1      17.527 -15.332  22.968  0.00  0.00     0.179 C 
ATOM     16  H4  10P d   1      18.276 -15.863  22.361  0.00  0.00     0.099 H 
BRANCH  15  17
ATOM     17  N22 10P d   1      16.245 -16.015  22.905  0.00  0.00    -0.066 N 
ATOM     18  H1  10P d   1      16.343 -16.949  23.271  0.00  0.00     0.275 HD
ATOM     19  H2  10P d   1      15.935 -16.061  21.947  0.00  0.00     0.275 HD
ATOM     20  H3  10P d   1      15.567 -15.509  23.453  0.00  0.00     0.275 HD
ENDBRANCH  15  17
BRANCH  15  21
ATOM     21  C2  10P d   1      17.981 -15.315  24.432  0.00  0.00    -0.006 C 
ATOM     22  H5  10P d   1      17.937 -16.339  24.832  0.00  0.00     0.043 H 
ATOM     23  H6  10P d   1      17.305 -14.667  25.009  0.00  0.00     0.043 H 
BRANCH  21  24
ATOM     24  C1  10P d   1      19.394 -14.795  24.566  0.00  0.00    -0.056 A 
ATOM     25  C5  10P d   1      19.639 -13.700  25.381  0.00  0.00    -0.077 A 
ATOM     26  C6  10P d   1      20.926 -13.202  25.500  0.00  0.00    -0.082 A 
ATOM     27  H7  10P d   1      18.825 -13.235  25.924  0.00  0.00     0.084 H 
ATOM     28  C7  10P d   1      21.976 -13.803  24.814  0.00  0.00    -0.083 A 
ATOM     29  H9  10P d   1      21.116 -12.341  26.130  0.00  0.00     0.083 H 
ATOM     30  C8  10P d   1      21.735 -14.907  24.005  0.00  0.00    -0.082 A 
ATOM     31  H11 10P d   1      22.982 -13.411  24.910  0.00  0.00     0.083 H 
ATOM     32  C9  10P d   1      20.443 -15.402  23.878  0.00  0.00    -0.077 A 
ATOM     33  H10 10P d   1      22.553 -15.381  23.474  0.00  0.00     0.083 H 
ATOM     34  H8  10P d   1      20.251 -16.260  23.244  0.00  0.00     0.084 H 
ENDBRANCH  21  24
ENDBRANCH  15  21
ENDBRANCH   1  15
BRANCH   4  35
ATOM     35  C11 10P d   1      16.502 -12.012  20.325  0.00  0.00     0.240 C 
ATOM     36  O25 10P d   1      15.974 -12.878  19.625  0.00  0.00    -0.271 OA
ATOM     37  N26 10P d   1      15.848 -10.903  20.669  0.00  0.00    -0.355 N 
ATOM     38  H28 10P d   1      16.319 -10.239  21.250  0.00  0.00     0.162 HD
BRANCH  37  39
ATOM     39  C12 10P d   1      14.471 -10.600  20.242  0.00  0.00     0.020 C 
ATOM     40  H19 10P d   1      14.334  -9.509  20.216  0.00  0.00     0.071 H 
ATOM     41  H20 10P d   1      14.307 -11.014  19.236  0.00  0.00     0.071 H 
BRANCH  39  42
ATOM     42  C13 10P d   1      13.461 -11.205  21.199  0.00  0.00    -0.025 A 
ATOM     43  C17 10P d   1      12.804 -10.446  22.160  0.00  0.00    -0.014 A 
ATOM     44  N27 10P d   1      11.916 -11.001  22.997  0.00  0.00    -0.370 N 
ATOM     45  H21 10P d   1      13.014  -9.385  22.234  0.00  0.00     0.112 H 
ATOM     46  C19 10P d   1      11.637 -12.313  22.941  0.00  0.00    -0.021 A 
ATOM     47  C20 10P d   1      12.265 -13.119  22.001  0.00  0.00    -0.067 A 
ATOM     48  H25 10P d   1      10.920 -12.744  23.631  0.00  0.00     0.111 H 
ATOM     49  C21 10P d   1      13.192 -12.569  21.130  0.00  0.00    -0.073 A 
ATOM     50  H26 10P d   1      12.031 -14.176  21.948  0.00  0.00     0.085 H 
ATOM     51  H27 10P d   1      13.701 -13.193  20.404  0.00  0.00     0.084 H 
BRANCH  44  52
ATOM     52  C18 10P d   1      11.232 -10.185  24.012  0.00  0.00    -0.015 C 
ATOM     53  H22 10P d   1      10.549 -10.821  24.594  0.00  0.00     0.057 H 
ATOM     54  H23 10P d   1      10.658  -9.388  23.516  0.00  0.00     0.057 H 
ATOM     55  H24 10P d   1      11.977  -9.736  24.685  0.00  0.00     0.057 H 
ENDBRANCH  44  52
ENDBRANCH  39  42
ENDBRANCH  37  39
ENDBRANCH   4  35
TORSDOF 8
