REMARK  8 active torsions:
REMARK  status: ('A' for Active; 'I' for Inactive)
REMARK    1  A    between atoms: N4_1  and  C3_2 
REMARK    2  A    between atoms: C3_2  and  C5_3 
REMARK    3  A    between atoms: C3_2  and  C2_5 
REMARK       I    between atoms: C5_3  and  N6_12 
REMARK    4  A    between atoms: C2_5  and  C1_6 
REMARK    5  A    between atoms: C13_13  and  C14_14 
REMARK       I    between atoms: C14_14  and  N16_19 
REMARK    6  A    between atoms: N16_19  and  C17_20 
REMARK    7  A    between atoms: C17_20  and  C18_21 
REMARK    8  A    between atoms: N24_24  and  C25_25 
ROOT
ATOM      1  C5  06P d   1      17.334 -13.470  22.535  0.00  0.00     0.251 C 
ATOM      2  O7  06P d   1      16.402 -12.766  22.920  0.00  0.00    -0.271 OA
ATOM      3  N6  06P d   1      18.155 -13.059  21.574  0.00  0.00    -0.337 N 
ATOM      4  C13 06P d   1      17.944 -11.749  20.956  0.00  0.00     0.091 C 
ATOM      5  C19 06P d   1      18.973 -11.700  19.831  0.00  0.00    -0.036 C 
ATOM      6  C20 06P d   1      20.036 -12.723  20.206  0.00  0.00    -0.048 C 
ATOM      7  C21 06P d   1      19.297 -13.785  21.007  0.00  0.00    -0.001 C 
ATOM      8  H12 06P d   1      18.116 -10.942  21.684  0.00  0.00     0.087 H 
ATOM      9  H13 06P d   1      19.415 -10.695  19.758  0.00  0.00     0.036 H 
ATOM     10  H14 06P d   1      18.506 -11.966  18.871  0.00  0.00     0.036 H 
ATOM     11  H15 06P d   1      20.823 -12.256  20.817  0.00  0.00     0.035 H 
ATOM     12  H16 06P d   1      20.485 -13.163  19.303  0.00  0.00     0.035 H 
ATOM     13  H17 06P d   1      18.957 -14.603  20.355  0.00  0.00     0.064 H 
ATOM     14  H18 06P d   1      19.937 -14.193  21.803  0.00  0.00     0.064 H 
ENDROOT
BRANCH   1  15
ATOM     15  C3  06P d   1      17.574 -14.836  23.129  0.00  0.00     0.179 C 
ATOM     16  H4  06P d   1      18.322 -15.362  22.518  0.00  0.00     0.099 H 
BRANCH  15  17
ATOM     17  N4  06P d   1      16.324 -15.575  23.122  0.00  0.00    -0.066 N 
ATOM     18  H1  06P d   1      16.473 -16.490  23.517  0.00  0.00     0.275 HD
ATOM     19  H2  06P d   1      15.994 -15.668  22.174  0.00  0.00     0.275 HD
ATOM     20  H3  06P d   1      15.638 -15.080  23.670  0.00  0.00     0.275 HD
ENDBRANCH  15  17
BRANCH  15  21
ATOM     21  C2  06P d   1      18.067 -14.775  24.581  0.00  0.00    -0.006 C 
ATOM     22  H5  06P d   1      18.028 -15.785  25.015  0.00  0.00     0.043 H 
ATOM     23  H6  06P d   1      17.410 -14.104  25.154  0.00  0.00     0.043 H 
BRANCH  21  24
ATOM     24  C1  06P d   1      19.486 -14.260  24.661  0.00  0.00    -0.056 A 
ATOM     25  C8  06P d   1      19.743 -13.094  25.365  0.00  0.00    -0.077 A 
ATOM     26  C9  06P d   1      21.030 -12.583  25.447  0.00  0.00    -0.082 A 
ATOM     27  H7  06P d   1      18.928 -12.575  25.857  0.00  0.00     0.084 H 
ATOM     28  C10 06P d   1      22.081 -13.255  24.833  0.00  0.00    -0.083 A 
ATOM     29  H9  06P d   1      21.216 -11.662  25.988  0.00  0.00     0.083 H 
ATOM     30  C11 06P d   1      21.830 -14.427  24.134  0.00  0.00    -0.082 A 
ATOM     31  H11 06P d   1      23.090 -12.866  24.900  0.00  0.00     0.083 H 
ATOM     32  C12 06P d   1      20.537 -14.934  24.040  0.00  0.00    -0.077 A 
ATOM     33  H10 06P d   1      22.649 -14.953  23.656  0.00  0.00     0.083 H 
ATOM     34  H8  06P d   1      20.348 -15.847  23.487  0.00  0.00     0.084 H 
ENDBRANCH  21  24
ENDBRANCH  15  21
ENDBRANCH   1  15
BRANCH   4  35
ATOM     35  C14 06P d   1      16.554 -11.629  20.389  0.00  0.00     0.240 C 
ATOM     36  O15 06P d   1      16.047 -12.566  19.777  0.00  0.00    -0.271 OA
ATOM     37  N16 06P d   1      15.905 -10.482  20.594  0.00  0.00    -0.355 N 
ATOM     38  H19 06P d   1      16.366  -9.759  21.109  0.00  0.00     0.162 HD
BRANCH  37  39
ATOM     39  C17 06P d   1      14.542 -10.229  20.099  0.00  0.00     0.019 C 
ATOM     40  H20 06P d   1      14.325 -10.911  19.264  0.00  0.00     0.071 H 
ATOM     41  H21 06P d   1      14.468  -9.188  19.751  0.00  0.00     0.071 H 
BRANCH  39  42
ATOM     42  C18 06P d   1      13.536 -10.459  21.209  0.00  0.00    -0.038 A 
ATOM     43  C22 06P d   1      13.203  -9.442  22.100  0.00  0.00    -0.060 A 
ATOM     44  C23 06P d   1      12.279  -9.697  23.109  0.00  0.00    -0.021 A 
ATOM     45  H22 06P d   1      13.658  -8.463  22.009  0.00  0.00     0.086 H 
ATOM     46  N24 06P d   1      11.719 -10.910  23.244  0.00  0.00    -0.371 N 
ATOM     47  H23 06P d   1      12.007  -8.904  23.797  0.00  0.00     0.111 H 
ATOM     48  C26 06P d   1      12.035 -11.908  22.401  0.00  0.00    -0.021 A 
ATOM     49  C27 06P d   1      12.946 -11.704  21.373  0.00  0.00    -0.060 A 
ATOM     50  H27 06P d   1      11.574 -12.881  22.525  0.00  0.00     0.111 H 
ATOM     51  H28 06P d   1      13.196 -12.516  20.700  0.00  0.00     0.086 H 
BRANCH  46  52
ATOM     52  C25 06P d   1      10.747 -11.145  24.319  0.00  0.00    -0.015 C 
ATOM     53  H24 06P d   1      10.397 -12.187  24.276  0.00  0.00     0.057 H 
ATOM     54  H25 06P d   1       9.891 -10.465  24.195  0.00  0.00     0.057 H 
ATOM     55  H26 06P d   1      11.225 -10.959  25.292  0.00  0.00     0.057 H 
ENDBRANCH  46  52
ENDBRANCH  39  42
ENDBRANCH  37  39
ENDBRANCH   4  35
TORSDOF 8
