REMARK  18 active torsions:
REMARK  status: ('A' for Active; 'I' for Inactive)
REMARK    1  A    between atoms: N_1  and  CA_2 
REMARK    2  A    between atoms: CA_2  and  C_3 
REMARK    3  A    between atoms: CA_2  and  CB_5 
REMARK       I    between atoms: C_3  and  N_12 
REMARK    4  A    between atoms: CB_5  and  CG_6 
REMARK    5  A    between atoms: CG_6  and  CD_7 
REMARK    6  A    between atoms: CD_7  and  NE_8 
REMARK       I    between atoms: NE_8  and  CZ_9 
REMARK       I    between atoms: CZ_9  and  NH1_10 
REMARK       I    between atoms: CZ_9  and  NH2_11 
REMARK    7  A    between atoms: N_12  and  CA_13 
REMARK    8  A    between atoms: CA_13  and  C_14 
REMARK    9  A    between atoms: CA_13  and  CB_16 
REMARK       I    between atoms: C_14  and  N_23 
REMARK   10  A    between atoms: CB_16  and  CG_17 
REMARK   11  A    between atoms: CG_17  and  CD_18 
REMARK   12  A    between atoms: CD_18  and  NE_19 
REMARK       I    between atoms: NE_19  and  CZ_20 
REMARK       I    between atoms: CZ_20  and  NH1_21 
REMARK   13  A    between atoms: N_23  and  CA_24 
REMARK   14  A    between atoms: CA_24  and  C_25 
REMARK       I    between atoms: C_25  and  N_27 
REMARK   15  A    between atoms: N_27  and  CA_28 
REMARK   16  A    between atoms: CA_28  and  C_29 
REMARK   17  A    between atoms: CA_28  and  CB_31 
REMARK       I    between atoms: C_29  and  N_38 
REMARK   18  A    between atoms: CB_31  and  CG_32 
ROOT
ATOM      1  CA  ARG d   1      24.832  23.885  54.535  0.00  0.00     0.089 C 
ATOM      2  H17 ARG d   1      24.127  24.685  54.806  0.00  0.00     0.087 H 
ENDROOT
BRANCH   1   3
ATOM      3  N   ARG d   1      25.853  24.459  53.669  0.00  0.00    -0.346 N 
ATOM      4  C   ARG d   1      26.517  25.569  53.970  0.00  0.00     0.248 C 
ATOM      5  O   ARG d   1      26.329  26.211  55.002  0.00  0.00    -0.271 OA
ATOM      6  H16 ARG d   1      26.064  23.996  52.808  0.00  0.00     0.163 HD
BRANCH   4   7
ATOM      7  CA  ARG d   1      27.549  26.021  52.939  0.00  0.00     0.176 C 
ATOM      8  H4  ARG d   1      27.240  25.669  51.944  0.00  0.00     0.099 H 
BRANCH   7   9
ATOM      9  N   ARG d   1      27.638  27.506  52.917  0.00  0.00    -0.067 N 
ATOM     10  H1  ARG d   1      28.322  27.791  52.233  0.00  0.00     0.275 HD
ATOM     11  H2  ARG d   1      27.914  27.840  53.827  0.00  0.00     0.275 HD
ATOM     12  H3  ARG d   1      26.739  27.893  52.675  0.00  0.00     0.275 HD
ENDBRANCH   7   9
BRANCH   7  13
ATOM     13  CB  ARG d   1      28.914  25.407  53.284  0.00  0.00    -0.029 C 
ATOM     14  H5  ARG d   1      28.813  24.312  53.270  0.00  0.00     0.036 H 
ATOM     15  H6  ARG d   1      29.195  25.736  54.295  0.00  0.00     0.036 H 
BRANCH  13  16
ATOM     16  CG  ARG d   1      30.033  25.797  52.326  0.00  0.00    -0.047 C 
ATOM     17  H7  ARG d   1      30.300  26.850  52.496  0.00  0.00     0.035 H 
ATOM     18  H8  ARG d   1      29.680  25.671  51.292  0.00  0.00     0.035 H 
BRANCH  16  19
ATOM     19  CD  ARG d   1      31.268  24.932  52.537  0.00  0.00     0.009 C 
ATOM     20  H9  ARG d   1      30.977  23.875  52.447  0.00  0.00     0.064 H 
ATOM     21  H10 ARG d   1      31.661  25.119  53.547  0.00  0.00     0.064 H 
BRANCH  19  22
ATOM     22  NE  ARG d   1      32.325  25.212  51.564  0.00  0.00    -0.227 N 
ATOM     23  CZ  ARG d   1      33.176  26.232  51.646  0.00  0.00     0.665 C 
ATOM     24  NH1 ARG d   1      33.104  27.080  52.662  0.00  0.00    -0.235 N 
ATOM     25  NH2 ARG d   1      34.104  26.402  50.710  0.00  0.00    -0.235 N 
ATOM     26  H12 ARG d   1      33.764  27.868  52.723  0.00  0.00     0.174 HD
ATOM     27  H13 ARG d   1      32.388  26.951  53.391  0.00  0.00     0.174 HD
ATOM     28  H14 ARG d   1      34.164  25.745  49.919  0.00  0.00     0.174 HD
ATOM     29  H15 ARG d   1      34.764  27.190  50.776  0.00  0.00     0.174 HD
ATOM     30  H11 ARG d   1      32.417  24.575  50.760  0.00  0.00     0.177 HD
ENDBRANCH  19  22
ENDBRANCH  16  19
ENDBRANCH  13  16
ENDBRANCH   7  13
ENDBRANCH   4   7
ENDBRANCH   1   3
BRANCH   1  31
ATOM     31  C   ARG d   1      25.396  23.296  55.821  0.00  0.00     0.240 C 
ATOM     32  O   ARG d   1      24.773  23.395  56.875  0.00  0.00    -0.271 OA
ATOM     33  N   GLY d   1      26.569  22.680  55.720  0.00  0.00    -0.351 N 
ATOM     34  H29 GLY d   1      27.030  22.630  54.834  0.00  0.00     0.163 HD
BRANCH  33  35
ATOM     35  CA  GLY d   1      27.184  22.079  56.891  0.00  0.00     0.069 C 
ATOM     36  H30 GLY d   1      27.018  22.740  57.754  0.00  0.00     0.078 H 
ATOM     37  H31 GLY d   1      28.264  21.978  56.709  0.00  0.00     0.078 H 
BRANCH  35  38
ATOM     38  C   GLY d   1      26.612  20.700  57.215  0.00  0.00     0.236 C 
ATOM     39  O   GLY d   1      25.937  20.098  56.348  0.00  0.00    -0.272 OA
ATOM     40  N   PHE d   1      26.859  20.201  58.435  0.00  0.00    -0.346 N 
ATOM     41  H32 PHE d   1      27.390  20.741  59.088  0.00  0.00     0.163 HD
BRANCH  40  42
ATOM     42  CA  PHE d   1      26.364  18.877  58.829  0.00  0.00     0.093 C 
ATOM     43  H33 PHE d   1      26.582  18.189  57.999  0.00  0.00     0.088 H 
BRANCH  42  44
ATOM     44  C   PHE d   1      24.854  18.827  59.082  0.00  0.00     0.238 C 
ATOM     45  O   PHE d   1      24.261  17.744  58.859  0.00  0.00    -0.271 OA
ATOM     46  N   NH2 d   1      24.187  19.946  59.549  0.00  0.00    -0.368 N 
ATOM     47  H41 NH2 d   1      23.201  19.909  59.713  0.00  0.00     0.159 HD
ATOM     48  H42 NH2 d   1      24.691  20.792  59.723  0.00  0.00     0.159 HD
ENDBRANCH  42  44
BRANCH  42  49
ATOM     49  CB  PHE d   1      27.099  18.374  60.064  0.00  0.00    -0.014 C 
ATOM     50  H34 PHE d   1      26.672  17.402  60.350  0.00  0.00     0.043 H 
ATOM     51  H35 PHE d   1      26.944  19.097  60.879  0.00  0.00     0.043 H 
BRANCH  49  52
ATOM     52  CG  PHE d   1      28.582  18.200  59.858  0.00  0.00    -0.056 A 
ATOM     53  CD1 PHE d   1      29.467  19.216  60.196  0.00  0.00    -0.077 A 
ATOM     54  CE1 PHE d   1      30.840  19.079  59.967  0.00  0.00    -0.082 A 
ATOM     55  H36 PHE d   1      29.088  20.128  60.644  0.00  0.00     0.084 H 
ATOM     56  CZ  PHE d   1      31.332  17.913  59.394  0.00  0.00    -0.083 A 
ATOM     57  H38 PHE d   1      31.518  19.881  60.236  0.00  0.00     0.083 H 
ATOM     58  CE2 PHE d   1      30.451  16.888  59.053  0.00  0.00    -0.082 A 
ATOM     59  H40 PHE d   1      32.395  17.801  59.213  0.00  0.00     0.083 H 
ATOM     60  CD2 PHE d   1      29.088  17.038  59.288  0.00  0.00    -0.077 A 
ATOM     61  H39 PHE d   1      30.827  15.975  58.605  0.00  0.00     0.083 H 
ATOM     62  H37 PHE d   1      28.410  16.235  59.022  0.00  0.00     0.084 H 
ENDBRANCH  49  52
ENDBRANCH  42  49
ENDBRANCH  40  42
ENDBRANCH  35  38
ENDBRANCH  33  35
ENDBRANCH   1  31
BRANCH   1  63
ATOM     63  CB  ARG d   1      24.075  22.797  53.774  0.00  0.00    -0.036 C 
ATOM     64  H18 ARG d   1      23.568  22.159  54.513  0.00  0.00     0.036 H 
ATOM     65  H19 ARG d   1      24.812  22.199  53.218  0.00  0.00     0.036 H 
BRANCH  63  66
ATOM     66  CG  ARG d   1      23.034  23.286  52.789  0.00  0.00    -0.048 C 
ATOM     67  H20 ARG d   1      22.910  22.542  51.989  0.00  0.00     0.035 H 
ATOM     68  H21 ARG d   1      23.363  24.241  52.354  0.00  0.00     0.035 H 
BRANCH  66  69
ATOM     69  CD  ARG d   1      21.711  23.486  53.498  0.00  0.00     0.009 C 
ATOM     70  H22 ARG d   1      20.911  23.585  52.750  0.00  0.00     0.064 H 
ATOM     71  H23 ARG d   1      21.761  24.402  54.105  0.00  0.00     0.064 H 
BRANCH  69  72
ATOM     72  NE  ARG d   1      21.417  22.348  54.368  0.00  0.00    -0.227 N 
ATOM     73  CZ  ARG d   1      20.250  22.131  54.964  0.00  0.00     0.665 C 
ATOM     74  NH1 ARG d   1      19.244  22.974  54.787  0.00  0.00    -0.235 N 
ATOM     75  NH2 ARG d   1      20.091  21.067  55.740  0.00  0.00    -0.235 N 
ATOM     76  H25 ARG d   1      18.340  22.802  55.251  0.00  0.00     0.174 HD
ATOM     77  H26 ARG d   1      19.365  23.801  54.185  0.00  0.00     0.174 HD
ATOM     78  H27 ARG d   1      20.872  20.410  55.879  0.00  0.00     0.174 HD
ATOM     79  H28 ARG d   1      19.187  20.898  56.203  0.00  0.00     0.174 HD
ATOM     80  H24 ARG d   1      22.170  21.665  54.531  0.00  0.00     0.177 HD
ENDBRANCH  69  72
ENDBRANCH  66  69
ENDBRANCH  63  66
ENDBRANCH   1  63
TORSDOF 18
