REMARK  8 active torsions:
REMARK  status: ('A' for Active; 'I' for Inactive)
REMARK    1  A    between atoms: C3_2  and  N22_1 
REMARK    2  A    between atoms: C4_3  and  C3_2 
REMARK    3  A    between atoms: C3_2  and  C2_5 
REMARK       I    between atoms: N23_12  and  C4_3 
REMARK    4  A    between atoms: C2_5  and  C1_6 
REMARK    5  A    between atoms: C11_14  and  C10_13 
REMARK       I    between atoms: N24_26  and  C11_14 
REMARK    6  A    between atoms: C13_20  and  C12_19 
REMARK    7  A    between atoms: C12_19  and  N24_26 
REMARK    8  A    between atoms: N25_27  and  C18_22 
ROOT
ATOM      1  C4  98P d   1      17.358 -13.195  22.697  0.00  0.00     0.251 C 
ATOM      2  O26 98P d   1      16.361 -12.552  23.019  0.00  0.00    -0.271 OA
ATOM      3  N23 98P d   1      18.246 -12.742  21.805  0.00  0.00    -0.337 N 
ATOM      4  C10 98P d   1      18.034 -11.437  21.177  0.00  0.00     0.091 C 
ATOM      5  C14 98P d   1      19.165 -11.295  20.167  0.00  0.00    -0.036 C 
ATOM      6  C15 98P d   1      20.207 -12.336  20.557  0.00  0.00    -0.048 C 
ATOM      7  C16 98P d   1      19.459 -13.413  21.327  0.00  0.00    -0.001 C 
ATOM      8  H12 98P d   1      18.070 -10.629  21.922  0.00  0.00     0.087 H 
ATOM      9  H13 98P d   1      19.597 -10.284  20.216  0.00  0.00     0.036 H 
ATOM     10  H14 98P d   1      18.795 -11.487  19.149  0.00  0.00     0.036 H 
ATOM     11  H15 98P d   1      20.982 -11.881  21.192  0.00  0.00     0.035 H 
ATOM     12  H16 98P d   1      20.674 -12.764  19.658  0.00  0.00     0.035 H 
ATOM     13  H17 98P d   1      19.204 -14.256  20.669  0.00  0.00     0.064 H 
ATOM     14  H18 98P d   1      20.061 -13.777  22.172  0.00  0.00     0.064 H 
ENDROOT
BRANCH   1  15
ATOM     15  C3  98P d   1      17.610 -14.552  23.298  0.00  0.00     0.179 C 
ATOM     16  H4  98P d   1      18.427 -15.040  22.746  0.00  0.00     0.099 H 
BRANCH  15  17
ATOM     17  N22 98P d   1      16.397 -15.347  23.169  0.00  0.00    -0.066 N 
ATOM     18  H1  98P d   1      16.550 -16.260  23.567  0.00  0.00     0.275 HD
ATOM     19  H2  98P d   1      16.159 -15.441  22.194  0.00  0.00     0.275 HD
ATOM     20  H3  98P d   1      15.642 -14.890  23.656  0.00  0.00     0.275 HD
ENDBRANCH  15  17
BRANCH  15  21
ATOM     21  C2  98P d   1      18.005 -14.456  24.778  0.00  0.00    -0.006 C 
ATOM     22  H5  98P d   1      17.921 -15.449  25.243  0.00  0.00     0.043 H 
ATOM     23  H6  98P d   1      17.331 -13.753  25.290  0.00  0.00     0.043 H 
BRANCH  21  24
ATOM     24  C1  98P d   1      19.432 -13.963  24.900  0.00  0.00    -0.056 A 
ATOM     25  C5  98P d   1      20.482 -14.706  24.368  0.00  0.00    -0.077 A 
ATOM     26  C6  98P d   1      21.791 -14.242  24.487  0.00  0.00    -0.082 A 
ATOM     27  H7  98P d   1      20.282 -15.644  23.862  0.00  0.00     0.084 H 
ATOM     28  C7  98P d   1      22.054 -13.048  25.140  0.00  0.00    -0.083 A 
ATOM     29  H9  98P d   1      22.608 -14.818  24.067  0.00  0.00     0.083 H 
ATOM     30  C8  98P d   1      21.003 -12.310  25.677  0.00  0.00    -0.082 A 
ATOM     31  H11 98P d   1      23.073 -12.691  25.232  0.00  0.00     0.083 H 
ATOM     32  C9  98P d   1      19.699 -12.772  25.561  0.00  0.00    -0.077 A 
ATOM     33  H10 98P d   1      21.203 -11.374  26.186  0.00  0.00     0.083 H 
ATOM     34  H8  98P d   1      18.884 -12.199  25.989  0.00  0.00     0.084 H 
ENDBRANCH  21  24
ENDBRANCH  15  21
ENDBRANCH   1  15
BRANCH   4  35
ATOM     35  C11 98P d   1      16.711 -11.431  20.477  0.00  0.00     0.240 C 
ATOM     36  O27 98P d   1      16.390 -12.385  19.773  0.00  0.00    -0.271 OA
ATOM     37  N24 98P d   1      15.919 -10.375  20.670  0.00  0.00    -0.355 N 
ATOM     38  H27 98P d   1      16.250  -9.639  21.260  0.00  0.00     0.162 HD
BRANCH  37  39
ATOM     39  C12 98P d   1      14.597 -10.233  20.069  0.00  0.00     0.022 C 
ATOM     40  H19 98P d   1      14.312  -9.171  20.041  0.00  0.00     0.071 H 
ATOM     41  H20 98P d   1      14.606 -10.637  19.046  0.00  0.00     0.071 H 
BRANCH  39  42
ATOM     42  C13 98P d   1      13.611 -11.009  20.921  0.00  0.00    -0.003 A 
ATOM     43  C17 98P d   1      13.433 -12.373  20.749  0.00  0.00    -0.012 A 
ATOM     44  N25 98P d   1      12.562 -13.048  21.509  0.00  0.00    -0.370 N 
ATOM     45  H21 98P d   1      14.005 -12.898  19.992  0.00  0.00     0.112 H 
ATOM     46  C19 98P d   1      11.835 -12.431  22.453  0.00  0.00    -0.020 A 
ATOM     47  C20 98P d   1      11.972 -11.069  22.673  0.00  0.00    -0.046 A 
ATOM     48  H25 98P d   1      11.134 -13.003  23.049  0.00  0.00     0.111 H 
ATOM     49  C21 98P d   1      12.868 -10.369  21.882  0.00  0.00     0.044 A 
ATOM     50  H26 98P d   1      11.395 -10.567  23.441  0.00  0.00     0.088 H 
ATOM     51 CL28 98P d   1      13.096  -8.621  22.122  0.00  0.00    -0.084 Cl
BRANCH  44  52
ATOM     52  C18 98P d   1      12.395 -14.491  21.305  0.00  0.00    -0.015 C 
ATOM     53  H22 98P d   1      11.645 -14.877  22.011  0.00  0.00     0.057 H 
ATOM     54  H23 98P d   1      13.355 -14.999  21.476  0.00  0.00     0.057 H 
ATOM     55  H24 98P d   1      12.059 -14.679  20.275  0.00  0.00     0.057 H 
ENDBRANCH  44  52
ENDBRANCH  39  42
ENDBRANCH  37  39
ENDBRANCH   4  35
TORSDOF 8
