REMARK  8 active torsions:
REMARK  status: ('A' for Active; 'I' for Inactive)
REMARK    1  A    between atoms: C8_2  and  N10_1 
REMARK    2  A    between atoms: C9_3  and  C8_2 
REMARK    3  A    between atoms: C8_2  and  C7_5 
REMARK       I    between atoms: N11_12  and  C9_3 
REMARK    4  A    between atoms: C7_5  and  C4_6 
REMARK    5  A    between atoms: C17_14  and  C13_13 
REMARK       I    between atoms: N18_20  and  C17_14 
REMARK    6  A    between atoms: C19_21  and  N18_20 
REMARK    7  A    between atoms: C20_22  and  C19_21 
REMARK    8  A    between atoms: N21_23  and  C27_28 
ROOT
ATOM      1  C9  02P d   1      17.408 -13.437  22.714  0.00  0.00     0.251 C 
ATOM      2  O12 02P d   1      16.478 -12.761  23.134  0.00  0.00    -0.271 OA
ATOM      3  N11 02P d   1      18.176 -13.017  21.707  0.00  0.00    -0.337 N 
ATOM      4  C13 02P d   1      17.885 -11.711  21.112  0.00  0.00     0.091 C 
ATOM      5  C15 02P d   1      18.857 -11.613  19.943  0.00  0.00    -0.036 C 
ATOM      6  C16 02P d   1      19.960 -12.605  20.252  0.00  0.00    -0.048 C 
ATOM      7  C14 02P d   1      19.316 -13.698  21.090  0.00  0.00    -0.001 C 
ATOM      8  H12 02P d   1      18.069 -10.904  21.837  0.00  0.00     0.087 H 
ATOM      9  H13 02P d   1      19.266 -10.595  19.867  0.00  0.00     0.036 H 
ATOM     10  H14 02P d   1      18.354 -11.878  19.001  0.00  0.00     0.036 H 
ATOM     11  H15 02P d   1      20.767 -12.116  20.817  0.00  0.00     0.035 H 
ATOM     12  H16 02P d   1      20.367 -13.027  19.321  0.00  0.00     0.035 H 
ATOM     13  H17 02P d   1      18.982 -14.534  20.458  0.00  0.00     0.064 H 
ATOM     14  H18 02P d   1      20.013 -14.072  21.854  0.00  0.00     0.064 H 
ENDROOT
BRANCH   1  15
ATOM     15  C8  02P d   1      17.685 -14.788  23.308  0.00  0.00     0.179 C 
ATOM     16  H4  02P d   1      18.436 -15.315  22.701  0.00  0.00     0.099 H 
BRANCH  15  17
ATOM     17  N10 02P d   1      16.424 -15.512  23.306  0.00  0.00    -0.066 N 
ATOM     18  H1  02P d   1      16.563 -16.430  23.698  0.00  0.00     0.275 HD
ATOM     19  H2  02P d   1      16.088 -15.599  22.360  0.00  0.00     0.275 HD
ATOM     20  H3  02P d   1      15.747 -15.009  23.858  0.00  0.00     0.275 HD
ENDBRANCH  15  17
BRANCH  15  21
ATOM     21  C7  02P d   1      18.172 -14.691  24.749  0.00  0.00    -0.006 C 
ATOM     22  H5  02P d   1      18.157 -15.695  25.198  0.00  0.00     0.043 H 
ATOM     23  H6  02P d   1      17.496 -14.029  25.309  0.00  0.00     0.043 H 
BRANCH  21  24
ATOM     24  C4  02P d   1      19.574 -14.140  24.831  0.00  0.00    -0.056 A 
ATOM     25  C3  02P d   1      19.781 -12.981  25.568  0.00  0.00    -0.077 A 
ATOM     26  C26 02P d   1      21.055 -12.441  25.669  0.00  0.00    -0.082 A 
ATOM     27  H7  02P d   1      18.947 -12.498  26.064  0.00  0.00     0.084 H 
ATOM     28  C1  02P d   1      22.130 -13.062  25.039  0.00  0.00    -0.083 A 
ATOM     29  H9  02P d   1      21.214 -11.533  26.240  0.00  0.00     0.083 H 
ATOM     30  C6  02P d   1      21.924 -14.222  24.299  0.00  0.00    -0.082 A 
ATOM     31  H11 02P d   1      23.126 -12.642  25.125  0.00  0.00     0.083 H 
ATOM     32  C5  02P d   1      20.646 -14.766  24.194  0.00  0.00    -0.077 A 
ATOM     33  H10 02P d   1      22.759 -14.703  23.803  0.00  0.00     0.083 H 
ATOM     34  H8  02P d   1      20.485 -15.671  23.620  0.00  0.00     0.084 H 
ENDBRANCH  21  24
ENDBRANCH  15  21
ENDBRANCH   1  15
BRANCH   4  35
ATOM     35  C17 02P d   1      16.451 -11.641  20.642  0.00  0.00     0.240 C 
ATOM     36  O28 02P d   1      15.957 -12.568  20.006  0.00  0.00    -0.271 OA
ATOM     37  N18 02P d   1      15.748 -10.550  20.945  0.00  0.00    -0.354 N 
ATOM     38  H19 02P d   1      16.206  -9.830  21.466  0.00  0.00     0.162 HD
BRANCH  37  39
ATOM     39  C19 02P d   1      14.355 -10.336  20.567  0.00  0.00     0.033 C 
ATOM     40  H20 02P d   1      14.036 -11.162  19.914  0.00  0.00     0.073 H 
ATOM     41  H21 02P d   1      14.280  -9.385  20.019  0.00  0.00     0.073 H 
BRANCH  39  42
ATOM     42  C20 02P d   1      13.428 -10.279  21.769  0.00  0.00     0.030 A 
ATOM     43  N21 02P d   1      12.720 -11.362  22.146  0.00  0.00    -0.363 N 
ATOM     44  C25 02P d   1      11.889 -11.320  23.201  0.00  0.00    -0.019 A 
ATOM     45  C24 02P d   1      11.723 -10.161  23.942  0.00  0.00    -0.047 A 
ATOM     46  H24 02P d   1      11.337 -12.211  23.478  0.00  0.00     0.111 H 
ATOM     47  C23 02P d   1      12.447  -9.034  23.576  0.00  0.00     0.037 A 
ATOM     48  H23 02P d   1      11.044 -10.135  24.787  0.00  0.00     0.088 H 
ATOM     49 CL2  02P d   1      12.270  -7.534  24.542  0.00  0.00    -0.084 Cl
ATOM     50  C22 02P d   1      13.300  -9.087  22.473  0.00  0.00    -0.038 A 
ATOM     51  H22 02P d   1      13.857  -8.208  22.168  0.00  0.00     0.089 H 
BRANCH  43  52
ATOM     52  C27 02P d   1      12.848 -12.626  21.409  0.00  0.00    -0.015 C 
ATOM     53  H25 02P d   1      13.560 -12.497  20.581  0.00  0.00     0.057 H 
ATOM     54  H26 02P d   1      11.866 -12.917  21.007  0.00  0.00     0.057 H 
ATOM     55  H27 02P d   1      13.213 -13.411  22.088  0.00  0.00     0.057 H 
ENDBRANCH  43  52
ENDBRANCH  39  42
ENDBRANCH  37  39
ENDBRANCH   4  35
TORSDOF 8
