REMARK  10 active torsions:
REMARK  status: ('A' for Active; 'I' for Inactive)
REMARK    1  A    between atoms: O3B_8  and  PG_1 
REMARK    2  A    between atoms: PB_5  and  O3B_8 
REMARK    3  A    between atoms: O3A_12  and  PB_5 
REMARK    4  A    between atoms: PA_9  and  O3A_12 
REMARK    5  A    between atoms: PA_9  and  O5'_13 
REMARK    6  A    between atoms: O5'_13  and  C5'_14 
REMARK    7  A    between atoms: C5'_14  and  C4'_15 
REMARK    8  A    between atoms: C3'_17  and  O3'_18 
REMARK    9  A    between atoms: C2'_19  and  O2'_20 
REMARK   10  A    between atoms: C1'_21  and  N9_22 
ROOT
ATOM      1  C4' ATP d   1      18.742   9.529 -16.715  0.00  0.00     0.089 C 
ATOM      2  O4' ATP d   1      20.115   9.428 -16.334  0.00  0.00    -0.353 OA
ATOM      3  C3' ATP d   1      18.289  10.944 -16.378  0.00  0.00     0.091 C 
ATOM      4  C2' ATP d   1      19.457  11.575 -15.633  0.00  0.00     0.105 C 
ATOM      5  C1' ATP d   1      20.415  10.421 -15.355  0.00  0.00     0.139 C 
ATOM      6  H3  ATP d   1      18.150   8.812 -16.128  0.00  0.00     0.090 H 
ATOM      7  H4  ATP d   1      18.075  11.510 -17.297  0.00  0.00     0.091 H 
ATOM      8  H6  ATP d   1      19.944  12.327 -16.271  0.00  0.00     0.093 H 
ATOM      9  H8  ATP d   1      20.232  10.020 -14.348  0.00  0.00     0.122 H 
ENDROOT
BRANCH   1  10
ATOM     10  C5' ATP d   1      18.550   9.209 -18.193  0.00  0.00     0.058 C 
ATOM     11  H1  ATP d   1      17.540   8.803 -18.349  0.00  0.00     0.079 H 
ATOM     12  H2  ATP d   1      18.671  10.130 -18.783  0.00  0.00     0.079 H 
BRANCH  10  13
ATOM     13  O5' ATP d   1      19.515   8.247 -18.617  0.00  0.00    -0.287 OA
BRANCH  13  14
ATOM     14  PA  ATP d   1      19.374   7.525 -20.049  0.00  0.00     0.417 P 
ATOM     15  O1A ATP d   1      19.584   6.043 -19.867  0.00  0.00    -0.624 OA
ATOM     16  O2A ATP d   1      18.115   8.040 -20.707  0.00  0.00    -0.624 OA
BRANCH  14  17
ATOM     17  O3A ATP d   1      20.627   8.174 -20.827  0.00  0.00    -0.180 OA
BRANCH  17  18
ATOM     18  PB  ATP d   1      20.704   8.188 -22.432  0.00  0.00     0.428 P 
ATOM     19  O1B ATP d   1      19.455   7.556 -22.993  0.00  0.00    -0.624 OA
ATOM     20  O2B ATP d   1      22.053   7.638 -22.823  0.00  0.00    -0.624 OA
BRANCH  18  21
ATOM     21  O3B ATP d   1      20.685   9.771 -22.749  0.00  0.00    -0.173 OA
BRANCH  21  22
ATOM     22  PG  ATP d   1      20.712  10.342 -24.254  0.00  0.00     0.431 P 
ATOM     23  O1G ATP d   1      19.299  10.160 -24.753  0.00  0.00    -0.616 OA
ATOM     24  O2G ATP d   1      21.125  11.782 -24.072  0.00  0.00    -0.616 OA
ATOM     25  O3G ATP d   1      21.735   9.475 -24.949  0.00  0.00    -0.616 OA
ENDBRANCH  21  22
ENDBRANCH  18  21
ENDBRANCH  17  18
ENDBRANCH  14  17
ENDBRANCH  13  14
ENDBRANCH  10  13
ENDBRANCH   1  10
BRANCH   3  26
ATOM     26  O3' ATP d   1      17.109  10.894 -15.567  0.00  0.00    -0.390 OA
ATOM     27  H5  ATP d   1      16.831  11.778 -15.360  0.00  0.00     0.210 HD
ENDBRANCH   3  26
BRANCH   5  28
ATOM     28  N9  ATP d   1      21.829  10.853 -15.443  0.00  0.00    -0.294 N 
ATOM     29  C8  ATP d   1      22.427  11.397 -16.521  0.00  0.00     0.071 A 
ATOM     30  N7  ATP d   1      23.730  11.681 -16.268  0.00  0.00    -0.236 NA
ATOM     31  H9  ATP d   1      21.930  11.584 -17.471  0.00  0.00     0.144 H 
ATOM     32  C5  ATP d   1      23.988  11.318 -14.997  0.00  0.00     0.149 A 
ATOM     33  C6  ATP d   1      25.163  11.343 -14.094  0.00  0.00     0.155 A 
ATOM     34  C4  ATP d   1      22.732  10.777 -14.458  0.00  0.00     0.167 A 
ATOM     35  N6  ATP d   1      26.362  11.829 -14.505  0.00  0.00    -0.382 N 
ATOM     36  N1  ATP d   1      25.003  10.865 -12.845  0.00  0.00    -0.222 NA
ATOM     37  H10 ATP d   1      27.164  11.836 -13.859  0.00  0.00     0.157 HD
ATOM     38  H11 ATP d   1      26.470  12.191 -15.463  0.00  0.00     0.157 HD
ATOM     39  C2  ATP d   1      23.820  10.382 -12.420  0.00  0.00     0.091 A 
ATOM     40  N3  ATP d   1      22.713  10.331 -13.180  0.00  0.00    -0.222 NA
ATOM     41  H12 ATP d   1      23.757  10.012 -11.403  0.00  0.00     0.146 H 
ENDBRANCH   5  28
BRANCH   4  42
ATOM     42  O2' ATP d   1      19.054  12.202 -14.412  0.00  0.00    -0.388 OA
ATOM     43  H7  ATP d   1      18.658  11.555 -13.841  0.00  0.00     0.210 HD
ENDBRANCH   4  42
TORSDOF 10
