REMARK  12 active torsions:
REMARK  status: ('A' for Active; 'I' for Inactive)
REMARK    1  A    between atoms: C2_2  and  NA2_3 
REMARK    2  A    between atoms: C4_5  and  NA4_6 
REMARK    3  A    between atoms: C9_13  and  C6_9 
REMARK    4  A    between atoms: N10_14  and  C9_13 
REMARK    5  A    between atoms: N10_14  and  CM_15 
REMARK    6  A    between atoms: C14_19  and  N10_14 
REMARK    7  A    between atoms: C11_16  and  C_22 
REMARK    8  A    between atoms: N_24  and  CA_25 
REMARK    9  A    between atoms: CA_25  and  CT_26 
REMARK   10  A    between atoms: CA_25  and  CB_29 
REMARK   11  A    between atoms: CB_29  and  CG_30 
REMARK   12  A    between atoms: CG_30  and  CD_31 
ROOT
ATOM      1  C11 MTX d   1      39.915 -43.269  -8.988  0.00  0.00     0.018 A 
ATOM      2  C12 MTX d   1      38.677 -43.896  -9.129  0.00  0.00    -0.067 A 
ATOM      3  C13 MTX d   1      37.487 -43.079  -9.253  0.00  0.00    -0.056 A 
ATOM      4  C14 MTX d   1      37.668 -41.715  -9.207  0.00  0.00     0.030 A 
ATOM      5  C15 MTX d   1      38.887 -41.074  -9.159  0.00  0.00    -0.056 A 
ATOM      6  C16 MTX d   1      40.070 -41.874  -9.001  0.00  0.00    -0.067 A 
ATOM      7  H11 MTX d   1      38.606 -44.978  -9.146  0.00  0.00     0.085 H 
ATOM      8  H12 MTX d   1      36.504 -43.519  -9.376  0.00  0.00     0.086 H 
ATOM      9  H13 MTX d   1      38.952 -39.995  -9.238  0.00  0.00     0.086 H 
ATOM     10  H14 MTX d   1      41.047 -41.417  -8.896  0.00  0.00     0.085 H 
ENDROOT
BRANCH   4  11
ATOM     11  N10 MTX d   1      36.479 -40.906  -9.352  0.00  0.00    -0.379 N 
BRANCH  11  12
ATOM     12  C9  MTX d   1      35.191 -41.371  -9.669  0.00  0.00     0.036 C 
ATOM     13  H6  MTX d   1      34.830 -40.818 -10.549  0.00  0.00     0.073 H 
ATOM     14  H7  MTX d   1      35.260 -42.441  -9.912  0.00  0.00     0.073 H 
BRANCH  12  15
ATOM     15  C6  MTX d   1      34.196 -41.203  -8.568  0.00  0.00     0.070 A 
ATOM     16  N5  MTX d   1      32.876 -41.123  -8.968  0.00  0.00    -0.242 NA
ATOM     17  C4A MTX d   1      31.893 -41.071  -7.959  0.00  0.00     0.151 A 
ATOM     18  C4  MTX d   1      30.548 -41.039  -8.276  0.00  0.00     0.173 A 
ATOM     19  C8A MTX d   1      32.229 -41.031  -6.608  0.00  0.00     0.201 A 
ATOM     20  N3  MTX d   1      29.587 -41.085  -7.348  0.00  0.00    -0.043 NA
ATOM     21  C2  MTX d   1      29.940 -41.030  -6.021  0.00  0.00     0.724 A 
ATOM     22  N1  MTX d   1      31.249 -41.008  -5.650  0.00  0.00    -0.041 NA
ATOM     23  N8  MTX d   1      33.536 -41.023  -6.165  0.00  0.00    -0.237 NA
ATOM     24  C7  MTX d   1      34.503 -41.146  -7.180  0.00  0.00     0.030 A 
ATOM     25  H5  MTX d   1      35.545 -41.201  -6.886  0.00  0.00     0.118 H 
BRANCH  18  26
ATOM     26  NA4 MTX d   1      30.147 -41.023  -9.614  0.00  0.00    -0.381 N 
ATOM     27  H3  MTX d   1      30.853 -40.988 -10.363  0.00  0.00     0.157 HD
ATOM     28  H4  MTX d   1      29.145 -41.046  -9.852  0.00  0.00     0.157 HD
ENDBRANCH  18  26
BRANCH  21  29
ATOM     29  NA2 MTX d   1      29.088 -41.069  -5.058  0.00  0.00    -0.231 N 
ATOM     30  H1  MTX d   1      29.412 -41.024  -4.081  0.00  0.00     0.174 HD
ATOM     31  H2  MTX d   1      28.082 -41.145  -5.263  0.00  0.00     0.174 HD
ENDBRANCH  21  29
ENDBRANCH  12  15
ENDBRANCH  11  12
BRANCH  11  32
ATOM     32  CM  MTX d   1      36.565 -39.470  -9.284  0.00  0.00    -0.018 C 
ATOM     33  H8  MTX d   1      37.595 -39.176  -9.033  0.00  0.00     0.056 H 
ATOM     34  H9  MTX d   1      35.878 -39.098  -8.509  0.00  0.00     0.056 H 
ATOM     35  H10 MTX d   1      36.288 -39.039 -10.258  0.00  0.00     0.056 H 
ENDBRANCH  11  32
ENDBRANCH   4  11
BRANCH   1  36
ATOM     36  C   MTX d   1      41.187 -44.114  -8.837  0.00  0.00     0.185 C 
ATOM     37  O   MTX d   1      42.336 -43.415  -9.086  0.00  0.00    -0.172 OA
ATOM     38  N   MTX d   1      41.101 -45.349  -8.410  0.00  0.00    -0.353 N 
ATOM     39  H15 MTX d   1      40.213 -45.683  -8.094  0.00  0.00     0.162 HD
BRANCH  38  40
ATOM     40  CA  MTX d   1      42.251 -46.271  -8.373  0.00  0.00     0.096 C 
ATOM     41  H16 MTX d   1      43.070 -45.821  -8.953  0.00  0.00     0.089 H 
BRANCH  40  42
ATOM     42  CT  MTX d   1      41.848 -47.565  -8.987  0.00  0.00     0.196 C 
ATOM     43  O1  MTX d   1      42.752 -48.319  -9.368  0.00  0.00    -0.646 OA
ATOM     44  O2  MTX d   1      40.643 -47.900  -9.186  0.00  0.00    -0.646 OA
ENDBRANCH  40  42
BRANCH  40  45
ATOM     45  CB  MTX d   1      42.770 -46.601  -6.971  0.00  0.00    -0.028 C 
ATOM     46  H17 MTX d   1      43.624 -47.289  -7.058  0.00  0.00     0.037 H 
ATOM     47  H18 MTX d   1      41.966 -47.085  -6.397  0.00  0.00     0.037 H 
BRANCH  45  48
ATOM     48  CG  MTX d   1      43.208 -45.377  -6.252  0.00  0.00     0.018 C 
ATOM     49  H19 MTX d   1      43.577 -44.621  -6.961  0.00  0.00     0.049 H 
ATOM     50  H20 MTX d   1      43.998 -45.615  -5.525  0.00  0.00     0.049 H 
BRANCH  48  51
ATOM     51  CD  MTX d   1      41.937 -44.876  -5.532  0.00  0.00     0.172 C 
ATOM     52  OE1 MTX d   1      41.148 -45.670  -4.864  0.00  0.00    -0.648 OA
ATOM     53  OE2 MTX d   1      41.709 -43.645  -5.612  0.00  0.00    -0.648 OA
ENDBRANCH  48  51
ENDBRANCH  45  48
ENDBRANCH  40  45
ENDBRANCH  38  40
ENDBRANCH   1  36
TORSDOF 12
