REMARK  5 active torsions:
REMARK  status: ('A' for Active; 'I' for Inactive)
REMARK    1  A    between atoms: C01_1  and  S01_4 
REMARK    2  A    between atoms: S01_4  and  N01_2 
REMARK    3  A    between atoms: C04_8  and  N07_11 
REMARK       I    between atoms: N07_11  and  C08_12 
REMARK    4  A    between atoms: C08_12  and  C09_14 
REMARK    5  A    between atoms: C09_14  and  C10_15 
ROOT
ATOM      1  C01 5UN d   1      16.172   1.895  15.737  0.00  0.00     0.079 A 
ATOM      2  C02 5UN d   1      17.536   1.843  15.521  0.00  0.00    -0.058 A 
ATOM      3  C03 5UN d   1      18.156   2.829  14.785  0.00  0.00    -0.056 A 
ATOM      4  C04 5UN d   1      17.420   3.879  14.268  0.00  0.00     0.034 A 
ATOM      5  C05 5UN d   1      16.045   3.943  14.486  0.00  0.00    -0.056 A 
ATOM      6  C06 5UN d   1      15.415   2.945  15.224  0.00  0.00    -0.058 A 
ATOM      7  H3  5UN d   1      18.119   1.026  15.931  0.00  0.00     0.086 H 
ATOM      8  H4  5UN d   1      19.225   2.781  14.611  0.00  0.00     0.087 H 
ATOM      9  H5  5UN d   1      15.468   4.767  14.082  0.00  0.00     0.087 H 
ATOM     10  H6  5UN d   1      14.346   2.985  15.398  0.00  0.00     0.086 H 
ENDROOT
BRANCH   4  11
ATOM     11  N07 5UN d   1      18.173   4.844  13.526  0.00  0.00    -0.327 N 
ATOM     12  C08 5UN d   1      17.664   6.007  12.875  0.00  0.00     0.226 C 
ATOM     13  O08 5UN d   1      16.486   6.311  12.903  0.00  0.00    -0.273 OA
ATOM     14  H7  5UN d   1      19.158   4.687  13.457  0.00  0.00     0.169 HD
BRANCH  12  15
ATOM     15  C09 5UN d   1      18.649   6.872  12.162  0.00  0.00     0.039 C 
ATOM     16  H8  5UN d   1      18.147   7.325  11.294  0.00  0.00     0.055 H 
ATOM     17  H9  5UN d   1      19.479   6.239  11.816  0.00  0.00     0.055 H 
BRANCH  15  18
ATOM     18  C10 5UN d   1      19.212   7.964  13.000  0.00  0.00    -0.009 A 
ATOM     19  C11 5UN d   1      19.211   9.326  12.720  0.00  0.00    -0.069 A 
ATOM     20  C12 5UN d   1      19.788  10.128  13.692  0.00  0.00    -0.076 A 
ATOM     21  H10 5UN d   1      18.787   9.733  11.803  0.00  0.00     0.085 H 
ATOM     22  C13 5UN d   1      20.293   9.458  14.798  0.00  0.00    -0.045 A 
ATOM     23  H11 5UN d   1      19.842  11.211  13.595  0.00  0.00     0.084 H 
ATOM     24  S14 5UN d   1      19.973   7.793  14.532  0.00  0.00    -0.106 SA
ATOM     25  H12 5UN d   1      20.791   9.899  15.660  0.00  0.00     0.095 H 
ENDBRANCH  15  18
ENDBRANCH  12  15
ENDBRANCH   4  11
BRANCH   1  26
ATOM     26  S01 5UN d   1      15.439   0.610  16.692  0.00  0.00     0.256 S 
ATOM     27  O01 5UN d   1      15.871   0.763  18.061  0.00  0.00    -0.201 OA
ATOM     28  O02 5UN d   1      14.013   0.763  16.633  0.00  0.00    -0.201 OA
BRANCH  26  29
ATOM     29  N01 5UN d   1      15.935  -0.804  16.072  0.00  0.00    -0.324 N 
ATOM     30  H1  5UN d   1      15.626  -1.664  16.478  0.00  0.00     0.169 HD
ATOM     31  H2  5UN d   1      16.550  -0.816  15.283  0.00  0.00     0.169 HD
ENDBRANCH  26  29
ENDBRANCH   1  26
TORSDOF 5
