REMARK  7 active torsions:
REMARK  status: ('A' for Active; 'I' for Inactive)
REMARK    1  A    between atoms: C17_18  and  C1_1 
REMARK    2  A    between atoms: N1_2  and  N2_4 
REMARK    3  A    between atoms: C13_14  and  N1_2 
REMARK    4  A    between atoms: C6_8  and  O1_3 
REMARK    5  A    between atoms: N2_4  and  C9_11 
REMARK    6  A    between atoms: C17_18  and  C3_5 
REMARK    7  A    between atoms: C16_17  and  C17_18 
ROOT
ATOM      1  C11 AZB d   1       3.238  -3.698  15.913  0.00  0.00    -0.074 A 
ATOM      2  C12 AZB d   1       4.351  -3.829  16.784  0.00  0.00    -0.053 A 
ATOM      3  C13 AZB d   1       5.440  -4.752  16.441  0.00  0.00     0.079 A 
ATOM      4  C14 AZB d   1       5.369  -5.531  15.230  0.00  0.00    -0.053 A 
ATOM      5  C15 AZB d   1       4.198  -5.376  14.330  0.00  0.00    -0.074 A 
ATOM      6  C16 AZB d   1       3.153  -4.453  14.708  0.00  0.00    -0.055 A 
ATOM      7  H12 AZB d   1       2.439  -3.012  16.169  0.00  0.00     0.084 H 
ATOM      8  H13 AZB d   1       4.397  -3.250  17.699  0.00  0.00     0.087 H 
ATOM      9  H14 AZB d   1       6.164  -6.224  14.979  0.00  0.00     0.087 H 
ATOM     10  H15 AZB d   1       4.129  -5.943  13.409  0.00  0.00     0.084 H 
ENDROOT
BRANCH   3  11
ATOM     11  N1  AZB d   1       6.519  -4.893  17.243  0.00  0.00    -0.150 NA
BRANCH  11  12
ATOM     12  N2  AZB d   1       6.749  -4.283  18.364  0.00  0.00    -0.150 NA
BRANCH  12  13
ATOM     13  C9  AZB d   1       8.043  -4.492  18.939  0.00  0.00     0.079 A 
ATOM     14  C4  AZB d   1       8.969  -5.498  18.728  0.00  0.00    -0.051 A 
ATOM     15  C5  AZB d   1      10.254  -5.582  19.407  0.00  0.00    -0.049 A 
ATOM     16  H8  AZB d   1       8.722  -6.273  18.012  0.00  0.00     0.087 H 
ATOM     17  C6  AZB d   1      10.640  -4.642  20.301  0.00  0.00     0.065 A 
ATOM     18  H9  AZB d   1      10.915  -6.414  19.192  0.00  0.00     0.087 H 
ATOM     19  C7  AZB d   1       9.750  -3.638  20.527  0.00  0.00    -0.049 A 
ATOM     20  C8  AZB d   1       8.434  -3.564  19.827  0.00  0.00    -0.051 A 
ATOM     21  H10 AZB d   1      10.006  -2.864  21.241  0.00  0.00     0.087 H 
ATOM     22  H11 AZB d   1       7.772  -2.733  20.043  0.00  0.00     0.087 H 
BRANCH  17  23
ATOM     23  O1  AZB d   1      11.814  -4.713  20.910  0.00  0.00    -0.361 OA
ATOM     24  H4  AZB d   1      11.910  -3.973  21.497  0.00  0.00     0.217 HD
ENDBRANCH  17  23
ENDBRANCH  12  13
ENDBRANCH  11  12
ENDBRANCH   3  11
BRANCH   6  25
ATOM     25  C17 AZB d   1       1.940  -4.239  13.860  0.00  0.00    -0.036 C 
ATOM     26  H16 AZB d   1       1.367  -3.444  14.359  0.00  0.00     0.046 H 
BRANCH  25  27
ATOM     27  C1  AZB d   1       0.994  -5.408  13.828  0.00  0.00    -0.069 C 
ATOM     28  H1  AZB d   1       0.135  -5.167  13.185  0.00  0.00     0.028 H 
ATOM     29  H2  AZB d   1       0.640  -5.622  14.848  0.00  0.00     0.028 H 
ATOM     30  H3  AZB d   1       1.515  -6.290  13.428  0.00  0.00     0.028 H 
ENDBRANCH  25  27
BRANCH  25  31
ATOM     31  C3  AZB d   1       2.344  -3.660  12.551  0.00  0.00    -0.069 C 
ATOM     32  H5  AZB d   1       3.032  -2.818  12.719  0.00  0.00     0.028 H 
ATOM     33  H6  AZB d   1       1.451  -3.303  12.017  0.00  0.00     0.028 H 
ATOM     34  H7  AZB d   1       2.848  -4.431  11.949  0.00  0.00     0.028 H 
ENDBRANCH  25  31
ENDBRANCH   6  25
TORSDOF 7
