REMARK  12 active torsions:
REMARK  status: ('A' for Active; 'I' for Inactive)
REMARK    1  A    between atoms: N_1  and  CA_2 
REMARK    2  A    between atoms: CA_2  and  C_3 
REMARK    3  A    between atoms: CA_2  and  CB_6 
REMARK    4  A    between atoms: CB_6  and  CG_7 
REMARK    5  A    between atoms: CG_7  and  SD_8 
REMARK    6  A    between atoms: SD_8  and  CE_9 
REMARK    7  A    between atoms: SD_8  and  C5'_10 
REMARK    8  A    between atoms: C5'_10  and  C4'_11 
REMARK    9  A    between atoms: C3'_13  and  O3'_14 
REMARK   10  A    between atoms: C2'_15  and  O2'_16 
REMARK   11  A    between atoms: C1'_17  and  N9_18 
REMARK   12  A    between atoms: C6_22  and  N6_23 
ROOT
ATOM      1  C4' SAM d   1      55.691  62.600  65.996  0.00  0.00     0.076 C 
ATOM      2  O4' SAM d   1      54.897  63.713  66.382  0.00  0.00    -0.355 OA
ATOM      3  C3' SAM d   1      54.736  61.541  65.454  0.00  0.00     0.090 C 
ATOM      4  C2' SAM d   1      53.363  62.185  65.540  0.00  0.00     0.105 C 
ATOM      5  C1' SAM d   1      53.570  63.263  66.589  0.00  0.00     0.139 C 
ATOM      6  H14 SAM d   1      56.214  62.200  66.877  0.00  0.00     0.088 H 
ATOM      7  H15 SAM d   1      54.983  61.278  64.415  0.00  0.00     0.091 H 
ATOM      8  H17 SAM d   1      53.083  62.627  64.572  0.00  0.00     0.093 H 
ATOM      9  H19 SAM d   1      53.504  62.809  67.589  0.00  0.00     0.122 H 
ENDROOT
BRANCH   1  10
ATOM     10  C5' SAM d   1      56.734  63.011  64.961  0.00  0.00    -0.005 C 
ATOM     11  H12 SAM d   1      56.226  63.208  64.005  0.00  0.00     0.051 H 
ATOM     12  H13 SAM d   1      57.233  63.928  65.306  0.00  0.00     0.051 H 
BRANCH  10  13
ATOM     13  SD  SAM d   1      57.989  61.725  64.702  0.00  0.00    -0.221 SA
BRANCH  13  14
ATOM     14  CG  SAM d   1      58.895  61.710  66.274  0.00  0.00    -0.029 C 
ATOM     15  H7  SAM d   1      59.473  62.643  66.349  0.00  0.00     0.047 H 
ATOM     16  H8  SAM d   1      58.163  61.665  67.094  0.00  0.00     0.047 H 
BRANCH  14  17
ATOM     17  CB  SAM d   1      59.859  60.535  66.426  0.00  0.00    -0.022 C 
ATOM     18  H5  SAM d   1      59.362  59.620  66.072  0.00  0.00     0.037 H 
ATOM     19  H6  SAM d   1      60.753  60.727  65.814  0.00  0.00     0.037 H 
BRANCH  17  20
ATOM     20  CA  SAM d   1      60.289  60.334  67.883  0.00  0.00     0.183 C 
ATOM     21  H4  SAM d   1      59.433  59.889  68.412  0.00  0.00     0.101 H 
BRANCH  20  22
ATOM     22  N   SAM d   1      60.576  61.614  68.526  0.00  0.00    -0.065 N 
ATOM     23  H1  SAM d   1      59.788  62.232  68.411  0.00  0.00     0.275 HD
ATOM     24  H2  SAM d   1      61.392  62.027  68.102  0.00  0.00     0.275 HD
ATOM     25  H3  SAM d   1      60.746  61.466  69.508  0.00  0.00     0.275 HD
ENDBRANCH  20  22
BRANCH  20  26
ATOM     26  C   SAM d   1      61.452  59.359  68.028  0.00  0.00     0.204 C 
ATOM     27  O   SAM d   1      61.682  58.505  67.167  0.00  0.00    -0.646 OA
ATOM     28  OXT SAM d   1      62.182  59.409  69.025  0.00  0.00    -0.646 OA
ENDBRANCH  20  26
ENDBRANCH  17  20
ENDBRANCH  14  17
ENDBRANCH  13  14
BRANCH  13  29
ATOM     29  CE  SAM d   1      59.197  62.599  63.687  0.00  0.00    -0.042 C 
ATOM     30  H9  SAM d   1      58.808  62.705  62.664  0.00  0.00     0.040 H 
ATOM     31  H10 SAM d   1      60.138  62.029  63.664  0.00  0.00     0.040 H 
ATOM     32  H11 SAM d   1      59.382  63.596  64.114  0.00  0.00     0.040 H 
ENDBRANCH  13  29
ENDBRANCH  10  13
ENDBRANCH   1  10
BRANCH   3  33
ATOM     33  O3' SAM d   1      54.794  60.390  66.271  0.00  0.00    -0.390 OA
ATOM     34  H16 SAM d   1      54.542  60.620  67.158  0.00  0.00     0.210 HD
ENDBRANCH   3  33
BRANCH   5  35
ATOM     35  N9  SAM d   1      52.539  64.330  66.525  0.00  0.00    -0.294 N 
ATOM     36  C8  SAM d   1      52.212  65.152  65.474  0.00  0.00     0.071 A 
ATOM     37  N7  SAM d   1      51.210  65.984  65.868  0.00  0.00    -0.236 NA
ATOM     38  H20 SAM d   1      52.677  65.140  64.490  0.00  0.00     0.144 H 
ATOM     39  C5  SAM d   1      50.887  65.699  67.149  0.00  0.00     0.149 A 
ATOM     40  C6  SAM d   1      49.949  66.224  68.033  0.00  0.00     0.155 A 
ATOM     41  C4  SAM d   1      51.719  64.668  67.571  0.00  0.00     0.167 A 
ATOM     42  N1  SAM d   1      49.863  65.712  69.306  0.00  0.00    -0.222 NA
ATOM     43  C2  SAM d   1      50.694  64.694  69.707  0.00  0.00     0.091 A 
ATOM     44  N3  SAM d   1      51.621  64.176  68.825  0.00  0.00    -0.222 NA
ATOM     45  H23 SAM d   1      50.622  64.299  70.714  0.00  0.00     0.146 H 
BRANCH  40  46
ATOM     46  N6  SAM d   1      49.132  67.208  67.668  0.00  0.00    -0.382 N 
ATOM     47  H21 SAM d   1      48.445  67.582  68.338  0.00  0.00     0.157 HD
ATOM     48  H22 SAM d   1      49.186  67.596  66.715  0.00  0.00     0.157 HD
ENDBRANCH  40  46
ENDBRANCH   5  35
BRANCH   4  49
ATOM     49  O2' SAM d   1      52.359  61.284  65.937  0.00  0.00    -0.388 OA
ATOM     50  H18 SAM d   1      52.569  60.935  66.795  0.00  0.00     0.210 HD
ENDBRANCH   4  49
TORSDOF 12
