REMARK  4 active torsions:
REMARK  status: ('A' for Active; 'I' for Inactive)
REMARK    1  A    between atoms: C1_1  and  O2_2 
REMARK    2  A    between atoms: O2_2  and  C3_3 
REMARK    3  A    between atoms: C8_8  and  C9_9 
REMARK    4  A    between atoms: C14_14  and  N15_15 
ROOT
ATOM      1  C3  WOE d   1      55.961  37.010  88.425  0.00  0.00     0.080 A 
ATOM      2  C4  WOE d   1      56.473  38.235  88.840  0.00  0.00    -0.050 A 
ATOM      3  C5  WOE d   1      56.482  39.321  87.971  0.00  0.00    -0.080 A 
ATOM      4  C6  WOE d   1      55.973  39.178  86.685  0.00  0.00    -0.082 A 
ATOM      5  C7  WOE d   1      55.464  37.949  86.280  0.00  0.00    -0.068 A 
ATOM      6  C8  WOE d   1      55.463  36.869  87.155  0.00  0.00     0.027 A 
ATOM      7  H4  WOE d   1      56.866  38.344  89.844  0.00  0.00     0.087 H 
ATOM      8  H5  WOE d   1      56.884  40.274  88.295  0.00  0.00     0.083 H 
ATOM      9  H6  WOE d   1      55.973  40.020  86.002  0.00  0.00     0.083 H 
ATOM     10  H7  WOE d   1      55.066  37.833  85.278  0.00  0.00     0.085 H 
ENDROOT
BRANCH   6  11
ATOM     11  C9  WOE d   1      54.924  35.566  86.687  0.00  0.00     0.092 A 
ATOM     12  C10 WOE d   1      54.002  34.845  87.435  0.00  0.00    -0.014 A 
ATOM     13  C11 WOE d   1      53.541  33.632  86.933  0.00  0.00     0.147 A 
ATOM     14  H8  WOE d   1      53.649  35.219  88.389  0.00  0.00     0.092 H 
ATOM     15 CL1  WOE d   1      52.388  32.707  87.830  0.00  0.00    -0.062 Cl
ATOM     16  N13 WOE d   1      53.965  33.161  85.766  0.00  0.00    -0.051 NA
ATOM     17  C14 WOE d   1      54.846  33.893  85.095  0.00  0.00     0.722 A 
ATOM     18  N16 WOE d   1      55.338  35.058  85.496  0.00  0.00    -0.062 NA
BRANCH  17  19
ATOM     19  N15 WOE d   1      55.276  33.410  83.904  0.00  0.00    -0.231 N 
ATOM     20  H9  WOE d   1      54.920  32.509  83.555  0.00  0.00     0.174 HD
ATOM     21  H10 WOE d   1      55.959  33.944  83.348  0.00  0.00     0.174 HD
ENDBRANCH  17  19
ENDBRANCH   6  11
BRANCH   1  22
ATOM     22  O2  WOE d   1      55.945  35.925  89.278  0.00  0.00    -0.355 OA
BRANCH  22  23
ATOM     23  C1  WOE d   1      56.253  36.294  90.615  0.00  0.00     0.010 C 
ATOM     24  H1  WOE d   1      56.229  35.401  91.257  0.00  0.00     0.066 H 
ATOM     25  H2  WOE d   1      55.512  37.024  90.974  0.00  0.00     0.066 H 
ATOM     26  H3  WOE d   1      57.257  36.743  90.650  0.00  0.00     0.066 H 
ENDBRANCH  22  23
ENDBRANCH   1  22
TORSDOF 4
