REMARK  9 active torsions:
REMARK  status: ('A' for Active; 'I' for Inactive)
REMARK    1  A    between atoms: C12_25  and  C1_1 
REMARK       I    between atoms: C13_26  and  N1_3 
REMARK    2  A    between atoms: C2_6  and  O2_9 
REMARK    3  A    between atoms: O2_9  and  C14_27 
REMARK    4  A    between atoms: C11_24  and  N4_14 
REMARK       I    between atoms: N5_16  and  C13_26 
REMARK    5  A    between atoms: C19_32  and  N5_16 
REMARK    6  A    between atoms: C15_28  and  N6_18 
REMARK    7  A    between atoms: C14_27  and  C15_28 
REMARK    8  A    between atoms: C19_32  and  C20_33 
REMARK    9  A    between atoms: C20_33  and  C21_34 
ROOT
ATOM      1  N1  FU7 d   1      16.320  -4.778  51.502  0.00  0.00    -0.282 N 
ATOM      2  O1  FU7 d   1      15.189  -6.459  52.608  0.00  0.00    -0.246 OA
ATOM      3  N2  FU7 d   1      17.652  -1.748  49.919  0.00  0.00    -0.061 NA
ATOM      4  N3  FU7 d   1      15.785  -0.246  50.439  0.00  0.00    -0.061 NA
ATOM      5  N5  FU7 d   1      17.239  -6.946  51.666  0.00  0.00    -0.337 N 
ATOM      6  C7  FU7 d   1      15.732  -2.556  51.149  0.00  0.00     0.041 A 
ATOM      7  C8  FU7 d   1      15.256  -3.819  51.768  0.00  0.00     0.004 A 
ATOM      8  C9  FU7 d   1      17.434  -4.162  50.739  0.00  0.00     0.018 A 
ATOM      9  C10 FU7 d   1      16.973  -2.731  50.558  0.00  0.00     0.106 A 
ATOM     10  C11 FU7 d   1      17.029  -0.512  49.880  0.00  0.00     0.721 A 
ATOM     11  C12 FU7 d   1      15.146  -1.273  51.070  0.00  0.00     0.104 A 
ATOM     12  C13 FU7 d   1      16.187  -6.088  51.966  0.00  0.00     0.326 C 
ATOM     13  H5  FU7 d   1      18.022  -6.599  51.150  0.00  0.00     0.164 HD
ATOM     14  H6  FU7 d   1      14.322  -3.990  52.301  0.00  0.00     0.114 H 
ATOM     15  H7  FU7 d   1      18.357  -4.626  50.394  0.00  0.00     0.116 H 
ENDROOT
BRANCH  11  16
ATOM     16  C1  FU7 d   1      13.798  -1.069  51.667  0.00  0.00     0.049 A 
ATOM     17  C2  FU7 d   1      13.568  -1.172  53.099  0.00  0.00     0.084 A 
ATOM     18  C3  FU7 d   1      12.235  -1.150  53.610  0.00  0.00    -0.029 A 
ATOM     19  C4  FU7 d   1      11.144  -1.016  52.726  0.00  0.00     0.038 A 
ATOM     20  H1  FU7 d   1      12.062  -1.236  54.676  0.00  0.00     0.090 H 
ATOM     21 CL2  FU7 d   1       9.543  -1.016  53.353  0.00  0.00    -0.084 Cl
ATOM     22  C5  FU7 d   1      11.345  -0.883  51.333  0.00  0.00    -0.040 A 
ATOM     23  C6  FU7 d   1      12.659  -0.899  50.804  0.00  0.00     0.051 A 
ATOM     24  H4  FU7 d   1      10.495  -0.769  50.670  0.00  0.00     0.088 H 
ATOM     25 CL1  FU7 d   1      12.820  -0.764  49.078  0.00  0.00    -0.083 Cl
BRANCH  17  26
ATOM     26  O2  FU7 d   1      14.718  -1.276  53.867  0.00  0.00    -0.348 OA
BRANCH  26  27
ATOM     27  C14 FU7 d   1      14.638  -1.376  55.295  0.00  0.00     0.043 C 
ATOM     28  H8  FU7 d   1      14.103  -2.296  55.575  0.00  0.00     0.077 H 
ATOM     29  H9  FU7 d   1      14.104  -0.504  55.700  0.00  0.00     0.077 H 
BRANCH  27  30
ATOM     30  C15 FU7 d   1      16.059  -1.416  55.850  0.00  0.00     0.036 C 
ATOM     31  H10 FU7 d   1      16.508  -0.422  55.706  0.00  0.00     0.070 H 
ATOM     32  H11 FU7 d   1      15.998  -1.639  56.925  0.00  0.00     0.070 H 
BRANCH  30  33
ATOM     33  N6  FU7 d   1      16.933  -2.394  55.240  0.00  0.00    -0.279 N 
ATOM     34  N7  FU7 d   1      16.785  -3.699  55.536  0.00  0.00    -0.185 NA
ATOM     35  C18 FU7 d   1      17.743  -4.282  54.813  0.00  0.00     0.023 A 
ATOM     36  C17 FU7 d   1      18.497  -3.358  54.064  0.00  0.00    -0.048 A 
ATOM     37  H14 FU7 d   1      17.922  -5.356  54.803  0.00  0.00     0.117 H 
ATOM     38  C16 FU7 d   1      17.949  -2.140  54.361  0.00  0.00    -0.000 A 
ATOM     39  H13 FU7 d   1      19.331  -3.567  53.396  0.00  0.00     0.087 H 
ATOM     40  H12 FU7 d   1      18.258  -1.169  53.977  0.00  0.00     0.114 H 
ENDBRANCH  30  33
ENDBRANCH  27  30
ENDBRANCH  26  27
ENDBRANCH  17  26
ENDBRANCH  11  16
BRANCH  10  41
ATOM     41  N4  FU7 d   1      17.688   0.523  49.241  0.00  0.00    -0.231 N 
ATOM     42  H2  FU7 d   1      18.612   0.360  48.816  0.00  0.00     0.174 HD
ATOM     43  H3  FU7 d   1      17.255   1.456  49.191  0.00  0.00     0.174 HD
ENDBRANCH  10  41
BRANCH   5  44
ATOM     44  C19 FU7 d   1      17.224  -8.348  52.091  0.00  0.00     0.057 C 
ATOM     45  H15 FU7 d   1      17.603  -8.975  51.270  0.00  0.00     0.073 H 
ATOM     46  H16 FU7 d   1      16.190  -8.639  52.327  0.00  0.00     0.073 H 
BRANCH  44  47
ATOM     47  C20 FU7 d   1      18.088  -8.566  53.315  0.00  0.00     0.255 C 
ATOM     48  F1  FU7 d   1      17.649  -7.776  54.326  0.00  0.00    -0.205 F 
ATOM     49  F2  FU7 d   1      19.361  -8.200  53.049  0.00  0.00    -0.205 F 
BRANCH  47  50
ATOM     50  C21 FU7 d   1      18.077 -10.003  53.789  0.00  0.00    -0.015 C 
ATOM     51  H17 FU7 d   1      17.043 -10.309  54.008  0.00  0.00     0.035 H 
ATOM     52  H18 FU7 d   1      18.687 -10.093  54.700  0.00  0.00     0.035 H 
ATOM     53  H19 FU7 d   1      18.493 -10.651  53.004  0.00  0.00     0.035 H 
ENDBRANCH  47  50
ENDBRANCH  44  47
ENDBRANCH   5  44
TORSDOF 9
