REMARK  21 active torsions:
REMARK  status: ('A' for Active; 'I' for Inactive)
REMARK    1  A    between atoms: C_1  and  CA_4 
REMARK       I    between atoms: NBY_49  and  C_1 
REMARK    2  A    between atoms: CB_5  and  CG2_51 
REMARK    3  A    between atoms: CBU_46  and  CAB_6 
REMARK    4  A    between atoms: CBK_37  and  OAF_9 
REMARK    5  A    between atoms: CBL_38  and  OAG_10 
REMARK    6  A    between atoms: CBM_39  and  OAH_11 
REMARK    7  A    between atoms: CBN_40  and  OAI_12 
REMARK    8  A    between atoms: CBO_41  and  OAJ_13 
REMARK    9  A    between atoms: CBP_42  and  OAK_14 
REMARK   10  A    between atoms: CAU_24  and  CAW_26 
REMARK   11  A    between atoms: CAY_28  and  CAU_24 
REMARK   12  A    between atoms: CAX_27  and  CAV_25 
REMARK   13  A    between atoms: CAV_25  and  CAZ_29 
REMARK   14  A    between atoms: CAW_26  and  NBB_30 
REMARK   15  A    between atoms: NBC_31  and  CAX_27 
REMARK   16  A    between atoms: NBY_49  and  CAY_28 
REMARK   17  A    between atoms: CAZ_29  and  NBY_49 
REMARK       I    between atoms: NBB_30  and  CBG_34 
REMARK       I    between atoms: CBH_35  and  NBC_31 
REMARK   18  A    between atoms: CBG_34  and  CBQ_43 
REMARK   19  A    between atoms: CBX_48  and  CBH_35 
REMARK   20  A    between atoms: CBJ_36  and  CBR_44 
REMARK   21  A    between atoms: CBS_45  and  CBW_47 
ROOT
ATOM      1  C   VBN d   1      24.588  18.115   4.483  0.00  0.00     0.253 C 
ATOM      2  O   VBN d   1      23.748  18.830   4.918  0.00  0.00    -0.271 OA
ATOM      3  NBY VBN d   1      25.708  18.666   3.729  0.00  0.00    -0.350 N 
ENDROOT
BRANCH   3   4
ATOM      4  CAY VBN d   1      25.699  20.103   3.439  0.00  0.00    -0.001 C 
ATOM      5  H31 VBN d   1      26.203  20.254   2.473  0.00  0.00     0.064 H 
ATOM      6  H32 VBN d   1      24.650  20.423   3.359  0.00  0.00     0.064 H 
BRANCH   4   7
ATOM      7  CAU VBN d   1      26.385  21.003   4.469  0.00  0.00    -0.035 C 
ATOM      8  H23 VBN d   1      27.302  20.496   4.804  0.00  0.00     0.037 H 
ATOM      9  H24 VBN d   1      26.649  21.947   3.971  0.00  0.00     0.037 H 
BRANCH   7  10
ATOM     10  CAW VBN d   1      25.550  21.343   5.715  0.00  0.00    -0.003 C 
ATOM     11  H27 VBN d   1      24.524  21.555   5.381  0.00  0.00     0.064 H 
ATOM     12  H28 VBN d   1      25.982  22.247   6.169  0.00  0.00     0.064 H 
BRANCH  10  13
ATOM     13  NBB VBN d   1      25.474  20.319   6.754  0.00  0.00    -0.357 N 
ATOM     14  CBG VBN d   1      26.079  20.553   8.045  0.00  0.00     0.254 C 
ATOM     15  OAC VBN d   1      26.684  21.539   8.282  0.00  0.00    -0.268 OA
ATOM     16  H35 VBN d   1      25.003  19.456   6.572  0.00  0.00     0.162 HD
BRANCH  14  17
ATOM     17  CBQ VBN d   1      25.822  19.557   9.170  0.00  0.00     0.067 A 
ATOM     18  CAR VBN d   1      26.066  19.960  10.443  0.00  0.00    -0.065 A 
ATOM     19  CAL VBN d   1      25.790  19.058  11.535  0.00  0.00    -0.079 A 
ATOM     20  H20 VBN d   1      26.464  20.949  10.637  0.00  0.00     0.085 H 
ATOM     21  CAO VBN d   1      25.265  17.746  11.282  0.00  0.00    -0.048 A 
ATOM     22  H14 VBN d   1      25.981  19.374  12.554  0.00  0.00     0.083 H 
ATOM     23  CBK VBN d   1      25.020  17.340   9.938  0.00  0.00     0.099 A 
ATOM     24  H17 VBN d   1      25.057  17.071  12.104  0.00  0.00     0.087 H 
ATOM     25  CBN VBN d   1      25.273  18.191   8.902  0.00  0.00     0.114 A 
BRANCH  23  26
ATOM     26  OAF VBN d   1      24.538  16.083   9.645  0.00  0.00    -0.358 OA
ATOM     27  H8  VBN d   1      23.695  15.962  10.067  0.00  0.00     0.217 HD
ENDBRANCH  23  26
BRANCH  25  28
ATOM     28  OAI VBN d   1      25.047  17.727   7.615  0.00  0.00    -0.357 OA
ATOM     29  H11 VBN d   1      25.594  16.967   7.453  0.00  0.00     0.217 HD
ENDBRANCH  25  28
ENDBRANCH  14  17
ENDBRANCH  10  13
ENDBRANCH   7  10
ENDBRANCH   4   7
ENDBRANCH   3   4
BRANCH   3  30
ATOM     30  CAZ VBN d   1      26.717  17.787   3.130  0.00  0.00    -0.001 C 
ATOM     31  H33 VBN d   1      27.001  17.034   3.880  0.00  0.00     0.064 H 
ATOM     32  H34 VBN d   1      26.261  17.287   2.263  0.00  0.00     0.064 H 
BRANCH  30  33
ATOM     33  CAV VBN d   1      27.998  18.493   2.654  0.00  0.00    -0.035 C 
ATOM     34  H25 VBN d   1      27.748  19.095   1.768  0.00  0.00     0.037 H 
ATOM     35  H26 VBN d   1      28.343  19.155   3.461  0.00  0.00     0.037 H 
BRANCH  33  36
ATOM     36  CAX VBN d   1      29.161  17.545   2.279  0.00  0.00    -0.003 C 
ATOM     37  H29 VBN d   1      29.984  18.136   1.850  0.00  0.00     0.064 H 
ATOM     38  H30 VBN d   1      28.806  16.816   1.535  0.00  0.00     0.064 H 
BRANCH  36  39
ATOM     39  NBC VBN d   1      29.649  16.829   3.456  0.00  0.00    -0.359 N 
ATOM     40  CBH VBN d   1      29.181  15.472   3.753  0.00  0.00     0.251 C 
ATOM     41  OAD VBN d   1      28.433  14.866   3.041  0.00  0.00    -0.271 OA
ATOM     42  H36 VBN d   1      30.309  17.269   4.065  0.00  0.00     0.162 HD
BRANCH  40  43
ATOM     43  CBX VBN d   1      29.584  14.936   5.121  0.00  0.00     0.205 C 
ATOM     44  NBD VBN d   1      28.453  14.752   6.041  0.00  0.00    -0.029 N 
ATOM     45  CBW VBN d   1      28.173  13.360   5.877  0.00  0.00     0.222 C 
ATOM     46  H37 VBN d   1      28.713  14.966   6.991  0.00  0.00     0.281 HD
ATOM     47  H38 VBN d   1      27.665  15.320   5.773  0.00  0.00     0.281 HD
ATOM     48  OBF VBN d   1      29.332  12.608   5.689  0.00  0.00    -0.348 OA
ATOM     49  H41 VBN d   1      27.730  13.354   4.870  0.00  0.00     0.137 H 
ATOM     50  CBU VBN d   1      30.381  13.539   5.178  0.00  0.00     0.074 C 
ATOM     51  H40 VBN d   1      30.630  13.256   4.145  0.00  0.00     0.086 H 
ATOM     52  H42 VBN d   1      30.247  15.703   5.549  0.00  0.00     0.103 H 
BRANCH  45  53
ATOM     53  CBS VBN d   1      27.079  12.687   6.656  0.00  0.00     0.033 A 
ATOM     54  CAT VBN d   1      27.074  11.368   6.918  0.00  0.00    -0.070 A 
ATOM     55  CAN VBN d   1      25.960  10.769   7.560  0.00  0.00    -0.080 A 
ATOM     56  H22 VBN d   1      27.926  10.759   6.637  0.00  0.00     0.084 H 
ATOM     57  CAQ VBN d   1      24.813  11.552   7.916  0.00  0.00    -0.048 A 
ATOM     58  H16 VBN d   1      25.976   9.709   7.784  0.00  0.00     0.083 H 
ATOM     59  CBM VBN d   1      24.820  12.913   7.620  0.00  0.00     0.099 A 
ATOM     60  H19 VBN d   1      23.960  11.095   8.404  0.00  0.00     0.087 H 
ATOM     61  CBP VBN d   1      25.898  13.485   7.000  0.00  0.00     0.109 A 
BRANCH  59  62
ATOM     62  OAH VBN d   1      23.735  13.727   7.898  0.00  0.00    -0.358 OA
ATOM     63  H10 VBN d   1      23.929  14.616   7.625  0.00  0.00     0.217 HD
ENDBRANCH  59  62
BRANCH  61  64
ATOM     64  OAK VBN d   1      25.947  14.843   6.787  0.00  0.00    -0.357 OA
ATOM     65  H13 VBN d   1      26.760  15.065   6.348  0.00  0.00     0.217 HD
ENDBRANCH  61  64
ENDBRANCH  45  53
BRANCH  50  66
ATOM     66  CAB VBN d   1      31.692  13.467   5.941  0.00  0.00    -0.050 C 
ATOM     67  H5  VBN d   1      32.409  14.179   5.506  0.00  0.00     0.031 H 
ATOM     68  H6  VBN d   1      32.100  12.448   5.873  0.00  0.00     0.031 H 
ATOM     69  H7  VBN d   1      31.517  13.722   6.997  0.00  0.00     0.031 H 
ENDBRANCH  50  66
ENDBRANCH  40  43
ENDBRANCH  36  39
ENDBRANCH  33  36
ENDBRANCH  30  33
ENDBRANCH   3  30
BRANCH   1  70
ATOM     70  CA  VBN d   1      24.435  16.600   4.511  0.00  0.00     0.205 C 
ATOM     71  N   VBN d   1      23.568  16.049   5.538  0.00  0.00    -0.029 N 
ATOM     72  CBJ VBN d   1      22.254  16.061   4.950  0.00  0.00     0.222 C 
ATOM     73  H1  VBN d   1      23.592  16.621   6.368  0.00  0.00     0.281 HD
ATOM     74  H2  VBN d   1      23.845  15.108   5.770  0.00  0.00     0.281 HD
ATOM     75  OG1 VBN d   1      22.339  15.881   3.553  0.00  0.00    -0.348 OA
ATOM     76  H39 VBN d   1      22.037  17.138   4.994  0.00  0.00     0.137 H 
ATOM     77  CB  VBN d   1      23.788  15.996   3.208  0.00  0.00     0.074 C 
ATOM     78  H4  VBN d   1      23.856  16.783   2.443  0.00  0.00     0.086 H 
ATOM     79  H3  VBN d   1      25.447  16.188   4.642  0.00  0.00     0.103 H 
BRANCH  72  80
ATOM     80  CBR VBN d   1      21.045  15.570   5.707  0.00  0.00     0.033 A 
ATOM     81  CAS VBN d   1      19.953  15.199   5.031  0.00  0.00    -0.070 A 
ATOM     82  CAM VBN d   1      18.780  14.917   5.746  0.00  0.00    -0.080 A 
ATOM     83  H21 VBN d   1      19.974  15.118   3.950  0.00  0.00     0.084 H 
ATOM     84  CAP VBN d   1      18.745  15.043   7.164  0.00  0.00    -0.048 A 
ATOM     85  H15 VBN d   1      17.891  14.600   5.214  0.00  0.00     0.083 H 
ATOM     86  CBL VBN d   1      19.893  15.461   7.862  0.00  0.00     0.099 A 
ATOM     87  H18 VBN d   1      17.834  14.817   7.706  0.00  0.00     0.087 H 
ATOM     88  CBO VBN d   1      21.002  15.727   7.169  0.00  0.00     0.109 A 
BRANCH  86  89
ATOM     89  OAG VBN d   1      19.889  15.596   9.238  0.00  0.00    -0.358 OA
ATOM     90  H9  VBN d   1      20.746  15.885   9.529  0.00  0.00     0.217 HD
ENDBRANCH  86  89
BRANCH  88  91
ATOM     91  OAJ VBN d   1      22.152  16.078   7.807  0.00  0.00    -0.357 OA
ATOM     92  H12 VBN d   1      22.415  15.377   8.391  0.00  0.00     0.217 HD
ENDBRANCH  88  91
ENDBRANCH  72  80
BRANCH  77  93
ATOM     93  CG2 VBN d   1      24.469  14.808   2.547  0.00  0.00    -0.050 C 
ATOM     94  H43 VBN d   1      23.898  14.507   1.656  0.00  0.00     0.031 H 
ATOM     95  H44 VBN d   1      24.511  13.968   3.256  0.00  0.00     0.031 H 
ATOM     96  H45 VBN d   1      25.490  15.089   2.250  0.00  0.00     0.031 H 
ENDBRANCH  77  93
ENDBRANCH   1  70
TORSDOF 21
