REMARK  6 active torsions:
REMARK  status: ('A' for Active; 'I' for Inactive)
REMARK    1  A    between atoms: C4_1  and  C5_2 
REMARK    2  A    between atoms: C4_1  and  O6_6 
REMARK    3  A    between atoms: C5_2  and  N1_7 
REMARK    4  A    between atoms: N1_7  and  C6_3 
REMARK    5  A    between atoms: N1_7  and  C7_4 
REMARK    6  A    between atoms: N1_7  and  C8_5 
ROOT
ATOM      1  N1  CHT d   1      -5.825   4.171 -21.308  0.00  0.00    -0.077 N 
ENDROOT
BRANCH   1   2
ATOM      2  C5  CHT d   1      -4.362   4.534 -21.255  0.00  0.00     0.103 C 
ATOM      3  H3  CHT d   1      -3.982   4.511 -22.287  0.00  0.00     0.079 H 
ATOM      4  H4  CHT d   1      -4.293   5.559 -20.861  0.00  0.00     0.079 H 
BRANCH   2   5
ATOM      5  C4  CHT d   1      -3.444   3.666 -20.417  0.00  0.00     0.040 C 
ATOM      6  H1  CHT d   1      -2.400   3.868 -20.699  0.00  0.00     0.076 H 
ATOM      7  H2  CHT d   1      -3.676   2.608 -20.606  0.00  0.00     0.076 H 
BRANCH   5   8
ATOM      8  O6  CHT d   1      -3.620   3.949 -18.986  0.00  0.00    -0.399 OA
ATOM      9  H14 CHT d   1      -3.036   3.395 -18.481  0.00  0.00     0.209 HD
ENDBRANCH   5   8
ENDBRANCH   2   5
ENDBRANCH   1   2
BRANCH   1  10
ATOM     10  C6  CHT d   1      -6.413   5.204 -22.171  0.00  0.00     0.067 C 
ATOM     11  H5  CHT d   1      -7.493   5.025 -22.273  0.00  0.00     0.068 H 
ATOM     12  H6  CHT d   1      -5.939   5.166 -23.163  0.00  0.00     0.068 H 
ATOM     13  H7  CHT d   1      -6.247   6.195 -21.723  0.00  0.00     0.068 H 
ENDBRANCH   1  10
BRANCH   1  14
ATOM     14  C7  CHT d   1      -6.180   2.919 -21.972  0.00  0.00     0.067 C 
ATOM     15  H8  CHT d   1      -5.780   2.072 -21.395  0.00  0.00     0.068 H 
ATOM     16  H9  CHT d   1      -5.753   2.907 -22.985  0.00  0.00     0.068 H 
ATOM     17  H10 CHT d   1      -7.275   2.835 -22.035  0.00  0.00     0.068 H 
ENDBRANCH   1  14
BRANCH   1  18
ATOM     18  C8  CHT d   1      -6.435   4.119 -19.969  0.00  0.00     0.067 C 
ATOM     19  H11 CHT d   1      -6.198   5.043 -19.422  0.00  0.00     0.068 H 
ATOM     20  H12 CHT d   1      -6.037   3.254 -19.418  0.00  0.00     0.068 H 
ATOM     21  H13 CHT d   1      -7.526   4.021 -20.067  0.00  0.00     0.068 H 
ENDBRANCH   1  18
TORSDOF 6
