REMARK  8 active torsions:
REMARK  status: ('A' for Active; 'I' for Inactive)
REMARK    1  A    between atoms: C_1  and  C14_18 
REMARK    2  A    between atoms: S_4  and  N16_20 
REMARK    3  A    between atoms: N20_24  and  S_4 
REMARK    4  A    between atoms: C12_16  and  N20_24 
REMARK    5  A    between atoms: N16_20  and  C15_19 
REMARK    6  A    between atoms: N16_20  and  C17_21 
REMARK    7  A    between atoms: C17_21  and  C21_25 
REMARK    8  A    between atoms: N28_32  and  C31_35 
ROOT
ATOM      1  C   M61 d   1      -4.443  -8.361 -16.555  0.00  0.00    -0.004 A 
ATOM      2  N   M61 d   1      -6.776  -8.924 -16.665  0.00  0.00    -0.259 NA
ATOM      3  O   M61 d   1      -5.140  -6.467 -13.105  0.00  0.00    -0.287 OA
ATOM      4  C1  M61 d   1      -5.509  -9.064 -17.073  0.00  0.00     0.014 A 
ATOM      5  C2  M61 d   1      -7.007  -8.038 -15.686  0.00  0.00     0.070 A 
ATOM      6  C3  M61 d   1      -5.985  -7.352 -15.046  0.00  0.00     0.044 A 
ATOM      7  C4  M61 d   1      -4.686  -7.521 -15.487  0.00  0.00    -0.055 A 
ATOM      8  C5  M61 d   1      -8.425  -7.968 -15.395  0.00  0.00    -0.053 C 
ATOM      9  C6  M61 d   1      -9.093  -7.110 -14.622  0.00  0.00    -0.070 C 
ATOM     10  C7  M61 d   1      -8.603  -5.996 -13.836  0.00  0.00    -0.022 A 
ATOM     11  C8  M61 d   1      -7.292  -5.702 -13.496  0.00  0.00     0.027 A 
ATOM     12  C9  M61 d   1      -6.114  -6.508 -13.851  0.00  0.00     0.195 C 
ATOM     13  C10 M61 d   1      -9.601  -5.137 -13.429  0.00  0.00    -0.070 A 
ATOM     14  C11 M61 d   1      -9.314  -4.030 -12.671  0.00  0.00    -0.056 A 
ATOM     15  C12 M61 d   1      -8.017  -3.773 -12.289  0.00  0.00     0.044 A 
ATOM     16  C13 M61 d   1      -7.005  -4.603 -12.710  0.00  0.00    -0.042 A 
ATOM     17  H1  M61 d   1      -5.308  -9.778 -17.864  0.00  0.00     0.116 H 
ATOM     18  H2  M61 d   1      -3.869  -7.001 -15.001  0.00  0.00     0.086 H 
ATOM     19  H3  M61 d   1      -9.036  -8.729 -15.879  0.00  0.00     0.087 H 
ATOM     20  H4  M61 d   1     -10.169  -7.271 -14.575  0.00  0.00     0.084 H 
ATOM     21  H5  M61 d   1     -10.628  -5.339 -13.712  0.00  0.00     0.084 H 
ATOM     22  H6  M61 d   1     -10.110  -3.357 -12.373  0.00  0.00     0.087 H 
ATOM     23  H7  M61 d   1      -5.980  -4.395 -12.425  0.00  0.00     0.088 H 
ENDROOT
BRANCH  15  24
ATOM     24  N20 M61 d   1      -7.816  -2.625 -11.454  0.00  0.00    -0.268 N 
ATOM     25  H13 M61 d   1      -8.626  -2.137 -11.129  0.00  0.00     0.180 HD
BRANCH  24  26
ATOM     26  S   M61 d   1      -6.277  -2.031 -10.975  0.00  0.00     0.321 S 
ATOM     27  O18 M61 d   1      -6.632  -0.944 -10.082  0.00  0.00    -0.182 OA
ATOM     28  O19 M61 d   1      -5.380  -3.073 -10.517  0.00  0.00    -0.182 OA
BRANCH  26  29
ATOM     29  N16 M61 d   1      -5.654  -1.344 -12.415  0.00  0.00    -0.296 N 
BRANCH  29  30
ATOM     30  C15 M61 d   1      -6.597  -0.599 -13.270  0.00  0.00    -0.007 C 
ATOM     31  H8  M61 d   1      -6.066  -0.215 -14.154  0.00  0.00     0.057 H 
ATOM     32  H9  M61 d   1      -7.020   0.243 -12.702  0.00  0.00     0.057 H 
ATOM     33  H10 M61 d   1      -7.408  -1.269 -13.592  0.00  0.00     0.057 H 
ENDBRANCH  29  30
BRANCH  29  34
ATOM     34  C17 M61 d   1      -4.665  -2.118 -13.193  0.00  0.00     0.032 C 
ATOM     35  H11 M61 d   1      -4.997  -2.205 -14.238  0.00  0.00     0.069 H 
ATOM     36  H12 M61 d   1      -4.551  -3.122 -12.759  0.00  0.00     0.069 H 
BRANCH  34  37
ATOM     37  C21 M61 d   1      -3.345  -1.378 -13.132  0.00  0.00     0.075 C 
ATOM     38  C22 M61 d   1      -2.984  -0.832 -14.500  0.00  0.00     0.045 C 
ATOM     39  O23 M61 d   1      -1.754  -0.122 -14.400  0.00  0.00    -0.386 OA
ATOM     40  H15 M61 d   1      -3.776  -0.152 -14.848  0.00  0.00     0.078 H 
ATOM     41  H16 M61 d   1      -2.874  -1.663 -15.213  0.00  0.00     0.078 H 
ATOM     42  C24 M61 d   1      -0.730  -1.025 -13.992  0.00  0.00     0.039 C 
ATOM     43  C25 M61 d   1      -1.088  -1.588 -12.629  0.00  0.00     0.040 C 
ATOM     44  H17 M61 d   1       0.230  -0.492 -13.931  0.00  0.00     0.077 H 
ATOM     45  H18 M61 d   1      -0.648  -1.845 -14.721  0.00  0.00     0.077 H 
ATOM     46  O26 M61 d   1      -2.325  -2.286 -12.723  0.00  0.00    -0.380 OA
ATOM     47  H19 M61 d   1      -1.183  -0.766 -11.904  0.00  0.00     0.077 H 
ATOM     48  H20 M61 d   1      -0.299  -2.279 -12.297  0.00  0.00     0.077 H 
ATOM     49  H14 M61 d   1      -3.420  -0.550 -12.412  0.00  0.00     0.089 H 
ENDBRANCH  34  37
ENDBRANCH  29  34
ENDBRANCH  26  29
ENDBRANCH  24  26
ENDBRANCH  15  24
BRANCH   1  50
ATOM     50  C14 M61 d   1      -3.113  -8.512 -17.085  0.00  0.00     0.012 A 
ATOM     51  C27 M61 d   1      -2.797  -9.217 -18.224  0.00  0.00     0.011 A 
ATOM     52  N28 M61 d   1      -1.453  -9.034 -18.385  0.00  0.00    -0.276 N 
ATOM     53  H21 M61 d   1      -3.470  -9.793 -18.857  0.00  0.00     0.115 H 
ATOM     54  N29 M61 d   1      -0.881  -8.255 -17.449  0.00  0.00    -0.184 NA
ATOM     55  C30 M61 d   1      -1.895  -7.938 -16.644  0.00  0.00     0.034 A 
ATOM     56  H22 M61 d   1      -1.799  -7.314 -15.756  0.00  0.00     0.118 H 
BRANCH  52  57
ATOM     57  C31 M61 d   1      -0.650  -9.571 -19.471  0.00  0.00     0.037 C 
ATOM     58  C32 M61 d   1       0.390 -10.539 -18.927  0.00  0.00    -0.022 C 
ATOM     59  C33 M61 d   1       1.417 -10.941 -19.969  0.00  0.00     0.084 C 
ATOM     60  H24 M61 d   1      -0.124 -11.444 -18.572  0.00  0.00     0.038 H 
ATOM     61  H25 M61 d   1       0.911 -10.059 -18.086  0.00  0.00     0.038 H 
ATOM     62  N34 M61 d   1       2.004  -9.707 -20.548  0.00  0.00    -0.075 N 
ATOM     63  H26 M61 d   1       0.931 -11.529 -20.762  0.00  0.00     0.075 H 
ATOM     64  H27 M61 d   1       2.208 -11.543 -19.498  0.00  0.00     0.075 H 
ATOM     65  C35 M61 d   1       0.978  -8.897 -21.260  0.00  0.00     0.084 C 
ATOM     66  H28 M61 d   1       2.729  -9.964 -21.200  0.00  0.00     0.277 HD
ATOM     67  H29 M61 d   1       2.401  -9.153 -19.805  0.00  0.00     0.277 HD
ATOM     68  C36 M61 d   1      -0.014  -8.415 -20.222  0.00  0.00    -0.022 C 
ATOM     69  H30 M61 d   1       0.466  -9.515 -22.012  0.00  0.00     0.075 H 
ATOM     70  H31 M61 d   1       1.454  -8.037 -21.754  0.00  0.00     0.075 H 
ATOM     71  H32 M61 d   1       0.509  -7.768 -19.503  0.00  0.00     0.038 H 
ATOM     72  H33 M61 d   1      -0.805  -7.839 -20.725  0.00  0.00     0.038 H 
ATOM     73  H23 M61 d   1      -1.305 -10.121 -20.163  0.00  0.00     0.076 H 
ENDBRANCH  52  57
ENDBRANCH   1  50
TORSDOF 8
