REMARK  6 active torsions:
REMARK  status: ('A' for Active; 'I' for Inactive)
REMARK    1  A    between atoms: OAH_8  and  CAA_1 
REMARK    2  A    between atoms: OAI_9  and  CAB_2 
REMARK    3  A    between atoms: CAK_11  and  NAC_3 
REMARK    4  A    between atoms: CAL_12  and  OAH_8 
REMARK    5  A    between atoms: CAM_13  and  OAI_9 
REMARK    6  A    between atoms: CAN_14  and  CAJ_10 
ROOT
ATOM      1  CAF 14F d   1      -5.414 -29.227   5.258  0.00  0.00    -0.022 A 
ATOM      2  CAG 14F d   1      -3.675 -30.474   7.046  0.00  0.00    -0.029 A 
ATOM      3  CAK 14F d   1      -4.037 -29.020   5.162  0.00  0.00     0.045 A 
ATOM      4  CAL 14F d   1      -5.935 -30.049   6.263  0.00  0.00     0.103 A 
ATOM      5  CAM 14F d   1      -5.046 -30.667   7.157  0.00  0.00     0.102 A 
ATOM      6  CAN 14F d   1      -3.169 -29.644   6.067  0.00  0.00     0.069 A 
ATOM      7  H9  14F d   1      -6.082 -28.749   4.551  0.00  0.00     0.091 H 
ATOM      8  H10 14F d   1      -3.001 -30.977   7.730  0.00  0.00     0.089 H 
ENDROOT
BRANCH   4   9
ATOM      9  OAH 14F d   1      -7.280 -30.286   6.406  0.00  0.00    -0.353 OA
BRANCH   9  10
ATOM     10  CAA 14F d   1      -8.239 -29.402   5.791  0.00  0.00     0.010 C 
ATOM     11  H1  14F d   1      -9.257 -29.752   6.016  0.00  0.00     0.066 H 
ATOM     12  H2  14F d   1      -8.086 -29.395   4.702  0.00  0.00     0.066 H 
ATOM     13  H3  14F d   1      -8.106 -28.384   6.186  0.00  0.00     0.066 H 
ENDBRANCH   9  10
ENDBRANCH   4   9
BRANCH   5  14
ATOM     14  OAI 14F d   1      -5.504 -31.481   8.134  0.00  0.00    -0.353 OA
BRANCH  14  15
ATOM     15  CAB 14F d   1      -4.418 -32.113   8.880  0.00  0.00     0.010 C 
ATOM     16  H4  14F d   1      -4.839 -32.763   9.661  0.00  0.00     0.066 H 
ATOM     17  H5  14F d   1      -3.794 -31.337   9.347  0.00  0.00     0.066 H 
ATOM     18  H6  14F d   1      -3.804 -32.715   8.194  0.00  0.00     0.066 H 
ENDBRANCH  14  15
ENDBRANCH   5  14
BRANCH   3  19
ATOM     19  NAC 14F d   1      -3.557 -28.231   4.210  0.00  0.00    -0.398 N 
ATOM     20  H7  14F d   1      -4.199 -27.774   3.547  0.00  0.00     0.156 HD
ATOM     21  H8  14F d   1      -2.542 -28.075   4.134  0.00  0.00     0.156 HD
ENDBRANCH   3  19
BRANCH   6  22
ATOM     22  CAJ 14F d   1      -1.666 -29.458   5.996  0.00  0.00     0.211 C 
ATOM     23  OAD 14F d   1      -0.946 -30.076   6.814  0.00  0.00    -0.644 OA
ATOM     24  OAE 14F d   1      -1.231 -28.693   5.115  0.00  0.00    -0.644 OA
ENDBRANCH   6  22
TORSDOF 6
