REMARK  6 active torsions:
REMARK  status: ('A' for Active; 'I' for Inactive)
REMARK    1  A    between atoms: C6_2  and  C5_4 
REMARK    2  A    between atoms: C5_4  and  C4_5 
REMARK    3  A    between atoms: C4_5  and  C2_6 
REMARK    4  A    between atoms: C2_6  and  C3_7 
REMARK    5  A    between atoms: C2_6  and  C1_10 
REMARK    6  A    between atoms: C1_10  and  P1_11 
ROOT
ATOM      1  C2  G88 d   1     -34.707  20.638  37.805  0.00  0.00     0.043 C 
ATOM      2  H5  G88 d   1     -34.942  21.707  37.695  0.00  0.00     0.057 H 
ENDROOT
BRANCH   1   3
ATOM      3  C4  G88 d   1     -35.970  19.987  38.411  0.00  0.00    -0.043 C 
ATOM      4  H3  G88 d   1     -36.088  20.322  39.452  0.00  0.00     0.035 H 
ATOM      5  H4  G88 d   1     -36.851  20.290  37.827  0.00  0.00     0.035 H 
BRANCH   3   6
ATOM      6  C5  G88 d   1     -35.839  18.432  38.380  0.00  0.00     0.017 C 
ATOM      7  H1  G88 d   1     -35.949  18.123  37.330  0.00  0.00     0.049 H 
ATOM      8  H2  G88 d   1     -34.825  18.189  38.729  0.00  0.00     0.049 H 
BRANCH   6   9
ATOM      9  C6  G88 d   1     -36.685  17.686  39.096  0.00  0.00     0.172 C 
ATOM     10  O6  G88 d   1     -37.472  18.307  39.858  0.00  0.00    -0.648 OA
ATOM     11  O7  G88 d   1     -36.689  16.416  39.009  0.00  0.00    -0.648 OA
ENDBRANCH   6   9
ENDBRANCH   3   6
ENDBRANCH   1   3
BRANCH   1  12
ATOM     12  C3  G88 d   1     -33.633  20.509  38.841  0.00  0.00     0.177 C 
ATOM     13  O5  G88 d   1     -33.684  21.268  39.852  0.00  0.00    -0.648 OA
ATOM     14  O4  G88 d   1     -32.715  19.655  38.664  0.00  0.00    -0.648 OA
ENDBRANCH   1  12
BRANCH   1  15
ATOM     15  C1  G88 d   1     -34.174  20.183  36.376  0.00  0.00     0.051 C 
ATOM     16  H6  G88 d   1     -35.017  20.054  35.682  0.00  0.00     0.055 H 
ATOM     17  H7  G88 d   1     -33.623  19.235  36.463  0.00  0.00     0.055 H 
BRANCH  15  18
ATOM     18  P1  G88 d   1     -33.012  21.563  35.748  0.00  0.00     0.260 P 
ATOM     19  O2  G88 d   1     -32.545  22.333  36.973  0.00  0.00    -0.640 OA
ATOM     20  O3  G88 d   1     -31.663  21.083  35.256  0.00  0.00    -0.640 OA
ATOM     21  O1  G88 d   1     -33.777  22.661  34.953  0.00  0.00    -0.640 OA
ENDBRANCH  15  18
ENDBRANCH   1  15
TORSDOF 6
