REMARK  5 active torsions:
REMARK  status: ('A' for Active; 'I' for Inactive)
REMARK    1  A    between atoms: C11_1  and  C10_4 
REMARK    2  A    between atoms: C10_4  and  C9_5 
REMARK    3  A    between atoms: C9_5  and  C8_6 
REMARK    4  A    between atoms: C8_6  and  C7_7 
REMARK    5  A    between atoms: C7_7  and  C2_8 
ROOT
ATOM      1  C2  BTN d   1     -27.590 -18.040  10.128  0.00  0.00     0.012 C 
ATOM      2  S1  BTN d   1     -26.639 -17.976   8.698  0.00  0.00    -0.160 SA
ATOM      3  C6  BTN d   1     -28.078 -18.503   7.725  0.00  0.00    -0.002 C 
ATOM      4  C5  BTN d   1     -29.264 -17.740   8.309  0.00  0.00     0.041 A 
ATOM      5  N1  BTN d   1     -29.429 -16.438   7.714  0.00  0.00    -0.347 N 
ATOM      6  C3  BTN d   1     -29.193 -15.496   8.597  0.00  0.00     0.248 A 
ATOM      7  O3  BTN d   1     -29.206 -14.163   8.280  0.00  0.00    -0.152 OA
ATOM      8  N2  BTN d   1     -28.966 -15.971   9.816  0.00  0.00    -0.347 N 
ATOM      9  C4  BTN d   1     -28.956 -17.430   9.777  0.00  0.00     0.045 A 
ATOM     10  H9  BTN d   1     -27.751 -19.105  10.352  0.00  0.00     0.059 H 
ATOM     11  H10 BTN d   1     -28.232 -19.588   7.823  0.00  0.00     0.052 H 
ATOM     12  H11 BTN d   1     -27.940 -18.247   6.664  0.00  0.00     0.052 H 
ATOM     13  H12 BTN d   1     -30.182 -18.337   8.203  0.00  0.00     0.076 H 
ATOM     14  H13 BTN d   1     -29.687 -16.275   6.762  0.00  0.00     0.163 HD
ATOM     15  H14 BTN d   1     -28.824 -15.415  10.635  0.00  0.00     0.163 HD
ATOM     16  H15 BTN d   1     -29.725 -17.840  10.448  0.00  0.00     0.077 H 
ENDROOT
BRANCH   1  17
ATOM     17  C7  BTN d   1     -26.973 -17.436  11.413  0.00  0.00    -0.051 C 
ATOM     18  H7  BTN d   1     -26.586 -16.433  11.182  0.00  0.00     0.034 H 
ATOM     19  H8  BTN d   1     -27.758 -17.358  12.180  0.00  0.00     0.034 H 
BRANCH  17  20
ATOM     20  C8  BTN d   1     -25.830 -18.289  11.964  0.00  0.00    -0.063 C 
ATOM     21  H5  BTN d   1     -26.228 -19.261  12.291  0.00  0.00     0.033 H 
ATOM     22  H6  BTN d   1     -25.081 -18.447  11.174  0.00  0.00     0.033 H 
BRANCH  20  23
ATOM     23  C9  BTN d   1     -25.166 -17.586  13.157  0.00  0.00    -0.056 C 
ATOM     24  H3  BTN d   1     -24.802 -16.599  12.835  0.00  0.00     0.033 H 
ATOM     25  H4  BTN d   1     -25.909 -17.459  13.958  0.00  0.00     0.033 H 
BRANCH  23  26
ATOM     26  C10 BTN d   1     -23.989 -18.402  13.694  0.00  0.00     0.016 C 
ATOM     27  H1  BTN d   1     -23.324 -18.659  12.856  0.00  0.00     0.049 H 
ATOM     28  H2  BTN d   1     -23.439 -17.792  14.426  0.00  0.00     0.049 H 
BRANCH  26  29
ATOM     29  C11 BTN d   1     -24.441 -19.675  14.364  0.00  0.00     0.172 C 
ATOM     30  O11 BTN d   1     -23.812 -20.743  14.198  0.00  0.00    -0.648 OA
ATOM     31  O12 BTN d   1     -25.426 -19.663  15.146  0.00  0.00    -0.648 OA
ENDBRANCH  26  29
ENDBRANCH  23  26
ENDBRANCH  20  23
ENDBRANCH  17  20
ENDBRANCH   1  17
TORSDOF 5
