REMARK  7 active torsions:
REMARK  status: ('A' for Active; 'I' for Inactive)
REMARK    1  A    between atoms: CR_4  and  CE_8 
REMARK    2  A    between atoms: CS_5  and  CT_7 
REMARK    3  A    between atoms: CE_8  and  CD_9 
REMARK    4  A    between atoms: CD_9  and  CG_10 
REMARK    5  A    between atoms: CG_10  and  CB_11 
REMARK    6  A    between atoms: CB_11  and  CA_12 
REMARK    7  A    between atoms: CA_12  and  C_13 
ROOT
ATOM      1  CE  DTB d   1      17.933  27.107 -10.158  0.00  0.00    -0.044 C 
ATOM      2  H8  DTB d   1      17.510  26.333  -9.501  0.00  0.00     0.036 H 
ATOM      3  H9  DTB d   1      19.029  27.109 -10.064  0.00  0.00     0.036 H 
ENDROOT
BRANCH   1   4
ATOM      4  CR  DTB d   1      17.393  28.473  -9.730  0.00  0.00     0.032 C 
ATOM      5  N2  DTB d   1      15.920  28.342  -9.628  0.00  0.00    -0.348 N 
ATOM      6  CN  DTB d   1      15.489  28.878  -8.545  0.00  0.00     0.248 C 
ATOM      7  H1  DTB d   1      15.341  27.896 -10.311  0.00  0.00     0.163 HD
ATOM      8  O   DTB d   1      14.231  29.107  -8.263  0.00  0.00    -0.152 OA
ATOM      9  N1  DTB d   1      16.459  29.248  -7.717  0.00  0.00    -0.348 N 
ATOM     10  CS  DTB d   1      17.761  28.946  -8.301  0.00  0.00     0.029 C 
ATOM     11  H4  DTB d   1      16.317  29.672  -6.823  0.00  0.00     0.163 HD
ATOM     12  H3  DTB d   1      18.391  29.847  -8.347  0.00  0.00     0.075 H 
ATOM     13  H2  DTB d   1      17.694  29.229 -10.470  0.00  0.00     0.075 H 
BRANCH  10  14
ATOM     14  CT  DTB d   1      18.475  27.890  -7.480  0.00  0.00    -0.055 C 
ATOM     15  H5  DTB d   1      18.704  28.294  -6.483  0.00  0.00     0.030 H 
ATOM     16  H6  DTB d   1      19.410  27.604  -7.984  0.00  0.00     0.030 H 
ATOM     17  H7  DTB d   1      17.829  27.006  -7.378  0.00  0.00     0.030 H 
ENDBRANCH  10  14
ENDBRANCH   1   4
BRANCH   1  18
ATOM     18  CD  DTB d   1      17.557  26.789 -11.612  0.00  0.00    -0.063 C 
ATOM     19  H10 DTB d   1      17.783  27.666 -12.236  0.00  0.00     0.033 H 
ATOM     20  H11 DTB d   1      16.480  26.572 -11.660  0.00  0.00     0.033 H 
BRANCH  18  21
ATOM     21  CG  DTB d   1      18.329  25.581 -12.159  0.00  0.00    -0.065 C 
ATOM     22  H12 DTB d   1      18.395  24.807 -11.380  0.00  0.00     0.033 H 
ATOM     23  H13 DTB d   1      19.342  25.897 -12.450  0.00  0.00     0.033 H 
BRANCH  21  24
ATOM     24  CB  DTB d   1      17.602  25.007 -13.387  0.00  0.00    -0.056 C 
ATOM     25  H14 DTB d   1      17.429  25.816 -14.112  0.00  0.00     0.033 H 
ATOM     26  H15 DTB d   1      16.636  24.587 -13.069  0.00  0.00     0.033 H 
BRANCH  24  27
ATOM     27  CA  DTB d   1      18.439  23.893 -14.062  0.00  0.00     0.016 C 
ATOM     28  H16 DTB d   1      17.852  23.461 -14.886  0.00  0.00     0.049 H 
ATOM     29  H17 DTB d   1      18.655  23.113 -13.317  0.00  0.00     0.049 H 
BRANCH  27  30
ATOM     30  C   DTB d   1      19.753  24.410 -14.620  0.00  0.00     0.172 C 
ATOM     31  OI1 DTB d   1      20.820  23.792 -14.399  0.00  0.00    -0.648 OA
ATOM     32  OI2 DTB d   1      19.737  25.441 -15.361  0.00  0.00    -0.648 OA
ENDBRANCH  27  30
ENDBRANCH  24  27
ENDBRANCH  21  24
ENDBRANCH  18  21
ENDBRANCH   1  18
TORSDOF 7
