REMARK  6 active torsions:
REMARK  status: ('A' for Active; 'I' for Inactive)
REMARK    1  A    between atoms: C_1  and  N_2 
REMARK    2  A    between atoms: C9_18  and  O2_6 
REMARK    3  A    between atoms: C10_19  and  O3_9 
REMARK    4  A    between atoms: C4_10  and  N5_14 
REMARK    5  A    between atoms: C12_21  and  O4_12 
REMARK    6  A    between atoms: C11_20  and  C12_21 
ROOT
ATOM      1  N   TO1 d   1       8.473   2.249  26.526  0.00  0.00    -0.309 N 
ATOM      2  C2  TO1 d   1       8.455   3.300  27.352  0.00  0.00     0.148 A 
ATOM      3  N2  TO1 d   1       7.757   4.438  27.336  0.00  0.00    -0.223 NA
ATOM      4  C3  TO1 d   1       7.887   5.380  28.249  0.00  0.00     0.091 A 
ATOM      5  N3  TO1 d   1       8.766   5.210  29.239  0.00  0.00    -0.224 NA
ATOM      6  C4  TO1 d   1       9.543   4.136  29.431  0.00  0.00     0.138 A 
ATOM      7  N4  TO1 d   1      11.803   0.645  29.376  0.00  0.00    -0.191 NA
ATOM      8  C5  TO1 d   1       9.417   3.068  28.444  0.00  0.00     0.078 A 
ATOM      9  C6  TO1 d   1       9.980   1.750  28.093  0.00  0.00     0.078 A 
ATOM     10  C7  TO1 d   1       9.346   1.260  26.891  0.00  0.00     0.005 A 
ATOM     11  C8  TO1 d   1      10.889   1.086  28.810  0.00  0.00     0.102 C 
ATOM     12  H3  TO1 d   1       7.287   6.282  28.196  0.00  0.00     0.146 H 
ATOM     13  H8  TO1 d   1       9.524   0.312  26.386  0.00  0.00     0.114 H 
ENDROOT
BRANCH   6  14
ATOM     14  N5  TO1 d   1      10.424   3.978  30.445  0.00  0.00    -0.383 N 
ATOM     15  H6  TO1 d   1      10.982   3.115  30.513  0.00  0.00     0.157 HD
ATOM     16  H7  TO1 d   1      10.537   4.721  31.149  0.00  0.00     0.157 HD
ENDBRANCH   6  14
BRANCH   1  17
ATOM     17  C   TO1 d   1       7.615   2.143  25.336  0.00  0.00     0.138 C 
ATOM     18  O   TO1 d   1       7.323   0.789  24.983  0.00  0.00    -0.353 OA
ATOM     19  C11 TO1 d   1       7.918   0.449  23.719  0.00  0.00     0.088 C 
ATOM     20  C10 TO1 d   1       8.760   1.643  23.313  0.00  0.00     0.091 C 
ATOM     21  H11 TO1 d   1       7.137   0.277  22.963  0.00  0.00     0.090 H 
ATOM     22  C9  TO1 d   1       8.197   2.786  24.092  0.00  0.00     0.105 C 
ATOM     23  H10 TO1 d   1       9.834   1.486  23.492  0.00  0.00     0.091 H 
ATOM     24  H9  TO1 d   1       8.944   3.554  24.343  0.00  0.00     0.093 H 
ATOM     25  H1  TO1 d   1       6.670   2.652  25.576  0.00  0.00     0.122 H 
BRANCH  19  26
ATOM     26  C12 TO1 d   1       8.732  -0.822  23.884  0.00  0.00     0.043 C 
ATOM     27  H12 TO1 d   1       8.343  -1.396  24.738  0.00  0.00     0.078 H 
ATOM     28  H13 TO1 d   1       8.652  -1.427  22.969  0.00  0.00     0.078 H 
BRANCH  26  29
ATOM     29  O4  TO1 d   1      10.111  -0.494  24.119  0.00  0.00    -0.398 OA
ATOM     30  H5  TO1 d   1      10.613  -1.294  24.221  0.00  0.00     0.209 HD
ENDBRANCH  26  29
ENDBRANCH  19  26
BRANCH  20  31
ATOM     31  O3  TO1 d   1       8.471   1.929  21.951  0.00  0.00    -0.390 OA
ATOM     32  H4  TO1 d   1       7.530   1.997  21.836  0.00  0.00     0.210 HD
ENDBRANCH  20  31
BRANCH  22  33
ATOM     33  O2  TO1 d   1       7.160   3.305  23.226  0.00  0.00    -0.388 OA
ATOM     34  H2  TO1 d   1       7.558   3.700  22.459  0.00  0.00     0.210 HD
ENDBRANCH  22  33
ENDBRANCH   1  17
TORSDOF 6
