REMARK  6 active torsions:
REMARK  status: ('A' for Active; 'I' for Inactive)
REMARK    1  A    between atoms: N1_1  and  S1_2 
REMARK    2  A    between atoms: S1_2  and  C1_5 
REMARK    3  A    between atoms: C4_9  and  N2_10 
REMARK    4  A    between atoms: N2_10  and  C5_11 
REMARK    5  A    between atoms: C5_11  and  C6_12 
REMARK    6  A    between atoms: C10_17  and  C12_19 
ROOT
ATOM      1  C1  FUN d   1     -49.159  46.781  13.001  0.00  0.00     0.102 C 
ATOM      2  C2  FUN d   1     -48.087  47.276  12.078  0.00  0.00     0.059 C 
ATOM      3 CL1  FUN d   1     -47.800  48.771  11.827  0.00  0.00    -0.083 Cl
ATOM      4  C3  FUN d   1     -47.321  46.368  11.329  0.00  0.00    -0.034 C 
ATOM      5  C4  FUN d   1     -47.526  44.988  11.480  0.00  0.00     0.047 C 
ATOM      6  C10 FUN d   1     -48.539  44.527  12.415  0.00  0.00     0.068 C 
ATOM      7  C11 FUN d   1     -49.323  45.411  13.236  0.00  0.00    -0.040 C 
ATOM      8  H3  FUN d   1     -46.572  46.733  10.635  0.00  0.00     0.089 H 
ATOM      9  H10 FUN d   1     -50.002  45.037  13.994  0.00  0.00     0.087 H 
ENDROOT
BRANCH   5  10
ATOM     10  N2  FUN d   1     -46.752  44.057  10.758  0.00  0.00    -0.383 N 
ATOM     11  H4  FUN d   1     -46.758  43.048  10.967  0.00  0.00     0.160 HD
BRANCH  10  12
ATOM     12  C5  FUN d   1     -45.925  44.645   9.670  0.00  0.00     0.037 C 
ATOM     13  H5  FUN d   1     -45.148  43.918   9.390  0.00  0.00     0.074 H 
ATOM     14  H6  FUN d   1     -45.450  45.562  10.049  0.00  0.00     0.074 H 
BRANCH  12  15
ATOM     15  C6  FUN d   1     -46.715  44.989   8.451  0.00  0.00     0.070 A 
ATOM     16  C7  FUN d   1     -47.407  44.050   7.702  0.00  0.00    -0.051 A 
ATOM     17  C8  FUN d   1     -48.028  44.727   6.667  0.00  0.00    -0.059 A 
ATOM     18  H7  FUN d   1     -47.453  42.979   7.893  0.00  0.00     0.087 H 
ATOM     19  C9  FUN d   1     -47.703  46.060   6.794  0.00  0.00     0.019 A 
ATOM     20  H8  FUN d   1     -48.657  44.287   5.895  0.00  0.00     0.086 H 
ATOM     21  O3  FUN d   1     -46.900  46.272   7.935  0.00  0.00    -0.325 OA
ATOM     22  H9  FUN d   1     -48.022  46.843   6.108  0.00  0.00     0.123 H 
ENDBRANCH  12  15
ENDBRANCH  10  12
ENDBRANCH   5  10
BRANCH   6  23
ATOM     23  C12 FUN d   1     -48.683  43.052  12.643  0.00  0.00     0.211 C 
ATOM     24  O4  FUN d   1     -49.342  42.686  13.628  0.00  0.00    -0.644 OA
ATOM     25  O5  FUN d   1     -48.129  42.276  11.852  0.00  0.00    -0.644 OA
ENDBRANCH   6  23
BRANCH   1  26
ATOM     26  S1  FUN d   1     -50.166  47.810  13.877  0.00  0.00     0.258 S 
ATOM     27  O1  FUN d   1     -51.152  46.912  14.508  0.00  0.00    -0.201 OA
ATOM     28  O2  FUN d   1     -49.208  48.574  14.776  0.00  0.00    -0.201 OA
BRANCH  26  29
ATOM     29  N1  FUN d   1     -50.825  48.701  12.898  0.00  0.00    -0.324 N 
ATOM     30  H1  FUN d   1     -51.482  48.326  12.244  0.00  0.00     0.169 HD
ATOM     31  H2  FUN d   1     -50.614  49.678  12.890  0.00  0.00     0.169 HD
ENDBRANCH  26  29
ENDBRANCH   1  26
TORSDOF 6
