REMARK  4 active torsions:
REMARK  status: ('A' for Active; 'I' for Inactive)
REMARK    1  A    between atoms: NAK_11  and  CAJ_10 
REMARK    2  A    between atoms: CAJ_10  and  CAN_14 
REMARK    3  A    between atoms: CAO_15  and  NAK_11 
REMARK    4  A    between atoms: CAM_13  and  CAP_16 
ROOT
ATOM      1  CAC FUZ d   1      21.370 -17.952  31.276  0.00  0.00    -0.081 A 
ATOM      2  CAD FUZ d   1      21.350 -18.979  32.232  0.00  0.00    -0.082 A 
ATOM      3  CAH FUZ d   1      22.484 -17.774  30.443  0.00  0.00    -0.057 A 
ATOM      4  CAI FUZ d   1      22.481 -19.816  32.369  0.00  0.00    -0.064 A 
ATOM      5  CAO FUZ d   1      23.603 -18.600  30.546  0.00  0.00     0.045 A 
ATOM      6  CAP FUZ d   1      23.604 -19.614  31.525  0.00  0.00     0.067 A 
ATOM      7  H1  FUZ d   1      20.517 -17.290  31.180  0.00  0.00     0.083 H 
ATOM      8  H2  FUZ d   1      20.478 -19.129  32.858  0.00  0.00     0.083 H 
ATOM      9  H6  FUZ d   1      22.475 -16.980  29.705  0.00  0.00     0.086 H 
ATOM     10  H7  FUZ d   1      22.490 -20.605  33.112  0.00  0.00     0.085 H 
ENDROOT
BRANCH   5  11
ATOM     11  NAK FUZ d   1      24.684 -18.422  29.743  0.00  0.00    -0.383 N 
ATOM     12  H10 FUZ d   1      25.526 -18.999  29.883  0.00  0.00     0.160 HD
BRANCH  11  13
ATOM     13  CAJ FUZ d   1      24.659 -17.391  28.654  0.00  0.00     0.037 C 
ATOM     14  H8  FUZ d   1      25.694 -17.150  28.370  0.00  0.00     0.074 H 
ATOM     15  H9  FUZ d   1      24.163 -16.486  29.034  0.00  0.00     0.074 H 
BRANCH  13  16
ATOM     16  CAN FUZ d   1      23.903 -17.883  27.404  0.00  0.00     0.070 A 
ATOM     17  CAG FUZ d   1      22.796 -17.351  26.876  0.00  0.00    -0.051 A 
ATOM     18  CAE FUZ d   1      22.445 -18.046  25.769  0.00  0.00    -0.059 A 
ATOM     19  H5  FUZ d   1      22.260 -16.491  27.275  0.00  0.00     0.087 H 
ATOM     20  CAF FUZ d   1      23.328 -19.030  25.581  0.00  0.00     0.019 A 
ATOM     21  H3  FUZ d   1      21.584 -17.837  25.136  0.00  0.00     0.086 H 
ATOM     22  OAL FUZ d   1      24.309 -18.959  26.614  0.00  0.00    -0.325 OA
ATOM     23  H4  FUZ d   1      23.303 -19.762  24.776  0.00  0.00     0.123 H 
ENDBRANCH  13  16
ENDBRANCH  11  13
ENDBRANCH   5  11
BRANCH   6  24
ATOM     24  CAM FUZ d   1      24.852 -20.546  31.666  0.00  0.00     0.211 C 
ATOM     25  OAA FUZ d   1      25.802 -20.375  30.861  0.00  0.00    -0.644 OA
ATOM     26  OAB FUZ d   1      24.819 -21.422  32.572  0.00  0.00    -0.644 OA
ENDBRANCH   6  24
TORSDOF 4
