REMARK  8 active torsions:
REMARK  status: ('A' for Active; 'I' for Inactive)
REMARK    1  A    between atoms: C2A_15  and  CM2_1 
REMARK    2  A    between atoms: C4A_13  and  N4A_2 
REMARK    3  A    between atoms: C4_10  and  CM4_3 
REMARK    4  A    between atoms: C7_5  and  O1_4 
REMARK    5  A    between atoms: C6_6  and  C7_5 
REMARK    6  A    between atoms: C5_9  and  C6_6 
REMARK    7  A    between atoms: C7A_12  and  N3_11 
REMARK    8  A    between atoms: C5A_18  and  C7A_12 
ROOT
ATOM      1  C2  VIB d   1      32.977 -21.937  45.115  0.00  0.00     0.018 A 
ATOM      2  S1  VIB d   1      31.725 -20.733  45.153  0.00  0.00    -0.087 SA
ATOM      3  C5  VIB d   1      31.815 -20.791  46.875  0.00  0.00     0.008 A 
ATOM      4  C4  VIB d   1      32.797 -21.733  47.341  0.00  0.00     0.021 A 
ATOM      5  N3  VIB d   1      33.434 -22.347  46.304  0.00  0.00    -0.349 N 
ATOM      6  H14 VIB d   1      33.367 -22.334  44.179  0.00  0.00     0.123 H 
ENDROOT
BRANCH   5   7
ATOM      7  C7A VIB d   1      34.499 -23.338  46.524  0.00  0.00     0.028 C 
ATOM      8  H15 VIB d   1      34.061 -24.202  47.045  0.00  0.00     0.072 H 
ATOM      9  H16 VIB d   1      35.269 -22.878  47.160  0.00  0.00     0.072 H 
BRANCH   7  10
ATOM     10  C5A VIB d   1      35.158 -23.831  45.278  0.00  0.00     0.023 A 
ATOM     11  C4A VIB d   1      35.957 -22.983  44.508  0.00  0.00     0.132 A 
ATOM     12  N3A VIB d   1      36.522 -23.468  43.404  0.00  0.00    -0.216 NA
ATOM     13  C2A VIB d   1      36.395 -24.775  43.055  0.00  0.00     0.124 A 
ATOM     14  N1A VIB d   1      35.632 -25.616  43.772  0.00  0.00    -0.245 NA
ATOM     15  C6A VIB d   1      35.021 -25.171  44.889  0.00  0.00     0.015 A 
ATOM     16  H17 VIB d   1      34.423 -25.850  45.486  0.00  0.00     0.116 H 
BRANCH  11  17
ATOM     17  N4A VIB d   1      36.209 -21.697  44.831  0.00  0.00    -0.383 N 
ATOM     18  H4  VIB d   1      35.790 -21.287  45.678  0.00  0.00     0.157 HD
ATOM     19  H5  VIB d   1      36.821 -21.126  44.231  0.00  0.00     0.157 HD
ENDBRANCH  11  17
BRANCH  13  20
ATOM     20  CM2 VIB d   1      37.065 -25.236  41.791  0.00  0.00    -0.019 C 
ATOM     21  H1  VIB d   1      37.639 -24.405  41.356  0.00  0.00     0.037 H 
ATOM     22  H2  VIB d   1      36.302 -25.570  41.072  0.00  0.00     0.037 H 
ATOM     23  H3  VIB d   1      37.744 -26.071  42.019  0.00  0.00     0.037 H 
ENDBRANCH  13  20
ENDBRANCH   7  10
ENDBRANCH   5   7
BRANCH   4  24
ATOM     24  CM4 VIB d   1      33.074 -21.902  48.799  0.00  0.00    -0.036 C 
ATOM     25  H6  VIB d   1      32.387 -21.268  49.379  0.00  0.00     0.035 H 
ATOM     26  H7  VIB d   1      34.112 -21.608  49.011  0.00  0.00     0.035 H 
ATOM     27  H8  VIB d   1      32.926 -22.955  49.081  0.00  0.00     0.035 H 
ENDBRANCH   4  24
BRANCH   3  28
ATOM     28  C6  VIB d   1      30.912 -19.896  47.681  0.00  0.00    -0.013 C 
ATOM     29  H12 VIB d   1      31.226 -19.908  48.735  0.00  0.00     0.044 H 
ATOM     30  H13 VIB d   1      30.969 -18.868  47.293  0.00  0.00     0.044 H 
BRANCH  28  31
ATOM     31  C7  VIB d   1      29.493 -20.402  47.568  0.00  0.00     0.021 C 
ATOM     32  H10 VIB d   1      28.900 -19.756  46.904  0.00  0.00     0.074 H 
ATOM     33  H11 VIB d   1      29.476 -21.433  47.186  0.00  0.00     0.074 H 
BRANCH  31  34
ATOM     34  O1  VIB d   1      28.996 -20.349  48.898  0.00  0.00    -0.401 OA
ATOM     35  H9  VIB d   1      28.097 -20.655  48.911  0.00  0.00     0.209 HD
ENDBRANCH  31  34
ENDBRANCH  28  31
ENDBRANCH   3  28
TORSDOF 8
