REMARK  5 active torsions:
REMARK  status: ('A' for Active; 'I' for Inactive)
REMARK    1  A    between atoms: C1_13  and  N3_2 
REMARK    2  A    between atoms: C4_3  and  C5_4 
REMARK    3  A    between atoms: C2_12  and  C6_5 
REMARK    4  A    between atoms: C10_8  and  O1_16 
REMARK    5  A    between atoms: O1_16  and  C12_14 
ROOT
ATOM      1  C6  3RP d   1      13.833  -1.515  51.843  0.00  0.00     0.018 A 
ATOM      2  C7  3RP d   1      12.662  -1.174  51.087  0.00  0.00     0.048 A 
ATOM      3  C8  3RP d   1      11.399  -1.065  51.731  0.00  0.00    -0.037 A 
ATOM      4  C10 3RP d   1      12.430  -1.608  53.926  0.00  0.00     0.090 A 
ATOM      5  C11 3RP d   1      13.694  -1.722  53.258  0.00  0.00    -0.035 A 
ATOM      6  C9  3RP d   1      11.282  -1.283  53.135  0.00  0.00     0.069 A 
ATOM      7 CL1  3RP d   1      12.725  -0.888  49.363  0.00  0.00    -0.083 Cl
ATOM      8 CL2  3RP d   1       9.704  -1.144  53.843  0.00  0.00    -0.081 Cl
ATOM      9  H6  3RP d   1      10.519  -0.814  51.150  0.00  0.00     0.088 H 
ATOM     10  H7  3RP d   1      14.574  -1.973  53.840  0.00  0.00     0.089 H 
ENDROOT
BRANCH   1  11
ATOM     11  C2  3RP d   1      15.152  -1.671  51.213  0.00  0.00     0.089 A 
ATOM     12  C3  3RP d   1      15.746  -2.943  51.165  0.00  0.00    -0.030 A 
ATOM     13  C4  3RP d   1      16.979  -3.021  50.538  0.00  0.00     0.052 A 
ATOM     14  H8  3RP d   1      15.266  -3.815  51.595  0.00  0.00     0.090 H 
ATOM     15  N1  3RP d   1      17.598  -1.932  49.990  0.00  0.00    -0.068 NA
ATOM     16  C1  3RP d   1      16.963  -0.715  50.071  0.00  0.00     0.721 A 
ATOM     17  N2  3RP d   1      15.741  -0.554  50.675  0.00  0.00    -0.062 NA
BRANCH  13  18
ATOM     18  C5  3RP d   1      17.679  -4.349  50.443  0.00  0.00    -0.035 C 
ATOM     19  H3  3RP d   1      17.064  -5.123  50.925  0.00  0.00     0.035 H 
ATOM     20  H4  3RP d   1      18.653  -4.287  50.950  0.00  0.00     0.035 H 
ATOM     21  H5  3RP d   1      17.832  -4.608  49.385  0.00  0.00     0.035 H 
ENDBRANCH  13  18
BRANCH  16  22
ATOM     22  N3  3RP d   1      17.589   0.394  49.514  0.00  0.00    -0.231 N 
ATOM     23  H1  3RP d   1      18.506   0.292  49.057  0.00  0.00     0.174 HD
ATOM     24  H2  3RP d   1      17.136   1.318  49.559  0.00  0.00     0.174 HD
ENDBRANCH  16  22
ENDBRANCH   1  11
BRANCH   4  25
ATOM     25  O1  3RP d   1      12.216  -1.791  55.290  0.00  0.00    -0.354 OA
BRANCH  25  26
ATOM     26  C12 3RP d   1      13.318  -2.117  56.150  0.00  0.00     0.010 C 
ATOM     27  H9  3RP d   1      12.958  -2.222  57.184  0.00  0.00     0.066 H 
ATOM     28  H10 3RP d   1      14.069  -1.315  56.103  0.00  0.00     0.066 H 
ATOM     29  H11 3RP d   1      13.771  -3.064  55.822  0.00  0.00     0.066 H 
ENDBRANCH  25  26
ENDBRANCH   4  25
TORSDOF 5
