REMARK  4 active torsions:
REMARK  status: ('A' for Active; 'I' for Inactive)
REMARK    1  A    between atoms: O1_20  and  C7_6 
REMARK    2  A    between atoms: C3_14  and  C8_7 
REMARK    3  A    between atoms: C9_17  and  C10_8 
REMARK    4  A    between atoms: C1_15  and  O1_20 
ROOT
ATOM      1  N1  3RQ d   1      17.574  -2.251  49.855  0.00  0.00    -0.215 NA
ATOM      2  N3  3RQ d   1      17.521   0.057  49.146  0.00  0.00    -0.348 N 
ATOM      3  C8  3RQ d   1      15.105  -1.643  51.122  0.00  0.00     0.086 A 
ATOM      4  C13 3RQ d   1      15.618   0.769  50.059  0.00  0.00     0.076 A 
ATOM      5  C15 3RQ d   1      14.552   1.652  50.427  0.00  0.00     0.102 C 
ATOM      6  C14 3RQ d   1      16.697   1.147  49.293  0.00  0.00    -0.000 A 
ATOM      7  C12 3RQ d   1      15.784  -0.613  50.396  0.00  0.00     0.062 A 
ATOM      8  C11 3RQ d   1      16.994  -1.014  49.804  0.00  0.00     0.143 A 
ATOM      9  C9  3RQ d   1      16.852  -3.152  50.575  0.00  0.00     0.125 A 
ATOM     10  N4  3RQ d   1      13.686   2.345  50.755  0.00  0.00    -0.191 NA
ATOM     11  N2  3RQ d   1      15.667  -2.909  51.196  0.00  0.00    -0.232 NA
ATOM     12  H1  3RQ d   1      18.405   0.050  48.617  0.00  0.00     0.167 HD
ATOM     13  H10 3RQ d   1      16.868   2.138  48.876  0.00  0.00     0.113 H 
ENDROOT
BRANCH   3  14
ATOM     14  C3  3RQ d   1      13.820  -1.511  51.813  0.00  0.00     0.018 A 
ATOM     15  C4  3RQ d   1      12.583  -1.220  51.121  0.00  0.00     0.048 A 
ATOM     16  C5  3RQ d   1      11.364  -1.126  51.828  0.00  0.00    -0.037 A 
ATOM     17 CL2  3RQ d   1      12.500  -0.969  49.402  0.00  0.00    -0.083 Cl
ATOM     18  C6  3RQ d   1      11.335  -1.310  53.226  0.00  0.00     0.069 A 
ATOM     19  H2  3RQ d   1      10.446  -0.911  51.293  0.00  0.00     0.088 H 
ATOM     20  C1  3RQ d   1      12.533  -1.588  53.962  0.00  0.00     0.090 A 
ATOM     21 CL1  3RQ d   1       9.798  -1.184  53.998  0.00  0.00    -0.081 Cl
ATOM     22  C2  3RQ d   1      13.768  -1.687  53.229  0.00  0.00    -0.035 A 
ATOM     23  H9  3RQ d   1      14.684  -1.901  53.767  0.00  0.00     0.089 H 
BRANCH  20  24
ATOM     24  O1  3RQ d   1      12.387  -1.739  55.334  0.00  0.00    -0.354 OA
BRANCH  24  25
ATOM     25  C7  3RQ d   1      13.531  -2.016  56.154  0.00  0.00     0.010 C 
ATOM     26  H3  3RQ d   1      13.217  -2.101  57.205  0.00  0.00     0.066 H 
ATOM     27  H4  3RQ d   1      14.260  -1.199  56.054  0.00  0.00     0.066 H 
ATOM     28  H5  3RQ d   1      13.993  -2.961  55.832  0.00  0.00     0.066 H 
ENDBRANCH  24  25
ENDBRANCH  20  24
ENDBRANCH   3  14
BRANCH   9  29
ATOM     29  C10 3RQ d   1      17.408  -4.543  50.703  0.00  0.00    -0.019 C 
ATOM     30  H6  3RQ d   1      18.362  -4.608  50.160  0.00  0.00     0.037 H 
ATOM     31  H7  3RQ d   1      16.694  -5.264  50.277  0.00  0.00     0.037 H 
ATOM     32  H8  3RQ d   1      17.574  -4.775  51.765  0.00  0.00     0.037 H 
ENDBRANCH   9  29
TORSDOF 4
