REMARK  5 active torsions:
REMARK  status: ('A' for Active; 'I' for Inactive)
REMARK    1  A    between atoms: C6_5  and  C16_17 
REMARK    2  A    between atoms: C1_16  and  C7_6 
REMARK    3  A    between atoms: C8_7  and  C2_14 
REMARK    4  A    between atoms: C12_11  and  O1_21 
REMARK    5  A    between atoms: O1_21  and  C14_18 
ROOT
ATOM      1  N1  3RR d   1      17.437  -1.907  49.606  0.00  0.00    -0.215 NA
ATOM      2  N3  3RR d   1      17.274   0.393  48.860  0.00  0.00    -0.343 N 
ATOM      3  C4  3RR d   1      15.589  -0.335  50.148  0.00  0.00     0.062 A 
ATOM      4  C5  3RR d   1      15.359   1.036  49.796  0.00  0.00     0.083 A 
ATOM      5  C6  3RR d   1      16.409   1.460  48.996  0.00  0.00     0.029 A 
ATOM      6  C15 3RR d   1      14.252   1.866  50.183  0.00  0.00     0.102 C 
ATOM      7  C2  3RR d   1      14.963  -1.384  50.897  0.00  0.00     0.086 A 
ATOM      8  C3  3RR d   1      16.805  -0.694  49.544  0.00  0.00     0.144 A 
ATOM      9  C1  3RR d   1      16.764  -2.829  50.348  0.00  0.00     0.125 A 
ATOM     10  N4  3RR d   1      13.365   2.515  50.540  0.00  0.00    -0.191 NA
ATOM     11  N2  3RR d   1      15.577  -2.626  50.980  0.00  0.00    -0.232 NA
ATOM     12  H1  3RR d   1      18.150   0.413  48.319  0.00  0.00     0.167 HD
ENDROOT
BRANCH   5  13
ATOM     13  C16 3RR d   1      16.687   2.764  48.349  0.00  0.00    -0.036 C 
ATOM     14  H7  3RR d   1      15.877   3.470  48.584  0.00  0.00     0.035 H 
ATOM     15  H8  3RR d   1      16.749   2.627  47.259  0.00  0.00     0.035 H 
ATOM     16  H9  3RR d   1      17.641   3.163  48.724  0.00  0.00     0.035 H 
ENDBRANCH   5  13
BRANCH   7  17
ATOM     17  C8  3RR d   1      13.683  -1.297  51.596  0.00  0.00     0.018 A 
ATOM     18  C13 3RR d   1      13.645  -1.455  53.010  0.00  0.00    -0.035 A 
ATOM     19  C12 3RR d   1      12.418  -1.400  53.746  0.00  0.00     0.090 A 
ATOM     20  H6  3RR d   1      14.572  -1.622  53.546  0.00  0.00     0.089 H 
ATOM     21  C11 3RR d   1      11.206  -1.186  53.022  0.00  0.00     0.069 A 
ATOM     22  C10 3RR d   1      11.216  -1.017  51.617  0.00  0.00    -0.037 A 
ATOM     23 CL1  3RR d   1       9.674  -1.124  53.817  0.00  0.00    -0.081 Cl
ATOM     24  C9  3RR d   1      12.439  -1.069  50.907  0.00  0.00     0.048 A 
ATOM     25  H5  3RR d   1      10.287  -0.848  51.085  0.00  0.00     0.088 H 
ATOM     26 CL2  3RR d   1      12.371  -0.845  49.178  0.00  0.00    -0.083 Cl
BRANCH  19  27
ATOM     27  O1  3RR d   1      12.300  -1.541  55.117  0.00  0.00    -0.354 OA
BRANCH  27  28
ATOM     28  C14 3RR d   1      13.471  -1.755  55.919  0.00  0.00     0.010 C 
ATOM     29  H10 3RR d   1      13.180  -1.843  56.976  0.00  0.00     0.066 H 
ATOM     30  H11 3RR d   1      14.159  -0.906  55.797  0.00  0.00     0.066 H 
ATOM     31  H12 3RR d   1      13.971  -2.681  55.598  0.00  0.00     0.066 H 
ENDBRANCH  27  28
ENDBRANCH  19  27
ENDBRANCH   7  17
BRANCH   9  32
ATOM     32  C7  3RR d   1      17.373  -4.195  50.482  0.00  0.00    -0.019 C 
ATOM     33  H2  3RR d   1      18.323  -4.229  49.929  0.00  0.00     0.037 H 
ATOM     34  H3  3RR d   1      16.683  -4.946  50.071  0.00  0.00     0.037 H 
ATOM     35  H4  3RR d   1      17.559  -4.411  51.544  0.00  0.00     0.037 H 
ENDBRANCH   9  32
TORSDOF 5
