REMARK  4 active torsions:
REMARK  status: ('A' for Active; 'I' for Inactive)
REMARK    1  A    between atoms: N1_2  and  C8_16 
REMARK    2  A    between atoms: O1_3  and  C6_13 
REMARK    3  A    between atoms: C7_15  and  O1_3 
REMARK    4  A    between atoms: C8_16  and  C7_15 
ROOT
ATOM      1  N1  3RM d   1       2.151   2.024 -16.705  0.00  0.00    -0.066 N 
ATOM      2  N2  3RM d   1      -0.106   0.809 -17.964  0.00  0.00    -0.209 N 
ATOM      3  N3  3RM d   1      -2.228  -0.284 -17.707  0.00  0.00     0.034 NA
ATOM      4  N4  3RM d   1      -3.312  -0.604 -18.425  0.00  0.00    -0.091 N 
ATOM      5  N5  3RM d   1      -1.784   0.514 -19.682  0.00  0.00     0.131 NA
ATOM      6  N6  3RM d   1      -3.762  -0.123 -20.762  0.00  0.00    -0.231 N 
ATOM      7  C9  3RM d   1       1.656   2.563 -18.037  0.00  0.00     0.099 C 
ATOM      8  C10 3RM d   1       0.200   2.210 -18.276  0.00  0.00     0.034 C 
ATOM      9  C11 3RM d   1       0.396   0.296 -16.686  0.00  0.00     0.034 C 
ATOM     10  C12 3RM d   1       1.886   0.538 -16.556  0.00  0.00     0.099 C 
ATOM     11  C13 3RM d   1      -1.298   0.377 -18.460  0.00  0.00     0.757 A 
ATOM     12  C14 3RM d   1      -3.013  -0.093 -19.635  0.00  0.00     0.730 A 
ATOM     13  H2  3RM d   1       1.651   2.507 -15.975  0.00  0.00     0.280 HD
ATOM     14  H5  3RM d   1      -4.158  -1.111 -18.128  0.00  0.00     0.208 HD
ATOM     15  H7  3RM d   1      -3.409   0.311 -21.627  0.00  0.00     0.174 HD
ATOM     16  H8  3RM d   1      -4.685  -0.580 -20.755  0.00  0.00     0.174 HD
ATOM     17  H13 3RM d   1       2.265   2.132 -18.845  0.00  0.00     0.078 H 
ATOM     18  H14 3RM d   1       1.763   3.658 -18.041  0.00  0.00     0.078 H 
ATOM     19  H15 3RM d   1      -0.426   2.856 -17.643  0.00  0.00     0.067 H 
ATOM     20  H16 3RM d   1      -0.037   2.394 -19.334  0.00  0.00     0.067 H 
ATOM     21  H17 3RM d   1       0.200  -0.785 -16.630  0.00  0.00     0.067 H 
ATOM     22  H18 3RM d   1      -0.125   0.807 -15.863  0.00  0.00     0.067 H 
ATOM     23  H19 3RM d   1       2.232   0.197 -15.569  0.00  0.00     0.078 H 
ATOM     24  H20 3RM d   1       2.421  -0.014 -17.343  0.00  0.00     0.078 H 
ENDROOT
BRANCH   1  25
ATOM     25  C8  3RM d   1       3.629   2.281 -16.519  0.00  0.00     0.103 C 
ATOM     26  H11 3RM d   1       4.197   1.705 -17.265  0.00  0.00     0.079 H 
ATOM     27  H12 3RM d   1       3.930   1.969 -15.508  0.00  0.00     0.079 H 
BRANCH  25  28
ATOM     28  C7  3RM d   1       3.920   3.768 -16.698  0.00  0.00     0.049 C 
ATOM     29  H9  3RM d   1       4.913   4.014 -16.293  0.00  0.00     0.077 H 
ATOM     30  H10 3RM d   1       3.881   4.038 -17.764  0.00  0.00     0.077 H 
BRANCH  28  31
ATOM     31  O1  3RM d   1       2.896   4.468 -15.968  0.00  0.00    -0.349 OA
BRANCH  31  32
ATOM     32  C6  3RM d   1       2.964   5.837 -16.036  0.00  0.00     0.068 A 
ATOM     33  C1  3RM d   1       3.047   6.587 -17.221  0.00  0.00    -0.050 A 
ATOM     34  C2  3RM d   1       3.118   7.987 -17.170  0.00  0.00    -0.064 A 
ATOM     35  H1  3RM d   1       3.056   6.081 -18.180  0.00  0.00     0.087 H 
ATOM     36  C3  3RM d   1       3.112   8.618 -15.926  0.00  0.00     0.011 A 
ATOM     37  H3  3RM d   1       3.177   8.569 -18.083  0.00  0.00     0.085 H 
ATOM     38 BR1  3RM d   1       3.221  10.509 -15.870  0.00  0.00    -0.051 Br
ATOM     39  C4  3RM d   1       3.036   7.882 -14.738  0.00  0.00    -0.064 A 
ATOM     40  C5  3RM d   1       2.963   6.486 -14.793  0.00  0.00    -0.050 A 
ATOM     41  H4  3RM d   1       3.034   8.391 -13.781  0.00  0.00     0.085 H 
ATOM     42  H6  3RM d   1       2.906   5.908 -13.878  0.00  0.00     0.087 H 
ENDBRANCH  31  32
ENDBRANCH  28  31
ENDBRANCH  25  28
ENDBRANCH   1  25
TORSDOF 4
