REMARK  1 active torsions:
REMARK  status: ('A' for Active; 'I' for Inactive)
REMARK    1  A    between atoms: N1_2  and  C6_11 
REMARK       I    between atoms: N2_5  and  C11_16 
REMARK       I    between atoms: C11_16  and  N3_7 
REMARK       I    between atoms: C11_16  and  N4_9 
ROOT
ATOM      1  N1  613 d   1      33.984  -5.551   5.193  0.00  0.00    -0.378 N 
ATOM      2  N2  613 d   1      33.864  -2.765   5.893  0.00  0.00    -0.215 N 
ATOM      3  N3  613 d   1      33.833  -0.327   5.567  0.00  0.00    -0.235 N 
ATOM      4  N4  613 d   1      31.902  -1.375   6.454  0.00  0.00    -0.235 N 
ATOM      5  C7  613 d   1      33.115  -5.107   6.297  0.00  0.00     0.011 C 
ATOM      6  C8  613 d   1      33.611  -3.812   6.933  0.00  0.00     0.026 C 
ATOM      7  C9  613 d   1      34.696  -3.210   4.731  0.00  0.00     0.026 C 
ATOM      8  C10 613 d   1      34.182  -4.529   4.144  0.00  0.00     0.011 C 
ATOM      9  C11 613 d   1      33.178  -1.518   5.894  0.00  0.00     0.667 C 
ATOM     10  H3  613 d   1      33.316   0.564   5.574  0.00  0.00     0.174 HD
ATOM     11  H4  613 d   1      34.833  -0.340   5.319  0.00  0.00     0.174 HD
ATOM     12  H6  613 d   1      31.360  -2.209   6.720  0.00  0.00     0.174 HD
ATOM     13  H7  613 d   1      31.506  -0.435   6.600  0.00  0.00     0.174 HD
ATOM     14  H9  613 d   1      33.090  -5.893   7.066  0.00  0.00     0.066 H 
ATOM     15  H10 613 d   1      32.100  -4.944   5.906  0.00  0.00     0.066 H 
ATOM     16  H11 613 d   1      32.851  -3.443   7.637  0.00  0.00     0.067 H 
ATOM     17  H12 613 d   1      34.546  -4.013   7.476  0.00  0.00     0.067 H 
ATOM     18  H13 613 d   1      35.734  -3.349   5.067  0.00  0.00     0.067 H 
ATOM     19  H14 613 d   1      34.664  -2.435   3.951  0.00  0.00     0.067 H 
ATOM     20  H15 613 d   1      33.222  -4.345   3.639  0.00  0.00     0.066 H 
ATOM     21  H16 613 d   1      34.914  -4.904   3.414  0.00  0.00     0.066 H 
ENDROOT
BRANCH   1  22
ATOM     22  C6  613 d   1      33.924  -6.893   4.815  0.00  0.00     0.030 A 
ATOM     23  C1  613 d   1      33.747  -7.288   3.464  0.00  0.00    -0.056 A 
ATOM     24  C2  613 d   1      33.674  -8.633   3.071  0.00  0.00    -0.060 A 
ATOM     25  H1  613 d   1      33.665  -6.519   2.704  0.00  0.00     0.087 H 
ATOM     26  C3  613 d   1      33.770  -9.635   4.035  0.00  0.00     0.034 A 
ATOM     27  H2  613 d   1      33.544  -8.891   2.026  0.00  0.00     0.086 H 
ATOM     28 CL1  613 d   1      33.687 -11.293   3.575  0.00  0.00    -0.084 Cl
ATOM     29  C4  613 d   1      33.939  -9.295   5.374  0.00  0.00    -0.060 A 
ATOM     30  C5  613 d   1      34.012  -7.945   5.755  0.00  0.00    -0.056 A 
ATOM     31  H5  613 d   1      34.014 -10.074   6.124  0.00  0.00     0.086 H 
ATOM     32  H8  613 d   1      34.140  -7.702   6.804  0.00  0.00     0.087 H 
ENDBRANCH   1  22
TORSDOF 1
