REMARK  9 active torsions:
REMARK  status: ('A' for Active; 'I' for Inactive)
REMARK    1  A    between atoms: C1_1  and  C7_7 
REMARK    2  A    between atoms: C7_7  and  O8_8 
REMARK    3  A    between atoms: O8_8  and  C9_9 
REMARK    4  A    between atoms: N12_12  and  C15_15 
REMARK    5  A    between atoms: C16_16  and  C25_25 
REMARK    6  A    between atoms: C19_19  and  C26_26 
REMARK       I    between atoms: C26_26  and  N28_28 
REMARK    7  A    between atoms: N28_28  and  C29_29 
REMARK    8  A    between atoms: C29_29  and  C30_30 
REMARK    9  A    between atoms: C30_30  and  O31_31 
ROOT
ATOM      1  C15 29A d   1      34.365  38.834  25.237  0.00  0.00     0.050 A 
ATOM      2  C16 29A d   1      33.106  38.373  25.709  0.00  0.00    -0.035 A 
ATOM      3  C17 29A d   1      32.808  38.462  27.065  0.00  0.00    -0.074 A 
ATOM      4  C18 29A d   1      33.731  39.016  27.940  0.00  0.00    -0.067 A 
ATOM      5  C19 29A d   1      34.986  39.488  27.490  0.00  0.00     0.034 A 
ATOM      6  C20 29A d   1      35.277  39.384  26.135  0.00  0.00    -0.041 A 
ATOM      7  H7  29A d   1      31.857  38.099  27.437  0.00  0.00     0.084 H 
ATOM      8  H8  29A d   1      33.485  39.089  28.993  0.00  0.00     0.085 H 
ATOM      9  H9  29A d   1      36.234  39.738  25.769  0.00  0.00     0.088 H 
ENDROOT
BRANCH   1  10
ATOM     10  N12 29A d   1      34.728  38.753  23.845  0.00  0.00    -0.271 N 
ATOM     11  C11 29A d   1      34.812  39.848  23.007  0.00  0.00     0.279 A 
ATOM     12  C10 29A d   1      35.197  39.550  21.566  0.00  0.00     0.155 A 
ATOM     13  O24 29A d   1      34.591  41.035  23.356  0.00  0.00    -0.266 OA
ATOM     14  C9  29A d   1      35.437  38.235  21.197  0.00  0.00     0.193 A 
ATOM     15 CL23 29A d   1      35.318  40.844  20.440  0.00  0.00    -0.074 Cl
ATOM     16  N14 29A d   1      35.347  37.242  22.029  0.00  0.00    -0.218 NA
ATOM     17  C13 29A d   1      35.024  37.393  23.271  0.00  0.00     0.076 A 
ATOM     18  H6  29A d   1      34.965  36.518  23.916  0.00  0.00     0.144 H 
BRANCH  14  19
ATOM     19  O8  29A d   1      35.781  37.951  19.907  0.00  0.00    -0.328 OA
BRANCH  19  20
ATOM     20  C7  29A d   1      36.281  36.605  19.505  0.00  0.00     0.054 C 
ATOM     21  H4  29A d   1      37.042  36.251  20.216  0.00  0.00     0.082 H 
ATOM     22  H5  29A d   1      35.451  35.884  19.466  0.00  0.00     0.082 H 
BRANCH  20  23
ATOM     23  C1  29A d   1      36.887  36.787  18.131  0.00  0.00     0.005 A 
ATOM     24  C2  29A d   1      38.220  37.192  17.986  0.00  0.00     0.127 A 
ATOM     25  C3  29A d   1      38.751  37.407  16.726  0.00  0.00    -0.008 A 
ATOM     26  F21 29A d   1      38.978  37.392  19.081  0.00  0.00    -0.205 F 
ATOM     27  C4  29A d   1      37.956  37.211  15.604  0.00  0.00     0.119 A 
ATOM     28  H1  29A d   1      39.781  37.726  16.616  0.00  0.00     0.093 H 
ATOM     29  C5  29A d   1      36.631  36.787  15.740  0.00  0.00    -0.045 A 
ATOM     30  F22 29A d   1      38.447  37.437  14.382  0.00  0.00    -0.206 F 
ATOM     31  C6  29A d   1      36.101  36.578  17.002  0.00  0.00    -0.069 A 
ATOM     32  H2  29A d   1      36.020  36.622  14.860  0.00  0.00     0.088 H 
ATOM     33  H3  29A d   1      35.073  36.251  17.110  0.00  0.00     0.084 H 
ENDBRANCH  20  23
ENDBRANCH  19  20
ENDBRANCH  14  19
ENDBRANCH   1  10
BRANCH   2  34
ATOM     34  C25 29A d   1      31.947  37.938  24.798  0.00  0.00    -0.049 C 
ATOM     35  H10 29A d   1      32.294  37.902  23.755  0.00  0.00     0.033 H 
ATOM     36  H11 29A d   1      31.121  38.660  24.885  0.00  0.00     0.033 H 
ATOM     37  H12 29A d   1      31.596  36.941  25.102  0.00  0.00     0.033 H 
ENDBRANCH   2  34
BRANCH   5  38
ATOM     38  C26 29A d   1      35.945  40.084  28.496  0.00  0.00     0.251 C 
ATOM     39  O27 29A d   1      36.881  40.791  28.107  0.00  0.00    -0.268 OA
ATOM     40  N28 29A d   1      35.740  39.854  29.812  0.00  0.00    -0.355 N 
ATOM     41  H13 29A d   1      34.938  40.266  30.244  0.00  0.00     0.162 HD
BRANCH  40  42
ATOM     42  C29 29A d   1      36.635  39.028  30.649  0.00  0.00     0.015 C 
ATOM     43  H14 29A d   1      36.749  39.507  31.633  0.00  0.00     0.067 H 
ATOM     44  H15 29A d   1      37.618  38.956  30.160  0.00  0.00     0.067 H 
BRANCH  42  45
ATOM     45  C30 29A d   1      36.068  37.610  30.845  0.00  0.00     0.031 C 
ATOM     46  H16 29A d   1      36.447  37.198  31.792  0.00  0.00     0.076 H 
ATOM     47  H17 29A d   1      36.395  36.972  30.011  0.00  0.00     0.076 H 
BRANCH  45  48
ATOM     48  O31 29A d   1      34.642  37.637  30.883  0.00  0.00    -0.399 OA
ATOM     49  H18 29A d   1      34.313  36.754  31.004  0.00  0.00     0.209 HD
ENDBRANCH  45  48
ENDBRANCH  42  45
ENDBRANCH  40  42
ENDBRANCH   5  38
TORSDOF 9
