REMARK  4 active torsions:
REMARK  status: ('A' for Active; 'I' for Inactive)
REMARK    1  A    between atoms: C4_3  and  N2_12 
REMARK    2  A    between atoms: N2_12  and  C5_4 
REMARK    3  A    between atoms: C10_8  and  N5_16 
REMARK    4  A    between atoms: N5_16  and  C11_17 
ROOT
ATOM      1  N1  HRD d   1      17.422  17.604  17.378  0.00  0.00    -0.188 N 
ATOM      2  N3  HRD d   1      19.483  17.961  18.190  0.00  0.00    -0.063 NA
ATOM      3  C4  HRD d   1      18.711  17.897  17.085  0.00  0.00     0.701 A 
ATOM      4  C6  HRD d   1      18.662  17.690  19.225  0.00  0.00     0.104 A 
ATOM      5  C7  HRD d   1      18.957  17.633  20.593  0.00  0.00    -0.036 A 
ATOM      6  C8  HRD d   1      17.873  17.340  21.436  0.00  0.00     0.050 A 
ATOM      7  C10 HRD d   1      15.789  16.775  23.161  0.00  0.00     0.702 A 
ATOM      8  C1  HRD d   1      16.573  17.129  20.944  0.00  0.00     0.092 A 
ATOM      9  C2  HRD d   1      16.306  17.190  19.569  0.00  0.00    -0.025 A 
ATOM     10  C3  HRD d   1      17.388  17.482  18.729  0.00  0.00     0.081 A 
ATOM     11  C9  HRD d   1      18.023  17.280  22.818  0.00  0.00     0.206 A 
ATOM     12  O1  HRD d   1      19.238  17.476  23.405  0.00  0.00    -0.171 OA
ATOM     13  N4  HRD d   1      17.014  16.995  23.669  0.00  0.00    -0.165 N 
ATOM     14  N6  HRD d   1      15.598  16.839  21.827  0.00  0.00    -0.064 NA
ATOM     15  H1  HRD d   1      16.638  17.497  16.719  0.00  0.00     0.184 HD
ATOM     16  H5  HRD d   1      19.957  17.804  20.976  0.00  0.00     0.088 H 
ATOM     17  H6  HRD d   1      15.311  17.020  19.175  0.00  0.00     0.090 H 
ATOM     18  H8  HRD d   1      17.174  16.949  24.655  0.00  0.00     0.186 HD
ENDROOT
BRANCH   3  19
ATOM     19  N2  HRD d   1      19.178  18.100  15.834  0.00  0.00    -0.229 N 
ATOM     20  H7  HRD d   1      20.177  18.309  15.695  0.00  0.00     0.177 HD
BRANCH  19  21
ATOM     21  C5  HRD d   1      18.296  18.028  14.681  0.00  0.00    -0.005 C 
ATOM     22  H2  HRD d   1      18.873  18.223  13.765  0.00  0.00     0.057 H 
ATOM     23  H3  HRD d   1      17.500  18.781  14.780  0.00  0.00     0.057 H 
ATOM     24  H4  HRD d   1      17.847  17.025  14.625  0.00  0.00     0.057 H 
ENDBRANCH  19  21
ENDBRANCH   3  19
BRANCH   7  25
ATOM     25  N5  HRD d   1      14.811  16.507  24.064  0.00  0.00    -0.229 N 
ATOM     26  H9  HRD d   1      15.020  16.455  25.071  0.00  0.00     0.177 HD
BRANCH  25  27
ATOM     27  C11 HRD d   1      13.458  16.295  23.567  0.00  0.00    -0.005 C 
ATOM     28  H10 HRD d   1      12.785  16.090  24.412  0.00  0.00     0.057 H 
ATOM     29  H11 HRD d   1      13.451  15.438  22.877  0.00  0.00     0.057 H 
ATOM     30  H12 HRD d   1      13.117  17.196  23.037  0.00  0.00     0.057 H 
ENDBRANCH  25  27
ENDBRANCH   7  25
TORSDOF 4
