REMARK  1 active torsions:
REMARK  status: ('A' for Active; 'I' for Inactive)
REMARK    1  A    between atoms: C13_8  and  N16_11 
ROOT
ATOM      1  C4  RSV d   1      68.788  50.160   8.648  0.00  0.00     0.069 A 
ATOM      2  C5  RSV d   1      69.203  49.052   9.391  0.00  0.00    -0.006 A 
ATOM      3  C6  RSV d   1      69.915  49.240  10.576  0.00  0.00    -0.060 A 
ATOM      4  C7  RSV d   1      70.938  50.734  12.217  0.00  0.00    -0.019 A 
ATOM      5  C8  RSV d   1      70.580  51.723  13.085  0.00  0.00    -0.066 A 
ATOM      6  C10 RSV d   1      71.966  49.985  12.656  0.00  0.00    -0.034 A 
ATOM      7  N12 RSV d   1      68.085  50.001   7.515  0.00  0.00    -0.231 NA
ATOM      8  C13 RSV d   1      67.760  48.774   7.055  0.00  0.00     0.121 A 
ATOM      9  C15 RSV d   1      68.889  47.769   8.942  0.00  0.00    -0.067 A 
ATOM     10  C14 RSV d   1      68.158  47.628   7.756  0.00  0.00    -0.038 A 
ATOM     11  C3  RSV d   1      69.088  51.445   9.098  0.00  0.00    -0.053 A 
ATOM     12  C2  RSV d   1      69.807  51.633  10.281  0.00  0.00    -0.070 A 
ATOM     13  C1  RSV d   1      70.239  50.532  11.022  0.00  0.00    -0.025 A 
ATOM     14  C11 RSV d   1      71.276  51.856  14.225  0.00  0.00    -0.044 A 
ATOM     15  S9  RSV d   1      72.419  50.635  14.168  0.00  0.00    -0.113 SA
ATOM     16  H1  RSV d   1      70.222  48.379  11.159  0.00  0.00     0.086 H 
ATOM     17  H2  RSV d   1      69.749  52.389  12.859  0.00  0.00     0.085 H 
ATOM     18  H3  RSV d   1      72.418  49.134  12.148  0.00  0.00     0.096 H 
ATOM     19  H4  RSV d   1      69.206  46.896   9.502  0.00  0.00     0.085 H 
ATOM     20  H5  RSV d   1      67.903  46.642   7.384  0.00  0.00     0.089 H 
ATOM     21  H8  RSV d   1      68.761  52.305   8.525  0.00  0.00     0.087 H 
ATOM     22  H9  RSV d   1      70.030  52.637  10.624  0.00  0.00     0.084 H 
ATOM     23  H10 RSV d   1      71.129  52.594  15.012  0.00  0.00     0.095 H 
ENDROOT
BRANCH   8  24
ATOM     24  N16 RSV d   1      67.076  48.657   5.917  0.00  0.00    -0.384 N 
ATOM     25  H6  RSV d   1      66.825  47.724   5.561  0.00  0.00     0.157 HD
ATOM     26  H7  RSV d   1      66.799  49.500   5.394  0.00  0.00     0.157 HD
ENDBRANCH   8  24
TORSDOF 1
