REMARK  4 active torsions:
REMARK  status: ('A' for Active; 'I' for Inactive)
REMARK    1  A    between atoms: N1_1  and  C7_10 
REMARK    2  A    between atoms: C7_10  and  C8_11 
REMARK    3  A    between atoms: C8_11  and  N8_12 
REMARK    4  A    between atoms: C8_11  and  C9_13 
ROOT
ATOM      1  C7  CWD d   1     -20.187  -2.531 -19.361  0.00  0.00     0.040 C 
ATOM      2  H3  CWD d   1     -21.165  -2.734 -18.899  0.00  0.00     0.069 H 
ATOM      3  H4  CWD d   1     -19.397  -3.033 -18.783  0.00  0.00     0.069 H 
ENDROOT
BRANCH   1   4
ATOM      4  N1  CWD d   1     -19.949  -1.105 -19.307  0.00  0.00    -0.305 N 
ATOM      5  C2  CWD d   1     -18.710  -0.652 -19.512  0.00  0.00     0.328 A 
ATOM      6  O2  CWD d   1     -17.815  -1.422 -19.654  0.00  0.00    -0.246 OA
ATOM      7  N3  CWD d   1     -18.456   0.702 -19.521  0.00  0.00    -0.285 N 
ATOM      8  C4  CWD d   1     -19.478   1.592 -19.326  0.00  0.00     0.206 A 
ATOM      9  H1  CWD d   1     -17.525   1.035 -19.670  0.00  0.00     0.172 HD
ATOM     10  O4  CWD d   1     -19.200   2.951 -19.370  0.00  0.00    -0.170 OA
ATOM     11  C5  CWD d   1     -20.774   1.133 -19.114  0.00  0.00     0.103 A 
ATOM     12 CL5  CWD d   1     -22.179   2.236 -18.890  0.00  0.00    -0.078 Cl
ATOM     13  C6  CWD d   1     -21.001  -0.194 -19.107  0.00  0.00     0.009 A 
ATOM     14  H2  CWD d   1     -22.012  -0.566 -18.945  0.00  0.00     0.114 H 
ENDBRANCH   1   4
BRANCH   1  15
ATOM     15  C8  CWD d   1     -20.194  -3.121 -20.774  0.00  0.00     0.198 C 
ATOM     16  H5  CWD d   1     -19.354  -2.604 -21.261  0.00  0.00     0.103 H 
BRANCH  15  17
ATOM     17  N8  CWD d   1     -21.332  -2.712 -21.577  0.00  0.00    -0.064 N 
ATOM     18  H6  CWD d   1     -21.270  -3.137 -22.489  0.00  0.00     0.275 HD
ATOM     19  H7  CWD d   1     -21.332  -1.709 -21.673  0.00  0.00     0.275 HD
ATOM     20  H8  CWD d   1     -22.184  -3.007 -21.127  0.00  0.00     0.275 HD
ENDBRANCH  15  17
BRANCH  15  21
ATOM     21  C9  CWD d   1     -19.783  -4.592 -20.881  0.00  0.00     0.206 C 
ATOM     22  O91 CWD d   1     -20.538  -5.375 -21.356  0.00  0.00    -0.646 OA
ATOM     23  O92 CWD d   1     -18.685  -5.016 -20.122  0.00  0.00    -0.646 OA
ENDBRANCH  15  21
ENDBRANCH   1  15
TORSDOF 4
