REMARK  6 active torsions:
REMARK  status: ('A' for Active; 'I' for Inactive)
REMARK    1  A    between atoms: C8_4  and  N11_23 
REMARK    2  A    between atoms: C13_6  and  C14_15 
REMARK    3  A    between atoms: C12_17  and  C13_6 
REMARK    4  A    between atoms: C17_7  and  C18_13 
REMARK    5  A    between atoms: N15_14  and  C17_7 
REMARK       I    between atoms: C14_15  and  N15_14 
REMARK    6  A    between atoms: C12_17  and  C9_18 
ROOT
ATOM      1  C13 3RU d   1      63.744  47.192   8.383  0.00  0.00     0.013 C 
ATOM      2  H3  3RU d   1      63.719  48.113   7.782  0.00  0.00     0.047 H 
ATOM      3  H4  3RU d   1      63.088  46.438   7.925  0.00  0.00     0.047 H 
ENDROOT
BRANCH   1   4
ATOM      4  C14 3RU d   1      63.241  47.502   9.797  0.00  0.00     0.217 C 
ATOM      5  N15 3RU d   1      62.933  48.767  10.052  0.00  0.00    -0.361 N 
ATOM      6  H18 3RU d   1      63.060  49.469   9.351  0.00  0.00     0.162 HD
ATOM      7  O16 3RU d   1      63.132  46.610  10.632  0.00  0.00    -0.274 OA
BRANCH   5   8
ATOM      8  C17 3RU d   1      62.403  49.125  11.375  0.00  0.00    -0.002 C 
ATOM      9  H5  3RU d   1      61.337  49.378  11.271  0.00  0.00     0.064 H 
ATOM     10  H6  3RU d   1      62.511  48.258  12.044  0.00  0.00     0.064 H 
BRANCH   8  11
ATOM     11  C18 3RU d   1      63.127  50.311  11.994  0.00  0.00    -0.039 C 
ATOM     12  C19 3RU d   1      64.467  49.844  12.555  0.00  0.00    -0.060 C 
ATOM     13  C20 3RU d   1      65.177  51.019  13.223  0.00  0.00    -0.065 C 
ATOM     14  H13 3RU d   1      64.297  49.049  13.296  0.00  0.00     0.033 H 
ATOM     15  H14 3RU d   1      65.091  49.455  11.737  0.00  0.00     0.033 H 
ATOM     16  C21 3RU d   1      65.401  52.157  12.226  0.00  0.00    -0.065 C 
ATOM     17  H7  3RU d   1      64.560  51.386  14.057  0.00  0.00     0.033 H 
ATOM     18  H8  3RU d   1      66.150  50.680  13.608  0.00  0.00     0.033 H 
ATOM     19  C22 3RU d   1      64.093  52.583  11.569  0.00  0.00    -0.065 C 
ATOM     20  H9  3RU d   1      66.100  51.819  11.447  0.00  0.00     0.033 H 
ATOM     21  H10 3RU d   1      65.833  53.019  12.757  0.00  0.00     0.033 H 
ATOM     22  C23 3RU d   1      63.363  51.388  10.943  0.00  0.00    -0.060 C 
ATOM     23  H11 3RU d   1      64.312  53.320  10.782  0.00  0.00     0.033 H 
ATOM     24  H12 3RU d   1      63.443  53.040  12.330  0.00  0.00     0.033 H 
ATOM     25  H15 3RU d   1      63.975  50.974  10.128  0.00  0.00     0.033 H 
ATOM     26  H16 3RU d   1      62.395  51.722  10.541  0.00  0.00     0.033 H 
ATOM     27  H17 3RU d   1      62.514  50.727  12.808  0.00  0.00     0.042 H 
ENDBRANCH   8  11
ENDBRANCH   5   8
ENDBRANCH   1   4
BRANCH   1  28
ATOM     28  C12 3RU d   1      65.174  46.656   8.416  0.00  0.00    -0.029 C 
ATOM     29  H19 3RU d   1      65.397  46.142   7.469  0.00  0.00     0.041 H 
ATOM     30  H20 3RU d   1      65.283  45.949   9.251  0.00  0.00     0.041 H 
BRANCH  28  31
ATOM     31  C9  3RU d   1      66.138  47.821   8.604  0.00  0.00    -0.011 A 
ATOM     32  C8  3RU d   1      66.411  48.767   7.613  0.00  0.00     0.128 A 
ATOM     33  N7  3RU d   1      67.269  49.772   7.846  0.00  0.00    -0.231 NA
ATOM     34  C6  3RU d   1      67.887  49.906   9.028  0.00  0.00     0.069 A 
ATOM     35  C5  3RU d   1      67.654  48.994  10.048  0.00  0.00    -0.007 A 
ATOM     36  C3  3RU d   1      68.770  50.960   9.231  0.00  0.00    -0.054 A 
ATOM     37  C4  3RU d   1      68.305  49.139  11.269  0.00  0.00    -0.071 A 
ATOM     38  C10 3RU d   1      66.770  47.943   9.838  0.00  0.00    -0.061 A 
ATOM     39  C1  3RU d   1      69.187  50.196  11.465  0.00  0.00    -0.082 A 
ATOM     40  H1  3RU d   1      68.125  48.428  12.067  0.00  0.00     0.084 H 
ATOM     41  C2  3RU d   1      69.424  51.110  10.448  0.00  0.00    -0.081 A 
ATOM     42  H21 3RU d   1      69.692  50.307  12.418  0.00  0.00     0.083 H 
ATOM     43  H22 3RU d   1      70.113  51.933  10.601  0.00  0.00     0.083 H 
ATOM     44  H2  3RU d   1      66.575  47.226  10.627  0.00  0.00     0.085 H 
ATOM     45  H23 3RU d   1      68.950  51.671   8.433  0.00  0.00     0.087 H 
BRANCH  32  46
ATOM     46  N11 3RU d   1      65.822  48.670   6.418  0.00  0.00    -0.384 N 
ATOM     47  H24 3RU d   1      66.023  49.367   5.687  0.00  0.00     0.157 HD
ATOM     48  H25 3RU d   1      65.167  47.898   6.228  0.00  0.00     0.157 HD
ENDBRANCH  32  46
ENDBRANCH  28  31
ENDBRANCH   1  28
TORSDOF 6
