REMARK  12 active torsions:
REMARK  status: ('A' for Active; 'I' for Inactive)
REMARK    1  A    between atoms: S_1  and  N5'_27 
REMARK    2  A    between atoms: NBB_35  and  S_1 
REMARK    3  A    between atoms: C1'_12  and  N9_11 
REMARK    4  A    between atoms: C2'_15  and  O2'_16 
REMARK    5  A    between atoms: C7B_30  and  C2B_17 
REMARK    6  A    between atoms: C3'_19  and  O3'_20 
REMARK    7  A    between atoms: C5'_26  and  C4'_23 
REMARK    8  A    between atoms: N5'_27  and  C5'_26 
REMARK    9  A    between atoms: C8B_31  and  C7B_30 
REMARK   10  A    between atoms: C9B_32  and  C8B_31 
REMARK   11  A    between atoms: CAB_33  and  C9B_32 
REMARK   12  A    between atoms: CBB_34  and  CAB_33 
REMARK       I    between atoms: CBB_34  and  NBB_35 
ROOT
ATOM      1  S   BS5 d   1      -4.092  -4.983   6.330  0.00  0.00     0.321 S 
ATOM      2  OP1 BS5 d   1      -5.291  -5.369   5.645  0.00  0.00    -0.182 OA
ATOM      3  OP2 BS5 d   1      -3.004  -4.865   5.401  0.00  0.00    -0.182 OA
ENDROOT
BRANCH   1   4
ATOM      4  N5' BS5 d   1      -4.358  -3.561   7.005  0.00  0.00    -0.300 N 
ATOM      5  H17 BS5 d   1      -5.261  -3.139   6.929  0.00  0.00     0.173 HD
BRANCH   4   6
ATOM      6  C5' BS5 d   1      -3.305  -2.876   7.727  0.00  0.00     0.031 C 
ATOM      7  H15 BS5 d   1      -3.193  -3.311   8.731  0.00  0.00     0.069 H 
ATOM      8  H16 BS5 d   1      -2.355  -2.966   7.180  0.00  0.00     0.069 H 
BRANCH   6   9
ATOM      9  C4' BS5 d   1      -3.704  -1.412   7.837  0.00  0.00     0.084 C 
ATOM     10  C3' BS5 d   1      -2.611  -0.518   8.384  0.00  0.00     0.091 C 
ATOM     11  C2' BS5 d   1      -3.393   0.615   9.013  0.00  0.00     0.105 C 
ATOM     12  H11 BS5 d   1      -1.999  -1.046   9.130  0.00  0.00     0.091 H 
ATOM     13  C1' BS5 d   1      -4.728   0.007   9.388  0.00  0.00     0.139 C 
ATOM     14  H7  BS5 d   1      -2.871   1.048   9.879  0.00  0.00     0.093 H 
ATOM     15  O4' BS5 d   1      -4.803  -1.265   8.739  0.00  0.00    -0.354 OA
ATOM     16  H5  BS5 d   1      -5.554   0.665   9.080  0.00  0.00     0.122 H 
ATOM     17  H13 BS5 d   1      -3.992  -1.058   6.836  0.00  0.00     0.090 H 
BRANCH  10  18
ATOM     18  O3' BS5 d   1      -1.775  -0.031   7.332  0.00  0.00    -0.390 OA
ATOM     19  H12 BS5 d   1      -2.313   0.379   6.665  0.00  0.00     0.210 HD
ENDBRANCH  10  18
BRANCH  11  20
ATOM     20  O2' BS5 d   1      -3.652   1.598   8.005  0.00  0.00    -0.388 OA
ATOM     21  H8  BS5 d   1      -4.238   2.260   8.353  0.00  0.00     0.210 HD
ENDBRANCH  11  20
BRANCH  13  22
ATOM     22  N9  BS5 d   1      -4.786  -0.260  10.841  0.00  0.00    -0.294 N 
ATOM     23  C4  BS5 d   1      -5.900  -0.497  11.529  0.00  0.00     0.167 A 
ATOM     24  N3  BS5 d   1      -7.213  -0.557  11.214  0.00  0.00    -0.222 NA
ATOM     25  C5  BS5 d   1      -5.487  -0.714  12.921  0.00  0.00     0.149 A 
ATOM     26  C2  BS5 d   1      -8.134  -0.827  12.159  0.00  0.00     0.091 A 
ATOM     27  N1  BS5 d   1      -7.830  -1.037  13.453  0.00  0.00    -0.222 NA
ATOM     28  H1  BS5 d   1      -9.175  -0.878  11.861  0.00  0.00     0.146 H 
ATOM     29  C6  BS5 d   1      -6.557  -0.999  13.903  0.00  0.00     0.155 A 
ATOM     30  N6  BS5 d   1      -6.268  -1.218  15.209  0.00  0.00    -0.382 N 
ATOM     31  H2  BS5 d   1      -5.291  -1.185  15.533  0.00  0.00     0.157 HD
ATOM     32  H3  BS5 d   1      -7.026  -1.418  15.878  0.00  0.00     0.157 HD
ATOM     33  N7  BS5 d   1      -4.144  -0.592  12.952  0.00  0.00    -0.236 NA
ATOM     34  C8  BS5 d   1      -3.737  -0.314  11.685  0.00  0.00     0.071 A 
ATOM     35  H4  BS5 d   1      -2.700  -0.156  11.391  0.00  0.00     0.144 H 
ENDBRANCH  13  22
ENDBRANCH   6   9
ENDBRANCH   4   6
ENDBRANCH   1   4
BRANCH   1  36
ATOM     36  NBB BS5 d   1      -3.718  -6.027   7.393  0.00  0.00    -0.237 N 
ATOM     37  CBB BS5 d   1      -4.557  -6.413   8.363  0.00  0.00     0.232 C 
ATOM     38  OCB BS5 d   1      -5.637  -5.891   8.564  0.00  0.00    -0.273 OA
ATOM     39  H29 BS5 d   1      -2.807  -6.437   7.359  0.00  0.00     0.183 HD
BRANCH  37  40
ATOM     40  CAB BS5 d   1      -4.118  -7.573   9.230  0.00  0.00     0.010 C 
ATOM     41  H27 BS5 d   1      -4.802  -8.420   9.073  0.00  0.00     0.047 H 
ATOM     42  H28 BS5 d   1      -3.097  -7.869   8.948  0.00  0.00     0.047 H 
BRANCH  40  43
ATOM     43  C9B BS5 d   1      -4.137  -7.177  10.711  0.00  0.00    -0.057 C 
ATOM     44  H25 BS5 d   1      -3.449  -6.333  10.863  0.00  0.00     0.033 H 
ATOM     45  H26 BS5 d   1      -5.158  -6.872  10.986  0.00  0.00     0.033 H 
BRANCH  43  46
ATOM     46  C8B BS5 d   1      -3.707  -8.336  11.610  0.00  0.00    -0.064 C 
ATOM     47  H23 BS5 d   1      -4.493  -9.105  11.602  0.00  0.00     0.033 H 
ATOM     48  H24 BS5 d   1      -2.772  -8.763  11.220  0.00  0.00     0.033 H 
BRANCH  46  49
ATOM     49  C7B BS5 d   1      -3.480  -7.875  13.045  0.00  0.00    -0.051 C 
ATOM     50  H21 BS5 d   1      -2.511  -7.359  13.109  0.00  0.00     0.034 H 
ATOM     51  H22 BS5 d   1      -4.284  -7.182  13.332  0.00  0.00     0.034 H 
BRANCH  49  52
ATOM     52  C2B BS5 d   1      -3.478  -9.063  14.002  0.00  0.00     0.012 C 
ATOM     53  S1B BS5 d   1      -3.396  -8.601  15.704  0.00  0.00    -0.160 SA
ATOM     54  C6B BS5 d   1      -2.815 -10.159  16.293  0.00  0.00    -0.002 C 
ATOM     55  C5B BS5 d   1      -1.949 -10.690  15.151  0.00  0.00     0.042 A 
ATOM     56  H19 BS5 d   1      -3.656 -10.839  16.494  0.00  0.00     0.052 H 
ATOM     57  H20 BS5 d   1      -2.219 -10.033  17.209  0.00  0.00     0.052 H 
ATOM     58  N1B BS5 d   1      -0.563 -10.349  15.378  0.00  0.00    -0.336 N 
ATOM     59  C4B BS5 d   1      -2.271  -9.981  13.834  0.00  0.00     0.046 A 
ATOM     60  H18 BS5 d   1      -2.083 -11.778  15.058  0.00  0.00     0.077 H 
ATOM     61  C3B BS5 d   1      -0.130  -9.456  14.495  0.00  0.00     0.316 A 
ATOM     62  H6  BS5 d   1      -0.001 -10.737  16.108  0.00  0.00     0.164 HD
ATOM     63  N2B BS5 d   1      -1.055  -9.243  13.561  0.00  0.00    -0.335 N 
ATOM     64  O3B BS5 d   1       0.963  -8.902  14.550  0.00  0.00    -0.247 OA
ATOM     65  H10 BS5 d   1      -0.926  -8.647  12.769  0.00  0.00     0.164 HD
ATOM     66  H14 BS5 d   1      -2.475 -10.706  13.033  0.00  0.00     0.077 H 
ATOM     67  H9  BS5 d   1      -4.401  -9.634  13.821  0.00  0.00     0.059 H 
ENDBRANCH  49  52
ENDBRANCH  46  49
ENDBRANCH  43  46
ENDBRANCH  40  43
ENDBRANCH  37  40
ENDBRANCH   1  36
TORSDOF 12
