REMARK  8 active torsions:
REMARK  status: ('A' for Active; 'I' for Inactive)
REMARK    1  A    between atoms: O3A_8  and  PB_1 
REMARK    2  A    between atoms: PA_5  and  O3A_8 
REMARK    3  A    between atoms: PA_5  and  O5'_9 
REMARK    4  A    between atoms: O5'_9  and  C5'_10 
REMARK    5  A    between atoms: C5'_10  and  C4'_11 
REMARK    6  A    between atoms: C3'_13  and  O3'_14 
REMARK    7  A    between atoms: C2'_15  and  O2'_16 
REMARK    8  A    between atoms: C1'_17  and  N9_18 
ROOT
ATOM      1  C4' ADP d   1     -27.941 -15.100  12.169  0.00  0.00     0.089 C 
ATOM      2  O4' ADP d   1     -29.332 -15.430  12.229  0.00  0.00    -0.353 OA
ATOM      3  C3' ADP d   1     -27.888 -13.611  11.862  0.00  0.00     0.091 C 
ATOM      4  C2' ADP d   1     -29.104 -13.440  10.984  0.00  0.00     0.105 C 
ATOM      5  C1' ADP d   1     -30.104 -14.433  11.553  0.00  0.00     0.139 C 
ATOM      6  H3  ADP d   1     -27.449 -15.660  11.360  0.00  0.00     0.090 H 
ATOM      7  H4  ADP d   1     -27.972 -13.011  12.780  0.00  0.00     0.091 H 
ATOM      8  H6  ADP d   1     -29.487 -12.410  11.036  0.00  0.00     0.093 H 
ATOM      9  H8  ADP d   1     -30.727 -14.887  10.768  0.00  0.00     0.122 H 
ENDROOT
BRANCH   5  10
ATOM     10  N9  ADP d   1     -30.936 -13.653  12.507  0.00  0.00    -0.294 N 
ATOM     11  C8  ADP d   1     -30.760 -13.557  13.834  0.00  0.00     0.071 A 
ATOM     12  N7  ADP d   1     -31.670 -12.745  14.406  0.00  0.00    -0.236 NA
ATOM     13  H9  ADP d   1     -29.975 -14.074  14.383  0.00  0.00     0.144 H 
ATOM     14  C5  ADP d   1     -32.445 -12.280  13.417  0.00  0.00     0.149 A 
ATOM     15  C6  ADP d   1     -33.597 -11.362  13.330  0.00  0.00     0.155 A 
ATOM     16  C4  ADP d   1     -31.954 -12.874  12.168  0.00  0.00     0.167 A 
ATOM     17  N6  ADP d   1     -34.091 -10.756  14.446  0.00  0.00    -0.382 N 
ATOM     18  N1  ADP d   1     -34.123 -11.139  12.105  0.00  0.00    -0.222 NA
ATOM     19  H10 ADP d   1     -34.896 -10.117  14.372  0.00  0.00     0.157 HD
ATOM     20  H11 ADP d   1     -33.660 -10.937  15.364  0.00  0.00     0.157 HD
ATOM     21  C2  ADP d   1     -33.631 -11.732  10.994  0.00  0.00     0.091 A 
ATOM     22  N3  ADP d   1     -32.581 -12.576  11.006  0.00  0.00    -0.222 NA
ATOM     23  H12 ADP d   1     -34.106 -11.517  10.044  0.00  0.00     0.146 H 
ENDBRANCH   5  10
BRANCH   4  24
ATOM     24  O2' ADP d   1     -28.807 -13.788   9.612  0.00  0.00    -0.388 OA
ATOM     25  H7  ADP d   1     -28.526 -14.694   9.570  0.00  0.00     0.210 HD
ENDBRANCH   4  24
BRANCH   1  26
ATOM     26  C5' ADP d   1     -27.284 -15.465  13.485  0.00  0.00     0.058 C 
ATOM     27  H1  ADP d   1     -27.361 -16.551  13.643  0.00  0.00     0.079 H 
ATOM     28  H2  ADP d   1     -26.224 -15.172  13.458  0.00  0.00     0.079 H 
BRANCH  26  29
ATOM     29  O5' ADP d   1     -27.936 -14.784  14.552  0.00  0.00    -0.287 OA
BRANCH  29  30
ATOM     30  PA  ADP d   1     -27.211 -14.716  15.979  0.00  0.00     0.418 P 
ATOM     31  O1A ADP d   1     -28.162 -14.103  16.975  0.00  0.00    -0.624 OA
ATOM     32  O2A ADP d   1     -25.867 -14.061  15.788  0.00  0.00    -0.624 OA
BRANCH  30  33
ATOM     33  O3A ADP d   1     -27.135 -16.275  16.345  0.00  0.00    -0.173 OA
BRANCH  33  34
ATOM     34  PB  ADP d   1     -25.821 -17.169  16.629  0.00  0.00     0.431 P 
ATOM     35  O1B ADP d   1     -26.294 -18.555  16.325  0.00  0.00    -0.616 OA
ATOM     36  O2B ADP d   1     -25.596 -16.954  18.099  0.00  0.00    -0.616 OA
ATOM     37  O3B ADP d   1     -24.755 -16.677  15.667  0.00  0.00    -0.616 OA
ENDBRANCH  33  34
ENDBRANCH  30  33
ENDBRANCH  29  30
ENDBRANCH  26  29
ENDBRANCH   1  26
BRANCH   3  38
ATOM     38  O3' ADP d   1     -26.690 -13.258  11.179  0.00  0.00    -0.390 OA
ATOM     39  H5  ADP d   1     -26.642 -13.735  10.359  0.00  0.00     0.210 HD
ENDBRANCH   3  38
TORSDOF 8
