REMARK  5 active torsions:
REMARK  status: ('A' for Active; 'I' for Inactive)
REMARK    1  A    between atoms: C8_6  and  C9_19 
REMARK    2  A    between atoms: O3_12  and  C7_15 
REMARK    3  A    between atoms: C3_17  and  O3_12 
REMARK    4  A    between atoms: C7_15  and  C'_13 
REMARK    5  A    between atoms: C1_18  and  C_14 
ROOT
ATOM      1  O2  RVC d   1      -1.819  -5.056  25.829  0.00  0.00    -0.289 OA
ATOM      2  C5  RVC d   1       1.347  -5.987  27.951  0.00  0.00    -0.083 A 
ATOM      3  C4  RVC d   1       0.220  -5.588  28.617  0.00  0.00    -0.068 A 
ATOM      4  C6  RVC d   1       1.421  -6.089  26.593  0.00  0.00    -0.063 A 
ATOM      5  C2  RVC d   1      -0.781  -5.357  26.544  0.00  0.00     0.199 A 
ATOM      6  C3  RVC d   1      -0.873  -5.267  27.887  0.00  0.00     0.124 A 
ATOM      7  C1  RVC d   1       0.326  -5.751  25.876  0.00  0.00     0.089 A 
ATOM      8  H2  RVC d   1       2.231  -6.236  28.536  0.00  0.00     0.083 H 
ATOM      9  H3  RVC d   1       0.203  -5.530  29.704  0.00  0.00     0.081 H 
ATOM     10  H4  RVC d   1       2.331  -6.431  26.103  0.00  0.00     0.085 H 
ATOM     11  H7  RVC d   1      -0.537  -4.220  27.858  0.00  0.00     0.103 H 
ENDROOT
BRANCH   6  12
ATOM     12  O3  RVC d   1      -2.027  -4.873  28.404  0.00  0.00    -0.328 OA
BRANCH  12  13
ATOM     13  C7  RVC d   1      -2.084  -5.126  29.711  0.00  0.00     0.143 C 
ATOM     14  C8  RVC d   1      -2.407  -4.232  30.594  0.00  0.00    -0.053 C 
ATOM     15  H1  RVC d   1      -2.507  -4.519  31.640  0.00  0.00     0.083 H 
BRANCH  14  16
ATOM     16  C9  RVC d   1      -2.643  -2.813  30.190  0.00  0.00    -0.003 A 
ATOM     17  C10 RVC d   1      -2.390  -1.916  31.301  0.00  0.00    -0.095 A 
ATOM     18  C11 RVC d   1      -3.771  -2.164  30.861  0.00  0.00    -0.095 A 
ATOM     19  H5  RVC d   1      -1.689  -1.421  31.971  0.00  0.00     0.077 H 
ATOM     20  H6  RVC d   1      -4.842  -1.992  30.961  0.00  0.00     0.077 H 
ATOM     21  H8  RVC d   1      -2.366  -2.596  29.148  0.00  0.00     0.058 H 
ENDBRANCH  14  16
BRANCH  13  22
ATOM     22  C'  RVC d   1      -2.265  -6.512  30.172  0.00  0.00     0.233 C 
ATOM     23  OB' RVC d   1      -3.348  -7.060  30.062  0.00  0.00    -0.642 OA
ATOM     24  OA' RVC d   1      -1.326  -7.074  30.693  0.00  0.00    -0.642 OA
ENDBRANCH  13  22
ENDBRANCH  12  13
ENDBRANCH   6  12
BRANCH   7  25
ATOM     25  C   RVC d   1       0.307  -5.813  24.519  0.00  0.00     0.213 C 
ATOM     26  OB  RVC d   1      -0.715  -5.657  23.909  0.00  0.00    -0.644 OA
ATOM     27  OA  RVC d   1       1.301  -6.033  23.904  0.00  0.00    -0.644 OA
ENDBRANCH   7  25
TORSDOF 5
