REMARK  9 active torsions:
REMARK  status: ('A' for Active; 'I' for Inactive)
REMARK    1  A    between atoms: C10_10  and  C17_17 
REMARK    2  A    between atoms: C20_20  and  C11_11 
REMARK    3  A    between atoms: C17_17  and  C13_13 
REMARK    4  A    between atoms: C15_15  and  N31_31 
REMARK    5  A    between atoms: C16_16  and  N30_30 
REMARK    6  A    between atoms: N31_31  and  C21_21 
REMARK    7  A    between atoms: C24_24  and  C22_22 
REMARK    8  A    between atoms: C24_24  and  C23_23 
REMARK    9  A    between atoms: C24_24  and  N29_29 
ROOT
ATOM      1  C5  ABQ d   1      37.406  30.114  26.989  0.00  0.00     0.034 A 
ATOM      2  C6  ABQ d   1      39.332  29.007  26.445  0.00  0.00     0.046 A 
ATOM      3  C13 ABQ d   1      36.759  28.905  27.038  0.00  0.00     0.127 A 
ATOM      4  C15 ABQ d   1      38.673  27.793  26.473  0.00  0.00     0.142 A 
ATOM      5  N25 ABQ d   1      38.737  30.199  26.677  0.00  0.00    -0.267 NA
ATOM      6  N28 ABQ d   1      37.359  27.719  26.780  0.00  0.00    -0.225 NA
ATOM      7  H5  ABQ d   1      36.852  31.021  27.202  0.00  0.00     0.118 H 
ATOM      8  H6  ABQ d   1      40.393  29.004  26.223  0.00  0.00     0.120 H 
ENDROOT
BRANCH   3   9
ATOM      9  C17 ABQ d   1      35.308  28.829  27.392  0.00  0.00     0.214 C 
ATOM     10  O32 ABQ d   1      34.573  29.689  26.855  0.00  0.00    -0.285 OA
BRANCH   9  11
ATOM     11  C10 ABQ d   1      34.729  27.674  28.089  0.00  0.00     0.050 A 
ATOM     12  C7  ABQ d   1      35.409  26.559  28.582  0.00  0.00    -0.003 A 
ATOM     13  N29 ABQ d   1      34.512  25.650  29.097  0.00  0.00    -0.336 N 
ATOM     14  H7  ABQ d   1      36.490  26.427  28.562  0.00  0.00     0.113 H 
ATOM     15  C14 ABQ d   1      33.224  26.156  28.945  0.00  0.00     0.146 A 
ATOM     16  C9  ABQ d   1      33.317  27.403  28.331  0.00  0.00     0.071 A 
ATOM     17  N26 ABQ d   1      32.103  25.524  29.322  0.00  0.00    -0.223 NA
ATOM     18  C16 ABQ d   1      32.105  28.063  28.130  0.00  0.00     0.137 A 
ATOM     19  N27 ABQ d   1      30.960  27.451  28.490  0.00  0.00    -0.224 NA
ATOM     20  C8  ABQ d   1      31.037  26.256  29.063  0.00  0.00     0.091 A 
ATOM     21  H8  ABQ d   1      30.090  25.820  29.360  0.00  0.00     0.146 H 
BRANCH  13  22
ATOM     22  C24 ABQ d   1      34.789  24.327  29.684  0.00  0.00     0.011 C 
ATOM     23  H21 ABQ d   1      34.096  24.100  30.508  0.00  0.00     0.072 H 
BRANCH  22  24
ATOM     24  C22 ABQ d   1      36.246  24.271  30.197  0.00  0.00    -0.057 C 
ATOM     25  H15 ABQ d   1      36.443  23.281  30.633  0.00  0.00     0.030 H 
ATOM     26  H16 ABQ d   1      36.395  25.046  30.964  0.00  0.00     0.030 H 
ATOM     27  H17 ABQ d   1      36.937  24.447  29.359  0.00  0.00     0.030 H 
ENDBRANCH  22  24
BRANCH  22  28
ATOM     28  C23 ABQ d   1      34.576  23.378  28.511  0.00  0.00    -0.057 C 
ATOM     29  H18 ABQ d   1      33.532  23.443  28.172  0.00  0.00     0.030 H 
ATOM     30  H19 ABQ d   1      34.795  22.348  28.828  0.00  0.00     0.030 H 
ATOM     31  H20 ABQ d   1      35.248  23.658  27.686  0.00  0.00     0.030 H 
ENDBRANCH  22  28
ENDBRANCH  13  22
BRANCH  18  32
ATOM     32  N30 ABQ d   1      31.979  29.319  27.551  0.00  0.00    -0.383 N 
ATOM     33  H22 ABQ d   1      31.047  29.742  27.436  0.00  0.00     0.157 HD
ATOM     34  H23 ABQ d   1      32.818  29.828  27.236  0.00  0.00     0.157 HD
ENDBRANCH  18  32
ENDBRANCH   9  11
ENDBRANCH   3   9
BRANCH   4  35
ATOM     35  N31 ABQ d   1      39.276  26.556  26.152  0.00  0.00    -0.366 N 
ATOM     36  H24 ABQ d   1      38.709  25.697  26.116  0.00  0.00     0.161 HD
BRANCH  35  37
ATOM     37  C21 ABQ d   1      40.715  26.505  25.871  0.00  0.00     0.041 C 
ATOM     38  C19 ABQ d   1      40.875  25.342  24.889  0.00  0.00     0.039 C 
ATOM     39  O33 ABQ d   1      41.579  24.231  25.500  0.00  0.00    -0.388 OA
ATOM     40  H11 ABQ d   1      41.443  25.688  24.013  0.00  0.00     0.077 H 
ATOM     41  H12 ABQ d   1      39.879  25.003  24.570  0.00  0.00     0.077 H 
ATOM     42  C18 ABQ d   1      41.701  24.507  26.919  0.00  0.00     0.029 C 
ATOM     43  C20 ABQ d   1      41.593  26.021  27.063  0.00  0.00     0.013 C 
ATOM     44  H9  ABQ d   1      40.892  24.011  27.476  0.00  0.00     0.075 H 
ATOM     45  H10 ABQ d   1      42.673  24.156  27.294  0.00  0.00     0.075 H 
ATOM     46  H13 ABQ d   1      42.596  26.461  26.961  0.00  0.00     0.053 H 
ATOM     47  H14 ABQ d   1      41.070  27.468  25.475  0.00  0.00     0.076 H 
BRANCH  43  48
ATOM     48  C11 ABQ d   1      41.061  26.423  28.402  0.00  0.00    -0.050 A 
ATOM     49  C1  ABQ d   1      41.617  27.589  28.917  0.00  0.00    -0.073 A 
ATOM     50  C3  ABQ d   1      41.164  28.065  30.126  0.00  0.00    -0.045 A 
ATOM     51  H1  ABQ d   1      42.395  28.114  28.375  0.00  0.00     0.084 H 
ATOM     52  C12 ABQ d   1      40.182  27.371  30.816  0.00  0.00     0.116 A 
ATOM     53  H3  ABQ d   1      41.574  28.980  30.538  0.00  0.00     0.088 H 
ATOM     54  C4  ABQ d   1      39.612  26.212  30.342  0.00  0.00    -0.045 A 
ATOM     55  F34 ABQ d   1      39.822  27.878  32.013  0.00  0.00    -0.206 F 
ATOM     56  C2  ABQ d   1      40.057  25.732  29.104  0.00  0.00    -0.073 A 
ATOM     57  H4  ABQ d   1      38.847  25.690  30.906  0.00  0.00     0.088 H 
ATOM     58  H2  ABQ d   1      39.628  24.828  28.687  0.00  0.00     0.084 H 
ENDBRANCH  43  48
ENDBRANCH  35  37
ENDBRANCH   4  35
TORSDOF 9
