REMARK  5 active torsions:
REMARK  status: ('A' for Active; 'I' for Inactive)
REMARK    1  A    between atoms: C4_7  and  S_1 
REMARK    2  A    between atoms: S_1  and  O2S_17 
REMARK       I    between atoms: N'_2  and  C7_10 
REMARK    3  A    between atoms: C1'_14  and  N'_2 
REMARK    4  A    between atoms: C7_10  and  C1_4 
REMARK    5  A    between atoms: C1'_14  and  C2'_16 
ROOT
ATOM      1  C1  RYJ d   1      16.822   3.913  14.759  0.00  0.00     0.032 A 
ATOM      2  C2  RYJ d   1      17.192   1.828  15.860  0.00  0.00    -0.059 A 
ATOM      3  C3  RYJ d   1      17.696   2.948  15.122  0.00  0.00    -0.066 A 
ATOM      4  C4  RYJ d   1      15.799   1.626  16.095  0.00  0.00     0.079 A 
ATOM      5  C5  RYJ d   1      15.482   3.772  15.036  0.00  0.00    -0.066 A 
ATOM      6  C6  RYJ d   1      14.953   2.669  15.692  0.00  0.00    -0.059 A 
ATOM      7  H2  RYJ d   1      17.897   1.105  16.256  0.00  0.00     0.085 H 
ATOM      8  H3  RYJ d   1      18.746   3.019  14.863  0.00  0.00     0.085 H 
ATOM      9  H4  RYJ d   1      14.806   4.561  14.727  0.00  0.00     0.085 H 
ATOM     10  H5  RYJ d   1      13.889   2.614  15.892  0.00  0.00     0.085 H 
ENDROOT
BRANCH   1  11
ATOM     11  C7  RYJ d   1      17.332   5.105  14.001  0.00  0.00     0.251 C 
ATOM     12  N'  RYJ d   1      18.614   5.224  13.711  0.00  0.00    -0.348 N 
ATOM     13  H1  RYJ d   1      19.262   4.539  14.043  0.00  0.00     0.163 HD
ATOM     14  O'  RYJ d   1      16.525   6.024  13.689  0.00  0.00    -0.268 OA
BRANCH  12  15
ATOM     15  C1' RYJ d   1      19.100   6.355  12.904  0.00  0.00     0.086 C 
ATOM     16  H6  RYJ d   1      18.275   6.764  12.302  0.00  0.00     0.077 H 
ATOM     17  H7  RYJ d   1      19.907   6.017  12.238  0.00  0.00     0.077 H 
BRANCH  15  18
ATOM     18  C2' RYJ d   1      19.631   7.434  13.855  0.00  0.00     0.403 C 
ATOM     19  F2' RYJ d   1      20.647   7.017  14.637  0.00  0.00    -0.169 F 
ATOM     20  F2' RYJ d   1      18.796   7.836  14.774  0.00  0.00    -0.169 F 
ATOM     21  F2' RYJ d   1      20.048   8.464  13.121  0.00  0.00    -0.169 F 
ENDBRANCH  15  18
ENDBRANCH  12  15
ENDBRANCH   1  11
BRANCH   4  22
ATOM     22  S   RYJ d   1      15.246   0.258  16.920  0.00  0.00     0.256 S 
ATOM     23  O1S RYJ d   1      15.754   0.343  18.273  0.00  0.00    -0.201 OA
ATOM     24  N3S RYJ d   1      13.780   0.326  16.762  0.00  0.00    -0.201 OA
BRANCH  22  25
ATOM     25  O2S RYJ d   1      15.823  -1.024  16.206  0.00  0.00    -0.324 N 
ATOM     26  H8  RYJ d   1      15.601  -1.934  16.556  0.00  0.00     0.169 HD
ATOM     27  H9  RYJ d   1      16.411  -0.927  15.403  0.00  0.00     0.169 HD
ENDBRANCH  22  25
ENDBRANCH   4  22
TORSDOF 5
