REMARK  5 active torsions:
REMARK  status: ('A' for Active; 'I' for Inactive)
REMARK    1  A    between atoms: C4_7  and  S_1 
REMARK    2  A    between atoms: S_1  and  N3S_15 
REMARK       I    between atoms: C7_10  and  N'_2 
REMARK    3  A    between atoms: N'_2  and  C1'_11 
REMARK    4  A    between atoms: C1_4  and  C7_10 
REMARK    5  A    between atoms: C1'_11  and  C2'_13 
ROOT
ATOM      1  C1  RYV d   1      16.854   3.601  14.644  0.00  0.00     0.032 A 
ATOM      2  C2  RYV d   1      14.909   2.410  15.503  0.00  0.00    -0.059 A 
ATOM      3  C3  RYV d   1      15.464   3.518  14.842  0.00  0.00    -0.066 A 
ATOM      4  C4  RYV d   1      15.732   1.358  15.951  0.00  0.00     0.079 A 
ATOM      5  C5  RYV d   1      17.688   2.552  15.120  0.00  0.00    -0.066 A 
ATOM      6  C6  RYV d   1      17.136   1.460  15.791  0.00  0.00    -0.059 A 
ATOM      7  H2  RYV d   1      13.839   2.364  15.670  0.00  0.00     0.085 H 
ATOM      8  H3  RYV d   1      14.819   4.312  14.483  0.00  0.00     0.085 H 
ATOM      9  H4  RYV d   1      18.759   2.601  14.961  0.00  0.00     0.085 H 
ATOM     10  H5  RYV d   1      17.783   0.688  16.191  0.00  0.00     0.085 H 
ENDROOT
BRANCH   1  11
ATOM     11  C7  RYV d   1      17.440   4.760  13.912  0.00  0.00     0.251 C 
ATOM     12  N'  RYV d   1      18.683   4.757  13.604  0.00  0.00    -0.357 N 
ATOM     13  H1  RYV d   1      19.251   3.977  13.868  0.00  0.00     0.162 HD
ATOM     14  O'  RYV d   1      16.690   5.754  13.682  0.00  0.00    -0.268 OA
BRANCH  12  15
ATOM     15  C1' RYV d   1      19.299   5.887  12.863  0.00  0.00    -0.008 C 
ATOM     16  H6  RYV d   1      18.639   6.232  12.054  0.00  0.00     0.063 H 
ATOM     17  H7  RYV d   1      20.273   5.596  12.443  0.00  0.00     0.063 H 
BRANCH  15  18
ATOM     18  C2' RYV d   1      19.469   6.982  13.940  0.00  0.00    -0.061 C 
ATOM     19  H8  RYV d   1      19.924   7.875  13.486  0.00  0.00     0.029 H 
ATOM     20  H9  RYV d   1      20.119   6.607  14.744  0.00  0.00     0.029 H 
ATOM     21  H10 RYV d   1      18.485   7.243  14.356  0.00  0.00     0.029 H 
ENDBRANCH  15  18
ENDBRANCH  12  15
ENDBRANCH   1  11
BRANCH   4  22
ATOM     22  S   RYV d   1      15.083  -0.005  16.801  0.00  0.00     0.256 S 
ATOM     23  O1S RYV d   1      13.668   0.079  16.648  0.00  0.00    -0.201 OA
ATOM     24  O2S RYV d   1      15.590   0.049  18.175  0.00  0.00    -0.201 OA
BRANCH  22  25
ATOM     25  N3S RYV d   1      15.699  -1.318  16.063  0.00  0.00    -0.324 N 
ATOM     26  H11 RYV d   1      15.459  -2.233  16.388  0.00  0.00     0.169 HD
ATOM     27  H12 RYV d   1      16.317  -1.210  15.284  0.00  0.00     0.169 HD
ENDBRANCH  22  25
ENDBRANCH   4  22
TORSDOF 5
