REMARK  6 active torsions:
REMARK  status: ('A' for Active; 'I' for Inactive)
REMARK    1  A    between atoms: C4_7  and  S_1 
REMARK    2  A    between atoms: S_1  and  N3S_21 
REMARK       I    between atoms: N'_2  and  C7_10 
REMARK    3  A    between atoms: C1'_16  and  N'_2 
REMARK    4  A    between atoms: C7_10  and  C1_4 
REMARK    5  A    between atoms: C2'_18  and  C1'_16 
REMARK    6  A    between atoms: C2'_18  and  C3'_20 
ROOT
ATOM      1  C1  RYX d   1      16.845   3.621  14.775  0.00  0.00     0.032 A 
ATOM      2  C2  RYX d   1      17.292   1.432  15.844  0.00  0.00    -0.059 A 
ATOM      3  C3  RYX d   1      17.704   2.555  15.123  0.00  0.00    -0.066 A 
ATOM      4  C4  RYX d   1      15.909   1.288  16.140  0.00  0.00     0.079 A 
ATOM      5  C5  RYX d   1      15.479   3.540  15.077  0.00  0.00    -0.066 A 
ATOM      6  C6  RYX d   1      15.058   2.356  15.701  0.00  0.00    -0.059 A 
ATOM      7  H2  RYX d   1      18.010   0.688  16.170  0.00  0.00     0.085 H 
ATOM      8  H3  RYX d   1      18.741   2.612  14.813  0.00  0.00     0.085 H 
ATOM      9  H4  RYX d   1      14.790   4.343  14.843  0.00  0.00     0.085 H 
ATOM     10  H5  RYX d   1      13.993   2.238  15.866  0.00  0.00     0.085 H 
ENDROOT
BRANCH   1  11
ATOM     11  C7  RYX d   1      17.392   4.796  14.035  0.00  0.00     0.251 C 
ATOM     12  N'  RYX d   1      18.674   4.834  13.641  0.00  0.00    -0.351 N 
ATOM     13  H1  RYX d   1      19.290   4.078  13.861  0.00  0.00     0.162 HD
ATOM     14  O'  RYX d   1      16.634   5.716  13.755  0.00  0.00    -0.268 OA
BRANCH  12  15
ATOM     15  C1' RYX d   1      19.160   5.971  12.898  0.00  0.00     0.065 C 
ATOM     16  H6  RYX d   1      18.348   6.677  12.670  0.00  0.00     0.073 H 
ATOM     17  H7  RYX d   1      19.648   5.659  11.963  0.00  0.00     0.073 H 
BRANCH  15  18
ATOM     18  C2' RYX d   1      20.168   6.578  13.878  0.00  0.00     0.354 C 
ATOM     19  F2' RYX d   1      21.221   5.912  13.406  0.00  0.00    -0.194 F 
ATOM     20  F2' RYX d   1      19.911   6.473  15.197  0.00  0.00    -0.194 F 
BRANCH  18  21
ATOM     21  C3' RYX d   1      20.087   8.065  13.813  0.00  0.00     0.456 C 
ATOM     22  F3' RYX d   1      20.344   8.391  12.528  0.00  0.00    -0.165 F 
ATOM     23  F3' RYX d   1      20.879   8.716  14.669  0.00  0.00    -0.165 F 
ATOM     24  F3' RYX d   1      18.856   8.127  14.326  0.00  0.00    -0.165 F 
ENDBRANCH  18  21
ENDBRANCH  15  18
ENDBRANCH  12  15
ENDBRANCH   1  11
BRANCH   4  25
ATOM     25  S   RYX d   1      15.320  -0.061  16.956  0.00  0.00     0.256 S 
ATOM     26  O1S RYX d   1      13.865   0.045  16.831  0.00  0.00    -0.201 OA
ATOM     27  O2S RYX d   1      15.839   0.018  18.289  0.00  0.00    -0.201 OA
BRANCH  25  28
ATOM     28  N3S RYX d   1      15.941  -1.324  16.223  0.00  0.00    -0.324 N 
ATOM     29  H8  RYX d   1      15.723  -2.246  16.544  0.00  0.00     0.169 HD
ATOM     30  H9  RYX d   1      16.550  -1.198  15.440  0.00  0.00     0.169 HD
ENDBRANCH  25  28
ENDBRANCH   4  25
TORSDOF 6
