REMARK  6 active torsions:
REMARK  status: ('A' for Active; 'I' for Inactive)
REMARK       I    between atoms: C7_9  and  N_1 
REMARK    1  A    between atoms: N_1  and  C1'_11 
REMARK    2  A    between atoms: C4_6  and  S_2 
REMARK    3  A    between atoms: S_2  and  N3S_16 
REMARK    4  A    between atoms: C1_3  and  C7_9 
REMARK    5  A    between atoms: C1'_11  and  C2'_14 
REMARK    6  A    between atoms: C2'_14  and  C16_12 
ROOT
ATOM      1  C1  RYY d   1      16.763   4.532  14.692  0.00  0.00     0.032 A 
ATOM      2  C2  RYY d   1      15.378   4.448  14.941  0.00  0.00    -0.066 A 
ATOM      3  C3  RYY d   1      14.868   3.338  15.616  0.00  0.00    -0.059 A 
ATOM      4  C4  RYY d   1      15.740   2.308  16.077  0.00  0.00     0.079 A 
ATOM      5  C5  RYY d   1      17.116   2.427  15.823  0.00  0.00    -0.059 A 
ATOM      6  C6  RYY d   1      17.631   3.515  15.139  0.00  0.00    -0.066 A 
ATOM      7  H2  RYY d   1      14.714   5.239  14.611  0.00  0.00     0.085 H 
ATOM      8  H3  RYY d   1      13.801   3.258  15.791  0.00  0.00     0.085 H 
ATOM      9  H4  RYY d   1      17.789   1.651  16.170  0.00  0.00     0.085 H 
ATOM     10  H5  RYY d   1      18.696   3.584  14.948  0.00  0.00     0.085 H 
ENDROOT
BRANCH   1  11
ATOM     11  C7  RYY d   1      17.266   5.726  13.923  0.00  0.00     0.251 C 
ATOM     12  N   RYY d   1      18.517   5.745  13.573  0.00  0.00    -0.357 N 
ATOM     13  H1  RYY d   1      19.134   5.019  13.875  0.00  0.00     0.162 HD
ATOM     14  O7  RYY d   1      16.497   6.668  13.690  0.00  0.00    -0.268 OA
BRANCH  12  15
ATOM     15  C1' RYY d   1      19.025   6.848  12.724  0.00  0.00    -0.005 C 
ATOM     16  H6  RYY d   1      18.208   7.555  12.515  0.00  0.00     0.064 H 
ATOM     17  H7  RYY d   1      19.405   6.436  11.778  0.00  0.00     0.064 H 
BRANCH  15  18
ATOM     18  C2' RYY d   1      20.092   7.537  13.411  0.00  0.00    -0.054 C 
ATOM     19  H11 RYY d   1      20.538   8.281  12.735  0.00  0.00     0.034 H 
ATOM     20  H12 RYY d   1      20.859   6.809  13.713  0.00  0.00     0.034 H 
BRANCH  18  21
ATOM     21  C16 RYY d   1      19.568   8.225  14.618  0.00  0.00    -0.075 C 
ATOM     22  H8  RYY d   1      20.391   8.745  15.130  0.00  0.00     0.027 H 
ATOM     23  H9  RYY d   1      19.123   7.484  15.298  0.00  0.00     0.027 H 
ATOM     24  H10 RYY d   1      18.802   8.956  14.320  0.00  0.00     0.027 H 
ENDBRANCH  18  21
ENDBRANCH  15  18
ENDBRANCH  12  15
ENDBRANCH   1  11
BRANCH   4  25
ATOM     25  S   RYY d   1      15.103   0.902  16.880  0.00  0.00     0.256 S 
ATOM     26  O1S RYY d   1      13.656   0.967  16.721  0.00  0.00    -0.201 OA
ATOM     27  O2S RYY d   1      15.643   0.982  18.240  0.00  0.00    -0.201 OA
BRANCH  25  28
ATOM     28  N3S RYY d   1      15.680  -0.370  16.123  0.00  0.00    -0.324 N 
ATOM     29  H13 RYY d   1      15.433  -1.289  16.430  0.00  0.00     0.169 HD
ATOM     30  H14 RYY d   1      16.290  -0.252  15.340  0.00  0.00     0.169 HD
ENDBRANCH  25  28
ENDBRANCH   4  25
TORSDOF 6
