REMARK  7 active torsions:
REMARK  status: ('A' for Active; 'I' for Inactive)
REMARK    1  A    between atoms: C4_7  and  S_1 
REMARK    2  A    between atoms: S_1  and  N3S_23 
REMARK       I    between atoms: N'_2  and  C7_10 
REMARK    3  A    between atoms: C1'_18  and  N'_2 
REMARK    4  A    between atoms: C7_10  and  C1_4 
REMARK    5  A    between atoms: C2'_20  and  C1'_18 
REMARK    6  A    between atoms: C3'_22  and  C2'_20 
REMARK    7  A    between atoms: C3'_22  and  C4'_24 
ROOT
ATOM      1  N'  RYZ d   1      18.531   5.840  13.538  0.00  0.00    -0.351 N 
ATOM      2  O'  RYZ d   1      16.430   6.655  13.528  0.00  0.00    -0.268 OA
ATOM      3  C7  RYZ d   1      17.240   5.760  13.849  0.00  0.00     0.251 C 
ATOM      4  H1  RYZ d   1      19.143   5.107  13.835  0.00  0.00     0.162 HD
ENDROOT
BRANCH   3   5
ATOM      5  C1  RYZ d   1      16.723   4.606  14.611  0.00  0.00     0.032 A 
ATOM      6  C3  RYZ d   1      17.572   3.592  15.088  0.00  0.00    -0.066 A 
ATOM      7  C2  RYZ d   1      17.041   2.457  15.802  0.00  0.00    -0.059 A 
ATOM      8  H3  RYZ d   1      18.640   3.664  14.917  0.00  0.00     0.085 H 
ATOM      9  C4  RYZ d   1      15.648   2.326  16.006  0.00  0.00     0.079 A 
ATOM     10  H2  RYZ d   1      17.715   1.699  16.185  0.00  0.00     0.085 H 
ATOM     11  C6  RYZ d   1      14.789   3.404  15.544  0.00  0.00    -0.059 A 
ATOM     12  C5  RYZ d   1      15.334   4.511  14.827  0.00  0.00    -0.066 A 
ATOM     13  H5  RYZ d   1      13.725   3.367  15.746  0.00  0.00     0.085 H 
ATOM     14  H4  RYZ d   1      14.675   5.283  14.446  0.00  0.00     0.085 H 
BRANCH   9  15
ATOM     15  S   RYZ d   1      15.104   0.988  16.839  0.00  0.00     0.256 S 
ATOM     16  O1S RYZ d   1      13.635   1.014  16.714  0.00  0.00    -0.201 OA
ATOM     17  O2S RYZ d   1      15.606   1.045  18.178  0.00  0.00    -0.201 OA
BRANCH  15  18
ATOM     18  N3S RYZ d   1      15.708  -0.305  16.084  0.00  0.00    -0.324 N 
ATOM     19  H8  RYZ d   1      15.503  -1.223  16.423  0.00  0.00     0.169 HD
ATOM     20  H9  RYZ d   1      16.287  -0.188  15.277  0.00  0.00     0.169 HD
ENDBRANCH  15  18
ENDBRANCH   9  15
ENDBRANCH   3   5
BRANCH   1  21
ATOM     21  C1' RYZ d   1      19.097   6.969  12.771  0.00  0.00     0.062 C 
ATOM     22  H6  RYZ d   1      18.333   7.366  12.086  0.00  0.00     0.073 H 
ATOM     23  H7  RYZ d   1      19.964   6.620  12.191  0.00  0.00     0.073 H 
BRANCH  21  24
ATOM     24  C2' RYZ d   1      19.548   8.092  13.751  0.00  0.00     0.332 C 
ATOM     25  F2' RYZ d   1      20.332   7.646  14.732  0.00  0.00    -0.197 F 
ATOM     26  F2' RYZ d   1      18.585   8.497  14.520  0.00  0.00    -0.197 F 
BRANCH  24  27
ATOM     27  C3' RYZ d   1      20.045   9.257  12.964  0.00  0.00     0.404 C 
ATOM     28  F3' RYZ d   1      19.106   9.665  12.106  0.00  0.00    -0.189 F 
ATOM     29  F3' RYZ d   1      21.052   8.773  12.283  0.00  0.00    -0.189 F 
BRANCH  27  30
ATOM     30  C4' RYZ d   1      20.361  10.453  13.853  0.00  0.00     0.460 C 
ATOM     31  F4' RYZ d   1      21.091  11.199  13.075  0.00  0.00    -0.165 F 
ATOM     32  F4' RYZ d   1      20.918  10.131  14.993  0.00  0.00    -0.165 F 
ATOM     33  F4' RYZ d   1      19.227  11.034  14.230  0.00  0.00    -0.165 F 
ENDBRANCH  27  30
ENDBRANCH  24  27
ENDBRANCH  21  24
ENDBRANCH   1  21
TORSDOF 7
