REMARK  7 active torsions:
REMARK  status: ('A' for Active; 'I' for Inactive)
REMARK    1  A    between atoms: C4_7  and  S_1 
REMARK    2  A    between atoms: S_1  and  N3S_16 
REMARK       I    between atoms: C7_10  and  N'_2 
REMARK    3  A    between atoms: N'_2  and  C1'_11 
REMARK    4  A    between atoms: C1_4  and  C7_10 
REMARK    5  A    between atoms: C1'_11  and  C2'_13 
REMARK    6  A    between atoms: C2'_13  and  C3'_15 
REMARK    7  A    between atoms: C3'_15  and  C4'_17 
ROOT
ATOM      1  N'  RZ0 d   1      18.498   5.296  13.488  0.00  0.00    -0.357 N 
ATOM      2  O'  RZ0 d   1      16.656   5.955  13.682  0.00  0.00    -0.268 OA
ATOM      3  C7  RZ0 d   1      17.386   5.048  14.063  0.00  0.00     0.251 C 
ATOM      4  H1  RZ0 d   1      18.209   5.886  12.734  0.00  0.00     0.162 HD
ENDROOT
BRANCH   3   5
ATOM      5  C1  RZ0 d   1      16.903   3.830  14.809  0.00  0.00     0.032 A 
ATOM      6  C3  RZ0 d   1      17.805   2.844  15.204  0.00  0.00    -0.066 A 
ATOM      7  C2  RZ0 d   1      17.281   1.741  15.916  0.00  0.00    -0.059 A 
ATOM      8  H3  RZ0 d   1      18.862   2.920  14.975  0.00  0.00     0.085 H 
ATOM      9  C4  RZ0 d   1      15.908   1.589  16.134  0.00  0.00     0.079 A 
ATOM     10  H2  RZ0 d   1      17.962   0.992  16.304  0.00  0.00     0.085 H 
ATOM     11  C6  RZ0 d   1      15.040   2.612  15.739  0.00  0.00    -0.059 A 
ATOM     12  C5  RZ0 d   1      15.538   3.743  15.077  0.00  0.00    -0.066 A 
ATOM     13  H5  RZ0 d   1      13.979   2.530  15.945  0.00  0.00     0.085 H 
ATOM     14  H4  RZ0 d   1      14.869   4.541  14.777  0.00  0.00     0.085 H 
BRANCH   9  15
ATOM     15  S   RZ0 d   1      15.324   0.273  16.961  0.00  0.00     0.256 S 
ATOM     16  O1S RZ0 d   1      13.881   0.304  16.846  0.00  0.00    -0.201 OA
ATOM     17  O2S RZ0 d   1      15.842   0.255  18.299  0.00  0.00    -0.201 OA
BRANCH  15  18
ATOM     18  N3S RZ0 d   1      15.859  -1.024  16.284  0.00  0.00    -0.324 N 
ATOM     19  H12 RZ0 d   1      15.607  -1.920  16.651  0.00  0.00     0.169 HD
ATOM     20  H13 RZ0 d   1      16.454  -0.961  15.483  0.00  0.00     0.169 HD
ENDBRANCH  15  18
ENDBRANCH   9  15
ENDBRANCH   3   5
BRANCH   1  21
ATOM     21  C1' RZ0 d   1      19.864   5.235  13.287  0.00  0.00    -0.004 C 
ATOM     22  H6  RZ0 d   1      20.142   4.673  12.383  0.00  0.00     0.064 H 
ATOM     23  H7  RZ0 d   1      20.410   4.832  14.153  0.00  0.00     0.064 H 
BRANCH  21  24
ATOM     24  C2' RZ0 d   1      20.027   6.743  13.127  0.00  0.00    -0.051 C 
ATOM     25  H8  RZ0 d   1      19.333   7.093  12.348  0.00  0.00     0.035 H 
ATOM     26  H9  RZ0 d   1      21.061   6.955  12.819  0.00  0.00     0.035 H 
BRANCH  24  27
ATOM     27  C3' RZ0 d   1      19.729   7.519  14.449  0.00  0.00    -0.067 C 
ATOM     28  H10 RZ0 d   1      19.971   6.858  15.294  0.00  0.00     0.032 H 
ATOM     29  H11 RZ0 d   1      18.656   7.760  14.468  0.00  0.00     0.032 H 
BRANCH  27  30
ATOM     30  C4' RZ0 d   1      20.512   8.824  14.628  0.00  0.00    -0.076 C 
ATOM     31  H14 RZ0 d   1      20.232   9.291  15.584  0.00  0.00     0.027 H 
ATOM     32  H15 RZ0 d   1      20.275   9.510  13.801  0.00  0.00     0.027 H 
ATOM     33  H16 RZ0 d   1      21.590   8.608  14.627  0.00  0.00     0.027 H 
ENDBRANCH  27  30
ENDBRANCH  24  27
ENDBRANCH  21  24
ENDBRANCH   1  21
TORSDOF 7
