REMARK  8 active torsions:
REMARK  status: ('A' for Active; 'I' for Inactive)
REMARK    1  A    between atoms: C4_7  and  S_1 
REMARK    2  A    between atoms: S_1  and  N3S_25 
REMARK       I    between atoms: N'_2  and  C7_10 
REMARK    3  A    between atoms: C1'_20  and  N'_2 
REMARK    4  A    between atoms: C7_10  and  C1_4 
REMARK    5  A    between atoms: C2'_22  and  C1'_20 
REMARK    6  A    between atoms: C3'_24  and  C2'_22 
REMARK    7  A    between atoms: C4'_26  and  C3'_24 
REMARK    8  A    between atoms: C4'_26  and  C5'_27 
ROOT
ATOM      1  N'  RZ1 d   1      18.438   5.795  13.516  0.00  0.00    -0.351 N 
ATOM      2  O'  RZ1 d   1      16.357   6.641  13.525  0.00  0.00    -0.268 OA
ATOM      3  C7  RZ1 d   1      17.151   5.717  13.842  0.00  0.00     0.251 C 
ATOM      4  H1  RZ1 d   1      19.058   5.074  13.825  0.00  0.00     0.162 HD
ENDROOT
BRANCH   1   5
ATOM      5  C1' RZ1 d   1      18.973   6.886  12.731  0.00  0.00     0.062 C 
ATOM      6  H6  RZ1 d   1      18.187   7.301  12.082  0.00  0.00     0.073 H 
ATOM      7  H7  RZ1 d   1      19.808   6.527  12.112  0.00  0.00     0.073 H 
BRANCH   5   8
ATOM      8  C2' RZ1 d   1      19.469   7.962  13.702  0.00  0.00     0.330 C 
ATOM      9  F2' RZ1 d   1      20.428   7.484  14.446  0.00  0.00    -0.198 F 
ATOM     10  F2' RZ1 d   1      18.562   8.357  14.573  0.00  0.00    -0.198 F 
BRANCH   8  11
ATOM     11  C3' RZ1 d   1      19.865   9.231  13.006  0.00  0.00     0.382 C 
ATOM     12  F3' RZ1 d   1      18.809   9.678  12.275  0.00  0.00    -0.192 F 
ATOM     13  F3' RZ1 d   1      20.794   8.881  12.147  0.00  0.00    -0.192 F 
BRANCH  11  14
ATOM     14  C4' RZ1 d   1      20.259  10.259  14.131  0.00  0.00     0.409 C 
ATOM     15  F4' RZ1 d   1      20.763   9.901  15.395  0.00  0.00    -0.189 F 
ATOM     16  F4' RZ1 d   1      19.146  11.004  14.199  0.00  0.00    -0.189 F 
BRANCH  14  17
ATOM     17  C5' RZ1 d   1      21.437  10.998  13.624  0.00  0.00     0.461 C 
ATOM     18  F5' RZ1 d   1      22.409  10.031  13.755  0.00  0.00    -0.165 F 
ATOM     19  F5' RZ1 d   1      21.608  12.020  14.473  0.00  0.00    -0.165 F 
ATOM     20  F5' RZ1 d   1      21.073  11.397  12.379  0.00  0.00    -0.165 F 
ENDBRANCH  14  17
ENDBRANCH  11  14
ENDBRANCH   8  11
ENDBRANCH   5   8
ENDBRANCH   1   5
BRANCH   3  21
ATOM     21  C1  RZ1 d   1      16.617   4.557  14.622  0.00  0.00     0.032 A 
ATOM     22  C3  RZ1 d   1      17.501   3.555  15.060  0.00  0.00    -0.066 A 
ATOM     23  C2  RZ1 d   1      17.045   2.441  15.783  0.00  0.00    -0.059 A 
ATOM     24  H3  RZ1 d   1      18.558   3.644  14.835  0.00  0.00     0.085 H 
ATOM     25  C4  RZ1 d   1      15.640   2.320  16.037  0.00  0.00     0.079 A 
ATOM     26  H2  RZ1 d   1      17.740   1.690  16.141  0.00  0.00     0.085 H 
ATOM     27  C6  RZ1 d   1      14.753   3.369  15.585  0.00  0.00    -0.059 A 
ATOM     28  C5  RZ1 d   1      15.240   4.463  14.881  0.00  0.00    -0.066 A 
ATOM     29  H5  RZ1 d   1      13.693   3.301  15.799  0.00  0.00     0.085 H 
ATOM     30  H4  RZ1 d   1      14.564   5.236  14.535  0.00  0.00     0.085 H 
BRANCH  25  31
ATOM     31  S   RZ1 d   1      15.032   0.963  16.895  0.00  0.00     0.256 S 
ATOM     32  O1S RZ1 d   1      13.569   0.998  16.756  0.00  0.00    -0.201 OA
ATOM     33  O2S RZ1 d   1      15.581   1.044  18.236  0.00  0.00    -0.201 OA
BRANCH  31  34
ATOM     34  N3S RZ1 d   1      15.655  -0.349  16.182  0.00  0.00    -0.324 N 
ATOM     35  H8  RZ1 d   1      15.429  -1.260  16.526  0.00  0.00     0.169 HD
ATOM     36  H9  RZ1 d   1      16.266  -0.249  15.397  0.00  0.00     0.169 HD
ENDBRANCH  31  34
ENDBRANCH  25  31
ENDBRANCH   3  21
TORSDOF 8
