REMARK  8 active torsions:
REMARK  status: ('A' for Active; 'I' for Inactive)
REMARK    1  A    between atoms: C4_7  and  S_1 
REMARK    2  A    between atoms: S_1  and  N3S_16 
REMARK       I    between atoms: C7_10  and  N'_2 
REMARK    3  A    between atoms: N'_2  and  C1'_11 
REMARK    4  A    between atoms: C1_4  and  C7_10 
REMARK    5  A    between atoms: C1'_11  and  C2'_13 
REMARK    6  A    between atoms: C2'_13  and  C3'_15 
REMARK    7  A    between atoms: C3'_15  and  C4'_17 
REMARK    8  A    between atoms: C4'_17  and  C5'_18 
ROOT
ATOM      1  N'  RZ5 d   1      18.554   5.750  13.597  0.00  0.00    -0.357 N 
ATOM      2  O'  RZ5 d   1      16.466   6.691  13.584  0.00  0.00    -0.268 OA
ATOM      3  C7  RZ5 d   1      17.234   5.747  13.894  0.00  0.00     0.251 C 
ATOM      4  H1  RZ5 d   1      19.102   4.965  13.885  0.00  0.00     0.162 HD
ENDROOT
BRANCH   1   5
ATOM      5  C1' RZ5 d   1      19.241   6.854  12.865  0.00  0.00    -0.004 C 
ATOM      6  H6  RZ5 d   1      18.560   7.320  12.138  0.00  0.00     0.064 H 
ATOM      7  H7  RZ5 d   1      20.133   6.477  12.343  0.00  0.00     0.064 H 
BRANCH   5   8
ATOM      8  C2' RZ5 d   1      19.638   7.861  13.961  0.00  0.00    -0.050 C 
ATOM      9  H8  RZ5 d   1      20.506   7.468  14.509  0.00  0.00     0.035 H 
ATOM     10  H9  RZ5 d   1      18.793   7.986  14.654  0.00  0.00     0.035 H 
BRANCH   8  11
ATOM     11  C3' RZ5 d   1      19.994   9.199  13.381  0.00  0.00    -0.064 C 
ATOM     12  H10 RZ5 d   1      19.252   9.480  12.619  0.00  0.00     0.033 H 
ATOM     13  H11 RZ5 d   1      20.991   9.148  12.920  0.00  0.00     0.033 H 
BRANCH  11  14
ATOM     14  C4' RZ5 d   1      19.999  10.234  14.495  0.00  0.00    -0.068 C 
ATOM     15  H14 RZ5 d   1      21.032  10.457  14.800  0.00  0.00     0.032 H 
ATOM     16  H15 RZ5 d   1      19.433   9.861  15.361  0.00  0.00     0.032 H 
BRANCH  14  17
ATOM     17  C5' RZ5 d   1      19.339  11.478  13.935  0.00  0.00    -0.077 C 
ATOM     18  H16 RZ5 d   1      19.318  12.261  14.707  0.00  0.00     0.027 H 
ATOM     19  H17 RZ5 d   1      18.310  11.240  13.626  0.00  0.00     0.027 H 
ATOM     20  H18 RZ5 d   1      19.910  11.836  13.065  0.00  0.00     0.027 H 
ENDBRANCH  14  17
ENDBRANCH  11  14
ENDBRANCH   8  11
ENDBRANCH   5   8
ENDBRANCH   1   5
BRANCH   3  21
ATOM     21  C1  RZ5 d   1      16.672   4.579  14.646  0.00  0.00     0.032 A 
ATOM     22  C3  RZ5 d   1      17.526   3.563  15.085  0.00  0.00    -0.066 A 
ATOM     23  C2  RZ5 d   1      17.012   2.457  15.798  0.00  0.00    -0.059 A 
ATOM     24  H3  RZ5 d   1      18.588   3.624  14.877  0.00  0.00     0.085 H 
ATOM     25  C4  RZ5 d   1      15.627   2.304  16.067  0.00  0.00     0.079 A 
ATOM     26  H2  RZ5 d   1      17.700   1.698  16.152  0.00  0.00     0.085 H 
ATOM     27  C6  RZ5 d   1      14.770   3.355  15.594  0.00  0.00    -0.059 A 
ATOM     28  C5  RZ5 d   1      15.298   4.429  14.871  0.00  0.00    -0.066 A 
ATOM     29  H5  RZ5 d   1      13.706   3.315  15.799  0.00  0.00     0.085 H 
ATOM     30  H4  RZ5 d   1      14.619   5.173  14.470  0.00  0.00     0.085 H 
BRANCH  25  31
ATOM     31  S   RZ5 d   1      15.043   0.977  16.878  0.00  0.00     0.256 S 
ATOM     32  O1S RZ5 d   1      13.590   1.014  16.764  0.00  0.00    -0.201 OA
ATOM     33  O2S RZ5 d   1      15.590   1.031  18.207  0.00  0.00    -0.201 OA
BRANCH  31  34
ATOM     34  N3S RZ5 d   1      15.635  -0.341  16.212  0.00  0.00    -0.324 N 
ATOM     35  H12 RZ5 d   1      15.388  -1.239  16.575  0.00  0.00     0.169 HD
ATOM     36  H13 RZ5 d   1      16.255  -0.271  15.430  0.00  0.00     0.169 HD
ENDBRANCH  31  34
ENDBRANCH  25  31
ENDBRANCH   3  21
TORSDOF 8
