REMARK  9 active torsions:
REMARK  status: ('A' for Active; 'I' for Inactive)
REMARK    1  A    between atoms: C4_7  and  S_1 
REMARK    2  A    between atoms: S_1  and  N3S_27 
REMARK       I    between atoms: N'_2  and  C7_10 
REMARK    3  A    between atoms: C1'_22  and  N'_2 
REMARK    4  A    between atoms: C7_10  and  C1_4 
REMARK    5  A    between atoms: C2'_24  and  C1'_22 
REMARK    6  A    between atoms: C3'_26  and  C2'_24 
REMARK    7  A    between atoms: C4'_28  and  C3'_26 
REMARK    8  A    between atoms: C5'_29  and  C4'_28 
REMARK    9  A    between atoms: C5'_29  and  C6'_30 
ROOT
ATOM      1  N'  RZ7 d   1      18.370   5.722  13.482  0.00  0.00    -0.351 N 
ATOM      2  O'  RZ7 d   1      16.339   6.684  13.558  0.00  0.00    -0.268 OA
ATOM      3  C7  RZ7 d   1      17.093   5.718  13.835  0.00  0.00     0.251 C 
ATOM      4  H1  RZ7 d   1      18.968   4.966  13.748  0.00  0.00     0.162 HD
ENDROOT
BRANCH   1   5
ATOM      5  C1' RZ7 d   1      18.901   6.843  12.698  0.00  0.00     0.062 C 
ATOM      6  H6  RZ7 d   1      18.085   7.324  12.139  0.00  0.00     0.073 H 
ATOM      7  H7  RZ7 d   1      19.662   6.476  11.994  0.00  0.00     0.073 H 
BRANCH   5   8
ATOM      8  C2' RZ7 d   1      19.529   7.847  13.655  0.00  0.00     0.329 C 
ATOM      9  F2' RZ7 d   1      20.534   7.261  14.299  0.00  0.00    -0.198 F 
ATOM     10  F2' RZ7 d   1      18.702   8.275  14.563  0.00  0.00    -0.198 F 
BRANCH   8  11
ATOM     11  C3' RZ7 d   1      19.905   9.107  12.893  0.00  0.00     0.380 C 
ATOM     12  F3' RZ7 d   1      18.846   9.517  12.136  0.00  0.00    -0.192 F 
ATOM     13  F3' RZ7 d   1      20.862   8.805  11.973  0.00  0.00    -0.192 F 
BRANCH  11  14
ATOM     14  C4' RZ7 d   1      20.268  10.176  14.001  0.00  0.00     0.387 C 
ATOM     15  F4' RZ7 d   1      20.745   9.802  15.258  0.00  0.00    -0.192 F 
ATOM     16  F4' RZ7 d   1      19.238  11.039  14.017  0.00  0.00    -0.192 F 
BRANCH  14  17
ATOM     17  C5' RZ7 d   1      21.549  10.762  13.545  0.00  0.00     0.409 C 
ATOM     18  F5' RZ7 d   1      21.189  11.328  12.368  0.00  0.00    -0.189 F 
ATOM     19  F5' RZ7 d   1      22.247   9.579  13.624  0.00  0.00    -0.189 F 
BRANCH  17  20
ATOM     20  C6' RZ7 d   1      22.202  11.790  14.523  0.00  0.00     0.461 C 
ATOM     21  F6' RZ7 d   1      22.957  11.252  15.526  0.00  0.00    -0.165 F 
ATOM     22  F6' RZ7 d   1      21.240  12.594  14.999  0.00  0.00    -0.165 F 
ATOM     23  F6' RZ7 d   1      23.024  12.506  13.778  0.00  0.00    -0.165 F 
ENDBRANCH  17  20
ENDBRANCH  14  17
ENDBRANCH  11  14
ENDBRANCH   8  11
ENDBRANCH   5   8
ENDBRANCH   1   5
BRANCH   3  24
ATOM     24  C1  RZ7 d   1      16.590   4.564  14.610  0.00  0.00     0.032 A 
ATOM     25  C3  RZ7 d   1      17.496   3.610  15.065  0.00  0.00    -0.066 A 
ATOM     26  C2  RZ7 d   1      17.048   2.493  15.810  0.00  0.00    -0.059 A 
ATOM     27  H3  RZ7 d   1      18.552   3.723  14.847  0.00  0.00     0.085 H 
ATOM     28  C4  RZ7 d   1      15.660   2.275  16.041  0.00  0.00     0.079 A 
ATOM     29  H2  RZ7 d   1      17.772   1.793  16.211  0.00  0.00     0.085 H 
ATOM     30  C6  RZ7 d   1      14.787   3.273  15.566  0.00  0.00    -0.059 A 
ATOM     31  C5  RZ7 d   1      15.203   4.382  14.829  0.00  0.00    -0.066 A 
ATOM     32  H5  RZ7 d   1      13.730   3.174  15.786  0.00  0.00     0.085 H 
ATOM     33  H4  RZ7 d   1      14.482   5.088  14.433  0.00  0.00     0.085 H 
BRANCH  28  34
ATOM     34  S   RZ7 d   1      15.051   0.948  16.888  0.00  0.00     0.256 S 
ATOM     35  O1S RZ7 d   1      13.624   0.943  16.779  0.00  0.00    -0.201 OA
ATOM     36  O2S RZ7 d   1      15.597   1.027  18.247  0.00  0.00    -0.201 OA
BRANCH  34  37
ATOM     37  N3S RZ7 d   1      15.675  -0.349  16.217  0.00  0.00    -0.324 N 
ATOM     38  H8  RZ7 d   1      15.443  -1.255  16.570  0.00  0.00     0.169 HD
ATOM     39  H9  RZ7 d   1      16.300  -0.259  15.442  0.00  0.00     0.169 HD
ENDBRANCH  34  37
ENDBRANCH  28  34
ENDBRANCH   3  24
TORSDOF 9
