REMARK  9 active torsions:
REMARK  status: ('A' for Active; 'I' for Inactive)
REMARK    1  A    between atoms: C4_7  and  S_1 
REMARK    2  A    between atoms: S_1  and  N3S_16 
REMARK       I    between atoms: C7_10  and  N'_2 
REMARK    3  A    between atoms: N'_2  and  C1'_11 
REMARK    4  A    between atoms: C1_4  and  C7_10 
REMARK    5  A    between atoms: C1'_11  and  C2'_13 
REMARK    6  A    between atoms: C2'_13  and  C3'_15 
REMARK    7  A    between atoms: C3'_15  and  C4'_17 
REMARK    8  A    between atoms: C4'_17  and  C5'_18 
REMARK    9  A    between atoms: C5'_18  and  C6'_19 
ROOT
ATOM      1  N'  RZ8 d   1      18.459   5.664  13.477  0.00  0.00    -0.357 N 
ATOM      2  O'  RZ8 d   1      16.492   6.719  13.600  0.00  0.00    -0.268 OA
ATOM      3  C7  RZ8 d   1      17.196   5.722  13.873  0.00  0.00     0.251 C 
ATOM      4  H1  RZ8 d   1      19.033   4.890  13.744  0.00  0.00     0.162 HD
ENDROOT
BRANCH   1   5
ATOM      5  C1' RZ8 d   1      19.017   6.746  12.640  0.00  0.00    -0.004 C 
ATOM      6  H6  RZ8 d   1      18.277   7.545  12.487  0.00  0.00     0.064 H 
ATOM      7  H7  RZ8 d   1      19.345   6.358  11.664  0.00  0.00     0.064 H 
BRANCH   5   8
ATOM      8  C2' RZ8 d   1      20.177   7.240  13.432  0.00  0.00    -0.050 C 
ATOM      9  H8  RZ8 d   1      20.955   7.627  12.757  0.00  0.00     0.035 H 
ATOM     10  H9  RZ8 d   1      20.592   6.422  14.039  0.00  0.00     0.035 H 
BRANCH   8  11
ATOM     11  C3' RZ8 d   1      19.682   8.339  14.324  0.00  0.00    -0.064 C 
ATOM     12  H10 RZ8 d   1      20.262   8.387  15.257  0.00  0.00     0.033 H 
ATOM     13  H11 RZ8 d   1      18.616   8.210  14.562  0.00  0.00     0.033 H 
BRANCH  11  14
ATOM     14  C4' RZ8 d   1      19.909   9.571  13.473  0.00  0.00    -0.065 C 
ATOM     15  H14 RZ8 d   1      19.377   9.451  12.518  0.00  0.00     0.033 H 
ATOM     16  H15 RZ8 d   1      20.986   9.681  13.281  0.00  0.00     0.033 H 
BRANCH  14  17
ATOM     17  C5' RZ8 d   1      19.401  10.815  14.169  0.00  0.00    -0.069 C 
ATOM     18  H16 RZ8 d   1      20.139  11.130  14.921  0.00  0.00     0.032 H 
ATOM     19  H17 RZ8 d   1      18.448  10.582  14.666  0.00  0.00     0.032 H 
BRANCH  17  20
ATOM     20  C6' RZ8 d   1      19.179  11.958  13.183  0.00  0.00    -0.077 C 
ATOM     21  H18 RZ8 d   1      18.811  12.842  13.724  0.00  0.00     0.027 H 
ATOM     22  H19 RZ8 d   1      18.437  11.654  12.430  0.00  0.00     0.027 H 
ATOM     23  H20 RZ8 d   1      20.129  12.202  12.685  0.00  0.00     0.027 H 
ENDBRANCH  17  20
ENDBRANCH  14  17
ENDBRANCH  11  14
ENDBRANCH   8  11
ENDBRANCH   5   8
ENDBRANCH   1   5
BRANCH   3  24
ATOM     24  C1  RZ8 d   1      16.638   4.578  14.641  0.00  0.00     0.032 C 
ATOM     25  C3  RZ8 d   1      15.241   4.442  14.848  0.00  0.00    -0.066 C 
ATOM     26  C2  RZ8 d   1      14.757   3.350  15.561  0.00  0.00    -0.059 C 
ATOM     27  H3  RZ8 d   1      14.556   5.184  14.453  0.00  0.00     0.085 H 
ATOM     28  C4  RZ8 d   1      15.624   2.320  16.076  0.00  0.00     0.079 C 
ATOM     29  H2  RZ8 d   1      13.690   3.271  15.736  0.00  0.00     0.085 H 
ATOM     30  C6  RZ8 d   1      17.004   2.482  15.799  0.00  0.00    -0.059 C 
ATOM     31  C5  RZ8 d   1      17.520   3.548  15.050  0.00  0.00    -0.066 C 
ATOM     32  H5  RZ8 d   1      17.696   1.743  16.186  0.00  0.00     0.085 H 
ATOM     33  H4  RZ8 d   1      18.572   3.584  14.789  0.00  0.00     0.085 H 
BRANCH  28  34
ATOM     34  S   RZ8 d   1      15.016   0.964  16.872  0.00  0.00     0.256 S 
ATOM     35  O1S RZ8 d   1      13.576   1.010  16.703  0.00  0.00    -0.201 OA
ATOM     36  O2S RZ8 d   1      15.563   1.029  18.212  0.00  0.00    -0.201 OA
BRANCH  34  37
ATOM     37  N3S RZ8 d   1      15.655  -0.272  16.167  0.00  0.00    -0.324 N 
ATOM     38  H12 RZ8 d   1      15.433  -1.196  16.479  0.00  0.00     0.169 HD
ATOM     39  H13 RZ8 d   1      16.287  -0.141  15.403  0.00  0.00     0.169 HD
ENDBRANCH  34  37
ENDBRANCH  28  34
ENDBRANCH   3  24
TORSDOF 9
