REMARK  2 active torsions:
REMARK  status: ('A' for Active; 'I' for Inactive)
REMARK    1  A    between atoms: N1_2  and  C4_5 
REMARK    2  A    between atoms: C9_10  and  N1_2 
ROOT
ATOM      1  C7  FNA d   1      -9.759  -8.312  10.992  0.00  0.00     0.001 A 
ATOM      2  C8  FNA d   1     -10.375  -9.528  10.853  0.00  0.00    -0.024 A 
ATOM      3  C9  FNA d   1      -9.593  -7.422   9.791  0.00  0.00     0.043 C 
ATOM      4  C10 FNA d   1     -10.834 -10.087   9.527  0.00  0.00    -0.072 C 
ATOM      5  C11 FNA d   1      -9.686  -8.075   8.493  0.00  0.00    -0.056 C 
ATOM      6  C12 FNA d   1     -10.591  -9.188   8.356  0.00  0.00    -0.080 C 
ATOM      7  C13 FNA d   1     -10.208  -9.907  13.208  0.00  0.00    -0.082 A 
ATOM      8  C14 FNA d   1     -10.598 -10.339  12.011  0.00  0.00    -0.072 A 
ATOM      9  C15 FNA d   1      -9.411  -7.852  12.255  0.00  0.00    -0.070 A 
ATOM     10  C16 FNA d   1      -9.626  -8.629  13.350  0.00  0.00    -0.082 A 
ATOM     11  H7  FNA d   1     -11.302 -11.060   9.431  0.00  0.00     0.084 H 
ATOM     12  H8  FNA d   1      -9.091  -7.734   7.653  0.00  0.00     0.086 H 
ATOM     13  H9  FNA d   1     -11.092  -9.372   7.412  0.00  0.00     0.083 H 
ATOM     14  H10 FNA d   1     -10.338 -10.540  14.078  0.00  0.00     0.083 H 
ATOM     15  H11 FNA d   1     -11.084 -11.303  11.913  0.00  0.00     0.084 H 
ATOM     16  H12 FNA d   1      -8.966  -6.870  12.368  0.00  0.00     0.084 H 
ATOM     17  H13 FNA d   1      -9.350  -8.266  14.334  0.00  0.00     0.083 H 
ENDROOT
BRANCH   3  18
ATOM     18  N1  FNA d   1      -8.662  -6.310   9.912  0.00  0.00    -0.356 N 
ATOM     19  H2  FNA d   1      -8.980  -5.414   9.515  0.00  0.00     0.166 HD
BRANCH  18  20
ATOM     20  C4  FNA d   1      -7.348  -6.299  10.517  0.00  0.00     0.032 A 
ATOM     21  C2  FNA d   1      -6.698  -7.425  10.944  0.00  0.00    -0.057 A 
ATOM     22  C1  FNA d   1      -5.415  -7.297  11.503  0.00  0.00    -0.081 A 
ATOM     23  H3  FNA d   1      -7.165  -8.399  10.853  0.00  0.00     0.086 H 
ATOM     24  C3  FNA d   1      -4.819  -5.986  11.611  0.00  0.00    -0.083 A 
ATOM     25  H1  FNA d   1      -4.878  -8.173  11.849  0.00  0.00     0.083 H 
ATOM     26  C5  FNA d   1      -5.476  -4.916  11.198  0.00  0.00    -0.081 A 
ATOM     27  H4  FNA d   1      -3.826  -5.879  12.034  0.00  0.00     0.083 H 
ATOM     28  C6  FNA d   1      -6.790  -5.046  10.623  0.00  0.00    -0.057 A 
ATOM     29  H5  FNA d   1      -5.023  -3.936  11.293  0.00  0.00     0.083 H 
ATOM     30  H6  FNA d   1      -7.330  -4.171  10.280  0.00  0.00     0.086 H 
ENDBRANCH  18  20
ENDBRANCH   3  18
TORSDOF 2
