REMARK  9 active torsions:
REMARK  status: ('A' for Active; 'I' for Inactive)
REMARK    1  A    between atoms: C10_11  and  N1_2 
REMARK    2  A    between atoms: C3_4  and  C2_3 
REMARK    3  A    between atoms: C4_5  and  C3_4 
REMARK    4  A    between atoms: C5_6  and  C4_5 
REMARK    5  A    between atoms: C6_7  and  C5_6 
REMARK    6  A    between atoms: C7_8  and  C6_7 
REMARK    7  A    between atoms: C8_9  and  C7_8 
REMARK    8  A    between atoms: C7_8  and  C9_10 
REMARK    9  A    between atoms: C8_9  and  C10_11 
ROOT
ATOM      1  C6  CTV d   1      10.010  11.425  32.359  0.00  0.00    -0.062 C 
ATOM      2  H13 CTV d   1      11.002  11.021  32.106  0.00  0.00     0.033 H 
ATOM      3  H14 CTV d   1       9.232  10.725  32.020  0.00  0.00     0.033 H 
ENDROOT
BRANCH   1   4
ATOM      4  C5  CTV d   1       9.833  12.703  31.607  0.00  0.00    -0.061 C 
ATOM      5  H11 CTV d   1       9.818  13.543  32.317  0.00  0.00     0.033 H 
ATOM      6  H12 CTV d   1      10.671  12.831  30.905  0.00  0.00     0.033 H 
BRANCH   4   7
ATOM      7  C4  CTV d   1       8.615  12.679  30.883  0.00  0.00    -0.045 C 
ATOM      8  H9  CTV d   1       7.849  12.294  31.572  0.00  0.00     0.039 H 
ATOM      9  H10 CTV d   1       8.384  13.723  30.624  0.00  0.00     0.039 H 
BRANCH   7  10
ATOM     10  C3  CTV d   1       8.486  11.866  29.584  0.00  0.00    -0.093 C 
ATOM     11  C1  CTV d   1       8.429  10.545  29.637  0.00  0.00    -0.119 C 
ATOM     12  H1  CTV d   1       8.338   9.967  28.719  0.00  0.00     0.067 H 
ATOM     13  H2  CTV d   1       8.473  10.036  30.599  0.00  0.00     0.067 H 
BRANCH  10  14
ATOM     14  C2  CTV d   1       8.032  12.488  28.476  0.00  0.00    -0.055 C 
ATOM     15  H6  CTV d   1       8.150  13.575  28.592  0.00  0.00     0.033 H 
ATOM     16  H7  CTV d   1       6.968  12.248  28.330  0.00  0.00     0.033 H 
ATOM     17  H8  CTV d   1       8.608  12.148  27.603  0.00  0.00     0.033 H 
ENDBRANCH  10  14
ENDBRANCH   7  10
ENDBRANCH   4   7
ENDBRANCH   1   4
BRANCH   1  18
ATOM     18  C7  CTV d   1       9.917  11.523  33.924  0.00  0.00    -0.056 C 
ATOM     19  H15 CTV d   1      10.947  11.906  33.972  0.00  0.00     0.039 H 
BRANCH  18  20
ATOM     20  C8  CTV d   1       9.417  12.681  34.679  0.00  0.00    -0.040 C 
ATOM     21  H16 CTV d   1      10.248  13.023  35.313  0.00  0.00     0.035 H 
ATOM     22  H17 CTV d   1       8.600  12.310  35.315  0.00  0.00     0.035 H 
BRANCH  20  23
ATOM     23  C10 CTV d   1       8.913  13.844  34.005  0.00  0.00     0.080 C 
ATOM     24  H21 CTV d   1       9.416  14.500  34.730  0.00  0.00     0.075 H 
ATOM     25  H22 CTV d   1       9.582  13.658  33.152  0.00  0.00     0.075 H 
BRANCH  23  26
ATOM     26  N1  CTV d   1       8.311  15.057  33.294  0.00  0.00    -0.079 N 
ATOM     27  H3  CTV d   1       9.048  15.693  33.032  0.00  0.00     0.274 HD
ATOM     28  H4  CTV d   1       7.668  15.525  33.914  0.00  0.00     0.274 HD
ATOM     29  H5  CTV d   1       7.820  14.753  32.468  0.00  0.00     0.274 HD
ENDBRANCH  23  26
ENDBRANCH  20  23
ENDBRANCH  18  20
BRANCH  18  30
ATOM     30  C9  CTV d   1      10.283  10.212  34.818  0.00  0.00    -0.073 C 
ATOM     31  H18 CTV d   1      10.645   9.409  34.160  0.00  0.00     0.028 H 
ATOM     32  H19 CTV d   1       9.385   9.870  35.353  0.00  0.00     0.028 H 
ATOM     33  H20 CTV d   1      11.066  10.471  35.545  0.00  0.00     0.028 H 
ENDBRANCH  18  30
ENDBRANCH   1  18
TORSDOF 9
