REMARK  5 active torsions:
REMARK  status: ('A' for Active; 'I' for Inactive)
REMARK    1  A    between atoms: C5_7  and  O1_2 
REMARK    2  A    between atoms: C2_3  and  C7_9 
REMARK    3  A    between atoms: C3_5  and  O2_4 
REMARK    4  A    between atoms: O2_4  and  C10_12 
REMARK    5  A    between atoms: C7_9  and  C8_10 
ROOT
ATOM      1  C1  EOL d   1       2.647 -10.674 -10.663  0.00  0.00    -0.042 A 
ATOM      2  C2  EOL d   1       2.807 -11.494 -11.785  0.00  0.00    -0.052 A 
ATOM      3  C3  EOL d   1       2.691 -11.242  -9.392  0.00  0.00     0.101 A 
ATOM      4  C4  EOL d   1       3.033 -12.859 -11.630  0.00  0.00    -0.074 A 
ATOM      5  C5  EOL d   1       2.868 -12.610  -9.251  0.00  0.00     0.099 A 
ATOM      6  C6  EOL d   1       3.059 -13.427 -10.361  0.00  0.00    -0.048 A 
ATOM      7  H1  EOL d   1       2.490  -9.608 -10.781  0.00  0.00     0.088 H 
ATOM      8  H3  EOL d   1       3.189 -13.482 -12.503  0.00  0.00     0.084 H 
ATOM      9  H4  EOL d   1       3.226 -14.491 -10.238  0.00  0.00     0.087 H 
ENDROOT
BRANCH   2  10
ATOM     10  C7  EOL d   1       2.742 -10.915 -13.163  0.00  0.00    -0.026 C 
ATOM     11  H5  EOL d   1       1.706 -10.585 -13.332  0.00  0.00     0.045 H 
ATOM     12  H6  EOL d   1       2.990 -11.721 -13.870  0.00  0.00     0.045 H 
BRANCH  10  13
ATOM     13  C8  EOL d   1       3.628  -9.766 -13.473  0.00  0.00    -0.108 C 
ATOM     14  C9  EOL d   1       4.805  -9.630 -12.803  0.00  0.00    -0.124 C 
ATOM     15  H8  EOL d   1       5.463  -8.790 -13.023  0.00  0.00     0.066 H 
ATOM     16  H9  EOL d   1       5.089 -10.361 -12.047  0.00  0.00     0.066 H 
ATOM     17  H7  EOL d   1       3.339  -9.038 -14.230  0.00  0.00     0.076 H 
ENDBRANCH  10  13
ENDBRANCH   2  10
BRANCH   3  18
ATOM     18  O2  EOL d   1       2.513 -10.499  -8.241  0.00  0.00    -0.353 OA
BRANCH  18  19
ATOM     19  C10 EOL d   1       2.360  -9.130  -8.313  0.00  0.00     0.010 C 
ATOM     20  H10 EOL d   1       2.232  -8.722  -7.300  0.00  0.00     0.066 H 
ATOM     21  H11 EOL d   1       1.474  -8.892  -8.919  0.00  0.00     0.066 H 
ATOM     22  H12 EOL d   1       3.252  -8.685  -8.777  0.00  0.00     0.066 H 
ENDBRANCH  18  19
ENDBRANCH   3  18
BRANCH   5  23
ATOM     23  O1  EOL d   1       2.898 -13.159  -8.006  0.00  0.00    -0.358 OA
ATOM     24  H2  EOL d   1       3.614 -12.778  -7.510  0.00  0.00     0.217 HD
ENDBRANCH   5  23
TORSDOF 5
