REMARK  7 active torsions:
REMARK  status: ('A' for Active; 'I' for Inactive)
REMARK    1  A    between atoms: CA_4  and  C_1 
REMARK    2  A    between atoms: CA_4  and  N_2 
REMARK    3  A    between atoms: CB_5  and  CA_4 
REMARK    4  A    between atoms: NAZ_25  and  CB_5 
REMARK    5  A    between atoms: CAL_14  and  CAR_18 
REMARK    6  A    between atoms: NAY_24  and  CAL_14 
REMARK    7  A    between atoms: CAS_19  and  CAP_17 
ROOT
ATOM      1  OAD 3HU d   1      45.684  55.351   2.225  0.00  0.00    -0.267 OA
ATOM      2  OAE 3HU d   1      45.748  57.968   5.950  0.00  0.00    -0.246 OA
ATOM      3  CAJ 3HU d   1      43.089  56.123   1.661  0.00  0.00    -0.028 A 
ATOM      4  CAK 3HU d   1      41.913  57.760   3.187  0.00  0.00    -0.018 A 
ATOM      5  SAN 3HU d   1      41.604  56.881   1.786  0.00  0.00    -0.110 SA
ATOM      6  CAT 3HU d   1      45.118  56.144   2.975  0.00  0.00     0.264 A 
ATOM      7  CAU 3HU d   1      45.164  57.529   4.958  0.00  0.00     0.332 A 
ATOM      8  CAV 3HU d   1      43.818  56.542   2.698  0.00  0.00     0.066 A 
ATOM      9  CAW 3HU d   1      43.163  57.466   3.565  0.00  0.00     0.061 A 
ATOM     10  NAY 3HU d   1      45.797  56.632   4.079  0.00  0.00    -0.261 N 
ATOM     11  NAZ 3HU d   1      43.856  57.959   4.688  0.00  0.00    -0.295 N 
ATOM     12  H9  3HU d   1      43.401  55.425   0.886  0.00  0.00     0.096 H 
ATOM     13  H10 3HU d   1      41.227  58.439   3.691  0.00  0.00     0.098 H 
ENDROOT
BRANCH  10  14
ATOM     14  CAL 3HU d   1      47.152  56.100   4.300  0.00  0.00     0.033 C 
ATOM     15  H11 3HU d   1      47.187  55.693   5.322  0.00  0.00     0.072 H 
ATOM     16  H12 3HU d   1      47.312  55.287   3.576  0.00  0.00     0.072 H 
BRANCH  14  17
ATOM     17  CAR 3HU d   1      48.294  57.067   4.157  0.00  0.00    -0.015 A 
ATOM     18  CAI 3HU d   1      48.223  58.258   3.525  0.00  0.00    -0.067 A 
ATOM     19  CAH 3HU d   1      49.365  58.968   3.508  0.00  0.00    -0.043 A 
ATOM     20  H8  3HU d   1      47.306  58.618   3.062  0.00  0.00     0.085 H 
ATOM     21  SAO 3HU d   1      50.526  58.044   4.327  0.00  0.00    -0.095 SA
ATOM     22  H7  3HU d   1      49.515  59.947   3.055  0.00  0.00     0.095 H 
ATOM     23  CAS 3HU d   1      49.552  56.773   4.684  0.00  0.00     0.089 A 
BRANCH  23  24
ATOM     24  CAP 3HU d   1      50.010  55.498   5.429  0.00  0.00     0.217 C 
ATOM     25  OAB 3HU d   1      49.214  54.549   5.606  0.00  0.00    -0.643 OA
ATOM     26  OAF 3HU d   1      51.185  55.495   5.847  0.00  0.00    -0.643 OA
ENDBRANCH  23  24
ENDBRANCH  14  17
ENDBRANCH  10  14
BRANCH  11  27
ATOM     27  CB  3HU d   1      43.226  58.922   5.638  0.00  0.00     0.041 C 
ATOM     28  H5  3HU d   1      43.895  59.785   5.774  0.00  0.00     0.069 H 
ATOM     29  H6  3HU d   1      42.266  59.263   5.223  0.00  0.00     0.069 H 
BRANCH  27  30
ATOM     30  CA  3HU d   1      42.978  58.258   6.999  0.00  0.00     0.198 C 
ATOM     31  H4  3HU d   1      43.935  57.885   7.393  0.00  0.00     0.103 H 
BRANCH  30  32
ATOM     32  C   3HU d   1      42.389  59.254   8.007  0.00  0.00     0.206 C 
ATOM     33  O   3HU d   1      41.253  59.016   8.452  0.00  0.00    -0.646 OA
ATOM     34  OXT 3HU d   1      43.133  60.183   8.397  0.00  0.00    -0.646 OA
ENDBRANCH  30  32
BRANCH  30  35
ATOM     35  N   3HU d   1      42.055  57.119   6.808  0.00  0.00    -0.064 N 
ATOM     36  H1  3HU d   1      42.452  56.472   6.145  0.00  0.00     0.275 HD
ATOM     37  H2  3HU d   1      41.172  57.457   6.460  0.00  0.00     0.275 HD
ATOM     38  H3  3HU d   1      41.912  56.651   7.689  0.00  0.00     0.275 HD
ENDBRANCH  30  35
ENDBRANCH  27  30
ENDBRANCH  11  27
TORSDOF 7
