REMARK  16 active torsions:
REMARK  status: ('A' for Active; 'I' for Inactive)
REMARK       I    between atoms: N1_26  and  C3_3 
REMARK    1  A    between atoms: C3_3  and  O1_29 
REMARK    2  A    between atoms: O1_29  and  C4_4 
REMARK    3  A    between atoms: C6_6  and  C5_5 
REMARK    4  A    between atoms: C5_5  and  C7_7 
REMARK    5  A    between atoms: C5_5  and  N1_26 
REMARK    6  A    between atoms: C14_14  and  C6_6 
REMARK    7  A    between atoms: C6_6  and  O3_31 
REMARK    8  A    between atoms: C7_7  and  C8_8 
REMARK    9  A    between atoms: N2_27  and  C14_14 
REMARK   10  A    between atoms: C15_15  and  C16_16 
REMARK   11  A    between atoms: N2_27  and  C15_15 
REMARK   12  A    between atoms: C16_16  and  C23_23 
REMARK   13  A    between atoms: C16_16  and  C24_24 
REMARK   14  A    between atoms: S1_35  and  C17_17 
REMARK   15  A    between atoms: C20_20  and  N3_28 
REMARK   16  A    between atoms: N2_27  and  S1_35 
ROOT
ATOM      1  C6  478 d   1      15.690  24.029  18.151  0.00  0.00     0.071 C 
ATOM      2  H7  478 d   1      16.087  23.571  19.069  0.00  0.00     0.088 H 
ENDROOT
BRANCH   1   3
ATOM      3  C5  478 d   1      15.261  22.920  17.196  0.00  0.00     0.044 C 
ATOM      4  H6  478 d   1      16.172  22.413  16.844  0.00  0.00     0.077 H 
BRANCH   3   5
ATOM      5  C7  478 d   1      14.468  23.386  15.960  0.00  0.00    -0.020 C 
ATOM      6  H8  478 d   1      15.094  24.083  15.384  0.00  0.00     0.043 H 
ATOM      7  H9  478 d   1      13.560  23.905  16.301  0.00  0.00     0.043 H 
BRANCH   5   8
ATOM      8  C8  478 d   1      14.062  22.252  15.060  0.00  0.00    -0.056 A 
ATOM      9  C9  478 d   1      12.781  21.733  15.012  0.00  0.00    -0.077 A 
ATOM     10  C11 478 d   1      12.487  20.596  14.259  0.00  0.00    -0.082 A 
ATOM     11  H10 478 d   1      11.989  22.219  15.571  0.00  0.00     0.084 H 
ATOM     12  C13 478 d   1      13.475  20.012  13.475  0.00  0.00    -0.083 A 
ATOM     13  H12 478 d   1      11.491  20.169  14.285  0.00  0.00     0.083 H 
ATOM     14  C12 478 d   1      14.774  20.523  13.413  0.00  0.00    -0.082 A 
ATOM     15  H14 478 d   1      13.230  19.131  12.893  0.00  0.00     0.083 H 
ATOM     16  C10 478 d   1      15.016  21.620  14.234  0.00  0.00    -0.077 A 
ATOM     17  H13 478 d   1      15.537  20.096  12.772  0.00  0.00     0.083 H 
ATOM     18  H11 478 d   1      16.022  22.023  14.240  0.00  0.00     0.084 H 
ENDBRANCH   5   8
ENDBRANCH   3   5
BRANCH   3  19
ATOM     19  N1  478 d   1      14.428  21.964  17.913  0.00  0.00    -0.329 N 
ATOM     20  C3  478 d   1      14.790  20.747  18.319  0.00  0.00     0.361 C 
ATOM     21  O2  478 d   1      15.899  20.277  18.233  0.00  0.00    -0.238 OA
ATOM     22  H32 478 d   1      13.492  22.249  18.121  0.00  0.00     0.165 HD
BRANCH  20  23
ATOM     23  O1  478 d   1      13.714  20.122  18.931  0.00  0.00    -0.296 OA
BRANCH  23  24
ATOM     24  C4  478 d   1      13.995  18.834  19.473  0.00  0.00     0.072 C 
ATOM     25  C1  478 d   1      12.635  18.226  19.757  0.00  0.00     0.044 C 
ATOM     26  O6  478 d   1      12.313  18.693  21.073  0.00  0.00    -0.389 OA
ATOM     27  H1  478 d   1      12.685  17.127  19.734  0.00  0.00     0.078 H 
ATOM     28  H2  478 d   1      11.891  18.574  19.026  0.00  0.00     0.078 H 
ATOM     29  C25 478 d   1      13.508  18.635  21.846  0.00  0.00     0.022 C 
ATOM     30  C2  478 d   1      14.601  19.059  20.866  0.00  0.00    -0.018 C 
ATOM     31  H30 478 d   1      13.457  19.328  22.699  0.00  0.00     0.074 H 
ATOM     32  H31 478 d   1      13.687  17.614  22.214  0.00  0.00     0.074 H 
ATOM     33  H3  478 d   1      14.858  20.119  21.009  0.00  0.00     0.040 H 
ATOM     34  H4  478 d   1      15.501  18.442  21.000  0.00  0.00     0.040 H 
ATOM     35  H5  478 d   1      14.627  18.218  18.817  0.00  0.00     0.087 H 
ENDBRANCH  23  24
ENDBRANCH  20  23
ENDBRANCH   3  19
ENDBRANCH   1   3
BRANCH   1  36
ATOM     36  C14 478 d   1      16.751  24.987  17.537  0.00  0.00     0.031 C 
ATOM     37  H15 478 d   1      16.766  25.924  18.113  0.00  0.00     0.069 H 
ATOM     38  H16 478 d   1      16.480  25.202  16.493  0.00  0.00     0.069 H 
BRANCH  36  39
ATOM     39  N2  478 d   1      18.070  24.389  17.571  0.00  0.00    -0.304 N 
BRANCH  39  40
ATOM     40  C15 478 d   1      18.900  24.665  18.680  0.00  0.00     0.008 C 
ATOM     41  H17 478 d   1      19.927  24.412  18.380  0.00  0.00     0.066 H 
ATOM     42  H18 478 d   1      18.829  25.746  18.869  0.00  0.00     0.066 H 
BRANCH  40  43
ATOM     43  C16 478 d   1      18.641  23.957  20.030  0.00  0.00    -0.045 C 
ATOM     44  H19 478 d   1      17.614  24.141  20.379  0.00  0.00     0.041 H 
BRANCH  43  45
ATOM     45  C23 478 d   1      18.880  22.452  19.873  0.00  0.00    -0.072 C 
ATOM     46  H24 478 d   1      18.695  21.949  20.834  0.00  0.00     0.028 H 
ATOM     47  H25 478 d   1      19.920  22.276  19.561  0.00  0.00     0.028 H 
ATOM     48  H26 478 d   1      18.196  22.050  19.111  0.00  0.00     0.028 H 
ENDBRANCH  43  45
BRANCH  43  49
ATOM     49  C24 478 d   1      19.665  24.551  21.008  0.00  0.00    -0.072 C 
ATOM     50  H27 478 d   1      19.486  25.631  21.115  0.00  0.00     0.028 H 
ATOM     51  H28 478 d   1      20.681  24.384  20.621  0.00  0.00     0.028 H 
ATOM     52  H29 478 d   1      19.561  24.064  21.989  0.00  0.00     0.028 H 
ENDBRANCH  43  49
ENDBRANCH  40  43
ENDBRANCH  39  40
BRANCH  39  53
ATOM     53  S1  478 d   1      18.746  23.979  16.131  0.00  0.00     0.260 S 
ATOM     54  O4  478 d   1      17.649  23.692  15.164  0.00  0.00    -0.200 OA
ATOM     55  O5  478 d   1      19.719  22.904  16.329  0.00  0.00    -0.200 OA
BRANCH  53  56
ATOM     56  C17 478 d   1      19.465  25.427  15.426  0.00  0.00     0.079 C 
ATOM     57  C18 478 d   1      18.707  26.294  14.632  0.00  0.00    -0.058 C 
ATOM     58  C19 478 d   1      19.247  27.529  14.223  0.00  0.00    -0.056 C 
ATOM     59  H20 478 d   1      17.703  26.015  14.331  0.00  0.00     0.086 H 
ATOM     60  C20 478 d   1      20.511  27.953  14.662  0.00  0.00     0.025 C 
ATOM     61  H21 478 d   1      18.675  28.164  13.556  0.00  0.00     0.086 H 
ATOM     62  C21 478 d   1      21.269  27.037  15.420  0.00  0.00    -0.056 C 
ATOM     63  C22 478 d   1      20.695  25.868  15.865  0.00  0.00    -0.058 C 
ATOM     64  H22 478 d   1      22.305  27.254  15.653  0.00  0.00     0.086 H 
ATOM     65  H23 478 d   1      21.233  25.269  16.591  0.00  0.00     0.086 H 
BRANCH  60  66
ATOM     66  N3  478 d   1      21.121  29.036  14.178  0.00  0.00    -0.399 N 
ATOM     67  H33 478 d   1      20.590  29.721  13.621  0.00  0.00     0.156 HD
ATOM     68  H34 478 d   1      22.123  29.188  14.361  0.00  0.00     0.156 HD
ENDBRANCH  60  66
ENDBRANCH  53  56
ENDBRANCH  39  53
ENDBRANCH  36  39
ENDBRANCH   1  36
BRANCH   1  69
ATOM     69  O3  478 d   1      14.573  24.882  18.458  0.00  0.00    -0.392 OA
ATOM     70  H35 478 d   1      14.261  25.293  17.660  0.00  0.00     0.210 HD
ENDBRANCH   1  69
TORSDOF 16
