REMARK  16 active torsions:
REMARK  status: ('A' for Active; 'I' for Inactive)
REMARK       I    between atoms: N1_26  and  C3_3 
REMARK    1  A    between atoms: C3_3  and  O1_29 
REMARK    2  A    between atoms: O1_29  and  C4_4 
REMARK    3  A    between atoms: C6_6  and  C5_5 
REMARK    4  A    between atoms: C5_5  and  C7_7 
REMARK    5  A    between atoms: C5_5  and  N1_26 
REMARK    6  A    between atoms: C14_14  and  C6_6 
REMARK    7  A    between atoms: C6_6  and  O3_31 
REMARK    8  A    between atoms: C7_7  and  C8_8 
REMARK    9  A    between atoms: N2_27  and  C14_14 
REMARK   10  A    between atoms: C15_15  and  C16_16 
REMARK   11  A    between atoms: N2_27  and  C15_15 
REMARK   12  A    between atoms: C16_16  and  C23_23 
REMARK   13  A    between atoms: C16_16  and  C24_24 
REMARK   14  A    between atoms: S1_35  and  C17_17 
REMARK   15  A    between atoms: C20_20  and  N3_28 
REMARK   16  A    between atoms: N2_27  and  S1_35 
ROOT
ATOM      1  C6  478 d   1      20.884   9.383  16.969  0.00  0.00     0.067 C 
ATOM      2  H7  478 d   1      21.789   9.149  17.548  0.00  0.00     0.088 H 
ENDROOT
BRANCH   1   3
ATOM      3  C5  478 d   1      20.709  10.898  16.994  0.00  0.00     0.044 C 
ATOM      4  H6  478 d   1      20.536  11.214  18.034  0.00  0.00     0.077 H 
BRANCH   3   5
ATOM      5  C7  478 d   1      19.544  11.392  16.126  0.00  0.00    -0.020 C 
ATOM      6  H8  478 d   1      18.595  10.973  16.492  0.00  0.00     0.043 H 
ATOM      7  H9  478 d   1      19.698  11.092  15.079  0.00  0.00     0.043 H 
BRANCH   5   8
ATOM      8  C8  478 d   1      19.524  12.913  16.239  0.00  0.00    -0.056 C 
ATOM      9  C9  478 d   1      20.209  13.666  15.293  0.00  0.00    -0.077 C 
ATOM     10  C11 478 d   1      20.244  15.036  15.503  0.00  0.00    -0.082 C 
ATOM     11  H10 478 d   1      20.690  13.207  14.437  0.00  0.00     0.084 H 
ATOM     12  C13 478 d   1      19.636  15.585  16.622  0.00  0.00    -0.083 C 
ATOM     13  H12 478 d   1      20.748  15.680  14.791  0.00  0.00     0.083 H 
ATOM     14  C12 478 d   1      18.827  14.913  17.513  0.00  0.00    -0.082 C 
ATOM     15  H14 478 d   1      19.813  16.637  16.813  0.00  0.00     0.083 H 
ATOM     16  C10 478 d   1      18.859  13.546  17.274  0.00  0.00    -0.077 C 
ATOM     17  H13 478 d   1      18.245  15.388  18.294  0.00  0.00     0.083 H 
ATOM     18  H11 478 d   1      18.311  12.915  17.964  0.00  0.00     0.084 H 
ENDBRANCH   5   8
ENDBRANCH   3   5
BRANCH   3  19
ATOM     19  N1  478 d   1      21.935  11.524  16.482  0.00  0.00    -0.329 N 
ATOM     20  C3  478 d   1      22.685  12.382  17.177  0.00  0.00     0.361 C 
ATOM     21  O2  478 d   1      22.518  12.637  18.363  0.00  0.00    -0.238 OA
ATOM     22  H32 478 d   1      22.226  11.293  15.554  0.00  0.00     0.165 HD
BRANCH  20  23
ATOM     23  O1  478 d   1      23.682  12.986  16.493  0.00  0.00    -0.296 OA
BRANCH  23  24
ATOM     24  C4  478 d   1      24.521  13.878  17.215  0.00  0.00     0.072 C 
ATOM     25  C1  478 d   1      25.339  14.672  16.189  0.00  0.00     0.044 C 
ATOM     26  O6  478 d   1      26.442  13.841  15.848  0.00  0.00    -0.389 OA
ATOM     27  H1  478 d   1      25.692  15.617  16.628  0.00  0.00     0.078 H 
ATOM     28  H2  478 d   1      24.731  14.887  15.298  0.00  0.00     0.078 H 
ATOM     29  C25 478 d   1      26.742  12.993  16.951  0.00  0.00     0.022 C 
ATOM     30  C2  478 d   1      25.590  13.085  17.953  0.00  0.00    -0.018 C 
ATOM     31  H30 478 d   1      26.851  11.955  16.604  0.00  0.00     0.074 H 
ATOM     32  H31 478 d   1      27.677  13.320  17.428  0.00  0.00     0.074 H 
ATOM     33  H3  478 d   1      25.221  12.083  18.217  0.00  0.00     0.040 H 
ATOM     34  H4  478 d   1      25.907  13.611  18.866  0.00  0.00     0.040 H 
ATOM     35  H5  478 d   1      23.938  14.523  17.888  0.00  0.00     0.087 H 
ENDBRANCH  23  24
ENDBRANCH  20  23
ENDBRANCH   3  19
ENDBRANCH   1   3
BRANCH   1  36
ATOM     36  C14 478 d   1      19.705   8.655  17.629  0.00  0.00     0.019 C 
ATOM     37  H15 478 d   1      19.771   7.574  17.436  0.00  0.00     0.061 H 
ATOM     38  H16 478 d   1      18.753   9.040  17.235  0.00  0.00     0.061 H 
BRANCH  36  39
ATOM     39  N2  478 d   1      19.798   8.918  19.074  0.00  0.00    -0.204 NA
BRANCH  39  40
ATOM     40  C15 478 d   1      20.152   7.709  19.810  0.00  0.00    -0.004 C 
ATOM     41  H17 478 d   1      19.843   7.796  20.862  0.00  0.00     0.058 H 
ATOM     42  H18 478 d   1      19.671   6.829  19.358  0.00  0.00     0.058 H 
BRANCH  40  43
ATOM     43  C16 478 d   1      21.689   7.595  19.707  0.00  0.00    -0.049 C 
ATOM     44  H19 478 d   1      21.968   7.434  18.655  0.00  0.00     0.040 H 
BRANCH  43  45
ATOM     45  C23 478 d   1      22.323   8.908  20.192  0.00  0.00    -0.072 C 
ATOM     46  H24 478 d   1      23.418   8.834  20.122  0.00  0.00     0.028 H 
ATOM     47  H25 478 d   1      22.034   9.090  21.238  0.00  0.00     0.028 H 
ATOM     48  H26 478 d   1      21.970   9.739  19.564  0.00  0.00     0.028 H 
ENDBRANCH  43  45
BRANCH  43  49
ATOM     49  C24 478 d   1      22.180   6.397  20.533  0.00  0.00    -0.072 C 
ATOM     50  H27 478 d   1      21.708   5.476  20.160  0.00  0.00     0.028 H 
ATOM     51  H28 478 d   1      21.911   6.545  21.589  0.00  0.00     0.028 H 
ATOM     52  H29 478 d   1      23.273   6.312  20.441  0.00  0.00     0.028 H 
ENDBRANCH  43  49
ENDBRANCH  40  43
ENDBRANCH  39  40
BRANCH  39  53
ATOM     53  S1  478 d   1      18.499   9.679  19.690  0.00  0.00     0.243 S 
ATOM     54  O4  478 d   1      18.116  10.745  18.715  0.00  0.00    -0.206 OA
ATOM     55  O5  478 d   1      18.858  10.222  21.015  0.00  0.00    -0.206 OA
BRANCH  53  56
ATOM     56  C17 478 d   1      17.161   8.572  19.836  0.00  0.00     0.074 A 
ATOM     57  C18 478 d   1      16.261   8.547  18.770  0.00  0.00    -0.059 A 
ATOM     58  C19 478 d   1      15.206   7.647  18.820  0.00  0.00    -0.056 A 
ATOM     59  H20 478 d   1      16.383   9.214  17.924  0.00  0.00     0.086 H 
ATOM     60  C20 478 d   1      15.070   6.796  19.904  0.00  0.00     0.025 A 
ATOM     61  H21 478 d   1      14.487   7.610  18.009  0.00  0.00     0.086 H 
ATOM     62  C21 478 d   1      15.965   6.836  20.968  0.00  0.00    -0.056 A 
ATOM     63  C22 478 d   1      17.048   7.729  20.925  0.00  0.00    -0.059 A 
ATOM     64  H22 478 d   1      15.828   6.184  21.823  0.00  0.00     0.086 H 
ATOM     65  H23 478 d   1      17.777   7.756  21.726  0.00  0.00     0.086 H 
BRANCH  60  66
ATOM     66  N3  478 d   1      14.070   5.920  19.879  0.00  0.00    -0.399 N 
ATOM     67  H33 478 d   1      13.418   5.906  19.082  0.00  0.00     0.156 HD
ATOM     68  H34 478 d   1      13.948   5.255  20.657  0.00  0.00     0.156 HD
ENDBRANCH  60  66
ENDBRANCH  53  56
ENDBRANCH  39  53
ENDBRANCH  36  39
ENDBRANCH   1  36
BRANCH   1  69
ATOM     69  O3  478 d   1      21.074   8.885  15.646  0.00  0.00    -0.392 OA
ATOM     70  H35 478 d   1      21.258   7.954  15.683  0.00  0.00     0.210 HD
ENDBRANCH   1  69
TORSDOF 16
