REMARK  16 active torsions:
REMARK  status: ('A' for Active; 'I' for Inactive)
REMARK    1  A    between atoms: C2_2  and  N1_1 
REMARK    2  A    between atoms: S8_8  and  C5_5 
REMARK    3  A    between atoms: N11_11  and  S8_8 
REMARK    4  A    between atoms: N11_11  and  C12_12 
REMARK    5  A    between atoms: C16_16  and  N11_11 
REMARK    6  A    between atoms: C12_12  and  C13_13 
REMARK    7  A    between atoms: C13_13  and  C14_14 
REMARK    8  A    between atoms: C13_13  and  C15_15 
REMARK    9  A    between atoms: C17_17  and  C16_16 
REMARK   10  A    between atoms: C17_17  and  O18_18 
REMARK   11  A    between atoms: C19_19  and  C17_17 
REMARK   12  A    between atoms: C19_19  and  N20_20 
REMARK   13  A    between atoms: C32_32  and  C19_19 
REMARK       I    between atoms: N20_20  and  C21_21 
REMARK   14  A    between atoms: C21_21  and  O23_23 
REMARK   15  A    between atoms: O23_23  and  C24_24 
REMARK   16  A    between atoms: C38_38  and  C32_32 
ROOT
ATOM      1  C19 017 d   1      14.888  22.857  16.985  0.00  0.00     0.044 C 
ATOM      2  H20 017 d   1      15.806  22.345  16.660  0.00  0.00     0.077 H 
ENDROOT
BRANCH   1   3
ATOM      3  C17 017 d   1      15.271  23.994  17.990  0.00  0.00     0.071 C 
ATOM      4  H18 017 d   1      15.593  23.498  18.917  0.00  0.00     0.088 H 
BRANCH   3   5
ATOM      5  C16 017 d   1      16.454  24.903  17.533  0.00  0.00     0.031 C 
ATOM      6  H16 017 d   1      16.254  25.291  16.523  0.00  0.00     0.069 H 
ATOM      7  H17 017 d   1      16.566  25.744  18.233  0.00  0.00     0.069 H 
BRANCH   5   8
ATOM      8  N11 017 d   1      17.729  24.076  17.519  0.00  0.00    -0.304 N 
BRANCH   8   9
ATOM      9  S8  017 d   1      18.356  23.821  15.862  0.00  0.00     0.260 S 
ATOM     10  O9  017 d   1      17.162  23.511  14.874  0.00  0.00    -0.200 OA
ATOM     11  O10 017 d   1      19.397  22.614  15.920  0.00  0.00    -0.200 OA
BRANCH   9  12
ATOM     12  C5  017 d   1      19.213  25.294  15.213  0.00  0.00     0.079 C 
ATOM     13  C4  017 d   1      18.450  26.265  14.546  0.00  0.00    -0.058 C 
ATOM     14  C3  017 d   1      19.130  27.445  14.192  0.00  0.00    -0.056 C 
ATOM     15  H4  017 d   1      17.401  26.115  14.318  0.00  0.00     0.086 H 
ATOM     16  C2  017 d   1      20.460  27.639  14.579  0.00  0.00     0.025 C 
ATOM     17  H3  017 d   1      18.620  28.208  13.616  0.00  0.00     0.086 H 
ATOM     18  C7  017 d   1      21.193  26.698  15.325  0.00  0.00    -0.056 C 
ATOM     19  C6  017 d   1      20.520  25.507  15.666  0.00  0.00    -0.058 C 
ATOM     20  H6  017 d   1      22.220  26.879  15.622  0.00  0.00     0.086 H 
ATOM     21  H5  017 d   1      21.013  24.759  16.277  0.00  0.00     0.086 H 
BRANCH  16  22
ATOM     22  N1  017 d   1      21.112  28.788  14.235  0.00  0.00    -0.399 N 
ATOM     23  H1  017 d   1      20.625  29.513  13.689  0.00  0.00     0.156 HD
ATOM     24  H2  017 d   1      22.091  28.930  14.522  0.00  0.00     0.156 HD
ENDBRANCH  16  22
ENDBRANCH   9  12
ENDBRANCH   8   9
BRANCH   8  25
ATOM     25  C12 017 d   1      18.729  24.430  18.585  0.00  0.00     0.008 C 
ATOM     26  H7  017 d   1      18.750  25.523  18.703  0.00  0.00     0.066 H 
ATOM     27  H8  017 d   1      19.722  24.076  18.272  0.00  0.00     0.066 H 
BRANCH  25  28
ATOM     28  C13 017 d   1      18.371  23.780  19.961  0.00  0.00    -0.045 C 
ATOM     29  H9  017 d   1      17.427  24.177  20.361  0.00  0.00     0.041 H 
BRANCH  28  30
ATOM     30  C14 017 d   1      18.281  22.269  19.772  0.00  0.00    -0.072 C 
ATOM     31  H10 017 d   1      18.029  21.794  20.732  0.00  0.00     0.028 H 
ATOM     32  H11 017 d   1      19.248  21.886  19.416  0.00  0.00     0.028 H 
ATOM     33  H12 017 d   1      17.500  22.038  19.033  0.00  0.00     0.028 H 
ENDBRANCH  28  30
BRANCH  28  34
ATOM     34  C15 017 d   1      19.551  24.117  20.882  0.00  0.00    -0.072 C 
ATOM     35  H13 017 d   1      19.612  25.207  21.015  0.00  0.00     0.028 H 
ATOM     36  H14 017 d   1      20.485  23.750  20.431  0.00  0.00     0.028 H 
ATOM     37  H15 017 d   1      19.402  23.636  21.860  0.00  0.00     0.028 H 
ENDBRANCH  28  34
ENDBRANCH  25  28
ENDBRANCH   8  25
ENDBRANCH   5   8
ENDBRANCH   3   5
BRANCH   3  38
ATOM     38  O18 017 d   1      14.134  24.793  18.303  0.00  0.00    -0.392 OA
ATOM     39  H19 017 d   1      13.872  25.284  17.533  0.00  0.00     0.210 HD
ENDBRANCH   3  38
ENDBRANCH   1   3
BRANCH   1  40
ATOM     40  N20 017 d   1      14.005  21.943  17.673  0.00  0.00    -0.329 N 
ATOM     41  C21 017 d   1      14.354  20.672  17.994  0.00  0.00     0.361 C 
ATOM     42  O22 017 d   1      15.418  20.096  17.590  0.00  0.00    -0.238 OA
ATOM     43  H21 017 d   1      13.092  22.263  17.925  0.00  0.00     0.165 HD
BRANCH  41  44
ATOM     44  O23 017 d   1      13.384  20.072  18.853  0.00  0.00    -0.296 OA
BRANCH  44  45
ATOM     45  C24 017 d   1      13.448  18.601  18.925  0.00  0.00     0.078 C 
ATOM     46  C25 017 d   1      12.873  18.295  20.327  0.00  0.00     0.048 C 
ATOM     47  O26 017 d   1      11.428  18.454  20.207  0.00  0.00    -0.358 OA
ATOM     48  H23 017 d   1      13.276  19.001  21.069  0.00  0.00     0.078 H 
ATOM     49  H24 017 d   1      13.122  17.266  20.627  0.00  0.00     0.078 H 
ATOM     50  C27 017 d   1      11.124  18.100  18.858  0.00  0.00     0.137 C 
ATOM     51  O28 017 d   1      10.165  18.975  18.229  0.00  0.00    -0.361 OA
ATOM     52  C31 017 d   1      12.346  17.958  18.072  0.00  0.00     0.023 C 
ATOM     53  H25 017 d   1      10.654  17.106  18.895  0.00  0.00     0.129 H 
ATOM     54  C29 017 d   1      10.881  19.521  17.118  0.00  0.00     0.023 C 
ATOM     55  C30 017 d   1      11.950  18.479  16.702  0.00  0.00    -0.035 C 
ATOM     56  H26 017 d   1      11.367  20.463  17.410  0.00  0.00     0.074 H 
ATOM     57  H27 017 d   1      10.192  19.708  16.281  0.00  0.00     0.074 H 
ATOM     58  H28 017 d   1      12.798  18.948  16.181  0.00  0.00     0.037 H 
ATOM     59  H29 017 d   1      11.524  17.686  16.070  0.00  0.00     0.037 H 
ATOM     60  H30 017 d   1      12.614  16.898  17.951  0.00  0.00     0.051 H 
ATOM     61  H22 017 d   1      14.454  18.203  18.726  0.00  0.00     0.088 H 
ENDBRANCH  44  45
ENDBRANCH  41  44
ENDBRANCH   1  40
BRANCH   1  62
ATOM     62  C32 017 d   1      14.081  23.335  15.719  0.00  0.00    -0.020 C 
ATOM     63  H31 017 d   1      14.704  24.040  15.149  0.00  0.00     0.043 H 
ATOM     64  H32 017 d   1      13.165  23.844  16.055  0.00  0.00     0.043 H 
BRANCH  62  65
ATOM     65  C38 017 d   1      13.687  22.165  14.797  0.00  0.00    -0.056 C 
ATOM     66  C33 017 d   1      12.361  21.730  14.727  0.00  0.00    -0.077 C 
ATOM     67  C34 017 d   1      11.979  20.620  13.936  0.00  0.00    -0.082 C 
ATOM     68  H33 017 d   1      11.603  22.258  15.295  0.00  0.00     0.084 H 
ATOM     69  C35 017 d   1      13.006  19.889  13.288  0.00  0.00    -0.083 C 
ATOM     70  H34 017 d   1      10.938  20.339  13.830  0.00  0.00     0.083 H 
ATOM     71  C36 017 d   1      14.340  20.311  13.375  0.00  0.00    -0.082 C 
ATOM     72  H35 017 d   1      12.758  18.998  12.722  0.00  0.00     0.083 H 
ATOM     73  C37 017 d   1      14.708  21.397  14.201  0.00  0.00    -0.077 C 
ATOM     74  H36 017 d   1      15.101  19.796  12.800  0.00  0.00     0.083 H 
ATOM     75  H37 017 d   1      15.752  21.634  14.372  0.00  0.00     0.084 H 
ENDBRANCH  62  65
ENDBRANCH   1  62
TORSDOF 16
