REMARK  5 active torsions:
REMARK  status: ('A' for Active; 'I' for Inactive)
REMARK    1  A    between atoms: C2_2  and  O2_3 
REMARK    2  A    between atoms: C3_4  and  O3_5 
REMARK    3  A    between atoms: C4_6  and  O4_7 
REMARK    4  A    between atoms: C5_8  and  C6_10 
REMARK    5  A    between atoms: C6_10  and  O6_11 
ROOT
ATOM      1  C1  DGJ d   1      39.165  16.031  31.351  0.00  0.00     0.108 C 
ATOM      2  C2  DGJ d   1      39.953  16.196  30.062  0.00  0.00     0.086 C 
ATOM      3  C3  DGJ d   1      39.014  16.746  28.992  0.00  0.00     0.088 C 
ATOM      4  C4  DGJ d   1      37.945  15.700  28.712  0.00  0.00     0.092 C 
ATOM      5  C5  DGJ d   1      37.199  15.278  29.984  0.00  0.00     0.149 C 
ATOM      6  N5  DGJ d   1      38.134  15.060  31.069  0.00  0.00    -0.064 N 
ATOM      7  H1  DGJ d   1      38.715  16.990  31.649  0.00  0.00     0.079 H 
ATOM      8  H2  DGJ d   1      39.821  15.668  32.156  0.00  0.00     0.079 H 
ATOM      9  H3  DGJ d   1      40.310  15.208  29.735  0.00  0.00     0.089 H 
ATOM     10  H5  DGJ d   1      38.533  17.661  29.368  0.00  0.00     0.091 H 
ATOM     11  H7  DGJ d   1      37.215  16.118  28.003  0.00  0.00     0.090 H 
ATOM     12  H9  DGJ d   1      36.510  16.088  30.265  0.00  0.00     0.091 H 
ATOM     13  H10 DGJ d   1      37.585  14.968  31.910  0.00  0.00     0.277 HD
ATOM     14  H11 DGJ d   1      38.602  14.188  30.877  0.00  0.00     0.277 HD
ENDROOT
BRANCH   5  15
ATOM     15  C6  DGJ d   1      36.392  14.007  29.767  0.00  0.00     0.046 C 
ATOM     16  H12 DGJ d   1      37.077  13.149  29.700  0.00  0.00     0.077 H 
ATOM     17  H13 DGJ d   1      35.821  14.095  28.831  0.00  0.00     0.077 H 
BRANCH  15  18
ATOM     18  O6  DGJ d   1      35.489  13.804  30.851  0.00  0.00    -0.399 OA
ATOM     19  H14 DGJ d   1      34.895  14.543  30.910  0.00  0.00     0.209 HD
ENDBRANCH  15  18
ENDBRANCH   5  15
BRANCH   4  20
ATOM     20  O4  DGJ d   1      38.584  14.565  28.119  0.00  0.00    -0.391 OA
ATOM     21  H8  DGJ d   1      37.934  13.897  27.935  0.00  0.00     0.210 HD
ENDBRANCH   4  20
BRANCH   3  22
ATOM     22  O3  DGJ d   1      39.744  17.068  27.799  0.00  0.00    -0.390 OA
ATOM     23  H6  DGJ d   1      40.402  17.723  27.999  0.00  0.00     0.210 HD
ENDBRANCH   3  22
BRANCH   2  24
ATOM     24  O2  DGJ d   1      41.094  17.027  30.277  0.00  0.00    -0.391 OA
ATOM     25  H4  DGJ d   1      40.809  17.882  30.577  0.00  0.00     0.210 HD
ENDBRANCH   2  24
TORSDOF 5
