REMARK  2 active torsions:
REMARK  status: ('A' for Active; 'I' for Inactive)
REMARK    1  A    between atoms: S_3  and  N_1 
REMARK    2  A    between atoms: C2_5  and  S_3 
ROOT
ATOM      1  O   EVD d   1      17.092   2.504  16.014  0.00  0.00    -0.296 OA
ATOM      2  C2  EVD d   1      15.733   2.304  16.053  0.00  0.00     0.191 A 
ATOM      3  C3  EVD d   1      15.081   3.348  15.313  0.00  0.00    -0.025 A 
ATOM      4  C4  EVD d   1      16.203   5.289  13.986  0.00  0.00    -0.070 A 
ATOM      5  C5  EVD d   1      17.450   5.833  13.722  0.00  0.00    -0.082 A 
ATOM      6  C6  EVD d   1      18.663   5.247  14.151  0.00  0.00    -0.080 A 
ATOM      7  C7  EVD d   1      18.613   4.105  14.954  0.00  0.00    -0.049 A 
ATOM      8  C8  EVD d   1      17.366   3.627  15.251  0.00  0.00     0.087 A 
ATOM      9  C9  EVD d   1      16.150   4.162  14.816  0.00  0.00     0.001 A 
ATOM     10  H3  EVD d   1      14.012   3.489  15.163  0.00  0.00     0.090 H 
ATOM     11  H4  EVD d   1      15.302   5.720  13.566  0.00  0.00     0.084 H 
ATOM     12  H5  EVD d   1      17.498   6.757  13.157  0.00  0.00     0.083 H 
ATOM     13  H6  EVD d   1      19.615   5.676  13.862  0.00  0.00     0.083 H 
ATOM     14  H7  EVD d   1      19.512   3.624  15.321  0.00  0.00     0.087 H 
ENDROOT
BRANCH   2  15
ATOM     15  S   EVD d   1      15.058   0.975  16.885  0.00  0.00     0.279 S 
ATOM     16  O1  EVD d   1      15.566   1.099  18.233  0.00  0.00    -0.199 OA
ATOM     17  O2  EVD d   1      13.624   1.120  16.666  0.00  0.00    -0.199 OA
BRANCH  15  18
ATOM     18  N   EVD d   1      15.635  -0.334  16.184  0.00  0.00    -0.323 N 
ATOM     19  H1  EVD d   1      15.372  -0.555  15.245  0.00  0.00     0.169 HD
ATOM     20  H2  EVD d   1      16.260  -0.934  16.683  0.00  0.00     0.169 HD
ENDBRANCH  15  18
ENDBRANCH   2  15
TORSDOF 2
