REMARK  2 active torsions:
REMARK  status: ('A' for Active; 'I' for Inactive)
REMARK    1  A    between atoms: S_2  and  N_1 
REMARK    2  A    between atoms: C2_5  and  S_2 
ROOT
ATOM      1  N1  EVE d   1      15.008   3.268  15.349  0.00  0.00    -0.328 N 
ATOM      2  C2  EVE d   1      15.731   2.265  15.979  0.00  0.00     0.246 A 
ATOM      3  N2  EVE d   1      17.099   2.429  15.828  0.00  0.00    -0.217 NA
ATOM      4  C4  EVE d   1      15.826   5.220  14.069  0.00  0.00    -0.055 A 
ATOM      5  C5  EVE d   1      17.048   5.789  13.663  0.00  0.00    -0.081 A 
ATOM      6  C6  EVE d   1      18.330   5.313  13.960  0.00  0.00    -0.081 A 
ATOM      7  C7  EVE d   1      18.491   4.192  14.753  0.00  0.00    -0.053 A 
ATOM      8  C8  EVE d   1      17.252   3.566  15.097  0.00  0.00     0.086 A 
ATOM      9  C9  EVE d   1      15.979   4.050  14.824  0.00  0.00     0.063 A 
ATOM     10  H3  EVE d   1      13.986   3.387  15.295  0.00  0.00     0.168 HD
ATOM     11  H4  EVE d   1      14.860   5.646  13.821  0.00  0.00     0.087 H 
ATOM     12  H5  EVE d   1      16.990   6.687  13.059  0.00  0.00     0.083 H 
ATOM     13  H6  EVE d   1      19.201   5.825  13.567  0.00  0.00     0.083 H 
ATOM     14  H7  EVE d   1      19.457   3.825  15.080  0.00  0.00     0.087 H 
ENDROOT
BRANCH   2  15
ATOM     15  S   EVE d   1      15.050   0.970  16.867  0.00  0.00     0.290 S 
ATOM     16  O1  EVE d   1      15.549   1.113  18.190  0.00  0.00    -0.198 OA
ATOM     17  O2  EVE d   1      13.630   1.100  16.692  0.00  0.00    -0.198 OA
BRANCH  15  18
ATOM     18  N   EVE d   1      15.582  -0.375  16.253  0.00  0.00    -0.322 N 
ATOM     19  H1  EVE d   1      15.326  -0.635  15.322  0.00  0.00     0.169 HD
ATOM     20  H2  EVE d   1      16.176  -0.971  16.793  0.00  0.00     0.169 HD
ENDBRANCH  15  18
ENDBRANCH   2  15
TORSDOF 2
