REMARK  2 active torsions:
REMARK  status: ('A' for Active; 'I' for Inactive)
REMARK    1  A    between atoms: S_2  and  N_1 
REMARK    2  A    between atoms: C2_5  and  S_2 
ROOT
ATOM      1  S1  EVF d   1      15.340   3.362  15.262  0.00  0.00    -0.055 SA
ATOM      2  C2  EVF d   1      16.222   2.144  16.102  0.00  0.00     0.214 A 
ATOM      3  N3  EVF d   1      17.552   2.361  15.989  0.00  0.00    -0.227 NA
ATOM      4  C4  EVF d   1      19.227   3.977  15.004  0.00  0.00    -0.054 A 
ATOM      5  C5  EVF d   1      19.297   5.122  14.215  0.00  0.00    -0.081 A 
ATOM      6  C6  EVF d   1      18.163   5.811  13.721  0.00  0.00    -0.082 A 
ATOM      7  C7  EVF d   1      16.883   5.248  13.976  0.00  0.00    -0.064 A 
ATOM      8  C8  EVF d   1      16.785   4.112  14.766  0.00  0.00     0.036 A 
ATOM      9  C9  EVF d   1      17.896   3.465  15.282  0.00  0.00     0.076 A 
ATOM     10  H3  EVF d   1      20.117   3.494  15.390  0.00  0.00     0.087 H 
ATOM     11  H4  EVF d   1      20.278   5.509  13.964  0.00  0.00     0.083 H 
ATOM     12  H5  EVF d   1      18.267   6.737  13.167  0.00  0.00     0.083 H 
ATOM     13  H6  EVF d   1      15.992   5.702  13.557  0.00  0.00     0.085 H 
ENDROOT
BRANCH   2  14
ATOM     14  S   EVF d   1      15.576   0.863  16.959  0.00  0.00     0.281 S 
ATOM     15  O1  EVF d   1      16.089   0.881  18.350  0.00  0.00    -0.199 OA
ATOM     16  O2  EVF d   1      14.098   1.071  16.771  0.00  0.00    -0.199 OA
BRANCH  14  17
ATOM     17  N   EVF d   1      16.028  -0.458  16.310  0.00  0.00    -0.323 N 
ATOM     18  H1  EVF d   1      15.779  -0.661  15.363  0.00  0.00     0.169 HD
ATOM     19  H2  EVF d   1      16.571  -1.113  16.835  0.00  0.00     0.169 HD
ENDBRANCH  14  17
ENDBRANCH   2  14
TORSDOF 2
