REMARK  2 active torsions:
REMARK  status: ('A' for Active; 'I' for Inactive)
REMARK    1  A    between atoms: S_2  and  C2_4 
REMARK    2  A    between atoms: S_2  and  NH_9 
ROOT
ATOM      1  O   EVG d   1      17.067   2.503  16.057  0.00  0.00    -0.310 OA
ATOM      2  C2  EVG d   1      15.710   2.328  16.105  0.00  0.00     0.189 A 
ATOM      3  C3  EVG d   1      15.026   3.405  15.438  0.00  0.00    -0.035 A 
ATOM      4  C4  EVG d   1      16.061   4.219  14.922  0.00  0.00    -0.058 A 
ATOM      5  C5  EVG d   1      17.294   3.692  15.291  0.00  0.00     0.020 A 
ATOM      6  H1  EVG d   1      13.951   3.559  15.350  0.00  0.00     0.089 H 
ATOM      7  H2  EVG d   1      15.915   5.120  14.327  0.00  0.00     0.086 H 
ATOM      8  H3  EVG d   1      18.267   4.112  15.040  0.00  0.00     0.123 H 
ENDROOT
BRANCH   2   9
ATOM      9  S   EVG d   1      15.052   0.970  16.928  0.00  0.00     0.279 S 
ATOM     10  O1  EVG d   1      13.596   1.041  16.732  0.00  0.00    -0.199 OA
ATOM     11  O2  EVG d   1      15.533   1.075  18.248  0.00  0.00    -0.199 OA
BRANCH   9  12
ATOM     12  NH  EVG d   1      15.606  -0.313  16.216  0.00  0.00    -0.323 N 
ATOM     13  H4  EVG d   1      16.584  -0.520  16.248  0.00  0.00     0.169 HD
ATOM     14  H5  EVG d   1      14.981  -0.924  15.730  0.00  0.00     0.169 HD
ENDBRANCH   9  12
ENDBRANCH   2   9
TORSDOF 2
