REMARK  2 active torsions:
REMARK  status: ('A' for Active; 'I' for Inactive)
REMARK    1  A    between atoms: S_1  and  C2_4 
REMARK    2  A    between atoms: S_1  and  NH_9 
ROOT
ATOM      1  N1  EVH d   1      16.807   2.410  15.229  0.00  0.00    -0.339 N 
ATOM      2  C2  EVH d   1      15.541   2.222  15.736  0.00  0.00     0.245 A 
ATOM      3  N3  EVH d   1      14.740   3.204  15.262  0.00  0.00    -0.230 NA
ATOM      4  C4  EVH d   1      15.451   3.975  14.388  0.00  0.00     0.020 A 
ATOM      5  C5  EVH d   1      16.752   3.490  14.394  0.00  0.00    -0.004 A 
ATOM      6  H1  EVH d   1      17.640   1.842  15.440  0.00  0.00     0.167 HD
ATOM      7  H2  EVH d   1      15.071   4.809  13.800  0.00  0.00     0.117 H 
ATOM      8  H3  EVH d   1      17.587   3.901  13.829  0.00  0.00     0.113 H 
ENDROOT
BRANCH   2   9
ATOM      9  S   EVH d   1      15.086   0.993  16.819  0.00  0.00     0.290 S 
ATOM     10  O1  EVH d   1      13.607   1.022  16.783  0.00  0.00    -0.198 OA
ATOM     11  O2  EVH d   1      15.715   1.274  18.059  0.00  0.00    -0.198 OA
BRANCH   9  12
ATOM     12  NH  EVH d   1      15.661  -0.333  16.207  0.00  0.00    -0.322 N 
ATOM     13  H4  EVH d   1      16.650  -0.479  16.171  0.00  0.00     0.169 HD
ATOM     14  H5  EVH d   1      15.039  -1.032  15.854  0.00  0.00     0.169 HD
ENDBRANCH   9  12
ENDBRANCH   2   9
TORSDOF 2
