REMARK  2 active torsions:
REMARK  status: ('A' for Active; 'I' for Inactive)
REMARK    1  A    between atoms: S_1  and  C2_4 
REMARK    2  A    between atoms: S_1  and  NH_9 
ROOT
ATOM      1  S1  EVI d   1      15.116   3.577  15.209  0.00  0.00    -0.067 SA
ATOM      2  C2  EVI d   1      15.903   2.306  16.074  0.00  0.00     0.212 A 
ATOM      3  N3  EVI d   1      17.201   2.460  16.122  0.00  0.00    -0.240 NA
ATOM      4  C4  EVI d   1      17.638   3.575  15.405  0.00  0.00     0.011 A 
ATOM      5  C5  EVI d   1      16.608   4.349  14.829  0.00  0.00    -0.025 A 
ATOM      6  H1  EVI d   1      18.692   3.828  15.298  0.00  0.00     0.115 H 
ATOM      7  H2  EVI d   1      16.733   5.264  14.252  0.00  0.00     0.097 H 
ENDROOT
BRANCH   2   8
ATOM      8  S   EVI d   1      15.167   0.977  16.807  0.00  0.00     0.281 S 
ATOM      9  O1  EVI d   1      13.741   1.189  16.708  0.00  0.00    -0.199 OA
ATOM     10  O2  EVI d   1      15.529   0.976  18.188  0.00  0.00    -0.199 OA
BRANCH   8  11
ATOM     11  NH  EVI d   1      15.807  -0.317  16.193  0.00  0.00    -0.323 N 
ATOM     12  H3  EVI d   1      16.793  -0.467  16.260  0.00  0.00     0.169 HD
ATOM     13  H4  EVI d   1      15.229  -0.992  15.735  0.00  0.00     0.169 HD
ENDBRANCH   8  11
ENDBRANCH   2   8
TORSDOF 2
