REMARK  13 active torsions:
REMARK  status: ('A' for Active; 'I' for Inactive)
REMARK    1  A    between atoms: C_1  and  CH3_3 
REMARK       I    between atoms: N_4  and  C_1 
REMARK    2  A    between atoms: CA_5  and  N_4 
REMARK    3  A    between atoms: C_6  and  CA_5 
REMARK    4  A    between atoms: CA_5  and  CB_8 
REMARK       I    between atoms: N_20  and  C_6 
REMARK    5  A    between atoms: CB_8  and  CG_9 
REMARK    6  A    between atoms: CZ_14  and  OH_15 
REMARK    7  A    between atoms: OH_15  and  P_16 
REMARK    8  A    between atoms: CA_22  and  N_20 
REMARK    9  A    between atoms: CA_22  and  C_23 
REMARK       I    between atoms: C_23  and  N_27 
REMARK   10  A    between atoms: N_27  and  CA_28 
REMARK   11  A    between atoms: CA_28  and  C_29 
REMARK   12  A    between atoms: CA_28  and  CB_31 
REMARK       I    between atoms: C_29  and  N_35 
REMARK   13  A    between atoms: CB_31  and  CG_32 
REMARK       I    between atoms: CG_32  and  ND2_34 
ROOT
ATOM      1  C   PTR d   1      -7.312   7.882  -1.000  0.00  0.00     0.241 C 
ATOM      2  O   PTR d   1      -6.129   8.146  -1.145  0.00  0.00    -0.271 OA
ATOM      3  N   192 d   1      -8.046   7.235  -1.866  0.00  0.00    -0.341 N 
ATOM      4  H12 192 d   1      -9.014   7.068  -1.679  0.00  0.00     0.163 HD
ENDROOT
BRANCH   3   5
ATOM      5  CA  192 d   1      -7.441   6.753  -3.118  0.00  0.00     0.114 C 
ATOM      6  CB1 192 d   1      -6.651   5.450  -2.935  0.00  0.00    -0.033 C 
ATOM      7  CG  192 d   1      -7.883   4.611  -3.357  0.00  0.00    -0.060 C 
ATOM      8  H13 192 d   1      -6.323   5.270  -1.901  0.00  0.00     0.037 H 
ATOM      9  H14 192 d   1      -5.792   5.351  -3.615  0.00  0.00     0.037 H 
ATOM     10  CB2 192 d   1      -8.511   5.929  -3.870  0.00  0.00    -0.033 C 
ATOM     11  H15 192 d   1      -8.424   4.138  -2.524  0.00  0.00     0.033 H 
ATOM     12  H16 192 d   1      -7.684   3.862  -4.138  0.00  0.00     0.033 H 
ATOM     13  H17 192 d   1      -8.476   6.044  -4.963  0.00  0.00     0.037 H 
ATOM     14  H18 192 d   1      -9.538   6.102  -3.516  0.00  0.00     0.037 H 
BRANCH   5  15
ATOM     15  C   192 d   1      -6.755   7.922  -3.905  0.00  0.00     0.246 C 
ATOM     16  O   192 d   1      -5.723   7.791  -4.608  0.00  0.00    -0.271 OA
ATOM     17  N   ASN d   1      -7.388   9.061  -3.811  0.00  0.00    -0.345 N 
ATOM     18  H19 ASN d   1      -8.185   9.114  -3.209  0.00  0.00     0.163 HD
BRANCH  17  19
ATOM     19  CA  ASN d   1      -6.986  10.265  -4.546  0.00  0.00     0.097 C 
ATOM     20  H20 ASN d   1      -6.240   9.955  -5.292  0.00  0.00     0.088 H 
BRANCH  19  21
ATOM     21  C   ASN d   1      -6.289  11.269  -3.632  0.00  0.00     0.238 C 
ATOM     22  O   ASN d   1      -6.169  12.415  -3.995  0.00  0.00    -0.271 OA
ATOM     23  N   NH2 d   1      -5.730  10.858  -2.475  0.00  0.00    -0.368 N 
ATOM     24  H25 NH2 d   1      -5.274  11.518  -1.878  0.00  0.00     0.159 HD
ATOM     25  H26 NH2 d   1      -5.772   9.893  -2.215  0.00  0.00     0.159 HD
ENDBRANCH  19  21
BRANCH  19  26
ATOM     26  CB  ASN d   1      -8.203  10.852  -5.348  0.00  0.00     0.036 C 
ATOM     27  H21 ASN d   1      -8.624  10.052  -5.974  0.00  0.00     0.051 H 
ATOM     28  H22 ASN d   1      -7.835  11.665  -5.991  0.00  0.00     0.051 H 
BRANCH  26  29
ATOM     29  CG  ASN d   1      -9.351  11.423  -4.433  0.00  0.00     0.217 C 
ATOM     30  OD1 ASN d   1      -9.373  11.126  -3.222  0.00  0.00    -0.274 OA
ATOM     31  ND2 ASN d   1     -10.168  12.326  -4.986  0.00  0.00    -0.370 N 
ATOM     32  H23 ASN d   1     -10.914  12.721  -4.449  0.00  0.00     0.159 HD
ATOM     33  H24 ASN d   1     -10.033  12.607  -5.936  0.00  0.00     0.159 HD
ENDBRANCH  26  29
ENDBRANCH  19  26
ENDBRANCH  17  19
ENDBRANCH   5  15
ENDBRANCH   3   5
BRANCH   1  34
ATOM     34  CA  PTR d   1      -8.037   8.276   0.283  0.00  0.00     0.093 C 
ATOM     35  H5  PTR d   1      -8.947   7.665   0.382  0.00  0.00     0.088 H 
BRANCH  34  36
ATOM     36  N   PTR d   1      -7.151   8.010   1.460  0.00  0.00    -0.348 N 
ATOM     37  C   ACE d   1      -7.607   7.337   2.536  0.00  0.00     0.214 C 
ATOM     38  O   ACE d   1      -8.742   6.841   2.657  0.00  0.00    -0.274 OA
ATOM     39  H4  PTR d   1      -6.206   8.337   1.448  0.00  0.00     0.163 HD
BRANCH  37  40
ATOM     40  CH3 ACE d   1      -6.565   7.191   3.660  0.00  0.00    -0.003 C 
ATOM     41  H1  ACE d   1      -5.633   7.694   3.364  0.00  0.00     0.040 H 
ATOM     42  H2  ACE d   1      -6.365   6.124   3.838  0.00  0.00     0.040 H 
ATOM     43  H3  ACE d   1      -6.953   7.650   4.581  0.00  0.00     0.040 H 
ENDBRANCH  37  40
ENDBRANCH  34  36
BRANCH  34  44
ATOM     44  CB  PTR d   1      -8.445   9.758   0.214  0.00  0.00    -0.014 C 
ATOM     45  H6  PTR d   1      -9.133   9.906  -0.632  0.00  0.00     0.043 H 
ATOM     46  H7  PTR d   1      -7.546  10.375   0.068  0.00  0.00     0.043 H 
BRANCH  44  47
ATOM     47  CG  PTR d   1      -9.142  10.179   1.511  0.00  0.00    -0.056 A 
ATOM     48  CD1 PTR d   1      -8.355  10.642   2.565  0.00  0.00    -0.074 A 
ATOM     49  CE1 PTR d   1      -8.997  10.983   3.739  0.00  0.00    -0.050 A 
ATOM     50  H8  PTR d   1      -7.279  10.731   2.466  0.00  0.00     0.084 H 
ATOM     51  CZ  PTR d   1     -10.360  10.828   3.911  0.00  0.00     0.082 A 
ATOM     52  H10 PTR d   1      -8.411  11.387   4.556  0.00  0.00     0.087 H 
ATOM     53  CE2 PTR d   1     -11.170  10.379   2.871  0.00  0.00    -0.050 A 
ATOM     54  CD2 PTR d   1     -10.528  10.039   1.651  0.00  0.00    -0.074 A 
ATOM     55  H11 PTR d   1     -12.244  10.293   2.988  0.00  0.00     0.087 H 
ATOM     56  H9  PTR d   1     -11.117   9.668   0.820  0.00  0.00     0.084 H 
BRANCH  51  57
ATOM     57  OH  PTR d   1     -10.811  11.205   5.170  0.00  0.00    -0.240 OA
BRANCH  57  58
ATOM     58  P   PTR d   1     -12.333  10.837   5.662  0.00  0.00     0.427 P 
ATOM     59  O1P PTR d   1     -13.289  11.908   5.199  0.00  0.00    -0.617 OA
ATOM     60  O2P PTR d   1     -12.642   9.497   5.378  0.00  0.00    -0.617 OA
ATOM     61  O3P PTR d   1     -12.140  10.995   7.260  0.00  0.00    -0.617 OA
ENDBRANCH  57  58
ENDBRANCH  51  57
ENDBRANCH  44  47
ENDBRANCH  34  44
ENDBRANCH   1  34
TORSDOF 13
