REMARK  13 active torsions:
REMARK  status: ('A' for Active; 'I' for Inactive)
REMARK    1  A    between atoms: C_1  and  CH3_3 
REMARK       I    between atoms: N_4  and  C_1 
REMARK    2  A    between atoms: CA_5  and  N_4 
REMARK    3  A    between atoms: C_6  and  CA_5 
REMARK    4  A    between atoms: CA_5  and  CB_8 
REMARK       I    between atoms: N_20  and  C_6 
REMARK    5  A    between atoms: CB_8  and  CG_9 
REMARK    6  A    between atoms: CZ_14  and  OH_15 
REMARK    7  A    between atoms: OH_15  and  P_16 
REMARK    8  A    between atoms: CA_22  and  N_20 
REMARK    9  A    between atoms: CA_22  and  C_23 
REMARK       I    between atoms: C_23  and  N_28 
REMARK   10  A    between atoms: N_28  and  CA_29 
REMARK   11  A    between atoms: CA_29  and  C_30 
REMARK   12  A    between atoms: CA_29  and  CB_32 
REMARK       I    between atoms: C_30  and  N_36 
REMARK   13  A    between atoms: CB_32  and  CG_33 
REMARK       I    between atoms: CG_33  and  ND2_35 
ROOT
ATOM      1  CA  AC5 d   1      14.074 -13.630   3.121  0.00  0.00     0.114 C 
ATOM      2  CB1 AC5 d   1      15.198 -14.584   2.817  0.00  0.00    -0.033 C 
ATOM      3  CB2 AC5 d   1      14.713 -12.546   3.948  0.00  0.00    -0.033 C 
ATOM      4  CG1 AC5 d   1      16.504 -13.867   3.044  0.00  0.00    -0.062 C 
ATOM      5  CG2 AC5 d   1      16.127 -12.451   3.407  0.00  0.00    -0.062 C 
ATOM      6  H13 AC5 d   1      15.132 -14.914   1.770  0.00  0.00     0.037 H 
ATOM      7  H14 AC5 d   1      15.134 -15.458   3.482  0.00  0.00     0.037 H 
ATOM      8  H15 AC5 d   1      14.720 -12.821   5.013  0.00  0.00     0.037 H 
ATOM      9  H16 AC5 d   1      14.181 -11.592   3.819  0.00  0.00     0.037 H 
ATOM     10  H17 AC5 d   1      17.114 -13.880   2.129  0.00  0.00     0.033 H 
ATOM     11  H18 AC5 d   1      17.064 -14.338   3.865  0.00  0.00     0.033 H 
ATOM     12  H19 AC5 d   1      16.808 -12.054   4.174  0.00  0.00     0.033 H 
ATOM     13  H20 AC5 d   1      16.158 -11.803   2.519  0.00  0.00     0.033 H 
ENDROOT
BRANCH   1  14
ATOM     14  N   AC5 d   1      13.624 -13.108   1.865  0.00  0.00    -0.341 N 
ATOM     15  C   PTR d   1      13.005 -13.827   0.980  0.00  0.00     0.241 C 
ATOM     16  O   PTR d   1      12.720 -14.984   1.113  0.00  0.00    -0.271 OA
ATOM     17  H12 AC5 d   1      13.795 -12.144   1.661  0.00  0.00     0.163 HD
BRANCH  15  18
ATOM     18  CA  PTR d   1      12.598 -13.066  -0.286  0.00  0.00     0.093 C 
ATOM     19  H5  PTR d   1      13.217 -12.159  -0.351  0.00  0.00     0.088 H 
BRANCH  18  20
ATOM     20  N   PTR d   1      12.846 -13.874  -1.473  0.00  0.00    -0.348 N 
ATOM     21  C   ACE d   1      13.575 -13.482  -2.478  0.00  0.00     0.214 C 
ATOM     22  O   ACE d   1      14.152 -12.444  -2.542  0.00  0.00    -0.274 OA
ATOM     23  H4  PTR d   1      12.432 -14.783  -1.518  0.00  0.00     0.163 HD
BRANCH  21  24
ATOM     24  CH3 ACE d   1      13.674 -14.438  -3.643  0.00  0.00    -0.003 C 
ATOM     25  H1  ACE d   1      13.088 -15.343  -3.425  0.00  0.00     0.040 H 
ATOM     26  H2  ACE d   1      14.727 -14.713  -3.803  0.00  0.00     0.040 H 
ATOM     27  H3  ACE d   1      13.279 -13.954  -4.549  0.00  0.00     0.040 H 
ENDBRANCH  21  24
ENDBRANCH  18  20
BRANCH  18  28
ATOM     28  CB  PTR d   1      11.122 -12.633  -0.236  0.00  0.00    -0.014 C 
ATOM     29  H6  PTR d   1      10.973 -11.945   0.610  0.00  0.00     0.043 H 
ATOM     30  H7  PTR d   1      10.487 -13.521  -0.102  0.00  0.00     0.043 H 
BRANCH  28  31
ATOM     31  CG  PTR d   1      10.735 -11.926  -1.536  0.00  0.00    -0.056 A 
ATOM     32  CD1 PTR d   1      10.211 -12.647  -2.557  0.00  0.00    -0.074 A 
ATOM     33  CE1 PTR d   1       9.904 -12.024  -3.729  0.00  0.00    -0.050 A 
ATOM     34  H8  PTR d   1      10.038 -13.711  -2.442  0.00  0.00     0.084 H 
ATOM     35  CZ  PTR d   1      10.103 -10.680  -3.942  0.00  0.00     0.082 A 
ATOM     36  H10 PTR d   1       9.482 -12.617  -4.533  0.00  0.00     0.087 H 
ATOM     37  CE2 PTR d   1      10.638  -9.957  -2.907  0.00  0.00    -0.050 A 
ATOM     38  CD2 PTR d   1      10.948 -10.582  -1.718  0.00  0.00    -0.074 A 
ATOM     39  H11 PTR d   1      10.817  -8.894  -3.024  0.00  0.00     0.087 H 
ATOM     40  H9  PTR d   1      11.370  -9.998  -0.908  0.00  0.00     0.084 H 
BRANCH  35  41
ATOM     41  OH  PTR d   1       9.772 -10.214  -5.147  0.00  0.00    -0.240 OA
BRANCH  41  42
ATOM     42  P   PTR d   1      10.038  -8.780  -5.680  0.00  0.00     0.427 P 
ATOM     43  O1P PTR d   1       9.932  -8.851  -7.159  0.00  0.00    -0.617 OA
ATOM     44  O2P PTR d   1       9.163  -7.829  -5.111  0.00  0.00    -0.617 OA
ATOM     45  O3P PTR d   1      11.301  -8.430  -5.467  0.00  0.00    -0.617 OA
ENDBRANCH  41  42
ENDBRANCH  35  41
ENDBRANCH  28  31
ENDBRANCH  18  28
ENDBRANCH  15  18
ENDBRANCH   1  14
BRANCH   1  46
ATOM     46  C   AC5 d   1      12.922 -14.281   3.909  0.00  0.00     0.246 C 
ATOM     47  O   AC5 d   1      13.111 -15.257   4.591  0.00  0.00    -0.271 OA
ATOM     48  N   ASN d   1      11.776 -13.667   3.839  0.00  0.00    -0.345 N 
ATOM     49  H21 ASN d   1      11.706 -12.857   3.257  0.00  0.00     0.163 HD
BRANCH  48  50
ATOM     50  CA  ASN d   1      10.598 -14.097   4.561  0.00  0.00     0.097 C 
ATOM     51  H22 ASN d   1      10.911 -14.843   5.306  0.00  0.00     0.088 H 
BRANCH  50  52
ATOM     52  C   ASN d   1       9.577 -14.755   3.655  0.00  0.00     0.238 C 
ATOM     53  O   ASN d   1       8.437 -14.849   3.987  0.00  0.00    -0.271 OA
ATOM     54  N   NH2 d   1      10.037 -15.274   2.567  0.00  0.00    -0.368 N 
ATOM     55  H27 NH2 d   1       9.415 -15.724   1.926  0.00  0.00     0.159 HD
ATOM     56  H28 NH2 d   1      11.015 -15.227   2.365  0.00  0.00     0.159 HD
ENDBRANCH  50  52
BRANCH  50  57
ATOM     57  CB  ASN d   1       9.997 -12.913   5.301  0.00  0.00     0.036 C 
ATOM     58  H23 ASN d   1      10.786 -12.477   5.932  0.00  0.00     0.051 H 
ATOM     59  H24 ASN d   1       9.185 -13.293   5.939  0.00  0.00     0.051 H 
BRANCH  57  60
ATOM     60  CG  ASN d   1       9.427 -11.802   4.442  0.00  0.00     0.217 C 
ATOM     61  OD1 ASN d   1       9.885 -11.695   3.236  0.00  0.00    -0.274 OA
ATOM     62  ND2 ASN d   1       8.575 -10.994   4.985  0.00  0.00    -0.370 N 
ATOM     63  H25 ASN d   1       8.179 -10.250   4.447  0.00  0.00     0.159 HD
ATOM     64  H26 ASN d   1       8.312 -11.114   5.942  0.00  0.00     0.159 HD
ENDBRANCH  57  60
ENDBRANCH  50  57
ENDBRANCH  48  50
ENDBRANCH   1  46
TORSDOF 13
