REMARK  5 active torsions:
REMARK  status: ('A' for Active; 'I' for Inactive)
REMARK    1  A    between atoms: N_1  and  CA_2 
REMARK    2  A    between atoms: CA_2  and  C_3 
REMARK    3  A    between atoms: CA_2  and  CB_5 
REMARK    4  A    between atoms: CB_5  and  CG_6 
REMARK    5  A    between atoms: CG_6  and  CD_7 
ROOT
ATOM      1  CA  GLU d   1       2.628 -30.036 -13.863  0.00  0.00     0.183 C 
ATOM      2  H4  GLU d   1       2.496 -29.242 -13.113  0.00  0.00     0.101 H 
ENDROOT
BRANCH   1   3
ATOM      3  N   GLU d   1       3.940 -30.651 -13.645  0.00  0.00    -0.065 N 
ATOM      4  H1  GLU d   1       4.661 -29.958 -13.770  0.00  0.00     0.275 HD
ATOM      5  H2  GLU d   1       4.075 -31.399 -14.307  0.00  0.00     0.275 HD
ATOM      6  H3  GLU d   1       3.987 -31.019 -12.708  0.00  0.00     0.275 HD
ENDBRANCH   1   3
BRANCH   1   7
ATOM      7  C   GLU d   1       1.491 -31.051 -13.684  0.00  0.00     0.204 C 
ATOM      8  O   GLU d   1       0.408 -30.679 -13.956  0.00  0.00    -0.646 OA
ATOM      9  OXT GLU d   1       1.742 -32.145 -13.221  0.00  0.00    -0.646 OA
ENDBRANCH   1   7
BRANCH   1  10
ATOM     10  CB  GLU d   1       2.564 -29.397 -15.252  0.00  0.00    -0.020 C 
ATOM     11  H5  GLU d   1       1.508 -29.222 -15.505  0.00  0.00     0.037 H 
ATOM     12  H6  GLU d   1       3.003 -30.099 -15.977  0.00  0.00     0.037 H 
BRANCH  10  13
ATOM     13  CG  GLU d   1       3.301 -28.085 -15.355  0.00  0.00     0.018 C 
ATOM     14  H7  GLU d   1       3.468 -27.863 -16.419  0.00  0.00     0.049 H 
ATOM     15  H8  GLU d   1       4.270 -28.191 -14.846  0.00  0.00     0.049 H 
BRANCH  13  16
ATOM     16  CD  GLU d   1       2.556 -26.912 -14.731  0.00  0.00     0.172 C 
ATOM     17  OE1 GLU d   1       1.427 -27.055 -14.435  0.00  0.00    -0.648 OA
ATOM     18  OE2 GLU d   1       3.204 -25.919 -14.545  0.00  0.00    -0.648 OA
ENDBRANCH  13  16
ENDBRANCH  10  13
ENDBRANCH   1  10
TORSDOF 5
