REMARK  5 active torsions:
REMARK  status: ('A' for Active; 'I' for Inactive)
REMARK    1  A    between atoms: N1_1  and  C1'_9 
REMARK    2  A    between atoms: C2'_10  and  O2'_11 
REMARK    3  A    between atoms: C3'_12  and  O3'_13 
REMARK    4  A    between atoms: C4'_14  and  C5'_16 
REMARK    5  A    between atoms: C5'_16  and  O5'_17 
ROOT
ATOM      1  C1' 2TU d   1      46.829   0.522  25.086  0.00  0.00     0.139 C 
ATOM      2  C2' 2TU d   1      47.513  -0.751  25.563  0.00  0.00     0.105 C 
ATOM      3  C3' 2TU d   1      48.248  -1.193  24.290  0.00  0.00     0.091 C 
ATOM      4  C4' 2TU d   1      47.296  -0.754  23.172  0.00  0.00     0.088 C 
ATOM      5  O4' 2TU d   1      46.459   0.289  23.740  0.00  0.00    -0.353 OA
ATOM      6  H4  2TU d   1      47.539   1.360  25.149  0.00  0.00     0.122 H 
ATOM      7  H5  2TU d   1      46.770  -1.510  25.850  0.00  0.00     0.093 H 
ATOM      8  H7  2TU d   1      48.429  -2.278  24.276  0.00  0.00     0.091 H 
ATOM      9  H9  2TU d   1      47.896  -0.341  22.348  0.00  0.00     0.090 H 
ENDROOT
BRANCH   1  10
ATOM     10  N1  2TU d   1      45.626   0.866  25.840  0.00  0.00    -0.304 N 
ATOM     11  C2  2TU d   1      45.341   2.230  25.946  0.00  0.00     0.182 A 
ATOM     12  S2  2TU d   1      46.440   3.337  25.187  0.00  0.00    -0.040 SA
ATOM     13  N3  2TU d   1      44.235   2.625  26.613  0.00  0.00    -0.300 N 
ATOM     14  C4  2TU d   1      43.412   1.707  27.183  0.00  0.00     0.248 A 
ATOM     15  H1  2TU d   1      44.021   3.599  26.688  0.00  0.00     0.171 HD
ATOM     16  O4  2TU d   1      42.390   2.086  27.810  0.00  0.00    -0.268 OA
ATOM     17  C5  2TU d   1      43.700   0.343  27.075  0.00  0.00    -0.002 A 
ATOM     18  C6  2TU d   1      44.833  -0.065  26.382  0.00  0.00    -0.010 A 
ATOM     19  H2  2TU d   1      43.041  -0.394  27.531  0.00  0.00     0.094 H 
ATOM     20  H3  2TU d   1      45.071  -1.123  26.282  0.00  0.00     0.112 H 
ENDBRANCH   1  10
BRANCH   2  21
ATOM     21  O2' 2TU d   1      48.341  -0.503  26.682  0.00  0.00    -0.388 OA
ATOM     22  H6  2TU d   1      49.010   0.129  26.446  0.00  0.00     0.210 HD
ENDBRANCH   2  21
BRANCH   3  23
ATOM     23  O3' 2TU d   1      49.475  -0.476  24.171  0.00  0.00    -0.390 OA
ATOM     24  H8  2TU d   1      50.020  -0.655  24.928  0.00  0.00     0.210 HD
ENDBRANCH   3  23
BRANCH   4  25
ATOM     25  C5' 2TU d   1      46.412  -1.844  22.602  0.00  0.00     0.043 C 
ATOM     26  H10 2TU d   1      45.924  -2.377  23.431  0.00  0.00     0.078 H 
ATOM     27  H11 2TU d   1      47.037  -2.547  22.032  0.00  0.00     0.078 H 
BRANCH  25  28
ATOM     28  O5' 2TU d   1      45.407  -1.314  21.738  0.00  0.00    -0.398 OA
ATOM     29  H12 2TU d   1      44.859  -0.709  22.225  0.00  0.00     0.209 HD
ENDBRANCH  25  28
ENDBRANCH   4  25
TORSDOF 5
