REMARK  7 active torsions:
REMARK  status: ('A' for Active; 'I' for Inactive)
REMARK    1  A    between atoms: N4_1  and  C3_2 
REMARK    2  A    between atoms: C3_2  and  C5_3 
REMARK    3  A    between atoms: C3_2  and  C2_5 
REMARK       I    between atoms: C5_3  and  N6_12 
REMARK    4  A    between atoms: C2_5  and  C1_6 
REMARK    5  A    between atoms: C13_13  and  C14_14 
REMARK       I    between atoms: C14_14  and  N16_19 
REMARK    6  A    between atoms: N16_19  and  C17_20 
REMARK    7  A    between atoms: C17_20  and  C18_21 
ROOT
ATOM      1  C5  P97 d   1     -17.534 -13.146 -22.483  0.00  0.00     0.251 C 
ATOM      2  O7  P97 d   1     -16.592 -12.451 -22.850  0.00  0.00    -0.271 OA
ATOM      3  N6  P97 d   1     -18.380 -12.703 -21.568  0.00  0.00    -0.337 N 
ATOM      4  C13 P97 d   1     -18.156 -11.384 -20.976  0.00  0.00     0.091 C 
ATOM      5  C19 P97 d   1     -19.284 -11.203 -19.964  0.00  0.00    -0.036 C 
ATOM      6  C20 P97 d   1     -20.308 -12.287 -20.284  0.00  0.00    -0.048 C 
ATOM      7  C21 P97 d   1     -19.542 -13.395 -20.996  0.00  0.00    -0.001 C 
ATOM      8  H12 P97 d   1     -18.203 -10.599 -21.746  0.00  0.00     0.087 H 
ATOM      9  H13 P97 d   1     -19.736 -10.206 -20.069  0.00  0.00     0.036 H 
ATOM     10  H14 P97 d   1     -18.903 -11.327 -18.940  0.00  0.00     0.036 H 
ATOM     11  H15 P97 d   1     -21.096 -11.886 -20.939  0.00  0.00     0.035 H 
ATOM     12  H16 P97 d   1     -20.760 -12.670 -19.358  0.00  0.00     0.035 H 
ATOM     13  H17 P97 d   1     -19.225 -14.172 -20.285  0.00  0.00     0.064 H 
ATOM     14  H18 P97 d   1     -20.156 -13.850 -21.787  0.00  0.00     0.064 H 
ENDROOT
BRANCH   1  15
ATOM     15  C3  P97 d   1     -17.753 -14.520 -23.069  0.00  0.00     0.179 C 
ATOM     16  H4  P97 d   1     -18.466 -15.069 -22.436  0.00  0.00     0.099 H 
BRANCH  15  17
ATOM     17  N4  P97 d   1     -16.473 -15.210 -23.085  0.00  0.00    -0.066 N 
ATOM     18  H1  P97 d   1     -16.593 -16.133 -23.473  0.00  0.00     0.275 HD
ATOM     19  H2  P97 d   1     -16.120 -15.285 -22.144  0.00  0.00     0.275 HD
ATOM     20  H3  P97 d   1     -15.819 -14.691 -23.649  0.00  0.00     0.275 HD
ENDBRANCH  15  17
BRANCH  15  21
ATOM     21  C2  P97 d   1     -18.293 -14.479 -24.501  0.00  0.00    -0.006 C 
ATOM     22  H5  P97 d   1     -18.279 -15.498 -24.914  0.00  0.00     0.043 H 
ATOM     23  H6  P97 d   1     -17.643 -13.830 -25.106  0.00  0.00     0.043 H 
BRANCH  21  24
ATOM     24  C1  P97 d   1     -19.710 -13.946 -24.565  0.00  0.00    -0.056 A 
ATOM     25  C8  P97 d   1     -20.767 -14.606 -23.941  0.00  0.00    -0.077 A 
ATOM     26  C9  P97 d   1     -22.059 -14.089 -24.032  0.00  0.00    -0.082 A 
ATOM     27  H7  P97 d   1     -20.585 -15.519 -23.386  0.00  0.00     0.084 H 
ATOM     28  C10 P97 d   1     -22.334 -12.926 -24.740  0.00  0.00    -0.083 A 
ATOM     29  H9  P97 d   1     -22.871 -14.609 -23.537  0.00  0.00     0.083 H 
ATOM     30  C11 P97 d   1     -21.277 -12.268 -25.365  0.00  0.00    -0.082 A 
ATOM     31  H11 P97 d   1     -23.345 -12.540 -24.805  0.00  0.00     0.083 H 
ATOM     32  C12 P97 d   1     -19.989 -12.793 -25.282  0.00  0.00    -0.077 A 
ATOM     33  H10 P97 d   1     -21.456 -11.351 -25.914  0.00  0.00     0.083 H 
ATOM     34  H8  P97 d   1     -19.180 -12.284 -25.794  0.00  0.00     0.084 H 
ENDBRANCH  21  24
ENDBRANCH  15  21
ENDBRANCH   1  15
BRANCH   4  35
ATOM     35  C14 P97 d   1     -16.805 -11.350 -20.304  0.00  0.00     0.240 C 
ATOM     36  O15 P97 d   1     -16.407 -12.290 -19.614  0.00  0.00    -0.271 OA
ATOM     37  N16 P97 d   1     -16.044 -10.274 -20.532  0.00  0.00    -0.355 N 
ATOM     38  H19 P97 d   1     -16.402  -9.552 -21.124  0.00  0.00     0.162 HD
BRANCH  37  39
ATOM     39  C17 P97 d   1     -14.708 -10.108 -19.952  0.00  0.00     0.022 C 
ATOM     40  H20 P97 d   1     -14.727 -10.452 -18.907  0.00  0.00     0.071 H 
ATOM     41  H21 P97 d   1     -14.436  -9.043 -19.982  0.00  0.00     0.071 H 
BRANCH  39  42
ATOM     42  C18 P97 d   1     -13.668 -10.901 -20.710  0.00  0.00    -0.001 A 
ATOM     43  C22 P97 d   1     -13.347 -12.202 -20.332  0.00  0.00     0.011 A 
ATOM     44  N23 P97 d   1     -12.423 -12.896 -21.010  0.00  0.00    -0.272 NA
ATOM     45  H22 P97 d   1     -13.848 -12.656 -19.484  0.00  0.00     0.115 H 
ATOM     46  C24 P97 d   1     -11.780 -12.377 -22.065  0.00  0.00     0.003 A 
ATOM     47  C25 P97 d   1     -12.056 -11.084 -22.484  0.00  0.00    -0.044 A 
ATOM     48  H23 P97 d   1     -11.042 -12.970 -22.593  0.00  0.00     0.114 H 
ATOM     49  C26 P97 d   1     -13.008 -10.361 -21.782  0.00  0.00     0.044 A 
ATOM     50  H24 P97 d   1     -11.543 -10.652 -23.335  0.00  0.00     0.088 H 
ATOM     51 CL27 P97 d   1     -13.397  -8.708 -22.306  0.00  0.00    -0.084 Cl
ENDBRANCH  39  42
ENDBRANCH  37  39
ENDBRANCH   4  35
TORSDOF 7
