REMARK  7 active torsions:
REMARK  status: ('A' for Active; 'I' for Inactive)
REMARK    1  A    between atoms: C8_2  and  N21_1 
REMARK    2  A    between atoms: C9_3  and  C8_2 
REMARK    3  A    between atoms: C8_2  and  C7_5 
REMARK       I    between atoms: N22_12  and  C9_3 
REMARK    4  A    between atoms: C7_5  and  C6_6 
REMARK    5  A    between atoms: C11_14  and  C10_13 
REMARK       I    between atoms: N23_25  and  C11_14 
REMARK    6  A    between atoms: C13_20  and  C12_19 
REMARK    7  A    between atoms: C12_19  and  N23_25 
ROOT
ATOM      1  C9  B01 d   1      17.283 -13.821  22.735  0.00  0.00     0.251 C 
ATOM      2  O25 B01 d   1      16.296 -13.228  23.154  0.00  0.00    -0.271 OA
ATOM      3  N22 B01 d   1      18.077 -13.308  21.795  0.00  0.00    -0.337 N 
ATOM      4  C10 B01 d   1      17.774 -11.988  21.233  0.00  0.00     0.091 C 
ATOM      5  C14 B01 d   1      18.809 -11.800  20.129  0.00  0.00    -0.036 C 
ATOM      6  C15 B01 d   1      19.506 -13.137  19.937  0.00  0.00    -0.048 C 
ATOM      7  C16 B01 d   1      19.271 -13.926  21.216  0.00  0.00    -0.001 C 
ATOM      8  H12 B01 d   1      17.871 -11.205  21.999  0.00  0.00     0.087 H 
ATOM      9  H13 B01 d   1      19.540 -11.033  20.424  0.00  0.00     0.036 H 
ATOM     10  H14 B01 d   1      18.314 -11.495  19.195  0.00  0.00     0.036 H 
ATOM     11  H15 B01 d   1      20.583 -12.986  19.775  0.00  0.00     0.035 H 
ATOM     12  H16 B01 d   1      19.077 -13.670  19.076  0.00  0.00     0.035 H 
ATOM     13  H17 B01 d   1      19.093 -14.989  20.994  0.00  0.00     0.064 H 
ATOM     14  H18 B01 d   1      20.130 -13.833  21.897  0.00  0.00     0.064 H 
ENDROOT
BRANCH   1  15
ATOM     15  C8  B01 d   1      17.630 -15.185  23.270  0.00  0.00     0.179 C 
ATOM     16  H4  B01 d   1      18.468 -15.605  22.694  0.00  0.00     0.099 H 
BRANCH  15  17
ATOM     17  N21 B01 d   1      16.467 -16.047  23.148  0.00  0.00    -0.066 N 
ATOM     18  H1  B01 d   1      16.689 -16.963  23.504  0.00  0.00     0.275 HD
ATOM     19  H2  B01 d   1      16.202 -16.118  22.178  0.00  0.00     0.275 HD
ATOM     20  H3  B01 d   1      15.703 -15.657  23.677  0.00  0.00     0.275 HD
ENDBRANCH  15  17
BRANCH  15  21
ATOM     21  C7  B01 d   1      18.020 -15.084  24.741  0.00  0.00    -0.006 C 
ATOM     22  H5  B01 d   1      17.954 -16.078  25.207  0.00  0.00     0.043 H 
ATOM     23  H6  B01 d   1      17.336 -14.392  25.255  0.00  0.00     0.043 H 
BRANCH  21  24
ATOM     24  C6  B01 d   1      19.438 -14.568  24.854  0.00  0.00    -0.056 A 
ATOM     25  C1  B01 d   1      20.448 -15.111  24.060  0.00  0.00    -0.077 A 
ATOM     26  C2  B01 d   1      21.754 -14.637  24.172  0.00  0.00    -0.082 A 
ATOM     27  H7  B01 d   1      20.217 -15.902  23.356  0.00  0.00     0.084 H 
ATOM     28  C3  B01 d   1      22.046 -13.624  25.077  0.00  0.00    -0.083 A 
ATOM     29  H9  B01 d   1      22.540 -15.057  23.555  0.00  0.00     0.083 H 
ATOM     30  C4  B01 d   1      21.038 -13.084  25.876  0.00  0.00    -0.082 A 
ATOM     31  H11 B01 d   1      23.061 -13.252  25.163  0.00  0.00     0.083 H 
ATOM     32  C5  B01 d   1      19.736 -13.558  25.765  0.00  0.00    -0.077 A 
ATOM     33  H10 B01 d   1      21.270 -12.296  26.583  0.00  0.00     0.083 H 
ATOM     34  H8  B01 d   1      18.953 -13.141  26.388  0.00  0.00     0.084 H 
ENDBRANCH  21  24
ENDBRANCH  15  21
ENDBRANCH   1  15
BRANCH   4  35
ATOM     35  C11 B01 d   1      16.383 -11.963  20.655  0.00  0.00     0.240 C 
ATOM     36  O26 B01 d   1      15.996 -12.911  19.989  0.00  0.00    -0.271 OA
ATOM     37  N23 B01 d   1      15.607 -10.901  20.908  0.00  0.00    -0.354 N 
ATOM     38  H24 B01 d   1      16.003 -10.174  21.469  0.00  0.00     0.162 HD
BRANCH  37  39
ATOM     39  C12 B01 d   1      14.233 -10.704  20.440  0.00  0.00     0.035 C 
ATOM     40  H19 B01 d   1      14.184  -9.776  19.852  0.00  0.00     0.073 H 
ATOM     41  H20 B01 d   1      13.945 -11.555  19.806  0.00  0.00     0.073 H 
BRANCH  39  42
ATOM     42  C13 B01 d   1      13.264 -10.604  21.602  0.00  0.00     0.053 A 
ATOM     43  C20 B01 d   1      13.259  -9.496  22.452  0.00  0.00    -0.036 A 
ATOM     44  C19 B01 d   1      12.362  -9.424  23.520  0.00  0.00     0.037 A 
ATOM     45  H23 B01 d   1      13.957  -8.685  22.281  0.00  0.00     0.089 H 
ATOM     46  C18 B01 d   1      11.478 -10.481  23.707  0.00  0.00    -0.045 A 
ATOM     47 CL27 B01 d   1      12.330  -7.999  24.640  0.00  0.00    -0.084 Cl
ATOM     48  C17 B01 d   1      11.522 -11.570  22.836  0.00  0.00     0.004 A 
ATOM     49  H22 B01 d   1      10.762 -10.459  24.521  0.00  0.00     0.088 H 
ATOM     50  N24 B01 d   1      12.397 -11.616  21.818  0.00  0.00    -0.264 NA
ATOM     51  H21 B01 d   1      10.836 -12.396  22.984  0.00  0.00     0.114 H 
ENDBRANCH  39  42
ENDBRANCH  37  39
ENDBRANCH   4  35
TORSDOF 7
