REMARK  7 active torsions:
REMARK  status: ('A' for Active; 'I' for Inactive)
REMARK    1  A    between atoms: N10_1  and  C8_2 
REMARK    2  A    between atoms: C8_2  and  C9_3 
REMARK    3  A    between atoms: C8_2  and  C7_5 
REMARK       I    between atoms: C9_3  and  N11_12 
REMARK    4  A    between atoms: C7_5  and  C4_6 
REMARK    5  A    between atoms: C13_13  and  C17_14 
REMARK       I    between atoms: C17_14  and  N18_19 
REMARK    6  A    between atoms: N18_19  and  C19_20 
REMARK    7  A    between atoms: C19_20  and  C20_21 
ROOT
ATOM      1  C9  B03 d   1      17.759 -13.315  22.749  0.00  0.00     0.251 C 
ATOM      2  O12 B03 d   1      16.825 -12.615  23.135  0.00  0.00    -0.271 OA
ATOM      3  N11 B03 d   1      18.604 -12.903  21.816  0.00  0.00    -0.337 N 
ATOM      4  C13 B03 d   1      18.409 -11.583  21.236  0.00  0.00     0.091 C 
ATOM      5  C15 B03 d   1      19.513 -11.436  20.192  0.00  0.00    -0.036 C 
ATOM      6  C16 B03 d   1      20.511 -12.546  20.471  0.00  0.00    -0.048 C 
ATOM      7  C14 B03 d   1      19.760 -13.616  21.256  0.00  0.00    -0.001 C 
ATOM      8  H12 B03 d   1      18.500 -10.807  22.010  0.00  0.00     0.087 H 
ATOM      9  H13 B03 d   1      19.999 -10.454  20.287  0.00  0.00     0.036 H 
ATOM     10  H14 B03 d   1      19.097 -11.543  19.179  0.00  0.00     0.036 H 
ATOM     11  H15 B03 d   1      21.353 -12.160  21.064  0.00  0.00     0.035 H 
ATOM     12  H16 B03 d   1      20.889 -12.963  19.526  0.00  0.00     0.035 H 
ATOM     13  H17 B03 d   1      19.433 -14.430  20.592  0.00  0.00     0.064 H 
ATOM     14  H18 B03 d   1      20.391 -14.027  22.058  0.00  0.00     0.064 H 
ENDROOT
BRANCH   1  15
ATOM     15  C8  B03 d   1      17.971 -14.684  23.340  0.00  0.00     0.179 C 
ATOM     16  H4  B03 d   1      18.695 -15.244  22.730  0.00  0.00     0.099 H 
BRANCH  15  17
ATOM     17  N10 B03 d   1      16.692 -15.367  23.360  0.00  0.00    -0.066 N 
ATOM     18  H1  B03 d   1      16.809 -16.288  23.753  0.00  0.00     0.275 HD
ATOM     19  H2  B03 d   1      16.338 -15.445  22.419  0.00  0.00     0.275 HD
ATOM     20  H3  B03 d   1      16.040 -14.843  23.922  0.00  0.00     0.275 HD
ENDBRANCH  15  17
BRANCH  15  21
ATOM     21  C7  B03 d   1      18.474 -14.587  24.785  0.00  0.00    -0.006 C 
ATOM     22  H5  B03 d   1      18.478 -15.592  25.232  0.00  0.00     0.043 H 
ATOM     23  H6  B03 d   1      17.799 -13.934  25.357  0.00  0.00     0.043 H 
BRANCH  21  24
ATOM     24  C4  B03 d   1      19.874 -14.018  24.837  0.00  0.00    -0.056 A 
ATOM     25  C3  B03 d   1      20.950 -14.684  24.254  0.00  0.00    -0.077 A 
ATOM     26  C2  B03 d   1      22.225 -14.127  24.310  0.00  0.00    -0.082 A 
ATOM     27  H7  B03 d   1      20.795 -15.635  23.757  0.00  0.00     0.084 H 
ATOM     28  C1  B03 d   1      22.435 -12.912  24.940  0.00  0.00    -0.083 A 
ATOM     29  H9  B03 d   1      23.060 -14.649  23.857  0.00  0.00     0.083 H 
ATOM     30  C6  B03 d   1      21.354 -12.248  25.518  0.00  0.00    -0.082 A 
ATOM     31  H11 B03 d   1      23.429 -12.482  24.983  0.00  0.00     0.083 H 
ATOM     32  C5  B03 d   1      20.085 -12.807  25.468  0.00  0.00    -0.077 A 
ATOM     33  H10 B03 d   1      21.505 -11.293  26.008  0.00  0.00     0.083 H 
ATOM     34  H8  B03 d   1      19.252 -12.289  25.928  0.00  0.00     0.084 H 
ENDBRANCH  21  24
ENDBRANCH  15  21
ENDBRANCH   1  15
BRANCH   4  35
ATOM     35  C17 B03 d   1      17.065 -11.474  20.570  0.00  0.00     0.240 C 
ATOM     36  O28 B03 d   1      16.719 -12.328  19.768  0.00  0.00    -0.271 OA
ATOM     37  N18 B03 d   1      16.273 -10.446  20.892  0.00  0.00    -0.354 N 
ATOM     38  H19 B03 d   1      16.612  -9.796  21.572  0.00  0.00     0.162 HD
BRANCH  37  39
ATOM     39  C19 B03 d   1      14.949 -10.200  20.325  0.00  0.00     0.035 C 
ATOM     40  H20 B03 d   1      14.697 -11.031  19.650  0.00  0.00     0.073 H 
ATOM     41  H21 B03 d   1      14.981  -9.260  19.754  0.00  0.00     0.073 H 
BRANCH  39  42
ATOM     42  C20 B03 d   1      13.865 -10.088  21.377  0.00  0.00     0.051 A 
ATOM     43  C22 B03 d   1      13.820  -9.002  22.245  0.00  0.00    -0.058 A 
ATOM     44  C23 B03 d   1      12.812  -8.929  23.199  0.00  0.00    -0.080 A 
ATOM     45  H22 B03 d   1      14.566  -8.218  22.178  0.00  0.00     0.086 H 
ATOM     46  C24 B03 d   1      11.864  -9.939  23.262  0.00  0.00    -0.066 A 
ATOM     47  H23 B03 d   1      12.767  -8.092  23.886  0.00  0.00     0.083 H 
ATOM     48  C25 B03 d   1      11.944 -11.003  22.372  0.00  0.00     0.003 A 
ATOM     49  H24 B03 d   1      11.069  -9.899  23.998  0.00  0.00     0.085 H 
ATOM     50  N21 B03 d   1      12.924 -11.054  21.461  0.00  0.00    -0.264 NA
ATOM     51  H25 B03 d   1      11.208 -11.797  22.416  0.00  0.00     0.114 H 
ENDBRANCH  39  42
ENDBRANCH  37  39
ENDBRANCH   4  35
TORSDOF 7
