REMARK  8 active torsions:
REMARK  status: ('A' for Active; 'I' for Inactive)
REMARK    1  A    between atoms: N4_1  and  C3_2 
REMARK    2  A    between atoms: C3_2  and  C5_3 
REMARK    3  A    between atoms: C3_2  and  C2_5 
REMARK       I    between atoms: C5_3  and  N6_12 
REMARK    4  A    between atoms: C2_5  and  C1_6 
REMARK    5  A    between atoms: C13_13  and  C14_14 
REMARK       I    between atoms: C14_14  and  N16_19 
REMARK    6  A    between atoms: N16_19  and  C17_20 
REMARK    7  A    between atoms: C17_20  and  C18_21 
REMARK    8  A    between atoms: N26_26  and  C27_27 
ROOT
ATOM      1  C5  B04 d   1      17.707 -13.492  22.693  0.00  0.00     0.251 C 
ATOM      2  O7  B04 d   1      16.781 -12.797  23.092  0.00  0.00    -0.271 OA
ATOM      3  N6  B04 d   1      18.514 -13.072  21.716  0.00  0.00    -0.337 N 
ATOM      4  C13 B04 d   1      18.263 -11.766  21.106  0.00  0.00     0.091 C 
ATOM      5  C19 B04 d   1      19.293 -11.662  19.988  0.00  0.00    -0.036 C 
ATOM      6  C20 B04 d   1      20.351 -12.694  20.315  0.00  0.00    -0.048 C 
ATOM      7  C21 B04 d   1      19.653 -13.779  21.124  0.00  0.00    -0.001 C 
ATOM      8  H12 B04 d   1      18.387 -10.951  21.835  0.00  0.00     0.087 H 
ATOM      9  H13 B04 d   1      19.733 -10.654  19.964  0.00  0.00     0.036 H 
ATOM     10  H14 B04 d   1      18.828 -11.883  19.016  0.00  0.00     0.036 H 
ATOM     11  H15 B04 d   1      21.158 -12.238  20.907  0.00  0.00     0.035 H 
ATOM     12  H16 B04 d   1      20.769 -13.118  19.390  0.00  0.00     0.035 H 
ATOM     13  H17 B04 d   1      19.314 -14.599  20.474  0.00  0.00     0.064 H 
ATOM     14  H18 B04 d   1      20.318 -14.179  21.904  0.00  0.00     0.064 H 
ENDROOT
BRANCH   1  15
ATOM     15  C3  B04 d   1      17.955 -14.847  23.299  0.00  0.00     0.179 C 
ATOM     16  H4  B04 d   1      18.703 -15.382  22.696  0.00  0.00     0.099 H 
BRANCH  15  17
ATOM     17  N4  B04 d   1      16.696 -15.569  23.292  0.00  0.00    -0.066 N 
ATOM     18  H1  B04 d   1      16.831 -16.484  23.693  0.00  0.00     0.275 HD
ATOM     19  H2  B04 d   1      16.368 -15.663  22.343  0.00  0.00     0.275 HD
ATOM     20  H3  B04 d   1      16.015 -15.061  23.834  0.00  0.00     0.275 HD
ENDBRANCH  15  17
BRANCH  15  21
ATOM     21  C2  B04 d   1      18.440 -14.765  24.743  0.00  0.00    -0.006 C 
ATOM     22  H5  B04 d   1      18.434 -15.773  25.184  0.00  0.00     0.043 H 
ATOM     23  H6  B04 d   1      17.765 -14.111  25.314  0.00  0.00     0.043 H 
BRANCH  21  24
ATOM     24  C1  B04 d   1      19.839 -14.206  24.803  0.00  0.00    -0.056 A 
ATOM     25  C8  B04 d   1      20.913 -14.886  24.231  0.00  0.00    -0.077 A 
ATOM     26  C9  B04 d   1      22.194 -14.348  24.312  0.00  0.00    -0.082 A 
ATOM     27  H7  B04 d   1      20.751 -15.831  23.725  0.00  0.00     0.084 H 
ATOM     28  C10 B04 d   1      22.397 -13.135  24.961  0.00  0.00    -0.083 A 
ATOM     29  H9  B04 d   1      23.032 -14.874  23.870  0.00  0.00     0.083 H 
ATOM     30  C11 B04 d   1      21.322 -12.466  25.534  0.00  0.00    -0.082 A 
ATOM     31  H11 B04 d   1      23.393 -12.711  25.020  0.00  0.00     0.083 H 
ATOM     32  C12 B04 d   1      20.044 -13.002  25.460  0.00  0.00    -0.077 A 
ATOM     33  H10 B04 d   1      21.483 -11.521  26.041  0.00  0.00     0.083 H 
ATOM     34  H8  B04 d   1      19.209 -12.481  25.914  0.00  0.00     0.084 H 
ENDBRANCH  21  24
ENDBRANCH  15  21
ENDBRANCH   1  15
BRANCH   4  35
ATOM     35  C14 B04 d   1      16.866 -11.752  20.541  0.00  0.00     0.240 C 
ATOM     36  O15 B04 d   1      16.459 -12.710  19.899  0.00  0.00    -0.271 OA
ATOM     37  N16 B04 d   1      16.090 -10.693  20.780  0.00  0.00    -0.354 N 
ATOM     38  H19 B04 d   1      16.474  -9.953  21.332  0.00  0.00     0.162 HD
BRANCH  37  39
ATOM     39  C17 B04 d   1      14.721 -10.533  20.295  0.00  0.00     0.033 C 
ATOM     40  H20 B04 d   1      14.455 -11.410  19.687  0.00  0.00     0.073 H 
ATOM     41  H21 B04 d   1      14.668  -9.626  19.674  0.00  0.00     0.073 H 
BRANCH  39  42
ATOM     42  C18 B04 d   1      13.729 -10.407  21.431  0.00  0.00     0.028 A 
ATOM     43  C22 B04 d   1      13.517  -9.173  22.041  0.00  0.00    -0.059 A 
ATOM     44  C23 B04 d   1      12.609  -9.077  23.086  0.00  0.00    -0.080 A 
ATOM     45  H22 B04 d   1      14.056  -8.296  21.703  0.00  0.00     0.086 H 
ATOM     46  C24 B04 d   1      11.920 -10.216  23.487  0.00  0.00    -0.068 A 
ATOM     47  H23 B04 d   1      12.440  -8.128  23.582  0.00  0.00     0.083 H 
ATOM     48  C25 B04 d   1      12.169 -11.419  22.838  0.00  0.00    -0.021 A 
ATOM     49  H24 B04 d   1      11.199 -10.166  24.295  0.00  0.00     0.085 H 
ATOM     50  N26 B04 d   1      13.057 -11.494  21.838  0.00  0.00    -0.363 N 
ATOM     51  H25 B04 d   1      11.636 -12.311  23.146  0.00  0.00     0.111 H 
BRANCH  50  52
ATOM     52  C27 B04 d   1      13.292 -12.783  21.179  0.00  0.00    -0.015 C 
ATOM     53  H26 B04 d   1      14.046 -12.658  20.388  0.00  0.00     0.057 H 
ATOM     54  H27 B04 d   1      12.352 -13.145  20.736  0.00  0.00     0.057 H 
ATOM     55  H28 B04 d   1      13.653 -13.512  21.919  0.00  0.00     0.057 H 
ENDBRANCH  50  52
ENDBRANCH  39  42
ENDBRANCH  37  39
ENDBRANCH   4  35
TORSDOF 8
