REMARK  20 active torsions:
REMARK  status: ('A' for Active; 'I' for Inactive)
REMARK    1  A    between atoms: C10_4  and  C12_5 
REMARK    2  A    between atoms: N7_8  and  C6_9 
REMARK    3  A    between atoms: C1_14  and  C13_15 
REMARK    4  A    between atoms: C13_15  and  O14_17 
REMARK    5  A    between atoms: O14_17  and  C15_18 
REMARK    6  A    between atoms: C15_18  and  C16_19 
REMARK    7  A    between atoms: C19_22  and  O19_23 
REMARK    8  A    between atoms: O19_23  and  C22_24 
REMARK    9  A    between atoms: C18_25  and  C30_32 
REMARK   10  A    between atoms: N23_28  and  C24_29 
REMARK   11  A    between atoms: C24_29  and  C25_30 
REMARK   12  A    between atoms: C35_35  and  O35_36 
REMARK   13  A    between atoms: O35_36  and  C37_37 
REMARK   14  A    between atoms: C38_40  and  O38_41 
REMARK   15  A    between atoms: O38_41  and  C39_42 
REMARK   16  A    between atoms: C32_43  and  O32_44 
REMARK   17  A    between atoms: C32_43  and  C27_45 
REMARK   18  A    between atoms: C27_45  and  O27_46 
REMARK   19  A    between atoms: C28_47  and  O28_48 
REMARK   20  A    between atoms: O28_48  and  C29_49 
ROOT
ATOM      1  C16 MLK d   1     -38.276  -1.761 -19.476  0.00  0.00     0.013 C 
ATOM      2  C21 MLK d   1     -39.599  -1.217 -18.937  0.00  0.00    -0.052 C 
ATOM      3  C20 MLK d   1     -39.478  -0.741 -17.485  0.00  0.00    -0.039 C 
ATOM      4  C19 MLK d   1     -38.198   0.038 -17.237  0.00  0.00     0.048 C 
ATOM      5  C18 MLK d   1     -36.943  -0.721 -17.631  0.00  0.00     0.029 C 
ATOM      6  C17 MLK d   1     -37.290  -2.065 -18.314  0.00  0.00    -0.003 C 
ATOM      7  C26 MLK d   1     -36.072  -0.061 -18.750  0.00  0.00     0.149 C 
ATOM      8  N23 MLK d   1     -36.967   0.327 -19.837  0.00  0.00    -0.062 N 
ATOM      9  C23 MLK d   1     -37.698  -0.752 -20.476  0.00  0.00     0.093 C 
ATOM     10  C27 MLK d   1     -35.089  -1.233 -19.064  0.00  0.00     0.145 C 
ATOM     11  C28 MLK d   1     -36.005  -2.488 -19.077  0.00  0.00     0.077 C 
ATOM     12  H13 MLK d   1     -40.357  -2.013 -18.987  0.00  0.00     0.034 H 
ATOM     13  H14 MLK d   1     -39.915  -0.369 -19.563  0.00  0.00     0.034 H 
ATOM     14  H15 MLK d   1     -39.491  -1.619 -16.823  0.00  0.00     0.036 H 
ATOM     15  H16 MLK d   1     -40.336  -0.094 -17.253  0.00  0.00     0.036 H 
ATOM     16  H17 MLK d   1     -38.126   0.229 -16.156  0.00  0.00     0.084 H 
ATOM     17  H21 MLK d   1     -37.661  -2.822 -17.607  0.00  0.00     0.046 H 
ATOM     18  H22 MLK d   1     -35.525   0.824 -18.393  0.00  0.00     0.091 H 
ATOM     19  H23 MLK d   1     -37.673   0.899 -19.400  0.00  0.00     0.280 HD
ATOM     20  H29 MLK d   1     -38.527  -0.319 -21.055  0.00  0.00     0.077 H 
ATOM     21  H30 MLK d   1     -37.015  -1.284 -21.155  0.00  0.00     0.077 H 
ATOM     22  H48 MLK d   1     -36.263  -2.734 -20.118  0.00  0.00     0.088 H 
ENDROOT
BRANCH   1  23
ATOM     23  C15 MLK d   1     -38.548  -3.044 -20.256  0.00  0.00     0.038 C 
ATOM     24  H11 MLK d   1     -38.949  -2.797 -21.250  0.00  0.00     0.076 H 
ATOM     25  H12 MLK d   1     -37.615  -3.616 -20.368  0.00  0.00     0.076 H 
BRANCH  23  26
ATOM     26  O14 MLK d   1     -39.518  -3.827 -19.516  0.00  0.00    -0.317 OA
BRANCH  26  27
ATOM     27  C13 MLK d   1     -39.684  -5.130 -19.815  0.00  0.00     0.295 C 
ATOM     28  O13 MLK d   1     -39.254  -5.566 -20.869  0.00  0.00    -0.259 OA
BRANCH  27  29
ATOM     29  C1  MLK d   1     -40.355  -6.012 -18.833  0.00  0.00     0.066 A 
ATOM     30  C6  MLK d   1     -40.365  -7.415 -18.980  0.00  0.00     0.061 A 
ATOM     31  C5  MLK d   1     -41.010  -8.182 -18.012  0.00  0.00    -0.056 A 
ATOM     32  C4  MLK d   1     -41.626  -7.584 -16.922  0.00  0.00    -0.081 A 
ATOM     33  H7  MLK d   1     -41.031  -9.261 -18.112  0.00  0.00     0.087 H 
ATOM     34  C3  MLK d   1     -41.617  -6.206 -16.776  0.00  0.00    -0.082 A 
ATOM     35  H8  MLK d   1     -42.118  -8.200 -16.178  0.00  0.00     0.083 H 
ATOM     36  C2  MLK d   1     -40.984  -5.427 -17.723  0.00  0.00    -0.065 A 
ATOM     37  H9  MLK d   1     -42.103  -5.744 -15.925  0.00  0.00     0.083 H 
ATOM     38  H10 MLK d   1     -40.972  -4.349 -17.608  0.00  0.00     0.085 H 
BRANCH  30  39
ATOM     39  N7  MLK d   1     -39.755  -8.052 -20.075  0.00  0.00    -0.251 N 
ATOM     40  C8  MLK d   1     -38.443  -8.307 -20.151  0.00  0.00     0.232 C 
ATOM     41  O8  MLK d   1     -37.613  -7.875 -19.383  0.00  0.00    -0.273 OA
ATOM     42  C9  MLK d   1     -38.166  -9.205 -21.348  0.00  0.00     0.021 C 
ATOM     43  C10 MLK d   1     -39.517  -9.246 -22.083  0.00  0.00     0.029 C 
ATOM     44  H1  MLK d   1     -37.864 -10.212 -21.023  0.00  0.00     0.048 H 
ATOM     45  H2  MLK d   1     -37.382  -8.776 -21.989  0.00  0.00     0.048 H 
ATOM     46  C11 MLK d   1     -40.445  -8.480 -21.149  0.00  0.00     0.235 C 
ATOM     47  H3  MLK d   1     -39.864 -10.281 -22.217  0.00  0.00     0.054 H 
ATOM     48  O11 MLK d   1     -41.632  -8.288 -21.331  0.00  0.00    -0.272 OA
BRANCH  43  49
ATOM     49  C12 MLK d   1     -39.404  -8.566 -23.451  0.00  0.00    -0.064 C 
ATOM     50  H4  MLK d   1     -40.378  -8.605 -23.961  0.00  0.00     0.028 H 
ATOM     51  H5  MLK d   1     -38.651  -9.088 -24.059  0.00  0.00     0.028 H 
ATOM     52  H6  MLK d   1     -39.103  -7.517 -23.315  0.00  0.00     0.028 H 
ENDBRANCH  43  49
ENDBRANCH  30  39
ENDBRANCH  27  29
ENDBRANCH  26  27
ENDBRANCH  23  26
ENDBRANCH   1  23
BRANCH   5  53
ATOM     53  C30 MLK d   1     -36.073  -0.883 -16.376  0.00  0.00    -0.033 C 
ATOM     54  C33 MLK d   1     -35.630   0.467 -15.781  0.00  0.00    -0.052 C 
ATOM     55  C34 MLK d   1     -34.119   0.330 -15.451  0.00  0.00    -0.003 C 
ATOM     56  H32 MLK d   1     -36.200   0.684 -14.866  0.00  0.00     0.034 H 
ATOM     57  H33 MLK d   1     -35.788   1.274 -16.512  0.00  0.00     0.034 H 
ATOM     58  C35 MLK d   1     -33.362   0.893 -16.676  0.00  0.00     0.046 C 
ATOM     59  C38 MLK d   1     -33.881  -1.201 -15.368  0.00  0.00     0.050 C 
ATOM     60  H34 MLK d   1     -33.836   0.846 -14.522  0.00  0.00     0.047 H 
ATOM     61  C36 MLK d   1     -33.294  -0.028 -17.889  0.00  0.00    -0.008 C 
ATOM     62  H35 MLK d   1     -33.951   1.762 -17.006  0.00  0.00     0.084 H 
ATOM     63  C32 MLK d   1     -34.067  -1.340 -17.883  0.00  0.00     0.102 C 
ATOM     64  H39 MLK d   1     -32.234  -0.283 -18.038  0.00  0.00     0.041 H 
ATOM     65  H40 MLK d   1     -33.656   0.552 -18.751  0.00  0.00     0.041 H 
ATOM     66  C31 MLK d   1     -34.765  -1.691 -16.568  0.00  0.00     0.009 C 
ATOM     67  H41 MLK d   1     -34.954  -2.773 -16.521  0.00  0.00     0.049 H 
ATOM     68  H42 MLK d   1     -34.269  -1.607 -14.422  0.00  0.00     0.084 H 
ATOM     69  H31 MLK d   1     -36.691  -1.408 -15.632  0.00  0.00     0.042 H 
BRANCH  58  70
ATOM     70  O35 MLK d   1     -32.075   1.404 -16.318  0.00  0.00    -0.390 OA
BRANCH  70  71
ATOM     71  C37 MLK d   1     -32.288   2.783 -16.004  0.00  0.00     0.004 C 
ATOM     72  H36 MLK d   1     -31.332   3.245 -15.717  0.00  0.00     0.066 H 
ATOM     73  H37 MLK d   1     -32.999   2.863 -15.169  0.00  0.00     0.066 H 
ATOM     74  H38 MLK d   1     -32.696   3.301 -16.884  0.00  0.00     0.066 H 
ENDBRANCH  70  71
ENDBRANCH  58  70
BRANCH  63  75
ATOM     75  O32 MLK d   1     -33.139  -2.407 -18.188  0.00  0.00    -0.386 OA
ATOM     76  H46 MLK d   1     -33.615  -3.224 -18.274  0.00  0.00     0.210 HD
ENDBRANCH  63  75
BRANCH  59  77
ATOM     77  O38 MLK d   1     -32.493  -1.531 -15.452  0.00  0.00    -0.390 OA
BRANCH  77  78
ATOM     78  C39 MLK d   1     -32.275  -2.843 -14.926  0.00  0.00     0.004 C 
ATOM     79  H43 MLK d   1     -31.206  -3.092 -14.993  0.00  0.00     0.066 H 
ATOM     80  H44 MLK d   1     -32.858  -3.573 -15.507  0.00  0.00     0.066 H 
ATOM     81  H45 MLK d   1     -32.593  -2.874 -13.873  0.00  0.00     0.066 H 
ENDBRANCH  77  78
ENDBRANCH  59  77
ENDBRANCH   5  53
BRANCH  11  82
ATOM     82  O28 MLK d   1     -35.398  -3.633 -18.499  0.00  0.00    -0.387 OA
BRANCH  82  83
ATOM     83  C29 MLK d   1     -36.108  -4.800 -18.917  0.00  0.00     0.005 C 
ATOM     84  H49 MLK d   1     -35.642  -5.692 -18.472  0.00  0.00     0.066 H 
ATOM     85  H50 MLK d   1     -36.074  -4.877 -20.014  0.00  0.00     0.066 H 
ATOM     86  H51 MLK d   1     -37.155  -4.730 -18.587  0.00  0.00     0.066 H 
ENDBRANCH  82  83
ENDBRANCH  11  82
BRANCH   8  87
ATOM     87  C24 MLK d   1     -36.310   1.188 -20.820  0.00  0.00     0.081 C 
ATOM     88  H24 MLK d   1     -36.999   1.378 -21.656  0.00  0.00     0.075 H 
ATOM     89  H25 MLK d   1     -35.406   0.687 -21.197  0.00  0.00     0.075 H 
BRANCH  87  90
ATOM     90  C25 MLK d   1     -35.920   2.517 -20.174  0.00  0.00    -0.053 C 
ATOM     91  H26 MLK d   1     -35.427   3.157 -20.921  0.00  0.00     0.029 H 
ATOM     92  H27 MLK d   1     -35.230   2.330 -19.338  0.00  0.00     0.029 H 
ATOM     93  H28 MLK d   1     -36.823   3.021 -19.798  0.00  0.00     0.029 H 
ENDBRANCH  87  90
ENDBRANCH   8  87
BRANCH   4  94
ATOM     94  O19 MLK d   1     -38.321   1.309 -17.902  0.00  0.00    -0.390 OA
BRANCH  94  95
ATOM     95  C22 MLK d   1     -39.096   2.182 -17.066  0.00  0.00     0.004 C 
ATOM     96  H18 MLK d   1     -39.202   3.161 -17.557  0.00  0.00     0.066 H 
ATOM     97  H19 MLK d   1     -38.588   2.310 -16.099  0.00  0.00     0.066 H 
ATOM     98  H20 MLK d   1     -40.092   1.744 -16.902  0.00  0.00     0.066 H 
ENDBRANCH  94  95
ENDBRANCH   4  94
BRANCH  10  99
ATOM     99  O27 MLK d   1     -34.407  -1.109 -20.327  0.00  0.00    -0.382 OA
ATOM    100  H47 MLK d   1     -33.859  -1.872 -20.466  0.00  0.00     0.210 HD
ENDBRANCH  10  99
TORSDOF 20
