REMARK  14 active torsions:
REMARK  status: ('A' for Active; 'I' for Inactive)
REMARK    1  A    between atoms: CA_4  and  C_1 
REMARK    2  A    between atoms: CA_4  and  N_2 
REMARK       I    between atoms: N_2  and  CAY_25 
REMARK    3  A    between atoms: CB_5  and  CA_4 
REMARK    4  A    between atoms: CAN_17  and  CB_5 
REMARK    5  A    between atoms: SAV_23  and  CAA_6 
REMARK    6  A    between atoms: CAM_16  and  CAN_17 
REMARK    7  A    between atoms: CAO_18  and  CAM_16 
REMARK    8  A    between atoms: NAS_21  and  CAO_18 
REMARK    9  A    between atoms: CAR_20  and  CAP_19 
REMARK   10  A    between atoms: CAP_19  and  SAV_23 
REMARK   11  A    between atoms: CBD_29  and  CAR_20 
REMARK       I    between atoms: CAZ_26  and  NAS_21 
REMARK       I    between atoms: CAY_25  and  NAU_22 
REMARK   12  A    between atoms: NAU_22  and  CBD_29 
REMARK   13  A    between atoms: CBD_29  and  CAX_24 
REMARK   14  A    between atoms: CAZ_26  and  CBB_28 
ROOT
ATOM      1  CA  JRG d   1      19.973  45.001  44.433  0.00  0.00     0.098 C 
ATOM      2  H2  JRG d   1      20.086  43.908  44.481  0.00  0.00     0.089 H 
ENDROOT
BRANCH   1   3
ATOM      3  C   JRG d   1      20.141  45.633  45.817  0.00  0.00     0.196 C 
ATOM      4  O   JRG d   1      19.626  46.778  46.057  0.00  0.00    -0.646 OA
ATOM      5  OXT JRG d   1      20.752  44.909  46.627  0.00  0.00    -0.646 OA
ENDBRANCH   1   3
BRANCH   1   6
ATOM      6  N   JRG d   1      18.658  45.396  43.946  0.00  0.00    -0.329 N 
ATOM      7  CAY JRG d   1      17.970  44.691  43.049  0.00  0.00     0.317 C 
ATOM      8  OAD JRG d   1      18.429  43.655  42.561  0.00  0.00    -0.247 OA
ATOM      9  NAU JRG d   1      16.746  45.125  42.714  0.00  0.00    -0.329 N 
ATOM     10  H23 JRG d   1      16.295  45.849  43.236  0.00  0.00     0.165 HD
ATOM     11  H1  JRG d   1      18.252  46.237  44.302  0.00  0.00     0.165 HD
BRANCH   9  12
ATOM     12  CBD JRG d   1      16.090  44.504  41.559  0.00  0.00     0.098 C 
ATOM     13  H24 JRG d   1      15.944  43.432  41.757  0.00  0.00     0.089 H 
BRANCH  12  14
ATOM     14  CAR JRG d   1      14.738  45.140  41.190  0.00  0.00    -0.029 C 
ATOM     15  H20 JRG d   1      14.426  44.767  40.203  0.00  0.00     0.037 H 
ATOM     16  H21 JRG d   1      13.991  44.852  41.944  0.00  0.00     0.037 H 
BRANCH  14  17
ATOM     17  CAP JRG d   1      14.823  46.616  41.139  0.00  0.00    -0.021 C 
ATOM     18  H18 JRG d   1      15.688  46.922  40.533  0.00  0.00     0.049 H 
ATOM     19  H19 JRG d   1      14.926  47.022  42.156  0.00  0.00     0.049 H 
BRANCH  17  20
ATOM     20  SAV JRG d   1      13.273  47.228  40.373  0.00  0.00    -0.173 SA
BRANCH  20  21
ATOM     21  CAA JRG d   1      13.915  48.847  40.176  0.00  0.00    -0.035 C 
ATOM     22  H5  JRG d   1      13.155  49.488  39.706  0.00  0.00     0.041 H 
ATOM     23  H6  JRG d   1      14.810  48.811  39.537  0.00  0.00     0.041 H 
ATOM     24  H7  JRG d   1      14.184  49.257  41.161  0.00  0.00     0.041 H 
ENDBRANCH  20  21
ENDBRANCH  17  20
ENDBRANCH  14  17
ENDBRANCH  12  14
BRANCH  12  25
ATOM     25  CAX JRG d   1      17.041  44.716  40.337  0.00  0.00     0.196 C 
ATOM     26  OAC JRG d   1      17.888  45.637  40.395  0.00  0.00    -0.646 OA
ATOM     27  OAG JRG d   1      16.949  43.916  39.381  0.00  0.00    -0.646 OA
ENDBRANCH  12  25
ENDBRANCH   9  12
ENDBRANCH   1   6
BRANCH   1  28
ATOM     28  CB  JRG d   1      20.984  45.636  43.427  0.00  0.00    -0.036 C 
ATOM     29  H3  JRG d   1      20.917  46.731  43.512  0.00  0.00     0.036 H 
ATOM     30  H4  JRG d   1      20.701  45.329  42.409  0.00  0.00     0.036 H 
BRANCH  28  31
ATOM     31  CAN JRG d   1      22.445  45.217  43.673  0.00  0.00    -0.061 C 
ATOM     32  H14 JRG d   1      22.534  44.129  43.538  0.00  0.00     0.033 H 
ATOM     33  H15 JRG d   1      22.726  45.483  44.703  0.00  0.00     0.033 H 
BRANCH  31  34
ATOM     34  CAM JRG d   1      23.420  45.941  42.670  0.00  0.00    -0.050 C 
ATOM     35  H12 JRG d   1      23.159  45.612  41.653  0.00  0.00     0.035 H 
ATOM     36  H13 JRG d   1      24.445  45.619  42.908  0.00  0.00     0.035 H 
BRANCH  34  37
ATOM     37  CAO JRG d   1      23.397  47.475  42.685  0.00  0.00    -0.004 C 
ATOM     38  H16 JRG d   1      22.408  47.828  42.359  0.00  0.00     0.064 H 
ATOM     39  H17 JRG d   1      24.168  47.858  42.000  0.00  0.00     0.064 H 
BRANCH  37  40
ATOM     40  NAS JRG d   1      23.668  47.968  44.055  0.00  0.00    -0.357 N 
ATOM     41  CAZ JRG d   1      23.104  49.051  44.591  0.00  0.00     0.251 C 
ATOM     42  OAE JRG d   1      22.255  49.667  43.938  0.00  0.00    -0.268 OA
ATOM     43  H22 JRG d   1      24.317  47.454  44.616  0.00  0.00     0.162 HD
BRANCH  41  44
ATOM     44  CBB JRG d   1      23.295  49.374  46.136  0.00  0.00     0.032 A 
ATOM     45  CAK JRG d   1      23.252  50.681  46.709  0.00  0.00    -0.067 A 
ATOM     46  CAI JRG d   1      23.380  50.913  48.110  0.00  0.00    -0.066 A 
ATOM     47  H10 JRG d   1      23.116  51.532  46.052  0.00  0.00     0.085 H 
ATOM     48  CBA JRG d   1      23.495  49.938  49.152  0.00  0.00     0.006 A 
ATOM     49  H8  JRG d   1      23.392  51.951  48.423  0.00  0.00     0.085 H 
ATOM     50  IAH JRG d   1      23.637  50.304  51.377  0.00  0.00    -0.045 I 
ATOM     51  CAJ JRG d   1      23.502  48.657  48.538  0.00  0.00    -0.066 A 
ATOM     52  CAL JRG d   1      23.401  48.383  47.128  0.00  0.00    -0.067 A 
ATOM     53  H9  JRG d   1      23.592  47.801  49.196  0.00  0.00     0.085 H 
ATOM     54  H11 JRG d   1      23.407  47.346  46.811  0.00  0.00     0.085 H 
ENDBRANCH  41  44
ENDBRANCH  37  40
ENDBRANCH  34  37
ENDBRANCH  31  34
ENDBRANCH  28  31
ENDBRANCH   1  28
TORSDOF 14
