REMARK WARNING: 32 MAX_TORS EXCEEDED!!!
REMARK  33 active torsions:
REMARK  status: ('A' for Active; 'I' for Inactive)
REMARK    1  A    between atoms: C31_1  and  O9_3 
REMARK       I    between atoms: N4_11  and  C31_1 
REMARK    2  A    between atoms: O9_3  and  CA_4 
REMARK    3  A    between atoms: CA_4  and  C_5 
REMARK    4  A    between atoms: C18_12  and  N4_11 
REMARK    5  A    between atoms: C19_13  and  C18_12 
REMARK    6  A    between atoms: C18_12  and  C20_15 
REMARK       I    between atoms: N2_16  and  C19_13 
REMARK    7  A    between atoms: C10_17  and  N2_16 
REMARK    8  A    between atoms: C11_18  and  C10_17 
REMARK    9  A    between atoms: C10_17  and  C12_20 
REMARK       I    between atoms: N1_26  and  C11_18 
REMARK   10  A    between atoms: C12_20  and  CG2_21 
REMARK   11  A    between atoms: C12_20  and  CG1_22 
REMARK   12  A    between atoms: C2_23  and  O1_24 
REMARK   13  A    between atoms: C2_23  and  C1_25 
REMARK   14  A    between atoms: C52_36  and  C2_23 
REMARK   15  A    between atoms: C1_25  and  N1_26 
REMARK   16  A    between atoms: C1_25  and  C3_27 
REMARK   17  A    between atoms: C3_27  and  C4_28 
REMARK   18  A    between atoms: N51_34  and  C51_35 
REMARK   19  A    between atoms: C51_35  and  C52_36 
REMARK   20  A    between atoms: C51_35  and  C53_38 
REMARK   21  A    between atoms: C52_36  and  O51_37 
REMARK   22  A    between atoms: C53_38  and  C54_39 
REMARK   23  A    between atoms: N52_45  and  C60_46 
REMARK   24  A    between atoms: C60_46  and  C61_47 
REMARK   25  A    between atoms: C60_46  and  C62_49 
REMARK   26  A    between atoms: C62_49  and  CG6_50 
REMARK   27  A    between atoms: C62_49  and  CG5_51 
REMARK   28  A    between atoms: C68_53  and  N54_52 
REMARK       I    between atoms: N54_52  and  C81_57 
REMARK   29  A    between atoms: C68_53  and  C69_54 
REMARK   30  A    between atoms: C68_53  and  C70_56 
REMARK   31  A    between atoms: C81_57  and  O59_59 
REMARK   32  A    between atoms: O59_59  and  CA5_60 
REMARK   33  A    between atoms: CA5_60  and  C50_61 
ROOT
ATOM      1  C2  3TL d   1      -2.573   2.542   9.243  0.00  0.00     0.082 C 
ATOM      2  H22 3TL d   1      -2.760   3.186   8.371  0.00  0.00     0.090 H 
ENDROOT
BRANCH   1   3
ATOM      3  O1  3TL d   1      -1.382   1.816   9.023  0.00  0.00    -0.391 OA
ATOM      4  H23 3TL d   1      -1.497   1.240   8.276  0.00  0.00     0.210 HD
ENDBRANCH   1   3
BRANCH   1   5
ATOM      5  C1  3TL d   1      -2.337   3.428  10.423  0.00  0.00     0.043 C 
ATOM      6  H24 3TL d   1      -3.214   4.070  10.592  0.00  0.00     0.077 H 
BRANCH   5   7
ATOM      7  N1  3TL d   1      -2.143   2.590  11.646  0.00  0.00    -0.352 N 
ATOM      8  C11 3TL d   1      -2.802   2.818  12.766  0.00  0.00     0.241 C 
ATOM      9  O2  3TL d   1      -3.716   3.724  12.837  0.00  0.00    -0.271 OA
ATOM     10  H25 3TL d   1      -1.492   1.831  11.614  0.00  0.00     0.163 HD
BRANCH   8  11
ATOM     11  C10 3TL d   1      -2.620   2.003  14.003  0.00  0.00     0.092 C 
ATOM     12  H14 3TL d   1      -2.208   1.032  13.691  0.00  0.00     0.088 H 
BRANCH  11  13
ATOM     13  N2  3TL d   1      -1.629   2.668  14.837  0.00  0.00    -0.346 N 
ATOM     14  C19 3TL d   1      -0.484   2.211  15.205  0.00  0.00     0.240 C 
ATOM     15  O4  3TL d   1      -0.009   1.067  14.812  0.00  0.00    -0.271 OA
ATOM     16  H13 3TL d   1      -1.865   3.584  15.161  0.00  0.00     0.163 HD
BRANCH  14  17
ATOM     17  C18 3TL d   1       0.356   3.044  16.139  0.00  0.00     0.088 C 
ATOM     18  H9  3TL d   1      -0.116   4.020  16.326  0.00  0.00     0.087 H 
BRANCH  17  19
ATOM     19  N4  3TL d   1       0.548   2.368  17.272  0.00  0.00    -0.324 N 
ATOM     20  C31 3TL d   1      -0.255   2.482  18.319  0.00  0.00     0.361 C 
ATOM     21  O8  3TL d   1      -1.073   3.360  18.502  0.00  0.00    -0.238 OA
ATOM     22  H8  3TL d   1       1.331   1.749  17.334  0.00  0.00     0.165 HD
BRANCH  20  23
ATOM     23  O9  3TL d   1       0.050   1.738  19.396  0.00  0.00    -0.299 OA
BRANCH  23  24
ATOM     24  CA  3TL d   1      -0.968   1.067  20.175  0.00  0.00     0.054 C 
ATOM     25  H1  3TL d   1      -1.431   0.285  19.555  0.00  0.00     0.082 H 
ATOM     26  H2  3TL d   1      -1.732   1.802  20.470  0.00  0.00     0.082 H 
BRANCH  24  27
ATOM     27  C   3TL d   1      -0.404   0.434  21.410  0.00  0.00    -0.034 A 
ATOM     28  C13 3TL d   1      -1.259  -0.013  22.411  0.00  0.00    -0.075 A 
ATOM     29  C14 3TL d   1      -0.713  -0.599  23.568  0.00  0.00    -0.082 A 
ATOM     30  H3  3TL d   1      -2.333   0.089  22.302  0.00  0.00     0.084 H 
ATOM     31  C15 3TL d   1       0.668  -0.745  23.742  0.00  0.00    -0.083 A 
ATOM     32  H4  3TL d   1      -1.381  -0.947  24.347  0.00  0.00     0.083 H 
ATOM     33  C16 3TL d   1       1.527  -0.295  22.737  0.00  0.00    -0.082 A 
ATOM     34  H5  3TL d   1       1.065  -1.200  24.642  0.00  0.00     0.083 H 
ATOM     35  C17 3TL d   1       0.969   0.281  21.600  0.00  0.00    -0.075 A 
ATOM     36  H6  3TL d   1       2.602  -0.392  22.840  0.00  0.00     0.083 H 
ATOM     37  H7  3TL d   1       1.637   0.629  20.820  0.00  0.00     0.084 H 
ENDBRANCH  24  27
ENDBRANCH  23  24
ENDBRANCH  20  23
ENDBRANCH  17  19
BRANCH  17  38
ATOM     38  C20 3TL d   1       1.723   3.196  15.535  0.00  0.00    -0.049 C 
ATOM     39  H10 3TL d   1       1.646   3.749  14.588  0.00  0.00     0.030 H 
ATOM     40  H11 3TL d   1       2.152   2.201  15.345  0.00  0.00     0.030 H 
ATOM     41  H12 3TL d   1       2.372   3.748  16.230  0.00  0.00     0.030 H 
ENDBRANCH  17  38
ENDBRANCH  14  17
ENDBRANCH  11  13
BRANCH  11  42
ATOM     42  C12 3TL d   1      -3.875   1.702  14.800  0.00  0.00    -0.033 C 
ATOM     43  H15 3TL d   1      -4.296   2.668  15.116  0.00  0.00     0.042 H 
BRANCH  42  44
ATOM     44  CG2 3TL d   1      -3.612   0.880  16.080  0.00  0.00    -0.071 C 
ATOM     45  H16 3TL d   1      -4.563   0.702  16.603  0.00  0.00     0.028 H 
ATOM     46  H17 3TL d   1      -2.930   1.437  16.739  0.00  0.00     0.028 H 
ATOM     47  H18 3TL d   1      -3.156  -0.084  15.810  0.00  0.00     0.028 H 
ENDBRANCH  42  44
BRANCH  42  48
ATOM     48  CG1 3TL d   1      -4.924   0.999  13.924  0.00  0.00    -0.071 C 
ATOM     49  H19 3TL d   1      -5.102   1.594  13.016  0.00  0.00     0.028 H 
ATOM     50  H20 3TL d   1      -5.864   0.898  14.487  0.00  0.00     0.028 H 
ATOM     51  H21 3TL d   1      -4.557   0.001  13.642  0.00  0.00     0.028 H 
ENDBRANCH  42  48
ENDBRANCH  11  42
ENDBRANCH   8  11
ENDBRANCH   5   7
BRANCH   5  52
ATOM     52  C3  3TL d   1      -1.145   4.320  10.021  0.00  0.00    -0.020 C 
ATOM     53  H26 3TL d   1      -1.519   5.175   9.438  0.00  0.00     0.043 H 
ATOM     54  H27 3TL d   1      -0.450   3.731   9.404  0.00  0.00     0.043 H 
BRANCH  52  55
ATOM     55  C4  3TL d   1      -0.424   4.826  11.202  0.00  0.00    -0.056 A 
ATOM     56  C5  3TL d   1      -1.005   5.893  11.892  0.00  0.00    -0.077 A 
ATOM     57  C6  3TL d   1      -0.380   6.393  13.020  0.00  0.00    -0.082 A 
ATOM     58  H28 3TL d   1      -1.937   6.325  11.546  0.00  0.00     0.084 H 
ATOM     59  C7  3TL d   1       0.819   5.814  13.427  0.00  0.00    -0.083 A 
ATOM     60  H30 3TL d   1      -0.814   7.217  13.575  0.00  0.00     0.083 H 
ATOM     61  C8  3TL d   1       1.417   4.758  12.721  0.00  0.00    -0.082 A 
ATOM     62  H32 3TL d   1       1.307   6.191  14.319  0.00  0.00     0.083 H 
ATOM     63  C9  3TL d   1       0.787   4.242  11.592  0.00  0.00    -0.077 A 
ATOM     64  H31 3TL d   1       2.364   4.347  13.053  0.00  0.00     0.083 H 
ATOM     65  H29 3TL d   1       1.218   3.418  11.035  0.00  0.00     0.084 H 
ENDBRANCH  52  55
ENDBRANCH   5  52
ENDBRANCH   1   5
BRANCH   1  66
ATOM     66  C52 3TL d   1      -3.723   1.632   9.365  0.00  0.00     0.082 C 
ATOM     67  H35 3TL d   1      -3.709   1.149  10.353  0.00  0.00     0.090 H 
BRANCH  66  68
ATOM     68  C51 3TL d   1      -5.070   2.309   9.213  0.00  0.00     0.042 C 
ATOM     69  H34 3TL d   1      -5.194   3.048  10.019  0.00  0.00     0.077 H 
BRANCH  68  70
ATOM     70  N51 3TL d   1      -5.321   2.983   7.945  0.00  0.00    -0.363 N 
ATOM     71  C61 3TL d   1      -5.637   4.185   7.734  0.00  0.00     0.175 C 
ATOM     72  O52 3TL d   1      -5.720   5.045   8.734  0.00  0.00    -0.175 OA
ATOM     73  H33 3TL d   1      -5.230   2.412   7.129  0.00  0.00     0.162 HD
BRANCH  71  74
ATOM     74  C60 3TL d   1      -5.848   4.722   6.324  0.00  0.00     0.078 C 
ATOM     75  H45 3TL d   1      -5.583   3.914   5.627  0.00  0.00     0.086 H 
BRANCH  74  76
ATOM     76  N52 3TL d   1      -7.235   5.072   6.103  0.00  0.00    -0.358 N 
ATOM     77  C69 3TL d   1      -7.935   4.636   5.135  0.00  0.00     0.174 C 
ATOM     78  O54 3TL d   1      -7.342   3.782   4.313  0.00  0.00    -0.175 OA
ATOM     79  H44 3TL d   1      -7.670   5.696   6.752  0.00  0.00     0.162 HD
BRANCH  77  80
ATOM     80  C68 3TL d   1      -9.353   4.890   4.828  0.00  0.00     0.075 C 
ATOM     81  H54 3TL d   1      -9.655   5.683   5.529  0.00  0.00     0.085 H 
BRANCH  80  82
ATOM     82  N54 3TL d   1      -9.470   5.386   3.689  0.00  0.00    -0.325 N 
ATOM     83  C81 3TL d   1      -9.562   6.662   3.400  0.00  0.00     0.361 C 
ATOM     84  O58 3TL d   1      -9.397   7.516   4.292  0.00  0.00    -0.238 OA
ATOM     85  H53 3TL d   1      -9.496   4.747   2.920  0.00  0.00     0.165 HD
BRANCH  83  86
ATOM     86  O59 3TL d   1      -9.539   7.009   2.143  0.00  0.00    -0.299 OA
BRANCH  86  87
ATOM     87  CA5 3TL d   1      -8.593   8.003   1.659  0.00  0.00     0.054 C 
ATOM     88  H58 3TL d   1      -7.581   7.657   1.916  0.00  0.00     0.082 H 
ATOM     89  H59 3TL d   1      -8.801   8.948   2.182  0.00  0.00     0.082 H 
BRANCH  87  90
ATOM     90  C50 3TL d   1      -8.622   8.280   0.184  0.00  0.00    -0.034 A 
ATOM     91  C63 3TL d   1      -9.449   9.254  -0.395  0.00  0.00    -0.075 A 
ATOM     92  C64 3TL d   1      -9.446   9.457  -1.780  0.00  0.00    -0.082 A 
ATOM     93  H60 3TL d   1     -10.095   9.854   0.235  0.00  0.00     0.084 H 
ATOM     94  C65 3TL d   1      -8.614   8.667  -2.586  0.00  0.00    -0.083 A 
ATOM     95  H61 3TL d   1     -10.080  10.216  -2.224  0.00  0.00     0.083 H 
ATOM     96  C66 3TL d   1      -7.798   7.684  -2.024  0.00  0.00    -0.082 A 
ATOM     97  H62 3TL d   1      -8.604   8.822  -3.659  0.00  0.00     0.083 H 
ATOM     98  C67 3TL d   1      -7.808   7.502  -0.642  0.00  0.00    -0.075 A 
ATOM     99  H63 3TL d   1      -7.165   7.070  -2.654  0.00  0.00     0.083 H 
ATOM    100  H64 3TL d   1      -7.173   6.743  -0.201  0.00  0.00     0.084 H 
ENDBRANCH  87  90
ENDBRANCH  86  87
ENDBRANCH  83  86
ENDBRANCH  80  82
BRANCH  80 101
ATOM    101  C70 3TL d   1     -10.341   3.756   5.094  0.00  0.00    -0.050 C 
ATOM    102  H55 3TL d   1     -10.185   3.365   6.110  0.00  0.00     0.030 H 
ATOM    103  H56 3TL d   1     -10.180   2.950   4.362  0.00  0.00     0.030 H 
ATOM    104  H57 3TL d   1     -11.369   4.136   5.001  0.00  0.00     0.030 H 
ENDBRANCH  80 101
ENDBRANCH  77  80
ENDBRANCH  74  76
BRANCH  74 105
ATOM    105  C62 3TL d   1      -4.974   5.934   5.981  0.00  0.00    -0.034 C 
ATOM    106  H46 3TL d   1      -5.400   6.733   6.606  0.00  0.00     0.042 H 
BRANCH 105 107
ATOM    107  CG6 3TL d   1      -3.509   5.844   6.432  0.00  0.00    -0.071 C 
ATOM    108  H47 3TL d   1      -2.978   6.761   6.137  0.00  0.00     0.028 H 
ATOM    109  H48 3TL d   1      -3.032   4.974   5.957  0.00  0.00     0.028 H 
ATOM    110  H49 3TL d   1      -3.468   5.733   7.526  0.00  0.00     0.028 H 
ENDBRANCH 105 107
BRANCH 105 111
ATOM    111  CG5 3TL d   1      -5.084   6.492   4.534  0.00  0.00    -0.071 C 
ATOM    112  H50 3TL d   1      -6.143   6.544   4.241  0.00  0.00     0.028 H 
ATOM    113  H51 3TL d   1      -4.545   5.828   3.843  0.00  0.00     0.028 H 
ATOM    114  H52 3TL d   1      -4.643   7.499   4.495  0.00  0.00     0.028 H 
ENDBRANCH 105 111
ENDBRANCH  74 105
ENDBRANCH  71  74
ENDBRANCH  68  70
BRANCH  68 115
ATOM    115  C53 3TL d   1      -6.045   1.175   9.381  0.00  0.00    -0.020 C 
ATOM    116  H37 3TL d   1      -5.945   0.738  10.386  0.00  0.00     0.043 H 
ATOM    117  H38 3TL d   1      -5.855   0.400   8.624  0.00  0.00     0.043 H 
BRANCH 115 118
ATOM    118  C54 3TL d   1      -7.382   1.723   9.208  0.00  0.00    -0.056 A 
ATOM    119  C55 3TL d   1      -8.145   1.301   8.132  0.00  0.00    -0.077 A 
ATOM    120  C56 3TL d   1      -9.420   1.854   7.972  0.00  0.00    -0.082 A 
ATOM    121  H39 3TL d   1      -7.765   0.564   7.434  0.00  0.00     0.084 H 
ATOM    122  C57 3TL d   1      -9.909   2.835   8.844  0.00  0.00    -0.083 A 
ATOM    123  H41 3TL d   1     -10.045   1.515   7.153  0.00  0.00     0.083 H 
ATOM    124  C58 3TL d   1      -9.128   3.264   9.925  0.00  0.00    -0.082 A 
ATOM    125  H43 3TL d   1     -10.892   3.262   8.682  0.00  0.00     0.083 H 
ATOM    126  C59 3TL d   1      -7.859   2.699  10.090  0.00  0.00    -0.077 A 
ATOM    127  H42 3TL d   1      -9.497   4.014  10.615  0.00  0.00     0.083 H 
ATOM    128  H40 3TL d   1      -7.235   3.023  10.915  0.00  0.00     0.084 H 
ENDBRANCH 115 118
ENDBRANCH  68 115
ENDBRANCH  66  68
BRANCH  66 129
ATOM    129  O51 3TL d   1      -3.444   0.671   8.361  0.00  0.00    -0.391 OA
ATOM    130  H36 3TL d   1      -2.588   0.289   8.518  0.00  0.00     0.210 HD
ENDBRANCH  66 129
ENDBRANCH   1  66
TORSDOF 33
