REMARK  16 active torsions:
REMARK  status: ('A' for Active; 'I' for Inactive)
REMARK       I    between atoms: N1_26  and  C3_3 
REMARK    1  A    between atoms: C3_3  and  O1_29 
REMARK    2  A    between atoms: O1_29  and  C4_4 
REMARK    3  A    between atoms: C6_6  and  C5_5 
REMARK    4  A    between atoms: C5_5  and  C7_7 
REMARK    5  A    between atoms: C5_5  and  N1_26 
REMARK    6  A    between atoms: C14_14  and  C6_6 
REMARK    7  A    between atoms: C6_6  and  O3_31 
REMARK    8  A    between atoms: C7_7  and  C8_8 
REMARK    9  A    between atoms: N2_27  and  C14_14 
REMARK   10  A    between atoms: C15_15  and  C16_16 
REMARK   11  A    between atoms: N2_27  and  C15_15 
REMARK   12  A    between atoms: C16_16  and  C23_23 
REMARK   13  A    between atoms: C16_16  and  C24_24 
REMARK   14  A    between atoms: S1_35  and  C17_17 
REMARK   15  A    between atoms: C20_20  and  N3_28 
REMARK   16  A    between atoms: N2_27  and  S1_35 
ROOT
ATOM      1  C6  478 d   1      -3.270   2.246   9.249  0.00  0.00     0.067 C 
ATOM      2  H7  478 d   1      -4.176   1.917   9.780  0.00  0.00     0.088 H 
ENDROOT
BRANCH   1   3
ATOM      3  C5  478 d   1      -2.495   3.157  10.239  0.00  0.00     0.044 C 
ATOM      4  H6  478 d   1      -3.141   4.029  10.419  0.00  0.00     0.077 H 
BRANCH   3   5
ATOM      5  C7  478 d   1      -1.128   3.701   9.772  0.00  0.00    -0.020 C 
ATOM      6  H8  478 d   1      -1.279   4.370   8.912  0.00  0.00     0.043 H 
ATOM      7  H9  478 d   1      -0.485   2.859   9.474  0.00  0.00     0.043 H 
BRANCH   5   8
ATOM      8  C8  478 d   1      -0.453   4.474  10.897  0.00  0.00    -0.056 A 
ATOM      9  C9  478 d   1       0.689   3.933  11.509  0.00  0.00    -0.077 A 
ATOM     10  C11 478 d   1       1.341   4.587  12.563  0.00  0.00    -0.082 A 
ATOM     11  H10 478 d   1       1.077   2.984  11.157  0.00  0.00     0.084 H 
ATOM     12  C13 478 d   1       0.829   5.799  13.021  0.00  0.00    -0.083 A 
ATOM     13  H12 478 d   1       2.228   4.157  13.014  0.00  0.00     0.083 H 
ATOM     14  C12 478 d   1      -0.285   6.363  12.413  0.00  0.00    -0.082 A 
ATOM     15  H14 478 d   1       1.302   6.304  13.855  0.00  0.00     0.083 H 
ATOM     16  C10 478 d   1      -0.939   5.720  11.351  0.00  0.00    -0.077 A 
ATOM     17  H13 478 d   1      -0.656   7.318  12.766  0.00  0.00     0.083 H 
ATOM     18  H11 478 d   1      -1.806   6.174  10.885  0.00  0.00     0.084 H 
ENDBRANCH   5   8
ENDBRANCH   3   5
BRANCH   3  19
ATOM     19  N1  478 d   1      -2.276   2.485  11.519  0.00  0.00    -0.329 N 
ATOM     20  C3  478 d   1      -2.924   2.780  12.658  0.00  0.00     0.361 C 
ATOM     21  O2  478 d   1      -3.767   3.655  12.794  0.00  0.00    -0.238 OA
ATOM     22  H32 478 d   1      -1.595   1.753  11.549  0.00  0.00     0.165 HD
BRANCH  20  23
ATOM     23  O1  478 d   1      -2.561   1.933  13.782  0.00  0.00    -0.296 OA
BRANCH  23  24
ATOM     24  C4  478 d   1      -3.393   2.053  14.929  0.00  0.00     0.072 C 
ATOM     25  C1  478 d   1      -2.662   1.363  16.067  0.00  0.00     0.044 C 
ATOM     26  O6  478 d   1      -3.095   0.010  16.000  0.00  0.00    -0.389 OA
ATOM     27  H1  478 d   1      -2.936   1.811  17.034  0.00  0.00     0.078 H 
ATOM     28  H2  478 d   1      -1.573   1.430  15.927  0.00  0.00     0.078 H 
ATOM     29  C25 478 d   1      -4.480   0.060  15.695  0.00  0.00     0.022 C 
ATOM     30  C2  478 d   1      -4.639   1.238  14.735  0.00  0.00    -0.018 C 
ATOM     31  H30 478 d   1      -4.803  -0.875  15.214  0.00  0.00     0.074 H 
ATOM     32  H31 478 d   1      -5.070   0.225  16.609  0.00  0.00     0.074 H 
ATOM     33  H3  478 d   1      -4.715   0.885  13.696  0.00  0.00     0.040 H 
ATOM     34  H4  478 d   1      -5.532   1.828  14.988  0.00  0.00     0.040 H 
ATOM     35  H5  478 d   1      -3.622   3.106  15.152  0.00  0.00     0.087 H 
ENDBRANCH  23  24
ENDBRANCH  20  23
ENDBRANCH   3  19
ENDBRANCH   1   3
BRANCH   1  36
ATOM     36  C14 478 d   1      -3.739   2.932   7.951  0.00  0.00     0.019 C 
ATOM     37  H15 478 d   1      -4.036   2.173   7.212  0.00  0.00     0.061 H 
ATOM     38  H16 478 d   1      -2.926   3.547   7.538  0.00  0.00     0.061 H 
BRANCH  36  39
ATOM     39  N2  478 d   1      -4.899   3.789   8.289  0.00  0.00    -0.204 NA
BRANCH  39  40
ATOM     40  C15 478 d   1      -6.196   3.267   7.796  0.00  0.00    -0.004 C 
ATOM     41  H17 478 d   1      -6.872   4.114   7.609  0.00  0.00     0.058 H 
ATOM     42  H18 478 d   1      -6.025   2.720   6.857  0.00  0.00     0.058 H 
BRANCH  40  43
ATOM     43  C16 478 d   1      -6.862   2.312   8.818  0.00  0.00    -0.049 C 
ATOM     44  H19 478 d   1      -6.202   1.439   8.928  0.00  0.00     0.040 H 
BRANCH  43  45
ATOM     45  C23 478 d   1      -7.053   2.942  10.189  0.00  0.00    -0.072 C 
ATOM     46  H24 478 d   1      -7.528   2.215  10.864  0.00  0.00     0.028 H 
ATOM     47  H25 478 d   1      -7.694   3.831  10.098  0.00  0.00     0.028 H 
ATOM     48  H26 478 d   1      -6.075   3.236  10.597  0.00  0.00     0.028 H 
ENDBRANCH  43  45
BRANCH  43  49
ATOM     49  C24 478 d   1      -8.231   1.828   8.349  0.00  0.00    -0.072 C 
ATOM     50  H27 478 d   1      -8.136   1.364   7.356  0.00  0.00     0.028 H 
ATOM     51  H28 478 d   1      -8.921   2.682   8.289  0.00  0.00     0.028 H 
ATOM     52  H29 478 d   1      -8.623   1.089   9.063  0.00  0.00     0.028 H 
ENDBRANCH  43  49
ENDBRANCH  40  43
ENDBRANCH  39  40
BRANCH  39  53
ATOM     53  S1  478 d   1      -4.577   5.369   8.022  0.00  0.00     0.243 S 
ATOM     54  O4  478 d   1      -3.223   5.630   8.410  0.00  0.00    -0.206 OA
ATOM     55  O5  478 d   1      -5.528   6.080   8.838  0.00  0.00    -0.206 OA
BRANCH  53  56
ATOM     56  C17 478 d   1      -4.678   5.818   6.479  0.00  0.00     0.074 A 
ATOM     57  C18 478 d   1      -3.507   5.929   5.722  0.00  0.00    -0.059 A 
ATOM     58  C19 478 d   1      -3.580   6.314   4.376  0.00  0.00    -0.056 A 
ATOM     59  H20 478 d   1      -2.545   5.718   6.175  0.00  0.00     0.086 H 
ATOM     60  C20 478 d   1      -4.825   6.559   3.797  0.00  0.00     0.025 A 
ATOM     61  H21 478 d   1      -2.675   6.421   3.789  0.00  0.00     0.086 H 
ATOM     62  C21 478 d   1      -5.983   6.446   4.552  0.00  0.00    -0.056 A 
ATOM     63  C22 478 d   1      -5.914   6.073   5.896  0.00  0.00    -0.059 A 
ATOM     64  H22 478 d   1      -6.946   6.648   4.097  0.00  0.00     0.086 H 
ATOM     65  H23 478 d   1      -6.821   5.983   6.483  0.00  0.00     0.086 H 
BRANCH  60  66
ATOM     66  N3  478 d   1      -4.927   6.922   2.488  0.00  0.00    -0.399 N 
ATOM     67  H33 478 d   1      -4.079   7.011   1.911  0.00  0.00     0.156 HD
ATOM     68  H34 478 d   1      -5.853   7.107   2.075  0.00  0.00     0.156 HD
ENDBRANCH  60  66
ENDBRANCH  53  56
ENDBRANCH  39  53
ENDBRANCH  36  39
ENDBRANCH   1  36
BRANCH   1  69
ATOM     69  O3  478 d   1      -2.519   1.063   8.900  0.00  0.00    -0.392 OA
ATOM     70  H35 478 d   1      -1.767   1.310   8.374  0.00  0.00     0.210 HD
ENDBRANCH   1  69
TORSDOF 16
