REMARK  14 active torsions:
REMARK  status: ('A' for Active; 'I' for Inactive)
REMARK    1  A    between atoms: NBI_35  and  CAA_1 
REMARK    2  A    between atoms: CAP_16  and  OAC_3 
REMARK    3  A    between atoms: CBH_34  and  OAD_4 
REMARK    4  A    between atoms: CBH_34  and  CAP_16 
REMARK    5  A    between atoms: CAR_18  and  CAQ_17 
REMARK    6  A    between atoms: CAQ_17  and  CAT_20 
REMARK    7  A    between atoms: NAZ_26  and  CAR_18 
REMARK    8  A    between atoms: CAY_25  and  CAS_19 
REMARK    9  A    between atoms: CAS_19  and  CBH_34 
REMARK   10  A    between atoms: CAT_20  and  NBJ_36 
REMARK   11  A    between atoms: NBK_37  and  CAY_25 
REMARK       I    between atoms: CBA_27  and  NAZ_26 
REMARK   12  A    between atoms: CBG_33  and  CBA_27 
REMARK   13  A    between atoms: CBE_31  and  CBC_29 
REMARK   14  A    between atoms: CBF_32  and  CBD_30 
ROOT
ATOM      1  CAO B50 d   1      28.498   9.646 -21.352  0.00  0.00    -0.008 A 
ATOM      2  CBE B50 d   1      28.698  10.959 -21.496  0.00  0.00     0.003 A 
ATOM      3  CBF B50 d   1      29.203  11.179 -22.716  0.00  0.00     0.019 A 
ATOM      4  CBG B50 d   1      29.262   9.999 -23.330  0.00  0.00     0.115 A 
ATOM      5  NBK B50 d   1      28.845   9.048 -22.491  0.00  0.00    -0.351 N 
ATOM      6  H15 B50 d   1      28.118   9.151 -20.460  0.00  0.00     0.113 H 
ENDROOT
BRANCH   4   7
ATOM      7  CBA B50 d   1      29.717   9.772 -24.566  0.00  0.00     0.269 C 
ATOM      8  OAB B50 d   1      30.763   9.146 -24.738  0.00  0.00    -0.266 OA
ATOM      9  NAZ B50 d   1      28.951  10.260 -25.557  0.00  0.00    -0.356 N 
ATOM     10  H36 B50 d   1      28.110  10.743 -25.314  0.00  0.00     0.162 HD
BRANCH   9  11
ATOM     11  CAR B50 d   1      29.291  10.117 -26.983  0.00  0.00    -0.003 C 
ATOM     12  H20 B50 d   1      28.750  10.880 -27.563  0.00  0.00     0.064 H 
ATOM     13  H21 B50 d   1      30.374  10.257 -27.113  0.00  0.00     0.064 H 
BRANCH  11  14
ATOM     14  CAQ B50 d   1      28.897   8.725 -27.488  0.00  0.00    -0.028 C 
ATOM     15  H18 B50 d   1      29.428   7.963 -26.899  0.00  0.00     0.037 H 
ATOM     16  H19 B50 d   1      29.178   8.632 -28.547  0.00  0.00     0.037 H 
BRANCH  14  17
ATOM     17  CAT B50 d   1      27.385   8.509 -27.346  0.00  0.00     0.085 C 
ATOM     18  H24 B50 d   1      27.116   8.577 -26.282  0.00  0.00     0.076 H 
ATOM     19  H25 B50 d   1      27.133   7.508 -27.725  0.00  0.00     0.076 H 
BRANCH  17  20
ATOM     20  NBJ B50 d   1      26.609   9.510 -28.097  0.00  0.00    -0.068 N 
ATOM     21  CAW B50 d   1      26.684   9.246 -29.548  0.00  0.00     0.106 C 
ATOM     22  CAU B50 d   1      25.438   8.546 -30.097  0.00  0.00     0.105 C 
ATOM     23  H30 B50 d   1      26.806  10.205 -30.072  0.00  0.00     0.078 H 
ATOM     24  H31 B50 d   1      27.558   8.608 -29.743  0.00  0.00     0.078 H 
ATOM     25  NBI B50 d   1      24.859   7.609 -29.121  0.00  0.00    -0.072 N 
ATOM     26  H26 B50 d   1      25.714   7.989 -31.004  0.00  0.00     0.078 H 
ATOM     27  H27 B50 d   1      24.685   9.307 -30.349  0.00  0.00     0.078 H 
ATOM     28  CAV B50 d   1      24.400   8.315 -27.909  0.00  0.00     0.105 C 
ATOM     29  H38 B50 d   1      25.565   6.940 -28.857  0.00  0.00     0.279 HD
ATOM     30  CAX B50 d   1      25.222   9.577 -27.592  0.00  0.00     0.106 C 
ATOM     31  H28 B50 d   1      23.350   8.609 -28.053  0.00  0.00     0.078 H 
ATOM     32  H29 B50 d   1      24.474   7.626 -27.055  0.00  0.00     0.078 H 
ATOM     33  H32 B50 d   1      25.253   9.709 -26.500  0.00  0.00     0.078 H 
ATOM     34  H33 B50 d   1      24.724  10.443 -28.052  0.00  0.00     0.078 H 
ATOM     35  H39 B50 d   1      27.031  10.411 -27.935  0.00  0.00     0.280 HD
BRANCH  25  36
ATOM     36  CAA B50 d   1      23.730   6.897 -29.736  0.00  0.00     0.066 C 
ATOM     37  H1  B50 d   1      24.076   6.372 -30.639  0.00  0.00     0.068 H 
ATOM     38  H2  B50 d   1      22.946   7.619 -30.009  0.00  0.00     0.068 H 
ATOM     39  H3  B50 d   1      23.323   6.167 -29.021  0.00  0.00     0.068 H 
ENDBRANCH  25  36
ENDBRANCH  17  20
ENDBRANCH  14  17
ENDBRANCH  11  14
ENDBRANCH   9  11
ENDBRANCH   4   7
BRANCH   3  40
ATOM     40  CBD B50 d   1      29.544  12.358 -23.259  0.00  0.00    -0.023 A 
ATOM     41  CAI B50 d   1      28.557  13.274 -23.628  0.00  0.00    -0.072 A 
ATOM     42  CAG B50 d   1      28.915  14.495 -24.199  0.00  0.00    -0.082 A 
ATOM     43  H9  B50 d   1      27.511  13.036 -23.471  0.00  0.00     0.084 H 
ATOM     44  CAF B50 d   1      30.261  14.808 -24.395  0.00  0.00    -0.083 A 
ATOM     45  H7  B50 d   1      28.147  15.202 -24.491  0.00  0.00     0.083 H 
ATOM     46  CAH B50 d   1      31.254  13.897 -24.023  0.00  0.00    -0.082 A 
ATOM     47  H6  B50 d   1      30.537  15.759 -24.836  0.00  0.00     0.083 H 
ATOM     48  CAJ B50 d   1      30.890  12.674 -23.455  0.00  0.00    -0.072 A 
ATOM     49  H8  B50 d   1      32.300  14.138 -24.174  0.00  0.00     0.083 H 
ATOM     50  H10 B50 d   1      31.657  11.966 -23.165  0.00  0.00     0.084 H 
ENDBRANCH   3  40
BRANCH   5  51
ATOM     51  CAY B50 d   1      28.775   7.587 -22.760  0.00  0.00     0.002 C 
ATOM     52  H34 B50 d   1      28.889   7.422 -23.842  0.00  0.00     0.065 H 
ATOM     53  H35 B50 d   1      29.598   7.091 -22.225  0.00  0.00     0.065 H 
BRANCH  51  54
ATOM     54  CAS B50 d   1      27.447   6.964 -22.305  0.00  0.00    -0.024 C 
ATOM     55  H22 B50 d   1      27.049   7.549 -21.463  0.00  0.00     0.039 H 
ATOM     56  H23 B50 d   1      27.632   5.930 -21.978  0.00  0.00     0.039 H 
BRANCH  54  57
ATOM     57  CBH B50 d   1      26.405   6.949 -23.436  0.00  0.00     0.057 C 
ATOM     58  H37 B50 d   1      26.030   7.972 -23.584  0.00  0.00     0.086 H 
BRANCH  57  59
ATOM     59  OAD B50 d   1      25.316   6.097 -23.068  0.00  0.00    -0.393 OA
ATOM     60  H5  B50 d   1      25.634   5.209 -22.958  0.00  0.00     0.210 HD
ENDBRANCH  57  59
BRANCH  57  61
ATOM     61  CAP B50 d   1      27.010   6.450 -24.753  0.00  0.00     0.041 C 
ATOM     62  H16 B50 d   1      26.247   6.494 -25.544  0.00  0.00     0.077 H 
ATOM     63  H17 B50 d   1      27.861   7.091 -25.029  0.00  0.00     0.077 H 
BRANCH  61  64
ATOM     64  OAC B50 d   1      27.461   5.104 -24.606  0.00  0.00    -0.398 OA
ATOM     65  H4  B50 d   1      26.727   4.549 -24.369  0.00  0.00     0.209 HD
ENDBRANCH  61  64
ENDBRANCH  57  61
ENDBRANCH  54  57
ENDBRANCH  51  54
ENDBRANCH   5  51
BRANCH   2  66
ATOM     66  CBC B50 d   1      28.478  11.845 -20.514  0.00  0.00    -0.024 A 
ATOM     67  CAM B50 d   1      27.261  11.832 -19.814  0.00  0.00    -0.071 A 
ATOM     68  CAK B50 d   1      27.050  12.729 -18.764  0.00  0.00    -0.061 A 
ATOM     69  H13 B50 d   1      26.485  11.126 -20.088  0.00  0.00     0.084 H 
ATOM     70  CBB B50 d   1      28.054  13.634 -18.405  0.00  0.00     0.034 A 
ATOM     71  H11 B50 d   1      26.108  12.724 -18.227  0.00  0.00     0.086 H 
ATOM     72 CLAE B50 d   1      27.813  14.720 -17.122  0.00  0.00    -0.084 Cl
ATOM     73  CAL B50 d   1      29.273  13.636 -19.080  0.00  0.00    -0.061 A 
ATOM     74  CAN B50 d   1      29.486  12.735 -20.122  0.00  0.00    -0.071 A 
ATOM     75  H12 B50 d   1      30.052  14.335 -18.796  0.00  0.00     0.086 H 
ATOM     76  H14 B50 d   1      30.441  12.723 -20.634  0.00  0.00     0.084 H 
ENDBRANCH   2  66
TORSDOF 14
