REMARK  12 active torsions:
REMARK  status: ('A' for Active; 'I' for Inactive)
REMARK    1  A    between atoms: CA_15  and  C_1 
REMARK    2  A    between atoms: CA_15  and  N_2 
REMARK    3  A    between atoms: N6_11  and  C1_4 
REMARK    4  A    between atoms: C6_10  and  N6_11 
REMARK    5  A    between atoms: C1'_19  and  N9_14 
REMARK    6  A    between atoms: CB_16  and  CA_15 
REMARK    7  A    between atoms: CG_18  and  CB_16 
REMARK    8  A    between atoms: SD_17  and  CG_18 
REMARK    9  A    between atoms: C5'_26  and  SD_17 
REMARK   10  A    between atoms: C2'_20  and  O2'_21 
REMARK   11  A    between atoms: C3'_22  and  O3'_23 
REMARK   12  A    between atoms: C4'_24  and  C5'_26 
ROOT
ATOM      1  C1' TT8 d   1      44.096  48.820   7.771  0.00  0.00     0.139 C 
ATOM      2  C2' TT8 d   1      44.288  50.015   8.679  0.00  0.00     0.105 C 
ATOM      3  C3' TT8 d   1      43.924  51.184   7.767  0.00  0.00     0.090 C 
ATOM      4  C4' TT8 d   1      44.084  50.621   6.356  0.00  0.00     0.076 C 
ATOM      5  O4' TT8 d   1      44.519  49.270   6.492  0.00  0.00    -0.355 OA
ATOM      6  H15 TT8 d   1      43.030  48.550   7.740  0.00  0.00     0.122 H 
ATOM      7  H16 TT8 d   1      45.337  50.093   8.999  0.00  0.00     0.093 H 
ATOM      8  H18 TT8 d   1      44.647  51.999   7.920  0.00  0.00     0.091 H 
ATOM      9  H20 TT8 d   1      43.118  50.663   5.831  0.00  0.00     0.088 H 
ENDROOT
BRANCH   4  10
ATOM     10  C5' TT8 d   1      45.131  51.373   5.546  0.00  0.00     0.003 C 
ATOM     11  H21 TT8 d   1      46.033  51.502   6.162  0.00  0.00     0.052 H 
ATOM     12  H22 TT8 d   1      45.379  50.783   4.651  0.00  0.00     0.052 H 
BRANCH  10  13
ATOM     13  SD  TT8 d   1      44.539  53.004   5.027  0.00  0.00    -0.166 SA
BRANCH  13  14
ATOM     14  CG  TT8 d   1      43.741  52.670   3.440  0.00  0.00    -0.021 C 
ATOM     15  H13 TT8 d   1      44.145  53.376   2.699  0.00  0.00     0.049 H 
ATOM     16  H14 TT8 d   1      43.992  51.642   3.141  0.00  0.00     0.049 H 
BRANCH  14  17
ATOM     17  CB  TT8 d   1      42.202  52.807   3.445  0.00  0.00    -0.021 C 
ATOM     18  H11 TT8 d   1      41.798  52.096   4.180  0.00  0.00     0.037 H 
ATOM     19  H12 TT8 d   1      41.951  53.833   3.752  0.00  0.00     0.037 H 
BRANCH  17  20
ATOM     20  CA  TT8 d   1      41.515  52.530   2.076  0.00  0.00     0.183 C 
ATOM     21  H10 TT8 d   1      40.429  52.625   2.220  0.00  0.00     0.101 H 
BRANCH  20  22
ATOM     22  C   TT8 d   1      41.941  53.507   0.977  0.00  0.00     0.204 C 
ATOM     23  O   TT8 d   1      42.688  53.112   0.064  0.00  0.00    -0.646 OA
ATOM     24  OXT TT8 d   1      41.569  54.699   0.984  0.00  0.00    -0.646 OA
ENDBRANCH  20  22
BRANCH  20  25
ATOM     25  N   TT8 d   1      41.821  51.139   1.604  0.00  0.00    -0.065 N 
ATOM     26  H1  TT8 d   1      41.548  50.476   2.313  0.00  0.00     0.275 HD
ATOM     27  H2  TT8 d   1      42.810  51.054   1.427  0.00  0.00     0.275 HD
ATOM     28  H3  TT8 d   1      41.310  50.952   0.755  0.00  0.00     0.275 HD
ENDBRANCH  20  25
ENDBRANCH  17  20
ENDBRANCH  14  17
ENDBRANCH  13  14
ENDBRANCH  10  13
ENDBRANCH   4  10
BRANCH   3  29
ATOM     29  O3' TT8 d   1      42.631  51.714   7.998  0.00  0.00    -0.390 OA
ATOM     30  H19 TT8 d   1      41.982  51.035   7.857  0.00  0.00     0.210 HD
ENDBRANCH   3  29
BRANCH   2  31
ATOM     31  O2' TT8 d   1      43.478  49.934   9.824  0.00  0.00    -0.388 OA
ATOM     32  H17 TT8 d   1      42.565  49.900   9.563  0.00  0.00     0.210 HD
ENDBRANCH   2  31
BRANCH   1  33
ATOM     33  N9  TT8 d   1      44.863  47.628   8.197  0.00  0.00    -0.294 N 
ATOM     34  C4  TT8 d   1      44.346  46.364   8.282  0.00  0.00     0.167 A 
ATOM     35  N3  TT8 d   1      43.089  45.858   8.033  0.00  0.00    -0.222 NA
ATOM     36  C5  TT8 d   1      45.393  45.520   8.708  0.00  0.00     0.149 A 
ATOM     37  C2  TT8 d   1      42.805  44.499   8.190  0.00  0.00     0.091 A 
ATOM     38  N1  TT8 d   1      43.845  43.658   8.614  0.00  0.00    -0.222 NA
ATOM     39  H7  TT8 d   1      41.814  44.107   7.991  0.00  0.00     0.146 H 
ATOM     40  C6  TT8 d   1      45.133  44.138   8.876  0.00  0.00     0.157 A 
ATOM     41  N7  TT8 d   1      46.492  46.284   8.867  0.00  0.00    -0.236 NA
ATOM     42  C8  TT8 d   1      46.195  47.565   8.563  0.00  0.00     0.071 A 
ATOM     43  H9  TT8 d   1      46.886  48.406   8.600  0.00  0.00     0.144 H 
BRANCH  40  44
ATOM     44  N6  TT8 d   1      46.076  43.257   9.276  0.00  0.00    -0.377 N 
ATOM     45  H8  TT8 d   1      45.767  42.278   9.362  0.00  0.00     0.160 HD
BRANCH  44  46
ATOM     46  C1  TT8 d   1      47.507  43.517   9.610  0.00  0.00    -0.019 C 
ATOM     47  H4  TT8 d   1      47.993  42.574   9.900  0.00  0.00     0.056 H 
ATOM     48  H5  TT8 d   1      47.565  44.231  10.445  0.00  0.00     0.056 H 
ATOM     49  H6  TT8 d   1      48.018  43.938   8.732  0.00  0.00     0.056 H 
ENDBRANCH  44  46
ENDBRANCH  40  44
ENDBRANCH   1  33
TORSDOF 12
