REMARK  18 active torsions:
REMARK  status: ('A' for Active; 'I' for Inactive)
REMARK    1  A    between atoms: C21_1  and  O23_3 
REMARK       I    between atoms: N20_22  and  C21_1 
REMARK    2  A    between atoms: O23_3  and  C24_4 
REMARK    3  A    between atoms: C29_9  and  O41_12 
REMARK    4  A    between atoms: N11_13  and  C12_14 
REMARK    5  A    between atoms: C16_18  and  N11_13 
REMARK    6  A    between atoms: N11_13  and  S8_30 
REMARK    7  A    between atoms: C12_14  and  C13_15 
REMARK    8  A    between atoms: C13_15  and  C14_16 
REMARK    9  A    between atoms: C13_15  and  C15_17 
REMARK   10  A    between atoms: C17_19  and  C16_18 
REMARK   11  A    between atoms: C17_19  and  O18_20 
REMARK   12  A    between atoms: C19_21  and  C17_19 
REMARK   13  A    between atoms: C19_21  and  N20_22 
REMARK   14  A    between atoms: C32_23  and  C19_21 
REMARK   15  A    between atoms: C38_29  and  C32_23 
REMARK   16  A    between atoms: S8_30  and  C5_33 
REMARK   17  A    between atoms: C2_38  and  O39_39 
REMARK   18  A    between atoms: O39_39  and  C40_40 
ROOT
ATOM      1  C19 G89 d   1      15.001  23.074  16.986  0.00  0.00     0.044 C 
ATOM      2  H25 G89 d   1      15.915  22.541  16.686  0.00  0.00     0.077 H 
ENDROOT
BRANCH   1   3
ATOM      3  C17 G89 d   1      15.377  24.220  17.918  0.00  0.00     0.071 C 
ATOM      4  H23 G89 d   1      15.749  23.753  18.842  0.00  0.00     0.088 H 
BRANCH   3   5
ATOM      5  C16 G89 d   1      16.518  25.085  17.403  0.00  0.00     0.031 C 
ATOM      6  H21 G89 d   1      16.306  25.380  16.365  0.00  0.00     0.069 H 
ATOM      7  H22 G89 d   1      16.600  25.985  18.030  0.00  0.00     0.069 H 
BRANCH   5   8
ATOM      8  N11 G89 d   1      17.775  24.359  17.445  0.00  0.00    -0.304 N 
BRANCH   8   9
ATOM      9  C12 G89 d   1      18.732  24.700  18.492  0.00  0.00     0.008 C 
ATOM     10  H12 G89 d   1      18.753  25.793  18.613  0.00  0.00     0.066 H 
ATOM     11  H13 G89 d   1      19.729  24.345  18.193  0.00  0.00     0.066 H 
BRANCH   9  12
ATOM     12  C13 G89 d   1      18.359  24.059  19.834  0.00  0.00    -0.045 C 
ATOM     13  H14 G89 d   1      17.345  24.386  20.109  0.00  0.00     0.041 H 
BRANCH  12  14
ATOM     14  C14 G89 d   1      18.399  22.523  19.745  0.00  0.00    -0.072 C 
ATOM     15  H15 G89 d   1      18.128  22.092  20.720  0.00  0.00     0.028 H 
ATOM     16  H16 G89 d   1      19.413  22.198  19.470  0.00  0.00     0.028 H 
ATOM     17  H17 G89 d   1      17.685  22.181  18.982  0.00  0.00     0.028 H 
ENDBRANCH  12  14
BRANCH  12  18
ATOM     18  C15 G89 d   1      19.343  24.458  20.940  0.00  0.00    -0.072 C 
ATOM     19  H18 G89 d   1      19.352  25.553  21.045  0.00  0.00     0.028 H 
ATOM     20  H19 G89 d   1      20.352  24.106  20.678  0.00  0.00     0.028 H 
ATOM     21  H20 G89 d   1      19.031  24.001  21.891  0.00  0.00     0.028 H 
ENDBRANCH  12  18
ENDBRANCH   9  12
ENDBRANCH   8   9
BRANCH   8  22
ATOM     22  S8  G89 d   1      18.463  24.154  15.972  0.00  0.00     0.260 S 
ATOM     23  O9  G89 d   1      17.365  24.004  14.965  0.00  0.00    -0.200 OA
ATOM     24  O10 G89 d   1      19.381  22.974  16.073  0.00  0.00    -0.200 OA
BRANCH  22  25
ATOM     25  C5  G89 d   1      19.433  25.538  15.526  0.00  0.00     0.079 A 
ATOM     26  C6  G89 d   1      18.838  26.651  14.957  0.00  0.00    -0.058 A 
ATOM     27  C7  G89 d   1      19.570  27.786  14.625  0.00  0.00    -0.049 A 
ATOM     28  H34 G89 d   1      17.771  26.637  14.765  0.00  0.00     0.086 H 
ATOM     29  C2  G89 d   1      20.933  27.808  14.937  0.00  0.00     0.068 A 
ATOM     30  H36 G89 d   1      19.097  28.631  14.138  0.00  0.00     0.087 H 
ATOM     31  C3  G89 d   1      21.528  26.699  15.530  0.00  0.00    -0.049 A 
ATOM     32  C4  G89 d   1      20.791  25.545  15.814  0.00  0.00    -0.058 A 
ATOM     33  H37 G89 d   1      22.583  26.730  15.777  0.00  0.00     0.087 H 
ATOM     34  H35 G89 d   1      21.270  24.675  16.249  0.00  0.00     0.086 H 
BRANCH  29  35
ATOM     35  O39 G89 d   1      21.597  28.960  14.663  0.00  0.00    -0.356 OA
BRANCH  35  36
ATOM     36  C40 G89 d   1      22.972  28.856  14.967  0.00  0.00     0.010 C 
ATOM     37  H38 G89 d   1      23.473  29.807  14.732  0.00  0.00     0.066 H 
ATOM     38  H39 G89 d   1      23.420  28.048  14.369  0.00  0.00     0.066 H 
ATOM     39  H40 G89 d   1      23.095  28.632  16.037  0.00  0.00     0.066 H 
ENDBRANCH  35  36
ENDBRANCH  29  35
ENDBRANCH  22  25
ENDBRANCH   8  22
ENDBRANCH   5   8
ENDBRANCH   3   5
BRANCH   3  40
ATOM     40  O18 G89 d   1      14.228  24.975  18.286  0.00  0.00    -0.392 OA
ATOM     41  H24 G89 d   1      13.909  25.453  17.530  0.00  0.00     0.210 HD
ENDBRANCH   3  40
ENDBRANCH   1   3
BRANCH   1  42
ATOM     42  N20 G89 d   1      14.102  22.169  17.730  0.00  0.00    -0.329 N 
ATOM     43  C21 G89 d   1      14.415  20.962  18.182  0.00  0.00     0.361 C 
ATOM     44  O22 G89 d   1      15.533  20.455  18.054  0.00  0.00    -0.238 OA
ATOM     45  H26 G89 d   1      13.174  22.495  17.909  0.00  0.00     0.165 HD
BRANCH  43  46
ATOM     46  O23 G89 d   1      13.432  20.287  18.827  0.00  0.00    -0.299 OA
BRANCH  46  47
ATOM     47  C24 G89 d   1      13.738  18.924  19.137  0.00  0.00     0.052 C 
ATOM     48  C25 G89 d   1      12.604  18.367  20.014  0.00  0.00    -0.016 C 
ATOM     49  C26 G89 d   1      11.531  17.955  19.008  0.00  0.00     0.047 C 
ATOM     50  H2  G89 d   1      12.223  19.139  20.698  0.00  0.00     0.040 H 
ATOM     51  H3  G89 d   1      12.949  17.499  20.596  0.00  0.00     0.040 H 
ATOM     52  O27 G89 d   1      10.860  19.143  18.613  0.00  0.00    -0.383 OA
ATOM     53  C30 G89 d   1      12.278  17.474  17.775  0.00  0.00     0.000 C 
ATOM     54  H4  G89 d   1      10.844  17.197  19.412  0.00  0.00     0.084 H 
ATOM     55  C28 G89 d   1      10.924  19.340  17.213  0.00  0.00     0.044 C 
ATOM     56  C29 G89 d   1      11.502  18.055  16.597  0.00  0.00     0.062 C 
ATOM     57  H5  G89 d   1      11.577  20.195  16.983  0.00  0.00     0.078 H 
ATOM     58  H6  G89 d   1       9.917  19.529  16.813  0.00  0.00     0.078 H 
ATOM     59  H7  G89 d   1      12.161  18.239  15.735  0.00  0.00     0.086 H 
ATOM     60  C31 G89 d   1      13.688  18.036  17.895  0.00  0.00    -0.032 C 
ATOM     61  H8  G89 d   1      12.308  16.376  17.713  0.00  0.00     0.048 H 
ATOM     62  H9  G89 d   1      14.411  17.213  17.995  0.00  0.00     0.037 H 
ATOM     63  H10 G89 d   1      13.930  18.630  17.001  0.00  0.00     0.037 H 
ATOM     64  H1  G89 d   1      14.716  18.857  19.636  0.00  0.00     0.084 H 
BRANCH  56  65
ATOM     65  O41 G89 d   1      10.342  17.290  16.201  0.00  0.00    -0.393 OA
ATOM     66  H11 G89 d   1      10.612  16.415  15.947  0.00  0.00     0.210 HD
ENDBRANCH  56  65
ENDBRANCH  46  47
ENDBRANCH  43  46
ENDBRANCH   1  42
BRANCH   1  67
ATOM     67  C32 G89 d   1      14.251  23.532  15.729  0.00  0.00    -0.020 C 
ATOM     68  H27 G89 d   1      14.872  24.253  15.177  0.00  0.00     0.043 H 
ATOM     69  H28 G89 d   1      13.306  24.012  16.023  0.00  0.00     0.043 H 
BRANCH  67  70
ATOM     70  C38 G89 d   1      13.951  22.333  14.834  0.00  0.00    -0.056 A 
ATOM     71  C33 G89 d   1      12.651  21.876  14.683  0.00  0.00    -0.077 A 
ATOM     72  C34 G89 d   1      12.380  20.748  13.943  0.00  0.00    -0.082 A 
ATOM     73  H29 G89 d   1      11.837  22.415  15.154  0.00  0.00     0.084 H 
ATOM     74  C35 G89 d   1      13.383  20.109  13.216  0.00  0.00    -0.083 A 
ATOM     75  H30 G89 d   1      11.372  20.351  13.925  0.00  0.00     0.083 H 
ATOM     76  C36 G89 d   1      14.679  20.587  13.363  0.00  0.00    -0.082 A 
ATOM     77  H31 G89 d   1      13.161  19.273  12.562  0.00  0.00     0.083 H 
ATOM     78  C37 G89 d   1      14.968  21.690  14.154  0.00  0.00    -0.077 A 
ATOM     79  H32 G89 d   1      15.488  20.084  12.845  0.00  0.00     0.083 H 
ATOM     80  H33 G89 d   1      15.988  22.046  14.238  0.00  0.00     0.084 H 
ENDBRANCH  67  70
ENDBRANCH   1  67
TORSDOF 18
