REMARK  12 active torsions:
REMARK  status: ('A' for Active; 'I' for Inactive)
REMARK    1  A    between atoms: C01_1  and  N02_2 
REMARK       I    between atoms: N02_2  and  C03_3 
REMARK    2  A    between atoms: C03_3  and  C05_5 
REMARK    3  A    between atoms: C09_9  and  C10_10 
REMARK    4  A    between atoms: C11_11  and  N12_12 
REMARK    5  A    between atoms: N12_12  and  C13_13 
REMARK    6  A    between atoms: C15_15  and  N32_32 
REMARK    7  A    between atoms: C17_17  and  N19_19 
REMARK    8  A    between atoms: N22_22  and  C25_25 
REMARK    9  A    between atoms: C36_36  and  C37_37 
REMARK       I    between atoms: C37_37  and  N39_39 
REMARK   10  A    between atoms: N39_39  and  C40_40 
REMARK   11  A    between atoms: C40_40  and  C41_41 
REMARK       I    between atoms: C41_41  and  N43_43 
REMARK   12  A    between atoms: N43_43  and  O44_44 
ROOT
ATOM      1  C13 3LI d   1      24.335  -8.493   8.322  0.00  0.00     0.745 A 
ATOM      2  N14 3LI d   1      25.244  -7.548   8.580  0.00  0.00    -0.030 NA
ATOM      3  C15 3LI d   1      25.303  -6.533   7.712  0.00  0.00     0.242 A 
ATOM      4  N16 3LI d   1      24.510  -6.459   6.646  0.00  0.00    -0.030 NA
ATOM      5  C17 3LI d   1      23.625  -7.444   6.462  0.00  0.00     0.743 A 
ATOM      6  N18 3LI d   1      23.508  -8.487   7.281  0.00  0.00     0.130 NA
ENDROOT
BRANCH   5   7
ATOM      7  N19 3LI d   1      22.787  -7.403   5.338  0.00  0.00    -0.211 N 
ATOM      8  C20 3LI d   1      21.605  -8.224   5.443  0.00  0.00     0.023 C 
ATOM      9  C21 3LI d   1      21.069  -8.400   4.039  0.00  0.00    -0.001 C 
ATOM     10  H12 3LI d   1      20.854  -7.728   6.075  0.00  0.00     0.067 H 
ATOM     11  H13 3LI d   1      21.861  -9.202   5.876  0.00  0.00     0.067 H 
ATOM     12  N22 3LI d   1      20.871  -7.092   3.439  0.00  0.00    -0.279 NA
ATOM     13  H14 3LI d   1      20.110  -8.938   4.075  0.00  0.00     0.058 H 
ATOM     14  H15 3LI d   1      21.789  -8.975   3.439  0.00  0.00     0.058 H 
ATOM     15  C23 3LI d   1      22.069  -6.281   3.366  0.00  0.00    -0.001 C 
ATOM     16  C24 3LI d   1      22.597  -6.084   4.774  0.00  0.00     0.023 C 
ATOM     17  H16 3LI d   1      21.831  -5.305   2.918  0.00  0.00     0.058 H 
ATOM     18  H17 3LI d   1      22.826  -6.791   2.753  0.00  0.00     0.058 H 
ATOM     19  H18 3LI d   1      23.554  -5.542   4.747  0.00  0.00     0.067 H 
ATOM     20  H19 3LI d   1      21.871  -5.516   5.375  0.00  0.00     0.067 H 
BRANCH  12  21
ATOM     21  C25 3LI d   1      20.302  -7.259   2.166  0.00  0.00     0.032 A 
ATOM     22  C26 3LI d   1      20.604  -8.361   1.401  0.00  0.00    -0.061 A 
ATOM     23  C27 3LI d   1      20.041  -8.524   0.157  0.00  0.00    -0.081 A 
ATOM     24  H20 3LI d   1      21.292  -9.107   1.782  0.00  0.00     0.086 H 
ATOM     25  C28 3LI d   1      19.162  -7.589  -0.334  0.00  0.00    -0.081 A 
ATOM     26  H21 3LI d   1      20.292  -9.394  -0.439  0.00  0.00     0.083 H 
ATOM     27  C29 3LI d   1      18.849  -6.488   0.423  0.00  0.00    -0.060 A 
ATOM     28  H22 3LI d   1      18.718  -7.720  -1.314  0.00  0.00     0.083 H 
ATOM     29  C30 3LI d   1      19.422  -6.333   1.662  0.00  0.00     0.055 A 
ATOM     30  H23 3LI d   1      18.155  -5.746   0.046  0.00  0.00     0.086 H 
ATOM     31 CL31 3LI d   1      19.016  -4.949   2.594  0.00  0.00    -0.082 Cl
ENDBRANCH  12  21
ENDBRANCH   5   7
BRANCH   3  32
ATOM     32  N32 3LI d   1      26.250  -5.510   7.923  0.00  0.00    -0.227 NA
ATOM     33  C33 3LI d   1      26.612  -5.441   9.324  0.00  0.00     0.028 C 
ATOM     34  S34 3LI d   1      26.390  -3.744   9.906  0.00  0.00    -0.152 SA
ATOM     35  H24 3LI d   1      27.663  -5.739   9.448  0.00  0.00     0.072 H 
ATOM     36  H25 3LI d   1      25.968  -6.117   9.905  0.00  0.00     0.072 H 
ATOM     37  C35 3LI d   1      26.325  -3.105   8.214  0.00  0.00     0.001 C 
ATOM     38  C36 3LI d   1      25.764  -4.244   7.379  0.00  0.00     0.087 C 
ATOM     39  H26 3LI d   1      27.332  -2.831   7.866  0.00  0.00     0.052 H 
ATOM     40  H27 3LI d   1      25.666  -2.226   8.159  0.00  0.00     0.052 H 
ATOM     41  H28 3LI d   1      24.664  -4.227   7.389  0.00  0.00     0.080 H 
BRANCH  38  42
ATOM     42  C37 3LI d   1      26.276  -4.057   5.983  0.00  0.00     0.237 C 
ATOM     43  O38 3LI d   1      25.657  -3.403   5.159  0.00  0.00    -0.272 OA
ATOM     44  N39 3LI d   1      27.480  -4.664   5.728  0.00  0.00    -0.351 N 
ATOM     45  H29 3LI d   1      27.932  -5.240   6.410  0.00  0.00     0.163 HD
BRANCH  44  46
ATOM     46  C40 3LI d   1      28.063  -4.431   4.428  0.00  0.00     0.071 C 
ATOM     47  H30 3LI d   1      27.394  -3.803   3.821  0.00  0.00     0.078 H 
ATOM     48  H31 3LI d   1      28.234  -5.388   3.913  0.00  0.00     0.078 H 
BRANCH  46  49
ATOM     49  C41 3LI d   1      29.364  -3.729   4.652  0.00  0.00     0.258 C 
ATOM     50  O42 3LI d   1      30.430  -4.320   4.712  0.00  0.00    -0.270 OA
ATOM     51  N43 3LI d   1      29.243  -2.372   4.788  0.00  0.00    -0.236 N 
ATOM     52  H32 3LI d   1      28.401  -1.849   4.655  0.00  0.00     0.197 HD
BRANCH  51  53
ATOM     53  O44 3LI d   1      30.501  -1.828   5.147  0.00  0.00    -0.287 OA
ATOM     54  H33 3LI d   1      30.422  -0.886   5.242  0.00  0.00     0.244 HD
ENDBRANCH  51  53
ENDBRANCH  46  49
ENDBRANCH  44  46
ENDBRANCH  38  42
ENDBRANCH   3  32
BRANCH   1  55
ATOM     55  N12 3LI d   1      24.250  -9.565   9.213  0.00  0.00    -0.186 N 
ATOM     56  H11 3LI d   1      24.887  -9.591  10.022  0.00  0.00     0.184 HD
BRANCH  55  57
ATOM     57  C11 3LI d   1      23.330 -10.604   9.044  0.00  0.00     0.071 A 
ATOM     58  C05 3LI d   1      23.750 -11.863   8.693  0.00  0.00     0.059 A 
ATOM     59  C06 3LI d   1      22.880 -12.913   8.525  0.00  0.00    -0.065 A 
ATOM     60  C07 3LI d   1      21.541 -12.689   8.722  0.00  0.00    -0.081 A 
ATOM     61  H5  3LI d   1      23.243 -13.895   8.243  0.00  0.00     0.085 H 
ATOM     62  C08 3LI d   1      21.100 -11.438   9.082  0.00  0.00    -0.075 A 
ATOM     63  H6  3LI d   1      20.831 -13.498   8.594  0.00  0.00     0.083 H 
ATOM     64  C09 3LI d   1      21.987 -10.398   9.242  0.00  0.00    -0.034 A 
ATOM     65  H7  3LI d   1      20.041 -11.269   9.242  0.00  0.00     0.084 H 
BRANCH  58  66
ATOM     66  C03 3LI d   1      25.171 -12.104   8.480  0.00  0.00     0.253 C 
ATOM     67  N02 3LI d   1      25.826 -12.532   9.598  0.00  0.00    -0.361 N 
ATOM     68  H4  3LI d   1      25.328 -12.653  10.457  0.00  0.00     0.162 HD
ATOM     69  O04 3LI d   1      25.658 -11.933   7.372  0.00  0.00    -0.268 OA
BRANCH  67  70
ATOM     70  C01 3LI d   1      27.236 -12.808   9.535  0.00  0.00    -0.018 C 
ATOM     71  H1  3LI d   1      27.589 -13.139  10.523  0.00  0.00     0.056 H 
ATOM     72  H2  3LI d   1      27.775 -11.896   9.240  0.00  0.00     0.056 H 
ATOM     73  H3  3LI d   1      27.422 -13.600   8.794  0.00  0.00     0.056 H 
ENDBRANCH  67  70
ENDBRANCH  58  66
BRANCH  64  74
ATOM     74  C10 3LI d   1      21.481  -9.055   9.633  0.00  0.00    -0.049 C 
ATOM     75  H8  3LI d   1      20.387  -9.093   9.743  0.00  0.00     0.033 H 
ATOM     76  H9  3LI d   1      21.746  -8.323   8.856  0.00  0.00     0.033 H 
ATOM     77  H10 3LI d   1      21.935  -8.756  10.589  0.00  0.00     0.033 H 
ENDBRANCH  64  74
ENDBRANCH  55  57
ENDBRANCH   1  55
TORSDOF 12
