REMARK  11 active torsions:
REMARK  status: ('A' for Active; 'I' for Inactive)
REMARK       I    between atoms: N1_3  and  C20_36 
REMARK    1  A    between atoms: C28_44  and  N1_3 
REMARK    2  A    between atoms: O1_4  and  C9_24 
REMARK    3  A    between atoms: C20_36  and  O1_4 
REMARK    4  A    between atoms: N3_10  and  S1_5 
REMARK    5  A    between atoms: S1_5  and  C23_39 
REMARK    6  A    between atoms: C2_6  and  C4_12 
REMARK       I    between atoms: C4_12  and  N3_10 
REMARK       I    between atoms: C35_51  and  N4_13 
REMARK    7  A    between atoms: C9_24  and  C6_18 
REMARK    8  A    between atoms: C9_24  and  C7_20 
REMARK    9  A    between atoms: C9_24  and  C8_22 
REMARK   10  A    between atoms: C30_46  and  O8_23 
REMARK   11  A    between atoms: O8_23  and  C35_51 
ROOT
ATOM      1  C1  TSV d   1     -12.503  -6.301  17.193  0.00  0.00    -0.023 A 
ATOM      2  C2  TSV d   1     -12.145  -6.789  15.794  0.00  0.00     0.122 A 
ATOM      3  N2  TSV d   1     -12.421  -8.178  15.514  0.00  0.00    -0.341 N 
ATOM      4  C3  TSV d   1     -13.420  -5.958  16.021  0.00  0.00    -0.002 A 
ATOM      5  O3  TSV d   1     -15.567  -8.472  15.333  0.00  0.00    -0.271 OA
ATOM      6  C5  TSV d   1     -13.481  -4.499  15.636  0.00  0.00    -0.100 C 
ATOM      7  N5  TSV d   1     -14.921  -9.933  13.779  0.00  0.00    -0.334 N 
ATOM      8  O7  TSV d   1     -13.136  -7.758  13.420  0.00  0.00    -0.271 OA
ATOM      9  C10 TSV d   1     -14.428  -4.026  14.800  0.00  0.00    -0.106 C 
ATOM     10  C11 TSV d   1     -12.997  -8.531  14.363  0.00  0.00     0.241 C 
ATOM     11  C13 TSV d   1     -15.501  -4.902  14.165  0.00  0.00    -0.050 C 
ATOM     12  C15 TSV d   1     -13.540  -9.923  14.287  0.00  0.00     0.094 C 
ATOM     13  C18 TSV d   1     -15.380  -4.886  12.637  0.00  0.00    -0.062 C 
ATOM     14  C19 TSV d   1     -16.530  -5.646  11.965  0.00  0.00    -0.065 C 
ATOM     15  C22 TSV d   1     -16.450  -7.157  12.207  0.00  0.00    -0.063 C 
ATOM     16  C25 TSV d   1     -17.472  -7.610  13.258  0.00  0.00    -0.038 C 
ATOM     17  C27 TSV d   1     -12.799 -10.760  13.258  0.00  0.00    -0.011 C 
ATOM     18  C28 TSV d   1     -17.214  -9.044  13.722  0.00  0.00     0.091 C 
ATOM     19  C30 TSV d   1     -13.847 -11.715  12.756  0.00  0.00     0.067 C 
ATOM     20  C33 TSV d   1     -15.838  -9.131  14.332  0.00  0.00     0.243 C 
ATOM     21  C34 TSV d   1     -15.107 -10.888  12.677  0.00  0.00     0.023 C 
ATOM     22  H1  TSV d   1     -11.903  -5.512  17.669  0.00  0.00     0.038 H 
ATOM     23  H2  TSV d   1     -12.835  -7.020  17.956  0.00  0.00     0.038 H 
ATOM     24  H4  TSV d   1     -12.180  -8.879  16.185  0.00  0.00     0.163 HD
ATOM     25  H5  TSV d   1     -14.409  -6.426  15.905  0.00  0.00     0.050 H 
ATOM     26  H7  TSV d   1     -12.742  -3.811  16.044  0.00  0.00     0.077 H 
ATOM     27  H17 TSV d   1     -14.426  -2.962  14.567  0.00  0.00     0.076 H 
ATOM     28  H19 TSV d   1     -16.493  -4.523  14.453  0.00  0.00     0.038 H 
ATOM     29  H20 TSV d   1     -15.384  -5.935  14.525  0.00  0.00     0.038 H 
ATOM     30  H22 TSV d   1     -13.484 -10.387  15.283  0.00  0.00     0.088 H 
ATOM     31  H25 TSV d   1     -14.428  -5.356  12.351  0.00  0.00     0.033 H 
ATOM     32  H26 TSV d   1     -15.393  -3.842  12.290  0.00  0.00     0.033 H 
ATOM     33  H27 TSV d   1     -16.492  -5.459  10.882  0.00  0.00     0.033 H 
ATOM     34  H28 TSV d   1     -17.483  -5.274  12.368  0.00  0.00     0.033 H 
ATOM     35  H29 TSV d   1     -15.439  -7.410  12.559  0.00  0.00     0.033 H 
ATOM     36  H30 TSV d   1     -16.652  -7.682  11.262  0.00  0.00     0.033 H 
ATOM     37  H32 TSV d   1     -18.480  -7.553  12.822  0.00  0.00     0.036 H 
ATOM     38  H33 TSV d   1     -17.410  -6.938  14.127  0.00  0.00     0.036 H 
ATOM     39  H34 TSV d   1     -11.963 -11.303  13.723  0.00  0.00     0.040 H 
ATOM     40  H35 TSV d   1     -12.418 -10.130  12.441  0.00  0.00     0.040 H 
ATOM     41  H36 TSV d   1     -17.283  -9.725  12.861  0.00  0.00     0.087 H 
ATOM     42  H39 TSV d   1     -13.573 -12.159  11.787  0.00  0.00     0.086 H 
ATOM     43  H43 TSV d   1     -15.184 -10.370  11.710  0.00  0.00     0.068 H 
ATOM     44  H44 TSV d   1     -16.002 -11.508  12.834  0.00  0.00     0.068 H 
ENDROOT
BRANCH  18  45
ATOM     45  N1  TSV d   1     -18.184  -9.428  14.724  0.00  0.00    -0.324 N 
ATOM     46  C20 TSV d   1     -18.395 -10.694  15.044  0.00  0.00     0.362 C 
ATOM     47  O2  TSV d   1     -17.917 -11.656  14.449  0.00  0.00    -0.238 OA
ATOM     48  H3  TSV d   1     -18.710  -8.716  15.188  0.00  0.00     0.165 HD
BRANCH  46  49
ATOM     49  O1  TSV d   1     -19.250 -10.889  16.184  0.00  0.00    -0.294 OA
BRANCH  49  50
ATOM     50  C9  TSV d   1     -19.696 -12.174  16.622  0.00  0.00     0.061 C 
BRANCH  50  51
ATOM     51  C6  TSV d   1     -18.498 -13.039  16.999  0.00  0.00    -0.048 C 
ATOM     52  H8  TSV d   1     -18.849 -14.026  17.335  0.00  0.00     0.031 H 
ATOM     53  H9  TSV d   1     -17.936 -12.554  17.811  0.00  0.00     0.031 H 
ATOM     54  H10 TSV d   1     -17.844 -13.161  16.123  0.00  0.00     0.031 H 
ENDBRANCH  50  51
BRANCH  50  55
ATOM     55  C7  TSV d   1     -20.585 -11.942  17.837  0.00  0.00    -0.048 C 
ATOM     56  H11 TSV d   1     -20.954 -12.908  18.211  0.00  0.00     0.031 H 
ATOM     57  H12 TSV d   1     -21.438 -11.309  17.552  0.00  0.00     0.031 H 
ATOM     58  H13 TSV d   1     -20.005 -11.441  18.626  0.00  0.00     0.031 H 
ENDBRANCH  50  55
BRANCH  50  59
ATOM     59  C8  TSV d   1     -20.491 -12.834  15.494  0.00  0.00    -0.048 C 
ATOM     60  H14 TSV d   1     -20.839 -13.825  15.822  0.00  0.00     0.031 H 
ATOM     61  H15 TSV d   1     -19.848 -12.946  14.609  0.00  0.00     0.031 H 
ATOM     62  H16 TSV d   1     -21.358 -12.206  15.240  0.00  0.00     0.031 H 
ENDBRANCH  50  59
ENDBRANCH  49  50
ENDBRANCH  46  49
ENDBRANCH  18  45
BRANCH  19  63
ATOM     63  O8  TSV d   1     -14.071 -12.711  13.744  0.00  0.00    -0.296 OA
BRANCH  63  64
ATOM     64  C35 TSV d   1     -13.142 -13.793  13.741  0.00  0.00     0.371 C 
ATOM     65  N4  TSV d   1     -13.250 -14.597  14.747  0.00  0.00    -0.278 N 
ATOM     66  C12 TSV d   1     -12.535 -15.872  14.821  0.00  0.00     0.000 A 
ATOM     67  C31 TSV d   1     -14.124 -14.347  15.893  0.00  0.00     0.003 A 
ATOM     68  C24 TSV d   1     -13.085 -16.459  16.070  0.00  0.00    -0.005 A 
ATOM     69  H18 TSV d   1     -11.793 -16.283  14.138  0.00  0.00     0.113 H 
ATOM     70  C16 TSV d   1     -12.773 -17.696  16.609  0.00  0.00    -0.071 A 
ATOM     71  C26 TSV d   1     -13.960 -15.621  16.662  0.00  0.00     0.030 A 
ATOM     72  C14 TSV d   1     -13.405 -18.057  17.795  0.00  0.00    -0.079 A 
ATOM     73  H23 TSV d   1     -12.063 -18.358  16.125  0.00  0.00     0.084 H 
ATOM     74  C17 TSV d   1     -14.320 -17.189  18.404  0.00  0.00    -0.045 A 
ATOM     75  H21 TSV d   1     -13.188 -19.016  18.250  0.00  0.00     0.083 H 
ATOM     76  C21 TSV d   1     -14.598 -15.946  17.825  0.00  0.00     0.128 A 
ATOM     77  H24 TSV d   1     -14.813 -17.480  19.324  0.00  0.00     0.088 H 
ATOM     78  F1  TSV d   1     -15.459 -15.073  18.366  0.00  0.00    -0.205 F 
ATOM     79  H40 TSV d   1     -14.729 -13.472  16.124  0.00  0.00     0.114 H 
ATOM     80  O5  TSV d   1     -12.342 -13.950  12.839  0.00  0.00    -0.238 OA
ENDBRANCH  63  64
ENDBRANCH  19  63
BRANCH   2  81
ATOM     81  C4  TSV d   1     -10.928  -6.147  15.194  0.00  0.00     0.260 C 
ATOM     82  N3  TSV d   1     -10.141  -6.947  14.467  0.00  0.00    -0.252 N 
ATOM     83  H6  TSV d   1     -10.357  -7.916  14.345  0.00  0.00     0.181 HD
ATOM     84  O9  TSV d   1     -10.666  -4.966  15.403  0.00  0.00    -0.270 OA
BRANCH  82  85
ATOM     85  S1  TSV d   1      -8.846  -6.300  13.803  0.00  0.00     0.237 S 
ATOM     86  O4  TSV d   1      -7.907  -5.790  14.800  0.00  0.00    -0.205 OA
ATOM     87  O6  TSV d   1      -9.246  -5.280  12.823  0.00  0.00    -0.205 OA
BRANCH  85  88
ATOM     88  C23 TSV d   1      -8.120  -7.552  12.937  0.00  0.00     0.063 A 
ATOM     89  C29 TSV d   1      -6.675  -7.345  12.491  0.00  0.00    -0.046 A 
ATOM     90  C32 TSV d   1      -6.985  -8.316  13.626  0.00  0.00    -0.046 A 
ATOM     91  H37 TSV d   1      -6.165  -6.394  12.705  0.00  0.00     0.035 H 
ATOM     92  H38 TSV d   1      -6.341  -7.729  11.516  0.00  0.00     0.035 H 
ATOM     93  H41 TSV d   1      -6.876  -9.399  13.469  0.00  0.00     0.035 H 
ATOM     94  H42 TSV d   1      -6.700  -8.065  14.658  0.00  0.00     0.035 H 
ATOM     95  H31 TSV d   1      -8.850  -8.067  12.295  0.00  0.00     0.066 H 
ENDBRANCH  85  88
ENDBRANCH  82  85
ENDBRANCH   2  81
TORSDOF 11
