REMARK  11 active torsions:
REMARK  status: ('A' for Active; 'I' for Inactive)
REMARK       I    between atoms: N1_3  and  C20_36 
REMARK    1  A    between atoms: C28_44  and  N1_3 
REMARK    2  A    between atoms: O1_4  and  C9_24 
REMARK    3  A    between atoms: C20_36  and  O1_4 
REMARK    4  A    between atoms: N3_10  and  S1_5 
REMARK    5  A    between atoms: S1_5  and  C23_39 
REMARK    6  A    between atoms: C2_6  and  C4_12 
REMARK       I    between atoms: C4_12  and  N3_10 
REMARK       I    between atoms: C35_51  and  N4_13 
REMARK    7  A    between atoms: C9_24  and  C6_18 
REMARK    8  A    between atoms: C9_24  and  C7_20 
REMARK    9  A    between atoms: C9_24  and  C8_22 
REMARK   10  A    between atoms: C30_46  and  O8_23 
REMARK   11  A    between atoms: O8_23  and  C35_51 
ROOT
ATOM      1  C1  TSV d   1     -12.501  -6.169  17.050  0.00  0.00    -0.023 A 
ATOM      2  C2  TSV d   1     -12.134  -6.639  15.634  0.00  0.00     0.122 A 
ATOM      3  N2  TSV d   1     -12.406  -8.026  15.359  0.00  0.00    -0.341 N 
ATOM      4  C3  TSV d   1     -13.420  -5.826  15.884  0.00  0.00    -0.002 A 
ATOM      5  O3  TSV d   1     -15.541  -8.363  15.235  0.00  0.00    -0.271 OA
ATOM      6  C5  TSV d   1     -13.501  -4.375  15.494  0.00  0.00    -0.100 C 
ATOM      7  N5  TSV d   1     -14.897  -9.847  13.695  0.00  0.00    -0.334 N 
ATOM      8  O7  TSV d   1     -13.129  -7.662  13.274  0.00  0.00    -0.271 OA
ATOM      9  C10 TSV d   1     -14.460  -3.906  14.682  0.00  0.00    -0.106 C 
ATOM     10  C11 TSV d   1     -12.966  -8.414  14.222  0.00  0.00     0.241 C 
ATOM     11  C13 TSV d   1     -15.553  -4.772  14.087  0.00  0.00    -0.050 C 
ATOM     12  C15 TSV d   1     -13.507  -9.812  14.177  0.00  0.00     0.094 C 
ATOM     13  C18 TSV d   1     -15.425  -4.837  12.571  0.00  0.00    -0.062 C 
ATOM     14  C19 TSV d   1     -16.600  -5.608  11.956  0.00  0.00    -0.065 C 
ATOM     15  C22 TSV d   1     -16.508  -7.120  12.201  0.00  0.00    -0.063 C 
ATOM     16  C25 TSV d   1     -17.523  -7.614  13.237  0.00  0.00    -0.038 C 
ATOM     17  C27 TSV d   1     -12.771 -10.669  13.165  0.00  0.00    -0.011 C 
ATOM     18  C28 TSV d   1     -17.214  -9.031  13.708  0.00  0.00     0.091 C 
ATOM     19  C30 TSV d   1     -13.816 -11.671  12.759  0.00  0.00     0.067 C 
ATOM     20  C33 TSV d   1     -15.817  -9.073  14.273  0.00  0.00     0.243 C 
ATOM     21  C34 TSV d   1     -15.055 -10.819  12.599  0.00  0.00     0.023 C 
ATOM     22  H1  TSV d   1     -11.912  -5.377  17.535  0.00  0.00     0.038 H 
ATOM     23  H2  TSV d   1     -12.823  -6.901  17.805  0.00  0.00     0.038 H 
ATOM     24  H4  TSV d   1     -12.166  -8.714  16.044  0.00  0.00     0.163 HD
ATOM     25  H5  TSV d   1     -14.403  -6.306  15.772  0.00  0.00     0.050 H 
ATOM     26  H7  TSV d   1     -12.756  -3.683  15.884  0.00  0.00     0.077 H 
ATOM     27  H17 TSV d   1     -14.453  -2.845  14.437  0.00  0.00     0.076 H 
ATOM     28  H19 TSV d   1     -16.533  -4.346  14.348  0.00  0.00     0.038 H 
ATOM     29  H20 TSV d   1     -15.473  -5.788  14.500  0.00  0.00     0.038 H 
ATOM     30  H22 TSV d   1     -13.435 -10.253  15.182  0.00  0.00     0.088 H 
ATOM     31  H25 TSV d   1     -14.485  -5.345  12.310  0.00  0.00     0.033 H 
ATOM     32  H26 TSV d   1     -15.414  -3.814  12.166  0.00  0.00     0.033 H 
ATOM     33  H27 TSV d   1     -16.610  -5.427  10.871  0.00  0.00     0.033 H 
ATOM     34  H28 TSV d   1     -17.536  -5.236  12.399  0.00  0.00     0.033 H 
ATOM     35  H29 TSV d   1     -15.495  -7.357  12.559  0.00  0.00     0.033 H 
ATOM     36  H30 TSV d   1     -16.693  -7.642  11.251  0.00  0.00     0.033 H 
ATOM     37  H32 TSV d   1     -18.526  -7.600  12.786  0.00  0.00     0.036 H 
ATOM     38  H33 TSV d   1     -17.502  -6.939  14.105  0.00  0.00     0.036 H 
ATOM     39  H34 TSV d   1     -11.902 -11.165  13.622  0.00  0.00     0.040 H 
ATOM     40  H35 TSV d   1     -12.440 -10.070  12.304  0.00  0.00     0.040 H 
ATOM     41  H36 TSV d   1     -17.285  -9.719  12.852  0.00  0.00     0.087 H 
ATOM     42  H39 TSV d   1     -13.541 -12.204  11.837  0.00  0.00     0.086 H 
ATOM     43  H43 TSV d   1     -15.073 -10.319  11.620  0.00  0.00     0.068 H 
ATOM     44  H44 TSV d   1     -15.970 -11.416  12.723  0.00  0.00     0.068 H 
ENDROOT
BRANCH  18  45
ATOM     45  N1  TSV d   1     -18.143  -9.449  14.732  0.00  0.00    -0.324 N 
ATOM     46  C20 TSV d   1     -18.325 -10.732  15.025  0.00  0.00     0.362 C 
ATOM     47  O2  TSV d   1     -17.827 -11.665  14.398  0.00  0.00    -0.238 OA
ATOM     48  H3  TSV d   1     -18.662  -8.756  15.232  0.00  0.00     0.165 HD
BRANCH  46  49
ATOM     49  O1  TSV d   1     -19.114 -10.977  16.197  0.00  0.00    -0.294 OA
BRANCH  49  50
ATOM     50  C9  TSV d   1     -19.448 -12.273  16.685  0.00  0.00     0.061 C 
BRANCH  50  51
ATOM     51  C6  TSV d   1     -18.188 -13.077  17.008  0.00  0.00    -0.048 C 
ATOM     52  H8  TSV d   1     -18.473 -14.071  17.382  0.00  0.00     0.031 H 
ATOM     53  H9  TSV d   1     -17.604 -12.550  17.777  0.00  0.00     0.031 H 
ATOM     54  H10 TSV d   1     -17.581 -13.188  16.098  0.00  0.00     0.031 H 
ENDBRANCH  50  51
BRANCH  50  55
ATOM     55  C7  TSV d   1     -20.264 -12.040  17.946  0.00  0.00    -0.048 C 
ATOM     56  H11 TSV d   1     -20.557 -13.009  18.377  0.00  0.00     0.031 H 
ATOM     57  H12 TSV d   1     -21.166 -11.462  17.697  0.00  0.00     0.031 H 
ATOM     58  H13 TSV d   1     -19.660 -11.481  18.676  0.00  0.00     0.031 H 
ENDBRANCH  50  55
BRANCH  50  59
ATOM     59  C8  TSV d   1     -20.293 -12.989  15.636  0.00  0.00    -0.048 C 
ATOM     60  H14 TSV d   1     -20.558 -13.992  16.001  0.00  0.00     0.031 H 
ATOM     61  H15 TSV d   1     -19.719 -13.079  14.702  0.00  0.00     0.031 H 
ATOM     62  H16 TSV d   1     -21.211 -12.413  15.449  0.00  0.00     0.031 H 
ENDBRANCH  50  59
ENDBRANCH  49  50
ENDBRANCH  46  49
ENDBRANCH  18  45
BRANCH  19  63
ATOM     63  O8  TSV d   1     -14.080 -12.578  13.820  0.00  0.00    -0.296 OA
BRANCH  63  64
ATOM     64  C35 TSV d   1     -13.252 -13.756  13.904  0.00  0.00     0.371 C 
ATOM     65  N4  TSV d   1     -13.415 -14.441  15.017  0.00  0.00    -0.278 N 
ATOM     66  C12 TSV d   1     -12.862 -15.786  15.275  0.00  0.00     0.000 A 
ATOM     67  C31 TSV d   1     -14.213 -13.941  16.141  0.00  0.00     0.003 A 
ATOM     68  C24 TSV d   1     -13.414 -16.093  16.634  0.00  0.00    -0.005 A 
ATOM     69  H18 TSV d   1     -12.220 -16.396  14.642  0.00  0.00     0.113 H 
ATOM     70  C16 TSV d   1     -13.232 -17.256  17.385  0.00  0.00    -0.071 A 
ATOM     71  C26 TSV d   1     -14.156 -15.075  17.121  0.00  0.00     0.030 A 
ATOM     72  C14 TSV d   1     -13.834 -17.337  18.636  0.00  0.00    -0.079 A 
ATOM     73  H23 TSV d   1     -12.636 -18.076  17.002  0.00  0.00     0.084 H 
ATOM     74  C17 TSV d   1     -14.592 -16.282  19.135  0.00  0.00    -0.045 A 
ATOM     75  H21 TSV d   1     -13.711 -18.235  19.231  0.00  0.00     0.083 H 
ATOM     76  C21 TSV d   1     -14.764 -15.134  18.355  0.00  0.00     0.128 A 
ATOM     77  H24 TSV d   1     -15.044 -16.349  20.118  0.00  0.00     0.088 H 
ATOM     78  F1  TSV d   1     -15.491 -14.115  18.824  0.00  0.00    -0.205 F 
ATOM     79  H40 TSV d   1     -14.721 -12.983  16.240  0.00  0.00     0.114 H 
ATOM     80  O5  TSV d   1     -12.517 -14.039  12.973  0.00  0.00    -0.238 OA
ENDBRANCH  63  64
ENDBRANCH  19  63
BRANCH   2  81
ATOM     81  C4  TSV d   1     -10.914  -5.993  15.055  0.00  0.00     0.260 C 
ATOM     82  N3  TSV d   1     -10.116  -6.757  14.285  0.00  0.00    -0.252 N 
ATOM     83  H6  TSV d   1     -10.323  -7.723  14.132  0.00  0.00     0.181 HD
ATOM     84  O9  TSV d   1     -10.659  -4.826  15.286  0.00  0.00    -0.270 OA
BRANCH  82  85
ATOM     85  S1  TSV d   1      -8.842  -6.087  13.628  0.00  0.00     0.237 S 
ATOM     86  O4  TSV d   1      -7.922  -5.576  14.602  0.00  0.00    -0.205 OA
ATOM     87  O6  TSV d   1      -9.260  -5.075  12.682  0.00  0.00    -0.205 OA
BRANCH  85  88
ATOM     88  C23 TSV d   1      -8.113  -7.296  12.725  0.00  0.00     0.063 A 
ATOM     89  C29 TSV d   1      -6.662  -7.096  12.288  0.00  0.00    -0.046 A 
ATOM     90  C32 TSV d   1      -6.985  -8.069  13.411  0.00  0.00    -0.046 A 
ATOM     91  H37 TSV d   1      -6.146  -6.151  12.512  0.00  0.00     0.035 H 
ATOM     92  H38 TSV d   1      -6.325  -7.476  11.312  0.00  0.00     0.035 H 
ATOM     93  H41 TSV d   1      -6.882  -9.152  13.247  0.00  0.00     0.035 H 
ATOM     94  H42 TSV d   1      -6.703  -7.827  14.446  0.00  0.00     0.035 H 
ATOM     95  H31 TSV d   1      -8.841  -7.795  12.069  0.00  0.00     0.066 H 
ENDBRANCH  85  88
ENDBRANCH  82  85
ENDBRANCH   2  81
TORSDOF 11
