REMARK  13 active torsions:
REMARK  status: ('A' for Active; 'I' for Inactive)
REMARK    1  A    between atoms: C_1  and  CA_4 
REMARK       I    between atoms: NAV_21  and  C_1 
REMARK    2  A    between atoms: CAH_9  and  CAL_13 
REMARK    3  A    between atoms: CAL_13  and  CAT_20 
REMARK    4  A    between atoms: CAL_13  and  CBZ_50 
REMARK    5  A    between atoms: CAL_13  and  CCA_51 
REMARK    6  A    between atoms: CAR_18  and  CAS_19 
REMARK    7  A    between atoms: CAZ_24  and  CAR_18 
REMARK    8  A    between atoms: CAX_22  and  NAV_21 
REMARK    9  A    between atoms: CAX_22  and  CAY_23 
REMARK       I    between atoms: CAY_23  and  NBK_35 
REMARK   10  A    between atoms: NBK_35  and  SBM_37 
REMARK   11  A    between atoms: SBM_37  and  CBN_38 
REMARK   12  A    between atoms: CBV_46  and  CBX_48 
REMARK   13  A    between atoms: CBV_46  and  CBY_49 
ROOT
ATOM      1  N   SU3 d   1      39.698  -1.275   5.096  0.00  0.00    -0.334 N 
ATOM      2  CA  SU3 d   1      38.926  -0.027   4.906  0.00  0.00     0.094 C 
ATOM      3  CB  SU3 d   1      39.909   0.963   4.297  0.00  0.00    -0.011 C 
ATOM      4  CG  SU3 d   1      41.238   0.521   4.880  0.00  0.00     0.067 C 
ATOM      5  CAF SU3 d   1      39.254  -2.498   5.448  0.00  0.00     0.244 C 
ATOM      6  OAG SU3 d   1      38.043  -2.612   5.678  0.00  0.00    -0.271 OA
ATOM      7  CAH SU3 d   1      40.177  -3.726   5.626  0.00  0.00     0.098 C 
ATOM      8  NAI SU3 d   1      39.795  -4.390   6.879  0.00  0.00    -0.323 N 
ATOM      9  CAJ SU3 d   1      40.448  -4.201   8.015  0.00  0.00     0.361 C 
ATOM     10  OAK SU3 d   1      39.966  -4.891   9.086  0.00  0.00    -0.303 OA
ATOM     11  OAM SU3 d   1      41.438  -3.471   8.120  0.00  0.00    -0.239 OA
ATOM     12  CAO SU3 d   1      41.672   2.063   6.582  0.00  0.00     0.371 C 
ATOM     13  OAP SU3 d   1      41.959   2.911   5.739  0.00  0.00    -0.238 OA
ATOM     14  NAQ SU3 d   1      41.683   2.452   7.826  0.00  0.00    -0.278 N 
ATOM     15  CBB SU3 d   1      41.976   3.788   8.373  0.00  0.00     0.000 A 
ATOM     16  CBC SU3 d   1      41.821   3.652   9.863  0.00  0.00    -0.008 A 
ATOM     17  CBD SU3 d   1      41.491   2.330  10.163  0.00  0.00    -0.002 A 
ATOM     18  CBE SU3 d   1      41.393   1.498   8.890  0.00  0.00     0.001 A 
ATOM     19  CBF SU3 d   1      41.952   4.590  10.882  0.00  0.00    -0.071 A 
ATOM     20  CBG SU3 d   1      41.738   4.186  12.184  0.00  0.00    -0.082 A 
ATOM     21  CBH SU3 d   1      41.416   2.856  12.486  0.00  0.00    -0.076 A 
ATOM     22  CBI SU3 d   1      41.278   1.915  11.471  0.00  0.00    -0.046 A 
ATOM     23  CBJ SU3 d   1      40.946   0.491  11.871  0.00  0.00    -0.040 C 
ATOM     24  CBS SU3 d   1      39.533   0.034  11.514  0.00  0.00    -0.061 C 
ATOM     25  CBT SU3 d   1      39.326  -1.417  11.960  0.00  0.00    -0.064 C 
ATOM     26  CBU SU3 d   1      39.880  -2.418  10.922  0.00  0.00    -0.057 C 
ATOM     27  CBV SU3 d   1      39.779  -3.893  11.362  0.00  0.00    -0.025 C 
ATOM     28  CBW SU3 d   1      40.602  -4.678  10.365  0.00  0.00     0.037 C 
ATOM     29  CD1 SU3 d   1      41.111  -0.986   4.815  0.00  0.00     0.023 C 
ATOM     30  OD2 SU3 d   1      41.361   0.770   6.283  0.00  0.00    -0.296 OA
ATOM     31  H1  SU3 d   1      38.544   0.358   5.863  0.00  0.00     0.088 H 
ATOM     32  H2  SU3 d   1      39.669   1.994   4.596  0.00  0.00     0.040 H 
ATOM     33  H3  SU3 d   1      39.915   0.891   3.199  0.00  0.00     0.040 H 
ATOM     34  H4  SU3 d   1      42.091   0.928   4.317  0.00  0.00     0.086 H 
ATOM     35  H5  SU3 d   1      41.220  -3.383   5.699  0.00  0.00     0.088 H 
ATOM     36  H6  SU3 d   1      39.010  -5.010   6.874  0.00  0.00     0.165 HD
ATOM     37  H19 SU3 d   1      42.247   4.684   7.817  0.00  0.00     0.113 H 
ATOM     38  H20 SU3 d   1      41.161   0.438   8.797  0.00  0.00     0.113 H 
ATOM     39  H21 SU3 d   1      42.217   5.617  10.658  0.00  0.00     0.084 H 
ATOM     40  H22 SU3 d   1      41.820   4.910  12.987  0.00  0.00     0.083 H 
ATOM     41  H23 SU3 d   1      41.273   2.558  13.518  0.00  0.00     0.084 H 
ATOM     42  H24 SU3 d   1      41.067   0.405  12.961  0.00  0.00     0.040 H 
ATOM     43  H25 SU3 d   1      41.659  -0.180  11.369  0.00  0.00     0.040 H 
ATOM     44  H32 SU3 d   1      39.391   0.105  10.425  0.00  0.00     0.033 H 
ATOM     45  H33 SU3 d   1      38.801   0.680  12.022  0.00  0.00     0.033 H 
ATOM     46  H34 SU3 d   1      38.249  -1.599  12.092  0.00  0.00     0.033 H 
ATOM     47  H35 SU3 d   1      39.844  -1.573  12.918  0.00  0.00     0.033 H 
ATOM     48  H36 SU3 d   1      40.939  -2.181  10.743  0.00  0.00     0.034 H 
ATOM     49  H37 SU3 d   1      39.314  -2.296   9.987  0.00  0.00     0.034 H 
ATOM     50  H38 SU3 d   1      41.542  -4.133  10.193  0.00  0.00     0.076 H 
ATOM     51  H39 SU3 d   1      40.824  -5.662  10.804  0.00  0.00     0.076 H 
ATOM     52  H52 SU3 d   1      41.386  -1.352   3.815  0.00  0.00     0.068 H 
ATOM     53  H53 SU3 d   1      41.757  -1.459   5.569  0.00  0.00     0.068 H 
ENDROOT
BRANCH   2  54
ATOM     54  C   SU3 d   1      37.757  -0.356   3.976  0.00  0.00     0.241 C 
ATOM     55  O   SU3 d   1      37.938  -0.949   2.915  0.00  0.00    -0.271 OA
ATOM     56  NAV SU3 d   1      36.549  -0.016   4.431  0.00  0.00    -0.341 N 
ATOM     57  H15 SU3 d   1      36.479   0.495   5.287  0.00  0.00     0.163 HD
BRANCH  56  58
ATOM     58  CAX SU3 d   1      35.323  -0.371   3.711  0.00  0.00     0.119 A 
ATOM     59  CAZ SU3 d   1      34.911  -1.836   3.845  0.00  0.00    -0.018 A 
ATOM     60  CBA SU3 d   1      34.122  -0.746   4.570  0.00  0.00    -0.027 A 
ATOM     61  H16 SU3 d   1      35.544  -2.558   4.382  0.00  0.00     0.044 H 
ATOM     62  H17 SU3 d   1      33.106  -0.489   4.237  0.00  0.00     0.038 H 
ATOM     63  H18 SU3 d   1      34.181  -0.661   5.665  0.00  0.00     0.038 H 
BRANCH  58  64
ATOM     64  CAY SU3 d   1      35.047   0.398   2.404  0.00  0.00     0.259 C 
ATOM     65  NBK SU3 d   1      35.841   1.437   2.150  0.00  0.00    -0.252 N 
ATOM     66  H26 SU3 d   1      36.580   1.704   2.769  0.00  0.00     0.181 HD
ATOM     67  OBL SU3 d   1      34.116   0.058   1.670  0.00  0.00    -0.270 OA
BRANCH  65  68
ATOM     68  SBM SU3 d   1      35.535   2.246   0.770  0.00  0.00     0.237 S 
ATOM     69  OBO SU3 d   1      35.672   1.347  -0.413  0.00  0.00    -0.205 OA
ATOM     70  OBP SU3 d   1      34.189   2.891   0.793  0.00  0.00    -0.205 OA
BRANCH  68  71
ATOM     71  CBN SU3 d   1      36.781   3.555   0.679  0.00  0.00     0.063 A 
ATOM     72  CBQ SU3 d   1      36.448   4.658  -0.301  0.00  0.00    -0.046 A 
ATOM     73  CBR SU3 d   1      36.259   4.887   1.208  0.00  0.00    -0.046 A 
ATOM     74  H28 SU3 d   1      35.570   4.564  -0.957  0.00  0.00     0.035 H 
ATOM     75  H29 SU3 d   1      37.255   5.177  -0.839  0.00  0.00     0.035 H 
ATOM     76  H30 SU3 d   1      36.931   5.567   1.752  0.00  0.00     0.035 H 
ATOM     77  H31 SU3 d   1      35.247   4.954   1.634  0.00  0.00     0.035 H 
ATOM     78  H27 SU3 d   1      37.807   3.196   0.847  0.00  0.00     0.066 H 
ENDBRANCH  68  71
ENDBRANCH  65  68
ENDBRANCH  58  64
BRANCH  59  79
ATOM     79  CAR SU3 d   1      34.177  -2.495   2.678  0.00  0.00    -0.062 C 
ATOM     80  H7  SU3 d   1      33.492  -3.259   3.074  0.00  0.00     0.033 H 
ATOM     81  H8  SU3 d   1      33.600  -1.728   2.141  0.00  0.00     0.033 H 
BRANCH  79  82
ATOM     82  CAS SU3 d   1      35.149  -3.158   1.702  0.00  0.00    -0.076 C 
ATOM     83  H9  SU3 d   1      34.584  -3.620   0.879  0.00  0.00     0.027 H 
ATOM     84  H10 SU3 d   1      35.727  -3.932   2.229  0.00  0.00     0.027 H 
ATOM     85  H11 SU3 d   1      35.835  -2.400   1.296  0.00  0.00     0.027 H 
ENDBRANCH  79  82
ENDBRANCH  59  79
ENDBRANCH  56  58
ENDBRANCH   2  54
BRANCH   7  86
ATOM     86  CAL SU3 d   1      40.066  -4.713   4.433  0.00  0.00    -0.022 C 
BRANCH  86  87
ATOM     87  CAT SU3 d   1      38.611  -5.126   4.205  0.00  0.00    -0.067 C 
ATOM     88  H12 SU3 d   1      38.557  -5.824   3.357  0.00  0.00     0.028 H 
ATOM     89  H13 SU3 d   1      38.007  -4.234   3.985  0.00  0.00     0.028 H 
ATOM     90  H14 SU3 d   1      38.223  -5.617   5.109  0.00  0.00     0.028 H 
ENDBRANCH  86  87
BRANCH  86  91
ATOM     91  CBZ SU3 d   1      40.607  -4.027   3.166  0.00  0.00    -0.067 C 
ATOM     92  H46 SU3 d   1      41.653  -3.729   3.329  0.00  0.00     0.028 H 
ATOM     93  H47 SU3 d   1      40.002  -3.135   2.945  0.00  0.00     0.028 H 
ATOM     94  H48 SU3 d   1      40.552  -4.726   2.319  0.00  0.00     0.028 H 
ENDBRANCH  86  91
BRANCH  86  95
ATOM     95  CCA SU3 d   1      40.853  -5.975   4.697  0.00  0.00    -0.067 C 
ATOM     96  H49 SU3 d   1      40.467  -6.465   5.603  0.00  0.00     0.028 H 
ATOM     97  H50 SU3 d   1      41.914  -5.722   4.841  0.00  0.00     0.028 H 
ATOM     98  H51 SU3 d   1      40.752  -6.656   3.839  0.00  0.00     0.028 H 
ENDBRANCH  86  95
ENDBRANCH   7  86
BRANCH  27  99
ATOM     99  CBX SU3 d   1      40.430  -4.108  12.738  0.00  0.00    -0.067 C 
ATOM    100  H40 SU3 d   1      39.865  -3.554  13.502  0.00  0.00     0.028 H 
ATOM    101  H41 SU3 d   1      41.468  -3.744  12.714  0.00  0.00     0.028 H 
ATOM    102  H42 SU3 d   1      40.424  -5.180  12.983  0.00  0.00     0.028 H 
ENDBRANCH  27  99
BRANCH  27 103
ATOM    103  CBY SU3 d   1      38.303  -4.377  11.384  0.00  0.00    -0.067 C 
ATOM    104  H43 SU3 d   1      37.850  -4.217  10.394  0.00  0.00     0.028 H 
ATOM    105  H44 SU3 d   1      37.742  -3.808  12.140  0.00  0.00     0.028 H 
ATOM    106  H45 SU3 d   1      38.272  -5.448  11.633  0.00  0.00     0.028 H 
ENDBRANCH  27 103
TORSDOF 13
