REMARK  13 active torsions:
REMARK  status: ('A' for Active; 'I' for Inactive)
REMARK    1  A    between atoms: C_1  and  CA_4 
REMARK       I    between atoms: NAV_21  and  C_1 
REMARK    2  A    between atoms: CAH_9  and  CAL_13 
REMARK    3  A    between atoms: CAL_13  and  CAT_20 
REMARK    4  A    between atoms: CAL_13  and  CBZ_50 
REMARK    5  A    between atoms: CAL_13  and  CCA_51 
REMARK    6  A    between atoms: CAR_18  and  CAS_19 
REMARK    7  A    between atoms: CAZ_24  and  CAR_18 
REMARK    8  A    between atoms: CAX_22  and  NAV_21 
REMARK    9  A    between atoms: CAX_22  and  CAY_23 
REMARK       I    between atoms: CAY_23  and  NBK_35 
REMARK   10  A    between atoms: NBK_35  and  SBM_37 
REMARK   11  A    between atoms: SBM_37  and  CBN_38 
REMARK   12  A    between atoms: CBV_46  and  CBX_48 
REMARK   13  A    between atoms: CBV_46  and  CBY_49 
ROOT
ATOM      1  N   SU3 d   1     -15.037  -9.738  13.560  0.00  0.00    -0.334 N 
ATOM      2  CA  SU3 d   1     -13.639  -9.703  14.042  0.00  0.00     0.094 C 
ATOM      3  CB  SU3 d   1     -12.881 -10.515  13.017  0.00  0.00    -0.011 C 
ATOM      4  CG  SU3 d   1     -13.905 -11.556  12.582  0.00  0.00     0.067 C 
ATOM      5  CAF SU3 d   1     -16.022  -9.011  14.101  0.00  0.00     0.244 C 
ATOM      6  OAG SU3 d   1     -15.778  -8.256  15.051  0.00  0.00    -0.271 OA
ATOM      7  CAH SU3 d   1     -17.409  -9.083  13.516  0.00  0.00     0.098 C 
ATOM      8  NAI SU3 d   1     -18.352  -9.338  14.602  0.00  0.00    -0.323 N 
ATOM      9  CAJ SU3 d   1     -18.962 -10.505  14.742  0.00  0.00     0.361 C 
ATOM     10  OAK SU3 d   1     -19.766 -10.553  15.819  0.00  0.00    -0.303 OA
ATOM     11  OAM SU3 d   1     -18.846 -11.449  13.956  0.00  0.00    -0.239 OA
ATOM     12  CAO SU3 d   1     -13.281 -13.592  13.673  0.00  0.00     0.363 C 
ATOM     13  OAP SU3 d   1     -12.401 -13.749  12.830  0.00  0.00    -0.238 OA
ATOM     14  NAQ SU3 d   1     -13.453 -14.466  14.644  0.00  0.00    -0.320 N 
ATOM     15  CBB SU3 d   1     -12.753 -15.737  14.902  0.00  0.00     0.024 A 
ATOM     16  CBC SU3 d   1     -13.374 -16.304  16.169  0.00  0.00    -0.032 A 
ATOM     17  CBD SU3 d   1     -14.354 -15.434  16.620  0.00  0.00    -0.026 A 
ATOM     18  CBE SU3 d   1     -14.470 -14.233  15.684  0.00  0.00     0.025 A 
ATOM     19  CBF SU3 d   1     -13.116 -17.475  16.881  0.00  0.00    -0.075 A 
ATOM     20  CBG SU3 d   1     -13.839 -17.747  18.037  0.00  0.00    -0.082 A 
ATOM     21  CBH SU3 d   1     -14.817 -16.864  18.482  0.00  0.00    -0.076 A 
ATOM     22  CBI SU3 d   1     -15.089 -15.693  17.773  0.00  0.00    -0.050 A 
ATOM     23  CBJ SU3 d   1     -16.164 -14.759  18.325  0.00  0.00    -0.040 C 
ATOM     24  CBS SU3 d   1     -17.546 -15.048  17.765  0.00  0.00    -0.061 C 
ATOM     25  CBT SU3 d   1     -18.521 -13.956  18.223  0.00  0.00    -0.064 C 
ATOM     26  CBU SU3 d   1     -18.990 -13.133  17.024  0.00  0.00    -0.057 C 
ATOM     27  CBV SU3 d   1     -20.329 -12.428  17.255  0.00  0.00    -0.025 C 
ATOM     28  CBW SU3 d   1     -20.629 -11.686  15.965  0.00  0.00     0.037 C 
ATOM     29  CD1 SU3 d   1     -15.201 -10.741  12.481  0.00  0.00     0.023 C 
ATOM     30  OD2 SU3 d   1     -14.100 -12.516  13.652  0.00  0.00    -0.297 OA
ATOM     31  H1  SU3 d   1     -13.549 -10.161  15.038  0.00  0.00     0.088 H 
ATOM     32  H2  SU3 d   1     -11.997 -10.992  13.465  0.00  0.00     0.040 H 
ATOM     33  H3  SU3 d   1     -12.569  -9.889  12.168  0.00  0.00     0.040 H 
ATOM     34  H4  SU3 d   1     -13.630 -12.048  11.637  0.00  0.00     0.086 H 
ATOM     35  H5  SU3 d   1     -17.446  -9.928  12.813  0.00  0.00     0.088 H 
ATOM     36  H6  SU3 d   1     -18.543  -8.609  15.260  0.00  0.00     0.165 HD
ATOM     37  H19 SU3 d   1     -11.678 -15.559  15.050  0.00  0.00     0.071 H 
ATOM     38  H20 SU3 d   1     -12.898 -16.431  14.061  0.00  0.00     0.071 H 
ATOM     39  H21 SU3 d   1     -15.475 -14.184  15.239  0.00  0.00     0.071 H 
ATOM     40  H22 SU3 d   1     -14.263 -13.298  16.226  0.00  0.00     0.071 H 
ATOM     41  H23 SU3 d   1     -12.357 -18.168  16.536  0.00  0.00     0.084 H 
ATOM     42  H24 SU3 d   1     -13.639 -18.654  18.596  0.00  0.00     0.083 H 
ATOM     43  H25 SU3 d   1     -15.372 -17.087  19.386  0.00  0.00     0.084 H 
ATOM     44  H26 SU3 d   1     -15.893 -13.724  18.072  0.00  0.00     0.040 H 
ATOM     45  H27 SU3 d   1     -16.198 -14.872  19.419  0.00  0.00     0.040 H 
ATOM     46  H34 SU3 d   1     -17.893 -16.026  18.130  0.00  0.00     0.033 H 
ATOM     47  H35 SU3 d   1     -17.501 -15.062  16.666  0.00  0.00     0.033 H 
ATOM     48  H36 SU3 d   1     -18.015 -13.295  18.942  0.00  0.00     0.033 H 
ATOM     49  H37 SU3 d   1     -19.392 -14.425  18.705  0.00  0.00     0.033 H 
ATOM     50  H38 SU3 d   1     -19.095 -13.805  16.160  0.00  0.00     0.034 H 
ATOM     51  H39 SU3 d   1     -18.228 -12.370  16.805  0.00  0.00     0.034 H 
ATOM     52  H40 SU3 d   1     -20.478 -12.367  15.114  0.00  0.00     0.076 H 
ATOM     53  H41 SU3 d   1     -21.674 -11.344  15.980  0.00  0.00     0.076 H 
ATOM     54  H54 SU3 d   1     -15.289 -10.256  11.498  0.00  0.00     0.068 H 
ATOM     55  H55 SU3 d   1     -16.083 -11.374  12.658  0.00  0.00     0.068 H 
ENDROOT
BRANCH   2  56
ATOM     56  C   SU3 d   1     -13.167  -8.236  14.105  0.00  0.00     0.241 C 
ATOM     57  O   SU3 d   1     -13.330  -7.475  13.152  0.00  0.00    -0.271 OA
ATOM     58  NAV SU3 d   1     -12.576  -7.885  15.241  0.00  0.00    -0.341 N 
ATOM     59  H15 SU3 d   1     -12.329  -8.598  15.897  0.00  0.00     0.163 HD
BRANCH  58  60
ATOM     60  CAX SU3 d   1     -12.278  -6.505  15.561  0.00  0.00     0.119 A 
ATOM     61  CAZ SU3 d   1     -13.555  -5.676  15.863  0.00  0.00    -0.018 A 
ATOM     62  CBA SU3 d   1     -12.610  -6.087  16.980  0.00  0.00    -0.027 A 
ATOM     63  H16 SU3 d   1     -14.546  -6.140  15.756  0.00  0.00     0.044 H 
ATOM     64  H17 SU3 d   1     -11.995  -5.326  17.483  0.00  0.00     0.038 H 
ATOM     65  H18 SU3 d   1     -12.927  -6.844  17.712  0.00  0.00     0.038 H 
BRANCH  60  66
ATOM     66  CAY SU3 d   1     -11.037  -5.880  14.948  0.00  0.00     0.259 C 
ATOM     67  NBK SU3 d   1     -10.269  -6.694  14.214  0.00  0.00    -0.252 N 
ATOM     68  H28 SU3 d   1     -10.483  -7.660  14.068  0.00  0.00     0.181 HD
ATOM     69  OBL SU3 d   1     -10.776  -4.707  15.218  0.00  0.00    -0.270 OA
BRANCH  67  70
ATOM     70  SBM SU3 d   1      -8.979  -5.985  13.592  0.00  0.00     0.237 S 
ATOM     71  OBO SU3 d   1      -9.366  -4.947  12.648  0.00  0.00    -0.205 OA
ATOM     72  OBP SU3 d   1      -8.019  -5.515  14.576  0.00  0.00    -0.205 OA
BRANCH  70  73
ATOM     73  CBN SU3 d   1      -8.221  -7.279  12.634  0.00  0.00     0.063 A 
ATOM     74  CBQ SU3 d   1      -6.804  -6.994  12.182  0.00  0.00    -0.046 A 
ATOM     75  CBR SU3 d   1      -7.062  -8.022  13.287  0.00  0.00    -0.046 A 
ATOM     76  H30 SU3 d   1      -6.332  -6.031  12.426  0.00  0.00     0.035 H 
ATOM     77  H31 SU3 d   1      -6.466  -7.327  11.190  0.00  0.00     0.035 H 
ATOM     78  H32 SU3 d   1      -6.912  -9.094  13.089  0.00  0.00     0.035 H 
ATOM     79  H33 SU3 d   1      -6.779  -7.798  14.326  0.00  0.00     0.035 H 
ATOM     80  H29 SU3 d   1      -8.949  -7.795  11.991  0.00  0.00     0.066 H 
ENDBRANCH  70  73
ENDBRANCH  67  70
ENDBRANCH  60  66
BRANCH  61  81
ATOM     81  CAR SU3 d   1     -13.639  -4.183  15.528  0.00  0.00    -0.062 C 
ATOM     82  H7  SU3 d   1     -14.371  -3.704  16.195  0.00  0.00     0.033 H 
ATOM     83  H8  SU3 d   1     -12.651  -3.723  15.678  0.00  0.00     0.033 H 
BRANCH  81  84
ATOM     84  CAS SU3 d   1     -14.070  -3.980  14.086  0.00  0.00    -0.076 C 
ATOM     85  H9  SU3 d   1     -14.124  -2.903  13.867  0.00  0.00     0.027 H 
ATOM     86  H10 SU3 d   1     -15.059  -4.435  13.931  0.00  0.00     0.027 H 
ATOM     87  H11 SU3 d   1     -13.339  -4.454  13.415  0.00  0.00     0.027 H 
ENDBRANCH  81  84
ENDBRANCH  61  81
ENDBRANCH  58  60
ENDBRANCH   2  56
BRANCH   7  88
ATOM     88  CAL SU3 d   1     -17.785  -7.794  12.730  0.00  0.00    -0.022 C 
BRANCH  88  89
ATOM     89  CAT SU3 d   1     -19.154  -8.020  12.066  0.00  0.00    -0.067 C 
ATOM     90  H12 SU3 d   1     -19.442  -7.120  11.503  0.00  0.00     0.028 H 
ATOM     91  H13 SU3 d   1     -19.908  -8.225  12.841  0.00  0.00     0.028 H 
ATOM     92  H14 SU3 d   1     -19.092  -8.877  11.380  0.00  0.00     0.028 H 
ENDBRANCH  88  89
BRANCH  88  93
ATOM     93  CBZ SU3 d   1     -17.856  -6.538  13.599  0.00  0.00    -0.067 C 
ATOM     94  H48 SU3 d   1     -16.881  -6.368  14.078  0.00  0.00     0.028 H 
ATOM     95  H49 SU3 d   1     -18.627  -6.670  14.373  0.00  0.00     0.028 H 
ATOM     96  H50 SU3 d   1     -18.112  -5.672  12.971  0.00  0.00     0.028 H 
ENDBRANCH  88  93
BRANCH  88  97
ATOM     97  CCA SU3 d   1     -16.736  -7.565  11.648  0.00  0.00    -0.067 C 
ATOM     98  H51 SU3 d   1     -16.667  -8.458  11.009  0.00  0.00     0.028 H 
ATOM     99  H52 SU3 d   1     -15.760  -7.375  12.118  0.00  0.00     0.028 H 
ATOM    100  H53 SU3 d   1     -17.024  -6.697  11.036  0.00  0.00     0.028 H 
ENDBRANCH  88  97
ENDBRANCH   7  88
BRANCH  27 101
ATOM    101  CBX SU3 d   1     -21.451 -13.446  17.481  0.00  0.00    -0.067 C 
ATOM    102  H42 SU3 d   1     -21.261 -14.001  18.412  0.00  0.00     0.028 H 
ATOM    103  H43 SU3 d   1     -21.484 -14.149  16.635  0.00  0.00     0.028 H 
ATOM    104  H44 SU3 d   1     -22.414 -12.919  17.558  0.00  0.00     0.028 H 
ENDBRANCH  27 101
BRANCH  27 105
ATOM    105  CBY SU3 d   1     -20.254 -11.441  18.432  0.00  0.00    -0.067 C 
ATOM    106  H45 SU3 d   1     -19.444 -10.718  18.253  0.00  0.00     0.028 H 
ATOM    107  H46 SU3 d   1     -20.054 -11.994  19.362  0.00  0.00     0.028 H 
ATOM    108  H47 SU3 d   1     -21.210 -10.905  18.523  0.00  0.00     0.028 H 
ENDBRANCH  27 105
TORSDOF 13
