REMARK  13 active torsions:
REMARK  status: ('A' for Active; 'I' for Inactive)
REMARK    1  A    between atoms: CA_4  and  CB_5 
REMARK    2  A    between atoms: CB_5  and  CAR_20 
REMARK    3  A    between atoms: CB_5  and  CG1_53 
REMARK    4  A    between atoms: CB_5  and  CG2_54 
REMARK    5  A    between atoms: NAV_24  and  SAN_16 
REMARK    6  A    between atoms: SAN_16  and  CBL_40 
REMARK    7  A    between atoms: CAO_17  and  CBO_43 
REMARK    8  A    between atoms: NBP_44  and  CAO_17 
REMARK       I    between atoms: CAQ_19  and  NBP_44 
REMARK    9  A    between atoms: CBY_49  and  CAQ_19 
REMARK   10  A    between atoms: CAW_25  and  CAS_21 
REMARK   11  A    between atoms: CAS_21  and  CBQ_45 
REMARK       I    between atoms: CBO_43  and  NAV_24 
REMARK   12  A    between atoms: OBB_30  and  CBA_29 
REMARK   13  A    between atoms: CBJ_38  and  OBB_30 
ROOT
ATOM      1  C   SUE d   1       2.476  -9.757  31.133  0.00  0.00     0.244 C 
ATOM      2  N   SUE d   1       1.377 -11.778  31.512  0.00  0.00    -0.323 N 
ATOM      3  O   SUE d   1       1.956  -9.636  30.065  0.00  0.00    -0.271 OA
ATOM      4  CA  SUE d   1       2.625 -11.007  31.666  0.00  0.00     0.098 C 
ATOM      5  CAB SUE d   1       0.487 -11.940  32.495  0.00  0.00     0.361 C 
ATOM      6  NAC SUE d   1       2.595  -5.656  35.554  0.00  0.00    -0.221 NA
ATOM      7  CAD SUE d   1       0.454  -3.353  37.179  0.00  0.00    -0.050 A 
ATOM      8  CAE SUE d   1       3.115  -3.915  36.920  0.00  0.00    -0.021 A 
ATOM      9  CAF SUE d   1      -2.965 -13.115  33.054  0.00  0.00    -0.034 A 
ATOM     10  CAG SUE d   1      -2.462 -11.773  33.468  0.00  0.00    -0.026 A 
ATOM     11  CAH SUE d   1      -1.508 -12.896  33.295  0.00  0.00     0.053 A 
ATOM     12  CAT SUE d   1       0.860  -4.395  36.410  0.00  0.00     0.086 A 
ATOM     13  CAU SUE d   1      -2.601 -11.305  34.870  0.00  0.00    -0.059 C 
ATOM     14  CAX SUE d   1      -1.205  -9.264  34.708  0.00  0.00    -0.065 C 
ATOM     15  CAY SUE d   1       1.373  -2.583  37.823  0.00  0.00    -0.048 A 
ATOM     16  OAZ SUE d   1       2.154  -7.402  34.225  0.00  0.00    -0.326 OA
ATOM     17  CBC SUE d   1      -2.585  -9.838  34.874  0.00  0.00    -0.065 C 
ATOM     18  CBD SUE d   1      -1.096  -7.965  35.347  0.00  0.00    -0.060 C 
ATOM     19  CBE SUE d   1       1.741  -6.391  34.940  0.00  0.00     0.190 A 
ATOM     20  CBF SUE d   1       0.371  -6.143  35.059  0.00  0.00     0.088 A 
ATOM     21  CBG SUE d   1       2.196  -4.671  36.280  0.00  0.00     0.091 A 
ATOM     22  NBH SUE d   1      -0.016  -5.135  35.801  0.00  0.00    -0.247 NA
ATOM     23  CBI SUE d   1      -0.613  -6.900  34.434  0.00  0.00    -0.021 C 
ATOM     24  CBJ SUE d   1       2.725  -2.850  37.708  0.00  0.00     0.070 A 
ATOM     25  OBR SUE d   1       0.740 -11.434  33.550  0.00  0.00    -0.238 OA
ATOM     26  OBT SUE d   1      -0.589 -12.652  32.231  0.00  0.00    -0.298 OA
ATOM     27  CBX SUE d   1       3.573  -6.522  32.415  0.00  0.00    -0.011 C 
ATOM     28  CBY SUE d   1       2.913  -7.322  31.304  0.00  0.00     0.094 C 
ATOM     29  NBZ SUE d   1       2.936  -8.720  31.784  0.00  0.00    -0.334 N 
ATOM     30  CCA SUE d   1       3.613  -8.731  33.075  0.00  0.00     0.023 C 
ATOM     31  CCB SUE d   1       3.436  -7.413  33.642  0.00  0.00     0.064 C 
ATOM     32  H1  SUE d   1       1.187 -12.201  30.626  0.00  0.00     0.165 HD
ATOM     33  H2  SUE d   1       2.775 -10.868  32.747  0.00  0.00     0.088 H 
ATOM     34  H3  SUE d   1      -0.603  -3.134  37.280  0.00  0.00     0.087 H 
ATOM     35  H4  SUE d   1       4.169  -4.147  36.814  0.00  0.00     0.091 H 
ATOM     36  H5  SUE d   1      -3.337 -13.273  32.031  0.00  0.00     0.037 H 
ATOM     37  H6  SUE d   1      -3.554 -13.723  33.756  0.00  0.00     0.037 H 
ATOM     38  H7  SUE d   1      -2.506 -10.927  32.766  0.00  0.00     0.044 H 
ATOM     39  H8  SUE d   1      -1.013 -13.399  34.139  0.00  0.00     0.084 H 
ATOM     40  H16 SUE d   1      -1.764 -11.687  35.474  0.00  0.00     0.033 H 
ATOM     41  H17 SUE d   1      -3.551 -11.667  35.290  0.00  0.00     0.033 H 
ATOM     42  H20 SUE d   1      -0.988  -9.155  33.635  0.00  0.00     0.033 H 
ATOM     43  H21 SUE d   1      -0.474  -9.950  35.162  0.00  0.00     0.033 H 
ATOM     44  H22 SUE d   1       1.041  -1.751  38.433  0.00  0.00     0.087 H 
ATOM     45  H26 SUE d   1      -2.998  -9.486  35.831  0.00  0.00     0.033 H 
ATOM     46  H27 SUE d   1      -3.216  -9.479  34.048  0.00  0.00     0.033 H 
ATOM     47  H28 SUE d   1      -0.393  -8.048  36.189  0.00  0.00     0.033 H 
ATOM     48  H29 SUE d   1      -2.088  -7.677  35.725  0.00  0.00     0.033 H 
ATOM     49  H30 SUE d   1      -1.455  -6.247  34.160  0.00  0.00     0.042 H 
ATOM     50  H31 SUE d   1      -0.196  -7.361  33.527  0.00  0.00     0.042 H 
ATOM     51  H39 SUE d   1       3.055  -5.564  32.568  0.00  0.00     0.040 H 
ATOM     52  H40 SUE d   1       4.632  -6.333  32.185  0.00  0.00     0.040 H 
ATOM     53  H41 SUE d   1       1.874  -6.975  31.205  0.00  0.00     0.088 H 
ATOM     54  H42 SUE d   1       4.683  -8.947  32.941  0.00  0.00     0.068 H 
ATOM     55  H43 SUE d   1       3.165  -9.491  33.733  0.00  0.00     0.068 H 
ATOM     56  H44 SUE d   1       4.199  -7.168  34.396  0.00  0.00     0.086 H 
ENDROOT
BRANCH  28  57
ATOM     57  CAQ SUE d   1       3.492  -7.280  30.023  0.00  0.00     0.241 C 
ATOM     58  OAP SUE d   1       4.529  -7.820  29.745  0.00  0.00    -0.271 OA
ATOM     59  NBP SUE d   1       2.747  -6.724  29.132  0.00  0.00    -0.341 N 
ATOM     60  H35 SUE d   1       1.920  -6.258  29.447  0.00  0.00     0.163 HD
BRANCH  59  61
ATOM     61  CAO SUE d   1       3.014  -6.722  27.709  0.00  0.00     0.119 A 
ATOM     62  CAW SUE d   1       2.512  -7.992  27.084  0.00  0.00    -0.018 A 
ATOM     63  CBN SUE d   1       1.797  -6.756  26.831  0.00  0.00    -0.027 A 
ATOM     64  H19 SUE d   1       2.094  -8.790  27.715  0.00  0.00     0.044 H 
ATOM     65  H33 SUE d   1       1.831  -6.299  25.831  0.00  0.00     0.038 H 
ATOM     66  H34 SUE d   1       0.801  -6.601  27.271  0.00  0.00     0.038 H 
BRANCH  62  67
ATOM     67  CAS SUE d   1       3.200  -8.564  25.873  0.00  0.00    -0.062 C 
ATOM     68  H14 SUE d   1       3.804  -7.763  25.421  0.00  0.00     0.033 H 
ATOM     69  H15 SUE d   1       2.421  -8.880  25.163  0.00  0.00     0.033 H 
BRANCH  67  70
ATOM     70  CBQ SUE d   1       4.105  -9.740  26.114  0.00  0.00    -0.076 C 
ATOM     71  H36 SUE d   1       4.546 -10.065  25.160  0.00  0.00     0.027 H 
ATOM     72  H37 SUE d   1       3.524 -10.566  26.550  0.00  0.00     0.027 H 
ATOM     73  H38 SUE d   1       4.907  -9.449  26.808  0.00  0.00     0.027 H 
ENDBRANCH  67  70
ENDBRANCH  62  67
BRANCH  61  74
ATOM     74  CBO SUE d   1       4.248  -5.901  27.121  0.00  0.00     0.259 C 
ATOM     75  NAV SUE d   1       4.983  -5.123  27.938  0.00  0.00    -0.251 N 
ATOM     76  H18 SUE d   1       4.747  -5.091  28.909  0.00  0.00     0.181 HD
ATOM     77  OBM SUE d   1       4.481  -5.979  25.948  0.00  0.00    -0.270 OA
BRANCH  75  78
ATOM     78  SAN SUE d   1       6.220  -4.246  27.420  0.00  0.00     0.243 S 
ATOM     79  OAM SUE d   1       5.890  -3.456  26.317  0.00  0.00    -0.205 OA
ATOM     80  OBK SUE d   1       7.267  -5.073  26.979  0.00  0.00    -0.205 OA
BRANCH  78  81
ATOM     81  CBL SUE d   1       6.875  -3.115  28.870  0.00  0.00     0.095 A 
ATOM     82  CAK SUE d   1       7.646  -1.943  28.452  0.00  0.00    -0.082 A 
ATOM     83  CAL SUE d   1       6.286  -1.779  28.950  0.00  0.00    -0.082 A 
ATOM     84  H9  SUE d   1       8.564  -1.510  28.058  0.00  0.00     0.079 H 
ATOM     85  H10 SUE d   1       5.445  -1.133  29.199  0.00  0.00     0.079 H 
ATOM     86  H32 SUE d   1       7.130  -3.697  29.768  0.00  0.00     0.079 H 
ENDBRANCH  78  81
ENDBRANCH  75  78
ENDBRANCH  61  74
ENDBRANCH  59  61
ENDBRANCH  28  57
BRANCH   4  87
ATOM     87  CB  SUE d   1       3.901 -11.769  31.151  0.00  0.00    -0.022 C 
BRANCH  87  88
ATOM     88  CAR SUE d   1       4.181 -12.878  32.125  0.00  0.00    -0.067 C 
ATOM     89  H11 SUE d   1       5.070 -13.437  31.798  0.00  0.00     0.028 H 
ATOM     90  H12 SUE d   1       3.316 -13.556  32.167  0.00  0.00     0.028 H 
ATOM     91  H13 SUE d   1       4.362 -12.453  33.123  0.00  0.00     0.028 H 
ENDBRANCH  87  88
BRANCH  87  92
ATOM     92  CG1 SUE d   1       5.100 -10.878  31.095  0.00  0.00    -0.067 C 
ATOM     93  H45 SUE d   1       4.915 -10.058  30.386  0.00  0.00     0.028 H 
ATOM     94  H46 SUE d   1       5.973 -11.459  30.764  0.00  0.00     0.028 H 
ATOM     95  H47 SUE d   1       5.294 -10.461  32.094  0.00  0.00     0.028 H 
ENDBRANCH  87  92
BRANCH  87  96
ATOM     96  CG2 SUE d   1       3.731 -12.334  29.766  0.00  0.00    -0.067 C 
ATOM     97  H48 SUE d   1       2.857 -13.002  29.747  0.00  0.00     0.028 H 
ATOM     98  H49 SUE d   1       4.632 -12.901  29.488  0.00  0.00     0.028 H 
ATOM     99  H50 SUE d   1       3.580 -11.512  29.051  0.00  0.00     0.028 H 
ENDBRANCH  87  96
ENDBRANCH   4  87
BRANCH  24 100
ATOM    100  OBB SUE d   1       3.562  -2.051  38.370  0.00  0.00    -0.356 OA
BRANCH 100 101
ATOM    101  CBA SUE d   1       4.919  -2.227  38.333  0.00  0.00     0.010 C 
ATOM    102  H23 SUE d   1       5.406  -1.456  38.949  0.00  0.00     0.066 H 
ATOM    103  H24 SUE d   1       5.271  -2.143  37.294  0.00  0.00     0.066 H 
ATOM    104  H25 SUE d   1       5.170  -3.223  38.726  0.00  0.00     0.066 H 
ENDBRANCH 100 101
ENDBRANCH  24 100
TORSDOF 13
