REMARK  13 active torsions:
REMARK  status: ('A' for Active; 'I' for Inactive)
REMARK    1  A    between atoms: CA_4  and  CB_5 
REMARK    2  A    between atoms: CB_5  and  CAR_20 
REMARK    3  A    between atoms: CB_5  and  CG1_53 
REMARK    4  A    between atoms: CB_5  and  CG2_54 
REMARK    5  A    between atoms: NAV_24  and  SAN_16 
REMARK    6  A    between atoms: SAN_16  and  CBL_40 
REMARK    7  A    between atoms: CAO_17  and  CBO_43 
REMARK    8  A    between atoms: NBP_44  and  CAO_17 
REMARK       I    between atoms: CAQ_19  and  NBP_44 
REMARK    9  A    between atoms: CBY_49  and  CAQ_19 
REMARK   10  A    between atoms: CAW_25  and  CAS_21 
REMARK   11  A    between atoms: CAS_21  and  CBQ_45 
REMARK       I    between atoms: CBO_43  and  NAV_24 
REMARK   12  A    between atoms: OBB_30  and  CBA_29 
REMARK   13  A    between atoms: CBJ_38  and  OBB_30 
ROOT
ATOM      1  C   SUE d   1      11.967   9.233  16.249  0.00  0.00     0.244 C 
ATOM      2  N   SUE d   1      13.179  11.160  16.661  0.00  0.00    -0.323 N 
ATOM      3  O   SUE d   1      12.393   9.070  15.133  0.00  0.00    -0.271 OA
ATOM      4  CA  SUE d   1      11.880  10.480  16.784  0.00  0.00     0.098 C 
ATOM      5  CAB SUE d   1      14.050  11.354  17.655  0.00  0.00     0.361 C 
ATOM      6  NAC SUE d   1      11.905   4.988  20.540  0.00  0.00    -0.221 NA
ATOM      7  CAD SUE d   1      13.978   2.426  21.877  0.00  0.00    -0.050 A 
ATOM      8  CAE SUE d   1      11.341   3.214  21.812  0.00  0.00    -0.021 A 
ATOM      9  CAF SUE d   1      17.507  12.281  17.986  0.00  0.00    -0.034 A 
ATOM     10  CAG SUE d   1      17.057  10.921  18.339  0.00  0.00    -0.026 A 
ATOM     11  CAH SUE d   1      16.128  12.079  18.404  0.00  0.00     0.053 A 
ATOM     12  CAT SUE d   1      13.617   3.545  21.183  0.00  0.00     0.086 A 
ATOM     13  CAU SUE d   1      17.486  10.344  19.666  0.00  0.00    -0.059 C 
ATOM     14  CAX SUE d   1      15.802   8.422  19.729  0.00  0.00    -0.065 C 
ATOM     15  CAY SUE d   1      13.002   1.716  22.527  0.00  0.00    -0.048 A 
ATOM     16  OAZ SUE d   1      12.453   6.761  19.226  0.00  0.00    -0.326 OA
ATOM     17  CBC SUE d   1      17.294   8.838  19.696  0.00  0.00    -0.065 C 
ATOM     18  CBD SUE d   1      15.603   7.042  20.260  0.00  0.00    -0.060 C 
ATOM     19  CBE SUE d   1      12.801   5.689  19.901  0.00  0.00     0.190 A 
ATOM     20  CBF SUE d   1      14.131   5.325  19.901  0.00  0.00     0.088 A 
ATOM     21  CBG SUE d   1      12.288   3.921  21.163  0.00  0.00     0.091 A 
ATOM     22  NBH SUE d   1      14.518   4.255  20.560  0.00  0.00    -0.247 NA
ATOM     23  CBI SUE d   1      15.061   6.067  19.266  0.00  0.00    -0.021 C 
ATOM     24  CBJ SUE d   1      11.681   2.080  22.491  0.00  0.00     0.070 A 
ATOM     25  OBR SUE d   1      13.737  10.873  18.706  0.00  0.00    -0.238 OA
ATOM     26  OBT SUE d   1      15.183  12.046  17.411  0.00  0.00    -0.298 OA
ATOM     27  CBX SUE d   1      10.785   6.076  17.503  0.00  0.00    -0.011 C 
ATOM     28  CBY SUE d   1      11.533   6.822  16.452  0.00  0.00     0.094 C 
ATOM     29  NBZ SUE d   1      11.501   8.214  16.935  0.00  0.00    -0.334 N 
ATOM     30  CCA SUE d   1      10.920   8.240  18.264  0.00  0.00     0.023 C 
ATOM     31  CCB SUE d   1      11.083   6.891  18.765  0.00  0.00     0.064 C 
ATOM     32  H1  SUE d   1      13.431  11.506  15.757  0.00  0.00     0.165 HD
ATOM     33  H2  SUE d   1      11.625  10.383  17.850  0.00  0.00     0.088 H 
ATOM     34  H3  SUE d   1      15.013   2.106  21.913  0.00  0.00     0.087 H 
ATOM     35  H4  SUE d   1      10.309   3.546  21.794  0.00  0.00     0.091 H 
ATOM     36  H5  SUE d   1      17.730  12.529  16.938  0.00  0.00     0.037 H 
ATOM     37  H6  SUE d   1      18.206  12.815  18.646  0.00  0.00     0.037 H 
ATOM     38  H7  SUE d   1      16.959  10.136  17.575  0.00  0.00     0.044 H 
ATOM     39  H8  SUE d   1      15.740  12.490  19.347  0.00  0.00     0.084 H 
ATOM     40  H16 SUE d   1      16.884  10.799  20.467  0.00  0.00     0.033 H 
ATOM     41  H17 SUE d   1      18.549  10.574  19.831  0.00  0.00     0.033 H 
ATOM     42  H20 SUE d   1      15.401   8.467  18.706  0.00  0.00     0.033 H 
ATOM     43  H21 SUE d   1      15.253   9.128  20.369  0.00  0.00     0.033 H 
ATOM     44  H22 SUE d   1      13.285   0.834  23.090  0.00  0.00     0.087 H 
ATOM     45  H26 SUE d   1      17.790   8.439  20.593  0.00  0.00     0.033 H 
ATOM     46  H27 SUE d   1      17.759   8.407  18.797  0.00  0.00     0.033 H 
ATOM     47  H28 SUE d   1      14.901   7.097  21.105  0.00  0.00     0.033 H 
ATOM     48  H29 SUE d   1      16.575   6.667  20.614  0.00  0.00     0.033 H 
ATOM     49  H30 SUE d   1      15.869   5.420  18.893  0.00  0.00     0.042 H 
ATOM     50  H31 SUE d   1      14.603   6.604  18.422  0.00  0.00     0.042 H 
ATOM     51  H39 SUE d   1      11.156   5.045  17.599  0.00  0.00     0.040 H 
ATOM     52  H40 SUE d   1       9.707   6.059  17.287  0.00  0.00     0.040 H 
ATOM     53  H41 SUE d   1      12.566   6.449  16.396  0.00  0.00     0.088 H 
ATOM     54  H42 SUE d   1       9.855   8.509  18.216  0.00  0.00     0.068 H 
ATOM     55  H43 SUE d   1      11.451   8.958  18.905  0.00  0.00     0.068 H 
ATOM     56  H44 SUE d   1      10.382   6.649  19.578  0.00  0.00     0.086 H 
ENDROOT
BRANCH  28  57
ATOM     57  CAQ SUE d   1      10.981   6.766  15.202  0.00  0.00     0.241 C 
ATOM     58  OAP SUE d   1       9.997   7.377  14.961  0.00  0.00    -0.271 OA
ATOM     59  NBP SUE d   1      11.607   6.084  14.304  0.00  0.00    -0.341 N 
ATOM     60  H35 SUE d   1      12.410   5.553  14.575  0.00  0.00     0.163 HD
BRANCH  59  61
ATOM     61  CAO SUE d   1      11.193   6.059  12.925  0.00  0.00     0.119 A 
ATOM     62  CAW SUE d   1      11.589   7.341  12.293  0.00  0.00    -0.018 A 
ATOM     63  CBN SUE d   1      12.255   6.109  11.879  0.00  0.00    -0.027 A 
ATOM     64  H19 SUE d   1      12.130   8.114  12.859  0.00  0.00     0.044 H 
ATOM     65  H33 SUE d   1      12.062   5.690  10.880  0.00  0.00     0.038 H 
ATOM     66  H34 SUE d   1      13.306   5.934  12.154  0.00  0.00     0.038 H 
BRANCH  62  67
ATOM     67  CAS SUE d   1      10.607   7.958  11.342  0.00  0.00    -0.062 C 
ATOM     68  H14 SUE d   1       9.935   8.612  11.917  0.00  0.00     0.033 H 
ATOM     69  H15 SUE d   1      10.023   7.150  10.878  0.00  0.00     0.033 H 
BRANCH  67  70
ATOM     70  CBQ SUE d   1      11.226   8.765  10.259  0.00  0.00    -0.076 C 
ATOM     71  H36 SUE d   1      10.437   9.177   9.612  0.00  0.00     0.027 H 
ATOM     72  H37 SUE d   1      11.893   8.127   9.662  0.00  0.00     0.027 H 
ATOM     73  H38 SUE d   1      11.806   9.589  10.701  0.00  0.00     0.027 H 
ENDBRANCH  67  70
ENDBRANCH  62  67
BRANCH  61  74
ATOM     74  CBO SUE d   1       9.898   5.361  12.416  0.00  0.00     0.259 C 
ATOM     75  NAV SUE d   1       9.105   4.676  13.214  0.00  0.00    -0.251 N 
ATOM     76  H18 SUE d   1       9.335   4.624  14.186  0.00  0.00     0.181 HD
ATOM     77  OBM SUE d   1       9.690   5.422  11.244  0.00  0.00    -0.270 OA
BRANCH  75  78
ATOM     78  SAN SUE d   1       7.850   3.958  12.723  0.00  0.00     0.243 S 
ATOM     79  OAM SUE d   1       8.145   3.038  11.675  0.00  0.00    -0.205 OA
ATOM     80  OBK SUE d   1       6.904   4.917  12.206  0.00  0.00    -0.205 OA
BRANCH  78  81
ATOM     81  CBL SUE d   1       6.988   3.006  14.142  0.00  0.00     0.095 A 
ATOM     82  CAK SUE d   1       6.258   1.873  13.630  0.00  0.00    -0.082 A 
ATOM     83  CAL SUE d   1       7.536   1.675  14.304  0.00  0.00    -0.082 A 
ATOM     84  H9  SUE d   1       5.389   1.464  13.116  0.00  0.00     0.079 H 
ATOM     85  H10 SUE d   1       8.323   1.014  14.664  0.00  0.00     0.079 H 
ATOM     86  H32 SUE d   1       6.647   3.636  14.977  0.00  0.00     0.079 H 
ENDBRANCH  78  81
ENDBRANCH  75  78
ENDBRANCH  61  74
ENDBRANCH  59  61
ENDBRANCH  28  57
BRANCH   4  87
ATOM     87  CB  SUE d   1      10.807  11.329  16.104  0.00  0.00    -0.022 C 
BRANCH  87  88
ATOM     88  CAR SUE d   1      10.539  12.523  16.912  0.00  0.00    -0.067 C 
ATOM     89  H11 SUE d   1       9.766  13.133  16.421  0.00  0.00     0.028 H 
ATOM     90  H12 SUE d   1      11.462  13.113  17.012  0.00  0.00     0.028 H 
ATOM     91  H13 SUE d   1      10.187  12.220  17.909  0.00  0.00     0.028 H 
ENDBRANCH  87  88
BRANCH  87  92
ATOM     92  CG1 SUE d   1       9.507  10.640  15.997  0.00  0.00    -0.067 C 
ATOM     93  H45 SUE d   1       9.625   9.724  15.399  0.00  0.00     0.028 H 
ATOM     94  H46 SUE d   1       8.779  11.305  15.509  0.00  0.00     0.028 H 
ATOM     95  H47 SUE d   1       9.148  10.377  17.003  0.00  0.00     0.028 H 
ENDBRANCH  87  92
BRANCH  87  96
ATOM     96  CG2 SUE d   1      11.274  11.790  14.746  0.00  0.00    -0.067 C 
ATOM     97  H48 SUE d   1      12.243  12.301  14.845  0.00  0.00     0.028 H 
ATOM     98  H49 SUE d   1      10.535  12.485  14.321  0.00  0.00     0.028 H 
ATOM     99  H50 SUE d   1      11.384  10.920  14.082  0.00  0.00     0.028 H 
ENDBRANCH  87  96
ENDBRANCH   4  87
BRANCH  24 100
ATOM    100  OBB SUE d   1      10.797   1.352  23.163  0.00  0.00    -0.356 OA
BRANCH 100 101
ATOM    101  CBA SUE d   1       9.516   1.215  22.701  0.00  0.00     0.010 C 
ATOM    102  H23 SUE d   1       8.943   0.580  23.392  0.00  0.00     0.066 H 
ATOM    103  H24 SUE d   1       9.533   0.750  21.704  0.00  0.00     0.066 H 
ATOM    104  H25 SUE d   1       9.042   2.205  22.635  0.00  0.00     0.066 H 
ENDBRANCH 100 101
ENDBRANCH  24 100
TORSDOF 13
