REMARK  13 active torsions:
REMARK  status: ('A' for Active; 'I' for Inactive)
REMARK    1  A    between atoms: CA_4  and  CB_5 
REMARK    2  A    between atoms: CB_5  and  CAR_20 
REMARK    3  A    between atoms: CB_5  and  CG1_53 
REMARK    4  A    between atoms: CB_5  and  CG2_54 
REMARK    5  A    between atoms: NAV_24  and  SAN_16 
REMARK    6  A    between atoms: SAN_16  and  CBL_40 
REMARK    7  A    between atoms: CAO_17  and  CBO_43 
REMARK    8  A    between atoms: NBP_44  and  CAO_17 
REMARK       I    between atoms: CAQ_19  and  NBP_44 
REMARK    9  A    between atoms: CBY_49  and  CAQ_19 
REMARK   10  A    between atoms: CAW_25  and  CAS_21 
REMARK   11  A    between atoms: CAS_21  and  CBQ_45 
REMARK       I    between atoms: CBO_43  and  NAV_24 
REMARK   12  A    between atoms: OBB_30  and  CBA_29 
REMARK   13  A    between atoms: CBJ_38  and  OBB_30 
ROOT
ATOM      1  C   SUE d   1      15.921  -8.630 -14.673  0.00  0.00     0.244 C 
ATOM      2  N   SUE d   1      18.260  -8.674 -15.054  0.00  0.00    -0.323 N 
ATOM      3  O   SUE d   1      15.660  -7.824 -15.569  0.00  0.00    -0.271 OA
ATOM      4  CA  SUE d   1      17.178  -8.558 -14.038  0.00  0.00     0.098 C 
ATOM      5  CAB SUE d   1      18.649  -9.917 -15.581  0.00  0.00     0.361 C 
ATOM      6  NAC SUE d   1      12.598 -14.062 -13.981  0.00  0.00    -0.221 NA
ATOM      7  CAD SUE d   1      11.516 -17.131 -15.657  0.00  0.00    -0.050 A 
ATOM      8  CAE SUE d   1      10.969 -15.661 -13.343  0.00  0.00    -0.021 A 
ATOM      9  CAF SUE d   1      20.554 -11.415 -18.367  0.00  0.00    -0.034 A 
ATOM     10  CAG SUE d   1      19.349 -12.150 -17.788  0.00  0.00    -0.026 A 
ATOM     11  CAH SUE d   1      20.174 -11.210 -16.893  0.00  0.00     0.053 A 
ATOM     12  CAT SUE d   1      12.207 -15.947 -15.389  0.00  0.00     0.086 A 
ATOM     13  CAU SUE d   1      19.480 -13.665 -17.465  0.00  0.00    -0.059 C 
ATOM     14  CAX SUE d   1      17.081 -13.655 -17.052  0.00  0.00    -0.065 C 
ATOM     15  CAY SUE d   1      10.548 -17.572 -14.759  0.00  0.00    -0.048 A 
ATOM     16  OAZ SUE d   1      14.247 -12.470 -14.671  0.00  0.00    -0.326 OA
ATOM     17  CBC SUE d   1      18.418 -14.039 -16.455  0.00  0.00    -0.065 C 
ATOM     18  CBD SUE d   1      16.060 -14.562 -16.442  0.00  0.00    -0.060 C 
ATOM     19  CBE SUE d   1      13.530 -13.623 -14.850  0.00  0.00     0.190 A 
ATOM     20  CBF SUE d   1      13.806 -14.365 -16.006  0.00  0.00     0.088 A 
ATOM     21  CBG SUE d   1      11.939 -15.210 -14.232  0.00  0.00     0.091 A 
ATOM     22  NBH SUE d   1      13.133 -15.502 -16.248  0.00  0.00    -0.247 NA
ATOM     23  CBI SUE d   1      14.753 -13.969 -16.925  0.00  0.00    -0.021 C 
ATOM     24  CBJ SUE d   1      10.267 -16.841 -13.607  0.00  0.00     0.070 A 
ATOM     25  OBR SUE d   1      18.085 -10.939 -15.184  0.00  0.00    -0.238 OA
ATOM     26  OBT SUE d   1      19.640  -9.909 -16.526  0.00  0.00    -0.298 OA
ATOM     27  CBX SUE d   1      12.751 -10.530 -14.114  0.00  0.00    -0.011 C 
ATOM     28  CBY SUE d   1      13.585  -9.593 -14.970  0.00  0.00     0.094 C 
ATOM     29  NBZ SUE d   1      14.967  -9.520 -14.336  0.00  0.00    -0.334 N 
ATOM     30  CCA SUE d   1      15.034 -10.594 -13.311  0.00  0.00     0.023 C 
ATOM     31  CCB SUE d   1      13.846 -11.499 -13.637  0.00  0.00     0.064 C 
ATOM     32  H1  SUE d   1      18.722  -7.845 -15.370  0.00  0.00     0.165 HD
ATOM     33  H2  SUE d   1      17.264  -9.398 -13.333  0.00  0.00     0.088 H 
ATOM     34  H3  SUE d   1      11.731 -17.700 -16.554  0.00  0.00     0.087 H 
ATOM     35  H4  SUE d   1      10.757 -15.096 -12.443  0.00  0.00     0.091 H 
ATOM     36  H5  SUE d   1      20.404 -10.601 -19.091  0.00  0.00     0.037 H 
ATOM     37  H6  SUE d   1      21.465 -11.974 -18.627  0.00  0.00     0.037 H 
ATOM     38  H7  SUE d   1      18.327 -11.899 -18.110  0.00  0.00     0.044 H 
ATOM     39  H8  SUE d   1      20.794 -11.616 -16.080  0.00  0.00     0.084 H 
ATOM     40  H16 SUE d   1      20.477 -13.870 -17.047  0.00  0.00     0.033 H 
ATOM     41  H17 SUE d   1      19.340 -14.253 -18.384  0.00  0.00     0.033 H 
ATOM     42  H20 SUE d   1      17.101 -13.788 -18.144  0.00  0.00     0.033 H 
ATOM     43  H21 SUE d   1      16.847 -12.607 -16.814  0.00  0.00     0.033 H 
ATOM     44  H22 SUE d   1      10.009 -18.491 -14.958  0.00  0.00     0.087 H 
ATOM     45  H26 SUE d   1      18.582 -13.492 -15.515  0.00  0.00     0.033 H 
ATOM     46  H27 SUE d   1      18.447 -15.121 -16.260  0.00  0.00     0.033 H 
ATOM     47  H28 SUE d   1      16.121 -14.545 -15.344  0.00  0.00     0.033 H 
ATOM     48  H29 SUE d   1      16.183 -15.595 -16.800  0.00  0.00     0.033 H 
ATOM     49  H30 SUE d   1      14.503 -14.354 -17.925  0.00  0.00     0.042 H 
ATOM     50  H31 SUE d   1      14.819 -12.871 -16.960  0.00  0.00     0.042 H 
ATOM     51  H39 SUE d   1      11.979 -11.045 -14.705  0.00  0.00     0.040 H 
ATOM     52  H40 SUE d   1      12.278 -10.002 -13.273  0.00  0.00     0.040 H 
ATOM     53  H41 SUE d   1      13.651  -9.997 -15.991  0.00  0.00     0.088 H 
ATOM     54  H42 SUE d   1      14.938 -10.174 -12.299  0.00  0.00     0.068 H 
ATOM     55  H43 SUE d   1      15.980 -11.149 -13.389  0.00  0.00     0.068 H 
ATOM     56  H44 SUE d   1      13.508 -12.042 -12.742  0.00  0.00     0.086 H 
ENDROOT
BRANCH  28  57
ATOM     57  CAQ SUE d   1      13.075  -8.274 -15.023  0.00  0.00     0.241 C 
ATOM     58  OAP SUE d   1      13.186  -7.542 -14.040  0.00  0.00    -0.271 OA
ATOM     59  NBP SUE d   1      12.558  -7.849 -16.205  0.00  0.00    -0.341 N 
ATOM     60  H35 SUE d   1      12.430  -8.517 -16.938  0.00  0.00     0.163 HD
BRANCH  59  61
ATOM     61  CAO SUE d   1      12.174  -6.432 -16.457  0.00  0.00     0.119 A 
ATOM     62  CAW SUE d   1      13.356  -5.492 -16.718  0.00  0.00    -0.018 A 
ATOM     63  CBN SUE d   1      12.472  -5.950 -17.828  0.00  0.00    -0.027 A 
ATOM     64  H19 SUE d   1      14.388  -5.862 -16.624  0.00  0.00     0.044 H 
ATOM     65  H33 SUE d   1      11.792  -5.234 -18.313  0.00  0.00     0.038 H 
ATOM     66  H34 SUE d   1      12.861  -6.653 -18.579  0.00  0.00     0.038 H 
BRANCH  62  67
ATOM     67  CAS SUE d   1      13.289  -4.023 -16.313  0.00  0.00    -0.062 C 
ATOM     68  H14 SUE d   1      12.391  -3.906 -15.689  0.00  0.00     0.033 H 
ATOM     69  H15 SUE d   1      13.169  -3.443 -17.240  0.00  0.00     0.033 H 
BRANCH  67  70
ATOM     70  CBQ SUE d   1      14.453  -3.385 -15.538  0.00  0.00    -0.076 C 
ATOM     71  H36 SUE d   1      14.224  -2.328 -15.337  0.00  0.00     0.027 H 
ATOM     72  H37 SUE d   1      15.373  -3.454 -16.137  0.00  0.00     0.027 H 
ATOM     73  H38 SUE d   1      14.595  -3.917 -14.585  0.00  0.00     0.027 H 
ENDBRANCH  67  70
ENDBRANCH  62  67
BRANCH  61  74
ATOM     74  CBO SUE d   1      10.852  -5.871 -15.884  0.00  0.00     0.259 C 
ATOM     75  NAV SUE d   1      10.213  -6.652 -15.017  0.00  0.00    -0.251 N 
ATOM     76  H18 SUE d   1      10.548  -7.561 -14.769  0.00  0.00     0.181 HD
ATOM     77  OBM SUE d   1      10.374  -4.807 -16.288  0.00  0.00    -0.270 OA
BRANCH  75  78
ATOM     78  SAN SUE d   1       8.930  -6.065 -14.425  0.00  0.00     0.243 S 
ATOM     79  OAM SUE d   1       7.978  -5.564 -15.502  0.00  0.00    -0.205 OA
ATOM     80  OBK SUE d   1       9.379  -4.922 -13.496  0.00  0.00    -0.205 OA
BRANCH  78  81
ATOM     81  CBL SUE d   1       7.975  -7.342 -13.324  0.00  0.00     0.095 A 
ATOM     82  CAK SUE d   1       6.542  -7.239 -13.284  0.00  0.00    -0.082 A 
ATOM     83  CAL SUE d   1       7.130  -8.313 -14.034  0.00  0.00    -0.082 A 
ATOM     84  H9  SUE d   1       5.651  -6.720 -12.935  0.00  0.00     0.079 H 
ATOM     85  H10 SUE d   1       7.026  -9.195 -14.664  0.00  0.00     0.079 H 
ATOM     86  H32 SUE d   1       8.558  -7.620 -12.433  0.00  0.00     0.079 H 
ENDBRANCH  78  81
ENDBRANCH  75  78
ENDBRANCH  61  74
ENDBRANCH  59  61
ENDBRANCH  28  57
BRANCH   4  87
ATOM     87  CB  SUE d   1      17.323  -7.234 -13.246  0.00  0.00    -0.022 C 
BRANCH  87  88
ATOM     88  CAR SUE d   1      18.569  -7.325 -12.355  0.00  0.00    -0.067 C 
ATOM     89  H11 SUE d   1      18.683  -6.390 -11.787  0.00  0.00     0.028 H 
ATOM     90  H12 SUE d   1      19.458  -7.483 -12.983  0.00  0.00     0.028 H 
ATOM     91  H13 SUE d   1      18.459  -8.167 -11.656  0.00  0.00     0.028 H 
ENDBRANCH  87  88
BRANCH  87  92
ATOM     92  CG1 SUE d   1      16.082  -7.018 -12.366  0.00  0.00    -0.067 C 
ATOM     93  H45 SUE d   1      15.188  -6.952 -13.003  0.00  0.00     0.028 H 
ATOM     94  H46 SUE d   1      16.195  -6.084 -11.796  0.00  0.00     0.028 H 
ATOM     95  H47 SUE d   1      15.975  -7.863 -11.669  0.00  0.00     0.028 H 
ENDBRANCH  87  92
BRANCH  87  96
ATOM     96  CG2 SUE d   1      17.473  -6.010 -14.163  0.00  0.00    -0.067 C 
ATOM     97  H48 SUE d   1      18.357  -6.139 -14.805  0.00  0.00     0.028 H 
ATOM     98  H49 SUE d   1      17.595  -5.105 -13.550  0.00  0.00     0.028 H 
ATOM     99  H50 SUE d   1      16.575  -5.910 -14.790  0.00  0.00     0.028 H 
ENDBRANCH  87  96
ENDBRANCH   4  87
BRANCH  24 100
ATOM    100  OBB SUE d   1       9.323 -17.313 -12.747  0.00  0.00    -0.356 OA
BRANCH 100 101
ATOM    101  CBA SUE d   1       8.840 -16.375 -11.784  0.00  0.00     0.010 C 
ATOM    102  H23 SUE d   1       8.087 -16.860 -11.146  0.00  0.00     0.066 H 
ATOM    103  H24 SUE d   1       8.385 -15.518 -12.303  0.00  0.00     0.066 H 
ATOM    104  H25 SUE d   1       9.677 -16.024 -11.162  0.00  0.00     0.066 H 
ENDBRANCH 100 101
ENDBRANCH  24 100
TORSDOF 13
