REMARK  5 active torsions:
REMARK  status: ('A' for Active; 'I' for Inactive)
REMARK    1  A    between atoms: C3_3  and  O3_11 
REMARK    2  A    between atoms: C4_4  and  O4_12 
REMARK    3  A    between atoms: C5_5  and  C6_6 
REMARK    4  A    between atoms: C6_6  and  O6_14 
REMARK    5  A    between atoms: C7_7  and  C8_8 
ROOT
ATOM      1  C1  NGT d   1      35.493  19.209 -15.881  0.00  0.00     0.112 C 
ATOM      2  C2  NGT d   1      35.326  18.204 -17.077  0.00  0.00     0.094 C 
ATOM      3  C3  NGT d   1      34.765  16.805 -16.676  0.00  0.00     0.087 C 
ATOM      4  C4  NGT d   1      35.409  16.275 -15.390  0.00  0.00     0.089 C 
ATOM      5  C5  NGT d   1      35.169  17.318 -14.297  0.00  0.00     0.087 C 
ATOM      6  C7  NGT d   1      33.526  19.740 -17.433  0.00  0.00     0.064 C 
ATOM      7  N2  NGT d   1      34.334  18.846 -18.020  0.00  0.00    -0.276 NA
ATOM      8  S1  NGT d   1      33.881  19.988 -15.768  0.00  0.00    -0.081 SA
ATOM      9  O5  NGT d   1      35.876  18.566 -14.658  0.00  0.00    -0.363 OA
ATOM     10  H1  NGT d   1      36.258  19.960 -16.127  0.00  0.00     0.104 H 
ATOM     11  H2  NGT d   1      36.298  18.067 -17.573  0.00  0.00     0.085 H 
ATOM     12  H3  NGT d   1      33.684  16.914 -16.501  0.00  0.00     0.090 H 
ATOM     13  H4  NGT d   1      36.491  16.142 -15.539  0.00  0.00     0.091 H 
ATOM     14  H5  NGT d   1      34.089  17.516 -14.227  0.00  0.00     0.090 H 
ENDROOT
BRANCH   5  15
ATOM     15  C6  NGT d   1      35.672  16.845 -12.935  0.00  0.00     0.043 C 
ATOM     16  H6  NGT d   1      36.762  16.697 -12.962  0.00  0.00     0.078 H 
ATOM     17  H7  NGT d   1      35.181  15.902 -12.655  0.00  0.00     0.078 H 
BRANCH  15  18
ATOM     18  O6  NGT d   1      35.337  17.872 -12.003  0.00  0.00    -0.398 OA
ATOM     19  H13 NGT d   1      35.633  17.620 -11.136  0.00  0.00     0.209 HD
ENDBRANCH  15  18
ENDBRANCH   5  15
BRANCH   4  20
ATOM     20  O4  NGT d   1      34.820  15.005 -15.053  0.00  0.00    -0.390 OA
ATOM     21  H12 NGT d   1      35.202  14.685 -14.244  0.00  0.00     0.210 HD
ENDBRANCH   4  20
BRANCH   3  22
ATOM     22  O3  NGT d   1      34.959  15.841 -17.724  0.00  0.00    -0.391 OA
ATOM     23  H11 NGT d   1      34.562  16.162 -18.525  0.00  0.00     0.210 HD
ENDBRANCH   3  22
BRANCH   6  24
ATOM     24  C8  NGT d   1      32.431  20.494 -18.158  0.00  0.00    -0.030 C 
ATOM     25  H8  NGT d   1      32.394  20.167 -19.208  0.00  0.00     0.036 H 
ATOM     26  H9  NGT d   1      32.640  21.573 -18.118  0.00  0.00     0.036 H 
ATOM     27  H10 NGT d   1      31.464  20.290 -17.676  0.00  0.00     0.036 H 
ENDBRANCH   6  24
TORSDOF 5
