REMARK  10 active torsions:
REMARK  status: ('A' for Active; 'I' for Inactive)
REMARK    1  A    between atoms: CAH_1  and  CAG_2 
REMARK       I    between atoms: CAG_2  and  NAI_4 
REMARK    2  A    between atoms: NAI_4  and  CAB_5 
REMARK    3  A    between atoms: CAC_6  and  OAJ_7 
REMARK    4  A    between atoms: CAD_8  and  OAK_9 
REMARK    5  A    between atoms: CAE_10  and  CAF_11 
REMARK    6  A    between atoms: CAF_11  and  OAM_12 
REMARK    7  A    between atoms: CAA_14  and  NAY_15 
REMARK    8  A    between atoms: NAY_15  and  OAQ_16 
REMARK    9  A    between atoms: OAQ_16  and  CAP_17 
REMARK       I    between atoms: CAP_17  and  NAO_19 
REMARK   10  A    between atoms: NAO_19  and  CAS_20 
ROOT
ATOM      1  CAB OAN d   1      35.268 -18.241  17.046  0.00  0.00     0.091 C 
ATOM      2  CAC OAN d   1      34.612 -16.886  16.593  0.00  0.00     0.086 C 
ATOM      3  CAD OAN d   1      35.268 -16.399  15.292  0.00  0.00     0.089 C 
ATOM      4  CAE OAN d   1      35.059 -17.487  14.251  0.00  0.00     0.088 C 
ATOM      5  OAL OAN d   1      35.771 -18.702  14.659  0.00  0.00    -0.345 OA
ATOM      6  CAA OAN d   1      36.056 -18.841  16.006  0.00  0.00     0.243 C 
ATOM      7  H5  OAN d   1      35.994 -17.981  17.831  0.00  0.00     0.083 H 
ATOM      8  H6  OAN d   1      33.545 -17.069  16.399  0.00  0.00     0.090 H 
ATOM      9  H8  OAN d   1      36.343 -16.232  15.453  0.00  0.00     0.091 H 
ATOM     10  H10 OAN d   1      33.984 -17.712  14.189  0.00  0.00     0.090 H 
ATOM     11  H14 OAN d   1      36.866 -18.100  16.070  0.00  0.00     0.137 H 
ENDROOT
BRANCH   6  12
ATOM     12  NAY OAN d   1      36.803 -19.932  16.137  0.00  0.00     0.077 N 
ATOM     13  H15 OAN d   1      36.384 -20.689  15.619  0.00  0.00     0.319 HD
ATOM     14  H16 OAN d   1      36.861 -20.183  17.111  0.00  0.00     0.319 HD
BRANCH  12  15
ATOM     15  OAQ OAN d   1      38.131 -19.679  15.627  0.00  0.00    -0.101 OA
BRANCH  15  16
ATOM     16  CAP OAN d   1      39.097 -20.549  15.276  0.00  0.00     0.392 C 
ATOM     17  OAR OAN d   1      39.315 -21.465  16.088  0.00  0.00    -0.236 OA
ATOM     18  NAO OAN d   1      39.995 -20.160  14.335  0.00  0.00    -0.301 N 
ATOM     19  H17 OAN d   1      39.772 -19.370  13.764  0.00  0.00     0.171 HD
BRANCH  18  20
ATOM     20  CAS OAN d   1      41.171 -20.784  14.131  0.00  0.00     0.036 A 
ATOM     21  CAT OAN d   1      41.380 -22.105  14.582  0.00  0.00    -0.057 A 
ATOM     22  CAU OAN d   1      42.575 -22.789  14.305  0.00  0.00    -0.081 A 
ATOM     23  H18 OAN d   1      40.603 -22.601  15.153  0.00  0.00     0.086 H 
ATOM     24  CAV OAN d   1      43.544 -22.140  13.528  0.00  0.00    -0.083 A 
ATOM     25  H19 OAN d   1      42.743 -23.791  14.682  0.00  0.00     0.083 H 
ATOM     26  CAW OAN d   1      43.340 -20.842  13.034  0.00  0.00    -0.081 A 
ATOM     27  H20 OAN d   1      44.473 -22.652  13.303  0.00  0.00     0.083 H 
ATOM     28  CAX OAN d   1      42.148 -20.170  13.325  0.00  0.00    -0.057 A 
ATOM     29  H21 OAN d   1      44.102 -20.363  12.430  0.00  0.00     0.083 H 
ATOM     30  H22 OAN d   1      41.977 -19.175  12.929  0.00  0.00     0.086 H 
ENDBRANCH  18  20
ENDBRANCH  15  16
ENDBRANCH  12  15
ENDBRANCH   6  12
BRANCH   1  31
ATOM     31  NAI OAN d   1      34.273 -19.090  17.712  0.00  0.00    -0.350 N 
ATOM     32  CAG OAN d   1      33.376 -19.810  17.046  0.00  0.00     0.214 C 
ATOM     33  OAN OAN d   1      33.311 -19.890  15.824  0.00  0.00    -0.274 OA
ATOM     34  H4  OAN d   1      34.270 -19.128  18.711  0.00  0.00     0.163 HD
BRANCH  32  35
ATOM     35  CAH OAN d   1      32.422 -20.556  17.933  0.00  0.00    -0.003 C 
ATOM     36  H1  OAN d   1      32.658 -20.343  18.986  0.00  0.00     0.040 H 
ATOM     37  H2  OAN d   1      32.517 -21.636  17.747  0.00  0.00     0.040 H 
ATOM     38  H3  OAN d   1      31.392 -20.236  17.716  0.00  0.00     0.040 H 
ENDBRANCH  32  35
ENDBRANCH   1  31
BRANCH   2  39
ATOM     39  OAJ OAN d   1      34.715 -15.878  17.611  0.00  0.00    -0.391 OA
ATOM     40  H7  OAN d   1      34.272 -16.177  18.397  0.00  0.00     0.210 HD
ENDBRANCH   2  39
BRANCH   4  41
ATOM     41  CAF OAN d   1      35.536 -17.021  12.877  0.00  0.00     0.043 C 
ATOM     42  H11 OAN d   1      36.622 -16.849  12.890  0.00  0.00     0.078 H 
ATOM     43  H12 OAN d   1      35.021 -16.092  12.591  0.00  0.00     0.078 H 
BRANCH  41  44
ATOM     44  OAM OAN d   1      35.214 -18.065  11.961  0.00  0.00    -0.398 OA
ATOM     45  H13 OAN d   1      35.495 -17.817  11.088  0.00  0.00     0.209 HD
ENDBRANCH  41  44
ENDBRANCH   4  41
BRANCH   3  46
ATOM     46  OAK OAN d   1      34.649 -15.164  14.848  0.00  0.00    -0.390 OA
ATOM     47  H9  OAN d   1      35.064 -14.874  14.044  0.00  0.00     0.210 HD
ENDBRANCH   3  46
TORSDOF 10
