REMARK  10 active torsions:
REMARK  status: ('A' for Active; 'I' for Inactive)
REMARK    1  A    between atoms: NAY_25  and  CAA_1 
REMARK    2  A    between atoms: CAB_2  and  NAI_9 
REMARK    3  A    between atoms: CAC_3  and  OAJ_10 
REMARK    4  A    between atoms: CAD_4  and  OAK_11 
REMARK    5  A    between atoms: CAE_5  and  CAF_6 
REMARK    6  A    between atoms: CAF_6  and  OAM_13 
REMARK    7  A    between atoms: CAG_7  and  CAH_8 
REMARK       I    between atoms: NAI_9  and  CAG_7 
REMARK       I    between atoms: CAP_16  and  NAO_15 
REMARK    8  A    between atoms: NAO_15  and  CAS_19 
REMARK    9  A    between atoms: OAQ_17  and  CAP_16 
REMARK   10  A    between atoms: OAQ_17  and  NAY_25 
ROOT
ATOM      1  CAA OGN d   1      36.191  18.589 -16.095  0.00  0.00     0.243 C 
ATOM      2  CAB OGN d   1      35.229  17.983 -17.150  0.00  0.00     0.091 C 
ATOM      3  CAC OGN d   1      34.403  16.824 -16.556  0.00  0.00     0.086 C 
ATOM      4  CAD OGN d   1      34.971  16.329 -15.218  0.00  0.00     0.089 C 
ATOM      5  CAE OGN d   1      34.953  17.498 -14.221  0.00  0.00     0.088 C 
ATOM      6  OAL OGN d   1      35.763  18.619 -14.696  0.00  0.00    -0.345 OA
ATOM      7  H1  OGN d   1      36.991  17.834 -16.083  0.00  0.00     0.137 H 
ATOM      8  H2  OGN d   1      35.873  17.565 -17.937  0.00  0.00     0.083 H 
ATOM      9  H3  OGN d   1      33.374  17.174 -16.388  0.00  0.00     0.090 H 
ATOM     10  H4  OGN d   1      34.348  15.509 -14.831  0.00  0.00     0.091 H 
ATOM     11  H5  OGN d   1      33.913  17.840 -14.118  0.00  0.00     0.090 H 
ENDROOT
BRANCH   1  12
ATOM     12  NAY OGN d   1      36.911  19.802 -16.433  0.00  0.00     0.077 N 
ATOM     13  H21 OGN d   1      36.294  20.598 -16.476  0.00  0.00     0.319 HD
ATOM     14  H22 OGN d   1      37.401  19.709 -17.309  0.00  0.00     0.319 HD
BRANCH  12  15
ATOM     15  OAQ OGN d   1      37.834  19.901 -15.313  0.00  0.00    -0.101 OA
BRANCH  15  16
ATOM     16  CAP OGN d   1      38.870  20.741 -15.503  0.00  0.00     0.392 C 
ATOM     17  NAO OGN d   1      39.831  20.574 -14.592  0.00  0.00    -0.301 N 
ATOM     18  H15 OGN d   1      39.669  19.844 -13.928  0.00  0.00     0.171 HD
ATOM     19  OAR OGN d   1      38.886  21.565 -16.417  0.00  0.00    -0.236 OA
BRANCH  17  20
ATOM     20  CAS OGN d   1      40.979  21.243 -14.441  0.00  0.00     0.036 A 
ATOM     21  CAT OGN d   1      41.995  20.635 -13.702  0.00  0.00    -0.057 A 
ATOM     22  CAU OGN d   1      43.199  21.302 -13.484  0.00  0.00    -0.081 A 
ATOM     23  H16 OGN d   1      41.847  19.641 -13.296  0.00  0.00     0.086 H 
ATOM     24  CAV OGN d   1      43.371  22.582 -14.009  0.00  0.00    -0.083 A 
ATOM     25  H17 OGN d   1      43.992  20.832 -12.914  0.00  0.00     0.083 H 
ATOM     26  CAW OGN d   1      42.359  23.202 -14.738  0.00  0.00    -0.081 A 
ATOM     27  H18 OGN d   1      44.308  23.103 -13.847  0.00  0.00     0.083 H 
ATOM     28  CAX OGN d   1      41.153  22.532 -14.948  0.00  0.00    -0.057 A 
ATOM     29  H19 OGN d   1      42.507  24.198 -15.139  0.00  0.00     0.083 H 
ATOM     30  H20 OGN d   1      40.354  23.011 -15.503  0.00  0.00     0.086 H 
ENDBRANCH  17  20
ENDBRANCH  15  16
ENDBRANCH  12  15
ENDBRANCH   1  12
BRANCH   2  31
ATOM     31  NAI OGN d   1      34.291  18.907 -17.823  0.00  0.00    -0.350 N 
ATOM     32  CAG OGN d   1      33.433  19.692 -17.176  0.00  0.00     0.214 C 
ATOM     33  OAN OGN d   1      33.370  19.772 -15.956  0.00  0.00    -0.274 OA
ATOM     34  H11 OGN d   1      34.302  18.944 -18.822  0.00  0.00     0.163 HD
BRANCH  32  35
ATOM     35  CAH OGN d   1      32.505  20.500 -18.073  0.00  0.00    -0.003 C 
ATOM     36  H8  OGN d   1      31.837  21.114 -17.451  0.00  0.00     0.040 H 
ATOM     37  H9  OGN d   1      31.905  19.816 -18.691  0.00  0.00     0.040 H 
ATOM     38  H10 OGN d   1      33.103  21.154 -18.725  0.00  0.00     0.040 H 
ENDBRANCH  32  35
ENDBRANCH   2  31
BRANCH   3  39
ATOM     39  OAJ OGN d   1      34.387  15.761 -17.501  0.00  0.00    -0.391 OA
ATOM     40  H12 OGN d   1      34.034  16.076 -18.325  0.00  0.00     0.210 HD
ENDBRANCH   3  39
BRANCH   5  41
ATOM     41  CAF OGN d   1      35.456  17.066 -12.849  0.00  0.00     0.043 C 
ATOM     42  H6  OGN d   1      36.526  16.817 -12.909  0.00  0.00     0.078 H 
ATOM     43  H7  OGN d   1      34.893  16.184 -12.509  0.00  0.00     0.078 H 
BRANCH  41  44
ATOM     44  OAM OGN d   1      35.264  18.142 -11.930  0.00  0.00    -0.398 OA
ATOM     45  H14 OGN d   1      35.575  17.882 -11.071  0.00  0.00     0.209 HD
ENDBRANCH  41  44
ENDBRANCH   5  41
BRANCH   4  46
ATOM     46  OAK OGN d   1      36.312  15.852 -15.418  0.00  0.00    -0.390 OA
ATOM     47  H13 OGN d   1      36.668  15.555 -14.589  0.00  0.00     0.210 HD
ENDBRANCH   4  46
TORSDOF 10
