REMARK  5 active torsions:
REMARK  status: ('A' for Active; 'I' for Inactive)
REMARK    1  A    between atoms: C8_2  and  C10_3 
REMARK       I    between atoms: C8_2  and  N2_4 
REMARK    2  A    between atoms: N2_4  and  C2_5 
REMARK    3  A    between atoms: C3_6  and  O4_7 
REMARK    4  A    between atoms: C4_8  and  O2_9 
REMARK    5  A    between atoms: C6_15  and  O3_16 
ROOT
ATOM      1  C2  GC2 d   1      35.224  18.137 -17.071  0.00  0.00     0.062 C 
ATOM      2  C3  GC2 d   1      34.847  16.943 -16.158  0.00  0.00     0.083 C 
ATOM      3  C4  GC2 d   1      36.038  16.397 -15.316  0.00  0.00     0.092 C 
ATOM      4  C1  GC2 d   1      36.133  19.168 -16.346  0.00  0.00     0.105 C 
ATOM      5  N1  GC2 d   1      37.320  18.401 -15.857  0.00  0.00    -0.060 N 
ATOM      6  C5  GC2 d   1      36.906  17.508 -14.756  0.00  0.00     0.155 C 
ATOM      7  C9  GC2 d   1      38.409  19.199 -15.260  0.00  0.00     0.086 C 
ATOM      8  C7  GC2 d   1      39.237  18.100 -14.566  0.00  0.00    -0.016 C 
ATOM      9  C6  GC2 d   1      38.224  17.015 -14.140  0.00  0.00     0.067 C 
ATOM     10  H5  GC2 d   1      35.808  17.727 -17.908  0.00  0.00     0.079 H 
ATOM     11  H6  GC2 d   1      34.066  17.285 -15.463  0.00  0.00     0.090 H 
ATOM     12  H8  GC2 d   1      36.655  15.745 -15.952  0.00  0.00     0.090 H 
ATOM     13  H10 GC2 d   1      35.596  19.622 -15.500  0.00  0.00     0.079 H 
ATOM     14  H11 GC2 d   1      36.449  19.956 -17.045  0.00  0.00     0.079 H 
ATOM     15  H12 GC2 d   1      37.686  17.866 -16.629  0.00  0.00     0.280 HD
ATOM     16  H13 GC2 d   1      36.329  18.063 -14.002  0.00  0.00     0.092 H 
ATOM     17  H14 GC2 d   1      38.022  19.931 -14.536  0.00  0.00     0.076 H 
ATOM     18  H15 GC2 d   1      38.996  19.721 -16.030  0.00  0.00     0.076 H 
ATOM     19  H16 GC2 d   1      39.754  18.509 -13.685  0.00  0.00     0.039 H 
ATOM     20  H17 GC2 d   1      39.977  17.680 -15.263  0.00  0.00     0.039 H 
ATOM     21  H18 GC2 d   1      38.151  16.952 -13.044  0.00  0.00     0.086 H 
ENDROOT
BRANCH   1  22
ATOM     22  N2  GC2 d   1      34.024  18.790 -17.657  0.00  0.00    -0.353 N 
ATOM     23  C8  GC2 d   1      33.173  19.567 -16.979  0.00  0.00     0.214 C 
ATOM     24  O1  GC2 d   1      33.248  19.841 -15.772  0.00  0.00    -0.274 OA
ATOM     25  H4  GC2 d   1      33.840  18.637 -18.628  0.00  0.00     0.163 HD
BRANCH  23  26
ATOM     26  C10 GC2 d   1      32.032  20.121 -17.833  0.00  0.00    -0.003 C 
ATOM     27  H1  GC2 d   1      32.143  19.766 -18.868  0.00  0.00     0.040 H 
ATOM     28  H2  GC2 d   1      32.063  21.220 -17.818  0.00  0.00     0.040 H 
ATOM     29  H3  GC2 d   1      31.070  19.775 -17.428  0.00  0.00     0.040 H 
ENDBRANCH  23  26
ENDBRANCH   1  22
BRANCH   2  30
ATOM     30  O4  GC2 d   1      34.332  15.882 -16.938  0.00  0.00    -0.391 OA
ATOM     31  H7  GC2 d   1      33.558  16.178 -17.402  0.00  0.00     0.210 HD
ENDBRANCH   2  30
BRANCH   3  32
ATOM     32  O2  GC2 d   1      35.519  15.652 -14.221  0.00  0.00    -0.391 OA
ATOM     33  H9  GC2 d   1      36.238  15.314 -13.700  0.00  0.00     0.210 HD
ENDBRANCH   3  32
BRANCH   9  34
ATOM     34  O3  GC2 d   1      38.583  15.722 -14.676  0.00  0.00    -0.393 OA
ATOM     35  H19 GC2 d   1      37.944  15.077 -14.398  0.00  0.00     0.210 HD
ENDBRANCH   9  34
TORSDOF 5
