REMARK  7 active torsions:
REMARK  status: ('A' for Active; 'I' for Inactive)
REMARK    1  A    between atoms: C8_2  and  N21_1 
REMARK    2  A    between atoms: C9_3  and  C8_2 
REMARK    3  A    between atoms: C8_2  and  C7_5 
REMARK       I    between atoms: N22_12  and  C9_3 
REMARK    4  A    between atoms: C7_5  and  C4_6 
REMARK    5  A    between atoms: C14_14  and  C13_13 
REMARK       I    between atoms: N23_25  and  C14_14 
REMARK    6  A    between atoms: C15_19  and  C16_20 
REMARK    7  A    between atoms: C15_19  and  N23_25 
ROOT
ATOM      1  C9  P05 d   1      17.544 -13.494  22.539  0.00  0.00     0.251 C 
ATOM      2  O25 P05 d   1      16.628 -12.761  22.923  0.00  0.00    -0.271 OA
ATOM      3  N22 P05 d   1      18.388 -13.096  21.583  0.00  0.00    -0.337 N 
ATOM      4  C13 P05 d   1      18.190 -11.778  20.980  0.00  0.00     0.091 C 
ATOM      5  C12 P05 d   1      19.213 -11.668  19.866  0.00  0.00    -0.036 C 
ATOM      6  C11 P05 d   1      20.239 -12.727  20.187  0.00  0.00    -0.048 C 
ATOM      7  C10 P05 d   1      19.508 -13.826  20.968  0.00  0.00    -0.001 C 
ATOM      8  H12 P05 d   1      18.337 -10.985  21.728  0.00  0.00     0.087 H 
ATOM      9  H13 P05 d   1      19.674 -10.669  19.859  0.00  0.00     0.036 H 
ATOM     10  H14 P05 d   1      18.746 -11.863  18.889  0.00  0.00     0.036 H 
ATOM     11  H15 P05 d   1      21.046 -12.300  20.800  0.00  0.00     0.035 H 
ATOM     12  H16 P05 d   1      20.662 -13.139  19.259  0.00  0.00     0.035 H 
ATOM     13  H17 P05 d   1      19.144 -14.616  20.295  0.00  0.00     0.064 H 
ATOM     14  H18 P05 d   1      20.161 -14.269  21.734  0.00  0.00     0.064 H 
ENDROOT
BRANCH   1  15
ATOM     15  C8  P05 d   1      17.719 -14.876  23.136  0.00  0.00     0.179 C 
ATOM     16  H4  P05 d   1      18.420 -15.462  22.524  0.00  0.00     0.099 H 
BRANCH  15  17
ATOM     17  N21 P05 d   1      16.418 -15.520  23.181  0.00  0.00    -0.066 N 
ATOM     18  H1  P05 d   1      16.513 -16.442  23.576  0.00  0.00     0.275 HD
ATOM     19  H2  P05 d   1      16.046 -15.591  22.247  0.00  0.00     0.275 HD
ATOM     20  H3  P05 d   1      15.792 -14.973  23.751  0.00  0.00     0.275 HD
ENDBRANCH  15  17
BRANCH  15  21
ATOM     21  C7  P05 d   1      18.227 -14.785  24.575  0.00  0.00    -0.006 C 
ATOM     22  H5  P05 d   1      18.209 -15.790  25.023  0.00  0.00     0.043 H 
ATOM     23  H6  P05 d   1      17.564 -14.117  25.145  0.00  0.00     0.043 H 
BRANCH  21  24
ATOM     24  C4  P05 d   1      19.632 -14.248  24.642  0.00  0.00    -0.056 A 
ATOM     25  C3  P05 d   1      19.864 -13.046  25.305  0.00  0.00    -0.077 A 
ATOM     26  C2  P05 d   1      21.151 -12.526  25.369  0.00  0.00    -0.082 A 
ATOM     27  H7  P05 d   1      19.041 -12.516  25.771  0.00  0.00     0.084 H 
ATOM     28  C1  P05 d   1      22.217 -13.207  24.787  0.00  0.00    -0.083 A 
ATOM     29  H9  P05 d   1      21.326 -11.584  25.875  0.00  0.00     0.083 H 
ATOM     30  C6  P05 d   1      21.978 -14.417  24.137  0.00  0.00    -0.082 A 
ATOM     31  H11 P05 d   1      23.221 -12.801  24.839  0.00  0.00     0.083 H 
ATOM     32  C5  P05 d   1      20.693 -14.933  24.050  0.00  0.00    -0.077 A 
ATOM     33  H10 P05 d   1      22.805 -14.960  23.695  0.00  0.00     0.083 H 
ATOM     34  H8  P05 d   1      20.515 -15.864  23.524  0.00  0.00     0.084 H 
ENDBRANCH  21  24
ENDBRANCH  15  21
ENDBRANCH   1  15
BRANCH   4  35
ATOM     35  C14 P05 d   1      16.814 -11.676  20.386  0.00  0.00     0.240 C 
ATOM     36  O26 P05 d   1      16.324 -12.604  19.739  0.00  0.00    -0.271 OA
ATOM     37  N23 P05 d   1      16.161 -10.529  20.591  0.00  0.00    -0.355 N 
ATOM     38  H25 P05 d   1      16.628  -9.823  21.124  0.00  0.00     0.162 HD
BRANCH  37  39
ATOM     39  C15 P05 d   1      14.827 -10.223  20.103  0.00  0.00     0.019 C 
ATOM     40  H19 P05 d   1      14.778  -9.154  19.850  0.00  0.00     0.071 H 
ATOM     41  H20 P05 d   1      14.633 -10.823  19.202  0.00  0.00     0.071 H 
BRANCH  39  42
ATOM     42  C16 P05 d   1      13.765 -10.529  21.130  0.00  0.00    -0.038 A 
ATOM     43  C17 P05 d   1      13.185  -9.525  21.913  0.00  0.00    -0.058 A 
ATOM     44  C18 P05 d   1      12.207  -9.874  22.834  0.00  0.00     0.002 A 
ATOM     45  H21 P05 d   1      13.494  -8.492  21.802  0.00  0.00     0.086 H 
ATOM     46  N24 P05 d   1      11.808 -11.151  22.953  0.00  0.00    -0.273 NA
ATOM     47  H22 P05 d   1      11.762  -9.111  23.462  0.00  0.00     0.114 H 
ATOM     48  C19 P05 d   1      12.361 -12.122  22.219  0.00  0.00     0.002 A 
ATOM     49  C20 P05 d   1      13.352 -11.847  21.287  0.00  0.00    -0.058 A 
ATOM     50  H23 P05 d   1      12.029 -13.145  22.355  0.00  0.00     0.114 H 
ATOM     51  H24 P05 d   1      13.793 -12.641  20.696  0.00  0.00     0.086 H 
ENDBRANCH  39  42
ENDBRANCH  37  39
ENDBRANCH   4  35
TORSDOF 7
