REMARK  8 active torsions:
REMARK  status: ('A' for Active; 'I' for Inactive)
REMARK    1  A    between atoms: C05_5  and  C04_4 
REMARK    2  A    between atoms: C07_7  and  C16_16 
REMARK    3  A    between atoms: C11_11  and  C14_14 
REMARK    4  A    between atoms: O23_23  and  C15_15 
REMARK    5  A    between atoms: C16_16  and  N21_21 
REMARK    6  A    between atoms: C18_18  and  C17_17 
REMARK    7  A    between atoms: C17_17  and  N20_20 
REMARK    8  A    between atoms: C18_18  and  O23_23 
ROOT
ATOM      1  C05 KXB d   1      48.277  50.919  35.592  0.00  0.00    -0.004 A 
ATOM      2  C06 KXB d   1      49.499  50.783  34.966  0.00  0.00     0.006 A 
ATOM      3  C07 KXB d   1      47.253  51.574  34.882  0.00  0.00     0.003 A 
ATOM      4  C10 KXB d   1      49.670  51.304  33.675  0.00  0.00     0.133 A 
ATOM      5  C11 KXB d   1      47.514  52.069  33.588  0.00  0.00     0.040 A 
ATOM      6  C12 KXB d   1      51.055  51.020  33.214  0.00  0.00     0.273 A 
ATOM      7  C13 KXB d   1      50.774  50.151  35.443  0.00  0.00     0.025 A 
ATOM      8  N19 KXB d   1      48.720  51.936  32.947  0.00  0.00    -0.247 NA
ATOM      9  N20 KXB d   1      51.656  50.321  34.253  0.00  0.00    -0.340 N 
ATOM     10  O22 KXB d   1      51.585  51.281  32.141  0.00  0.00    -0.266 OA
ATOM     11  H4  KXB d   1      50.629  49.088  35.686  0.00  0.00     0.071 H 
ATOM     12  H5  KXB d   1      51.178  50.676  36.321  0.00  0.00     0.071 H 
ENDROOT
BRANCH   1  13
ATOM     13  C04 KXB d   1      48.108  50.396  36.965  0.00  0.00    -0.003 A 
ATOM     14  C01 KXB d   1      47.492  49.178  37.185  0.00  0.00    -0.069 A 
ATOM     15  C02 KXB d   1      47.357  48.702  38.473  0.00  0.00    -0.061 A 
ATOM     16  H1  KXB d   1      47.117  48.599  36.349  0.00  0.00     0.085 H 
ATOM     17  C08 KXB d   1      47.841  49.475  39.529  0.00  0.00     0.035 A 
ATOM     18  H2  KXB d   1      46.884  47.745  38.661  0.00  0.00     0.086 H 
ATOM     19  C03 KXB d   1      48.470  50.691  39.350  0.00  0.00    -0.040 A 
ATOM     20 CL1  KXB d   1      47.677  48.886  41.116  0.00  0.00    -0.084 Cl
ATOM     21  C09 KXB d   1      48.591  51.126  38.050  0.00  0.00     0.046 A 
ATOM     22  H3  KXB d   1      48.847  51.270  40.185  0.00  0.00     0.088 H 
ATOM     23 CL2  KXB d   1      49.349  52.619  37.768  0.00  0.00    -0.083 Cl
ENDBRANCH   1  13
BRANCH   3  24
ATOM     24  C16 KXB d   1      45.889  51.742  35.503  0.00  0.00     0.106 C 
ATOM     25  H12 KXB d   1      45.553  50.779  35.915  0.00  0.00     0.082 H 
ATOM     26  H13 KXB d   1      45.177  52.081  34.737  0.00  0.00     0.082 H 
BRANCH  24  27
ATOM     27  N21 KXB d   1      45.958  52.717  36.558  0.00  0.00    -0.075 N 
ATOM     28  H18 KXB d   1      45.046  52.829  36.972  0.00  0.00     0.274 HD
ATOM     29  H19 KXB d   1      46.266  53.599  36.180  0.00  0.00     0.274 HD
ATOM     30  H20 KXB d   1      46.611  52.406  37.261  0.00  0.00     0.274 HD
ENDBRANCH  24  27
ENDBRANCH   3  24
BRANCH   5  31
ATOM     31  C14 KXB d   1      46.484  52.771  32.757  0.00  0.00    -0.035 C 
ATOM     32  H6  KXB d   1      46.926  53.060  31.792  0.00  0.00     0.035 H 
ATOM     33  H7  KXB d   1      46.137  53.671  33.286  0.00  0.00     0.035 H 
ATOM     34  H8  KXB d   1      45.632  52.097  32.582  0.00  0.00     0.035 H 
ENDBRANCH   5  31
BRANCH   9  35
ATOM     35  C17 KXB d   1      53.029  49.800  34.179  0.00  0.00     0.018 C 
ATOM     36  H14 KXB d   1      52.983  48.719  33.978  0.00  0.00     0.067 H 
ATOM     37  H15 KXB d   1      53.550  50.305  33.352  0.00  0.00     0.067 H 
BRANCH  35  38
ATOM     38  C18 KXB d   1      53.862  50.031  35.520  0.00  0.00     0.034 C 
ATOM     39  H16 KXB d   1      54.874  49.614  35.408  0.00  0.00     0.076 H 
ATOM     40  H17 KXB d   1      53.355  49.541  36.364  0.00  0.00     0.076 H 
BRANCH  38  41
ATOM     41  O23 KXB d   1      53.940  51.440  35.752  0.00  0.00    -0.394 OA
BRANCH  41  42
ATOM     42  C15 KXB d   1      55.299  51.939  35.861  0.00  0.00     0.004 C 
ATOM     43  H9  KXB d   1      55.278  53.024  36.038  0.00  0.00     0.066 H 
ATOM     44  H10 KXB d   1      55.842  51.730  34.928  0.00  0.00     0.066 H 
ATOM     45  H11 KXB d   1      55.806  51.440  36.700  0.00  0.00     0.066 H 
ENDBRANCH  41  42
ENDBRANCH  38  41
ENDBRANCH  35  38
ENDBRANCH   9  35
TORSDOF 8
