REMARK  8 active torsions:
REMARK  status: ('A' for Active; 'I' for Inactive)
REMARK    1  A    between atoms: C6_6  and  NAD_10 
REMARK    2  A    between atoms: CAL_17  and  CAA_7 
REMARK    3  A    between atoms: CAY_25  and  CAB_8 
REMARK    4  A    between atoms: CAY_25  and  CAC_9 
REMARK    5  A    between atoms: OAP_19  and  CAL_17 
REMARK    6  A    between atoms: CAQ_20  and  OAP_19 
REMARK    7  A    between atoms: CAT_22  and  CAR_21 
REMARK    8  A    between atoms: CAY_25  and  NAZ_26 
ROOT
ATOM      1  CAE BK5 d   1      14.270  13.995  66.636  0.00  0.00    -0.050 A 
ATOM      2  CAF BK5 d   1      17.207  16.224  63.232  0.00  0.00    -0.070 A 
ATOM      3  CAG BK5 d   1      15.644  13.998  66.390  0.00  0.00    -0.070 A 
ATOM      4  CAH BK5 d   1      15.835  16.229  63.480  0.00  0.00    -0.071 A 
ATOM      5  CAJ BK5 d   1      13.938  15.491  64.776  0.00  0.00    -0.040 A 
ATOM      6  CAK BK5 d   1      17.549  14.728  65.080  0.00  0.00    -0.060 A 
ATOM      7  CAQ BK5 d   1      13.413  14.740  65.823  0.00  0.00     0.069 A 
ATOM      8  CAR BK5 d   1      18.077  15.460  64.014  0.00  0.00    -0.004 A 
ATOM      9  CAU BK5 d   1      15.313  15.484  64.530  0.00  0.00    -0.023 A 
ATOM     10  CAV BK5 d   1      16.172  14.739  65.340  0.00  0.00    -0.025 A 
ATOM     11  H13 BK5 d   1      13.868  13.414  67.458  0.00  0.00     0.087 H 
ATOM     12  H14 BK5 d   1      17.605  16.822  62.420  0.00  0.00     0.084 H 
ATOM     13  H15 BK5 d   1      16.305  13.417  67.023  0.00  0.00     0.085 H 
ATOM     14  H16 BK5 d   1      15.174  16.816  62.852  0.00  0.00     0.084 H 
ATOM     15  H17 BK5 d   1      13.279  16.082  64.150  0.00  0.00     0.089 H 
ATOM     16  H18 BK5 d   1      18.210  14.146  65.712  0.00  0.00     0.086 H 
ENDROOT
BRANCH   8  17
ATOM     17  CAT BK5 d   1      19.446  15.499  63.738  0.00  0.00     0.105 A 
ATOM     18  C5  BK5 d   1      20.308  14.400  63.581  0.00  0.00     0.088 A 
ATOM     19  C4  BK5 d   1      21.540  14.982  63.322  0.00  0.00     0.164 A 
ATOM     20  C6  BK5 d   1      20.248  12.996  63.629  0.00  0.00     0.139 A 
ATOM     21  N3  BK5 d   1      22.630  14.214  63.134  0.00  0.00    -0.222 NA
ATOM     22  NAZ BK5 d   1      21.355  16.299  63.330  0.00  0.00    -0.247 N 
ATOM     23  C2  BK5 d   1      22.537  12.891  63.174  0.00  0.00     0.091 A 
ATOM     24  N1  BK5 d   1      21.372  12.289  63.415  0.00  0.00    -0.224 NA
ATOM     25  H1  BK5 d   1      23.423  12.289  63.008  0.00  0.00     0.146 H 
ATOM     26  NAO BK5 d   1      20.178  16.611  63.567  0.00  0.00    -0.169 NA
BRANCH  22  27
ATOM     27  CAY BK5 d   1      22.454  17.254  63.088  0.00  0.00     0.029 C 
ATOM     28  H21 BK5 d   1      23.394  16.814  63.453  0.00  0.00     0.074 H 
BRANCH  27  29
ATOM     29  CAB BK5 d   1      22.213  18.568  63.835  0.00  0.00    -0.056 C 
ATOM     30  H5  BK5 d   1      23.045  19.260  63.638  0.00  0.00     0.030 H 
ATOM     31  H6  BK5 d   1      22.150  18.369  64.915  0.00  0.00     0.030 H 
ATOM     32  H7  BK5 d   1      21.271  19.019  63.489  0.00  0.00     0.030 H 
ENDBRANCH  27  29
BRANCH  27  33
ATOM     33  CAC BK5 d   1      22.573  17.496  61.579  0.00  0.00    -0.056 C 
ATOM     34  H8  BK5 d   1      22.745  16.538  61.066  0.00  0.00     0.030 H 
ATOM     35  H9  BK5 d   1      23.416  18.174  61.382  0.00  0.00     0.030 H 
ATOM     36  H10 BK5 d   1      21.643  17.949  61.206  0.00  0.00     0.030 H 
ENDBRANCH  27  33
ENDBRANCH  22  27
BRANCH  20  37
ATOM     37  NAD BK5 d   1      19.120  12.323  63.863  0.00  0.00    -0.383 N 
ATOM     38  H11 BK5 d   1      18.241  12.833  64.031  0.00  0.00     0.157 HD
ATOM     39  H12 BK5 d   1      19.128  11.293  63.876  0.00  0.00     0.157 HD
ENDBRANCH  20  37
ENDBRANCH   8  17
BRANCH   7  40
ATOM     40  OAP BK5 d   1      12.079  14.730  66.094  0.00  0.00    -0.351 OA
BRANCH  40  41
ATOM     41  CAL BK5 d   1      11.211  14.939  64.950  0.00  0.00     0.023 C 
ATOM     42  H19 BK5 d   1      11.346  15.964  64.576  0.00  0.00     0.074 H 
ATOM     43  H20 BK5 d   1      11.476  14.222  64.159  0.00  0.00     0.074 H 
BRANCH  41  44
ATOM     44  CAA BK5 d   1       9.740  14.735  65.346  0.00  0.00    -0.056 C 
ATOM     45  H2  BK5 d   1       9.098  14.897  64.468  0.00  0.00     0.030 H 
ATOM     46  H3  BK5 d   1       9.470  15.452  66.135  0.00  0.00     0.030 H 
ATOM     47  H4  BK5 d   1       9.599  13.710  65.719  0.00  0.00     0.030 H 
ENDBRANCH  41  44
ENDBRANCH  40  41
ENDBRANCH   7  40
TORSDOF 8
