REMARK  9 active torsions:
REMARK  status: ('A' for Active; 'I' for Inactive)
REMARK    1  A    between atoms: C1_1  and  S1_12 
REMARK    2  A    between atoms: C2_2  and  O2_3 
REMARK    3  A    between atoms: C3_4  and  O3_5 
REMARK    4  A    between atoms: C4_6  and  O4_7 
REMARK    5  A    between atoms: C5_8  and  C6_10 
REMARK    6  A    between atoms: C6_10  and  O6_11 
REMARK    7  A    between atoms: S1_12  and  C1'_13 
REMARK    8  A    between atoms: C1'_13  and  C2'_14 
REMARK    9  A    between atoms: C1'_13  and  C3'_15 
ROOT
ATOM      1  C1  IPT d   1     -14.676 -27.523 -26.400  0.00  0.00     0.110 C 
ATOM      2  C2  IPT d   1     -13.384 -27.328 -25.606  0.00  0.00     0.096 C 
ATOM      3  C3  IPT d   1     -12.194 -27.110 -26.539  0.00  0.00     0.090 C 
ATOM      4  C4  IPT d   1     -12.143 -28.146 -27.665  0.00  0.00     0.089 C 
ATOM      5  C5  IPT d   1     -13.524 -28.224 -28.336  0.00  0.00     0.087 C 
ATOM      6  O5  IPT d   1     -14.497 -28.572 -27.351  0.00  0.00    -0.363 OA
ATOM      7  H1  IPT d   1     -14.936 -26.586 -26.915  0.00  0.00     0.104 H 
ATOM      8  H2  IPT d   1     -13.202 -28.227 -24.998  0.00  0.00     0.092 H 
ATOM      9  H4  IPT d   1     -12.284 -26.112 -26.993  0.00  0.00     0.091 H 
ATOM     10  H6  IPT d   1     -11.402 -27.831 -28.414  0.00  0.00     0.091 H 
ATOM     11  H8  IPT d   1     -13.757 -27.224 -28.730  0.00  0.00     0.090 H 
ENDROOT
BRANCH   1  12
ATOM     12  S1  IPT d   1     -15.982 -28.001 -25.331  0.00  0.00    -0.131 SA
BRANCH  12  13
ATOM     13  C1' IPT d   1     -17.429 -27.404 -26.167  0.00  0.00    -0.014 C 
ATOM     14  H12 IPT d   1     -17.247 -26.369 -26.491  0.00  0.00     0.055 H 
BRANCH  13  15
ATOM     15  C2' IPT d   1     -17.757 -28.247 -27.401  0.00  0.00    -0.065 C 
ATOM     16  H13 IPT d   1     -18.657 -27.846 -27.890  0.00  0.00     0.028 H 
ATOM     17  H14 IPT d   1     -17.938 -29.288 -27.096  0.00  0.00     0.028 H 
ATOM     18  H15 IPT d   1     -16.912 -28.212 -28.104  0.00  0.00     0.028 H 
ENDBRANCH  13  15
BRANCH  13  19
ATOM     19  C3' IPT d   1     -18.601 -27.420 -25.190  0.00  0.00    -0.065 C 
ATOM     20  H16 IPT d   1     -19.505 -27.052 -25.696  0.00  0.00     0.028 H 
ATOM     21  H17 IPT d   1     -18.372 -26.772 -24.332  0.00  0.00     0.028 H 
ATOM     22  H18 IPT d   1     -18.771 -28.448 -24.838  0.00  0.00     0.028 H 
ENDBRANCH  13  19
ENDBRANCH  12  13
ENDBRANCH   1  12
BRANCH   2  23
ATOM     23  O2  IPT d   1     -13.512 -26.196 -24.745  0.00  0.00    -0.389 OA
ATOM     24  H3  IPT d   1     -12.707 -26.080 -24.255  0.00  0.00     0.210 HD
ENDBRANCH   2  23
BRANCH   3  25
ATOM     25  O3  IPT d   1     -10.995 -27.163 -25.770  0.00  0.00    -0.390 OA
ATOM     26  H5  IPT d   1     -10.926 -28.013 -25.351  0.00  0.00     0.210 HD
ENDBRANCH   3  25
BRANCH   5  27
ATOM     27  C6  IPT d   1     -13.638 -29.213 -29.491  0.00  0.00     0.043 C 
ATOM     28  H9  IPT d   1     -14.483 -28.926 -30.134  0.00  0.00     0.078 H 
ATOM     29  H10 IPT d   1     -13.809 -30.223 -29.090  0.00  0.00     0.078 H 
BRANCH  27  30
ATOM     30  O6  IPT d   1     -12.429 -29.208 -30.264  0.00  0.00    -0.398 OA
ATOM     31  H11 IPT d   1     -12.280 -28.337 -30.612  0.00  0.00     0.209 HD
ENDBRANCH  27  30
ENDBRANCH   5  27
BRANCH   4  32
ATOM     32  O4  IPT d   1     -11.745 -29.421 -27.128  0.00  0.00    -0.390 OA
ATOM     33  H7  IPT d   1     -11.714 -30.062 -27.828  0.00  0.00     0.210 HD
ENDBRANCH   4  32
TORSDOF 9
