REMARK  5 active torsions:
REMARK  status: ('A' for Active; 'I' for Inactive)
REMARK    1  A    between atoms: C2_2  and  O2_8 
REMARK    2  A    between atoms: C3_3  and  O3_9 
REMARK    3  A    between atoms: C4_4  and  O4_10 
REMARK    4  A    between atoms: C5_5  and  C6_6 
REMARK    5  A    between atoms: C6_6  and  O6_12 
ROOT
ATOM      1  C1  149 d   1      53.966  -8.974  28.887  0.00  0.00     0.291 C 
ATOM      2  C2  149 d   1      53.724  -8.044  27.726  0.00  0.00     0.146 C 
ATOM      3  C3  149 d   1      52.534  -7.150  28.021  0.00  0.00     0.096 C 
ATOM      4  C4  149 d   1      51.413  -8.033  28.568  0.00  0.00     0.090 C 
ATOM      5  C5  149 d   1      51.774  -8.533  29.971  0.00  0.00     0.095 C 
ATOM      6  O1  149 d   1      54.972  -9.642  28.911  0.00  0.00    -0.262 OA
ATOM      7  O5  149 d   1      53.067  -9.143  30.037  0.00  0.00    -0.309 OA
ATOM      8  H1  149 d   1      53.498  -8.646  26.834  0.00  0.00     0.103 H 
ATOM      9  H2  149 d   1      52.809  -6.388  28.765  0.00  0.00     0.091 H 
ATOM     10  H3  149 d   1      50.492  -7.435  28.635  0.00  0.00     0.091 H 
ATOM     11  H4  149 d   1      51.764  -7.659  30.639  0.00  0.00     0.091 H 
ENDROOT
BRANCH   5  12
ATOM     12  C6  149 d   1      50.794  -9.575  30.518  0.00  0.00     0.044 C 
ATOM     13  H5  149 d   1      51.115  -9.890  31.522  0.00  0.00     0.078 H 
ATOM     14  H6  149 d   1      50.775 -10.448  29.849  0.00  0.00     0.078 H 
BRANCH  12  15
ATOM     15  O6  149 d   1      49.489  -9.004  30.593  0.00  0.00    -0.398 OA
ATOM     16  H10 149 d   1      49.507  -8.250  31.171  0.00  0.00     0.209 HD
ENDBRANCH  12  15
ENDBRANCH   5  12
BRANCH   4  17
ATOM     17  O4  149 d   1      51.179  -9.136  27.678  0.00  0.00    -0.390 OA
ATOM     18  H9  149 d   1      50.462  -9.663  28.010  0.00  0.00     0.210 HD
ENDBRANCH   4  17
BRANCH   3  19
ATOM     19  O3  149 d   1      52.111  -6.511  26.811  0.00  0.00    -0.390 OA
ATOM     20  H8  149 d   1      52.814  -5.965  26.480  0.00  0.00     0.210 HD
ENDBRANCH   3  19
BRANCH   2  21
ATOM     21  O2  149 d   1      54.898  -7.255  27.460  0.00  0.00    -0.383 OA
ATOM     22  H7  149 d   1      55.096  -6.719  28.219  0.00  0.00     0.210 HD
ENDBRANCH   2  21
TORSDOF 5
