REMARK  9 active torsions:
REMARK  status: ('A' for Active; 'I' for Inactive)
REMARK    1  A    between atoms: C1_1  and  S1_12 
REMARK    2  A    between atoms: C2_2  and  O2_3 
REMARK    3  A    between atoms: C3_4  and  O3_5 
REMARK    4  A    between atoms: C4_6  and  O4_7 
REMARK    5  A    between atoms: C5_8  and  C6_10 
REMARK    6  A    between atoms: C6_10  and  O6_11 
REMARK    7  A    between atoms: S1_12  and  C1'_13 
REMARK    8  A    between atoms: C1'_13  and  C2'_14 
REMARK    9  A    between atoms: C1'_13  and  C3'_15 
ROOT
ATOM      1  C1  IPT d   1     -14.813 -27.558 -26.129  0.00  0.00     0.110 C 
ATOM      2  C2  IPT d   1     -13.478 -27.362 -25.394  0.00  0.00     0.096 C 
ATOM      3  C3  IPT d   1     -12.296 -27.172 -26.349  0.00  0.00     0.090 C 
ATOM      4  C4  IPT d   1     -12.285 -28.257 -27.424  0.00  0.00     0.089 C 
ATOM      5  C5  IPT d   1     -13.673 -28.304 -28.077  0.00  0.00     0.087 C 
ATOM      6  O5  IPT d   1     -14.649 -28.608 -27.085  0.00  0.00    -0.363 OA
ATOM      7  H1  IPT d   1     -15.104 -26.625 -26.634  0.00  0.00     0.104 H 
ATOM      8  H2  IPT d   1     -13.291 -28.266 -24.796  0.00  0.00     0.092 H 
ATOM      9  H4  IPT d   1     -12.387 -26.190 -26.836  0.00  0.00     0.091 H 
ATOM     10  H6  IPT d   1     -11.538 -28.005 -28.192  0.00  0.00     0.091 H 
ATOM     11  H8  IPT d   1     -13.879 -27.305 -28.489  0.00  0.00     0.090 H 
ENDROOT
BRANCH   1  12
ATOM     12  S1  IPT d   1     -16.070 -28.039 -24.979  0.00  0.00    -0.131 SA
BRANCH  12  13
ATOM     13  C1' IPT d   1     -17.684 -28.250 -25.689  0.00  0.00    -0.014 C 
ATOM     14  H12 IPT d   1     -17.992 -29.285 -25.482  0.00  0.00     0.055 H 
BRANCH  13  15
ATOM     15  C2' IPT d   1     -18.678 -27.326 -24.988  0.00  0.00    -0.065 C 
ATOM     16  H13 IPT d   1     -19.677 -27.459 -25.430  0.00  0.00     0.028 H 
ATOM     17  H14 IPT d   1     -18.358 -26.281 -25.113  0.00  0.00     0.028 H 
ATOM     18  H15 IPT d   1     -18.715 -27.573 -23.917  0.00  0.00     0.028 H 
ENDBRANCH  13  15
BRANCH  13  19
ATOM     19  C3' IPT d   1     -17.731 -28.077 -27.206  0.00  0.00    -0.065 C 
ATOM     20  H16 IPT d   1     -18.762 -28.224 -27.560  0.00  0.00     0.028 H 
ATOM     21  H17 IPT d   1     -17.072 -28.819 -27.680  0.00  0.00     0.028 H 
ATOM     22  H18 IPT d   1     -17.393 -27.064 -27.470  0.00  0.00     0.028 H 
ENDBRANCH  13  19
ENDBRANCH  12  13
ENDBRANCH   1  12
BRANCH   2  23
ATOM     23  O2  IPT d   1     -13.543 -26.246 -24.513  0.00  0.00    -0.389 OA
ATOM     24  H3  IPT d   1     -12.709 -26.144 -24.070  0.00  0.00     0.210 HD
ENDBRANCH   2  23
BRANCH   3  25
ATOM     25  O3  IPT d   1     -11.072 -27.218 -25.612  0.00  0.00    -0.390 OA
ATOM     26  H5  IPT d   1     -10.996 -28.060 -25.178  0.00  0.00     0.210 HD
ENDBRANCH   3  25
BRANCH   5  27
ATOM     27  C6  IPT d   1     -13.830 -29.312 -29.203  0.00  0.00     0.043 C 
ATOM     28  H9  IPT d   1     -14.762 -29.100 -29.747  0.00  0.00     0.078 H 
ATOM     29  H10 IPT d   1     -13.878 -30.324 -28.775  0.00  0.00     0.078 H 
BRANCH  27  30
ATOM     30  O6  IPT d   1     -12.731 -29.243 -30.115  0.00  0.00    -0.398 OA
ATOM     31  H11 IPT d   1     -12.687 -28.372 -30.491  0.00  0.00     0.209 HD
ENDBRANCH  27  30
ENDBRANCH   5  27
BRANCH   4  32
ATOM     32  O4  IPT d   1     -11.926 -29.516 -26.827  0.00  0.00    -0.390 OA
ATOM     33  H7  IPT d   1     -12.560 -29.739 -26.156  0.00  0.00     0.210 HD
ENDBRANCH   4  32
TORSDOF 9
