REMARK  5 active torsions:
REMARK  status: ('A' for Active; 'I' for Inactive)
REMARK    1  A    between atoms: C2_2  and  O2_8 
REMARK    2  A    between atoms: C3_3  and  O3_9 
REMARK    3  A    between atoms: C4_4  and  O4_10 
REMARK    4  A    between atoms: C5_5  and  C6_6 
REMARK    5  A    between atoms: C6_6  and  O6_12 
ROOT
ATOM      1  C1  149 d   1     -11.552 -26.913 -25.467  0.00  0.00     0.291 C 
ATOM      2  C2  149 d   1     -10.526 -27.901 -24.971  0.00  0.00     0.146 C 
ATOM      3  C3  149 d   1      -9.729 -28.467 -26.135  0.00  0.00     0.096 C 
ATOM      4  C4  149 d   1     -10.678 -28.885 -27.253  0.00  0.00     0.090 C 
ATOM      5  C5  149 d   1     -11.376 -27.660 -27.846  0.00  0.00     0.095 C 
ATOM      6  O1  149 d   1     -12.094 -26.148 -24.694  0.00  0.00    -0.262 OA
ATOM      7  O5  149 d   1     -11.966 -26.810 -26.858  0.00  0.00    -0.309 OA
ATOM      8  H1  149 d   1     -11.060 -28.730 -24.483  0.00  0.00     0.103 H 
ATOM      9  H2  149 d   1      -9.030 -27.706 -26.511  0.00  0.00     0.091 H 
ATOM     10  H3  149 d   1     -10.097 -29.379 -28.046  0.00  0.00     0.091 H 
ATOM     11  H4  149 d   1     -10.629 -27.086 -28.414  0.00  0.00     0.091 H 
ENDROOT
BRANCH   5  12
ATOM     12  C6  149 d   1     -12.515 -28.065 -28.771  0.00  0.00     0.044 C 
ATOM     13  H5  149 d   1     -13.058 -27.165 -29.096  0.00  0.00     0.078 H 
ATOM     14  H6  149 d   1     -13.202 -28.733 -28.232  0.00  0.00     0.078 H 
BRANCH  12  15
ATOM     15  O6  149 d   1     -11.997 -28.743 -29.914  0.00  0.00    -0.398 OA
ATOM     16  H10 149 d   1     -11.404 -28.166 -30.381  0.00  0.00     0.209 HD
ENDBRANCH  12  15
ENDBRANCH   5  12
BRANCH   4  17
ATOM     17  O4  149 d   1     -11.651 -29.810 -26.746  0.00  0.00    -0.390 OA
ATOM     18  H9  149 d   1     -12.221 -30.087 -27.453  0.00  0.00     0.210 HD
ENDBRANCH   4  17
BRANCH   3  19
ATOM     19  O3  149 d   1      -9.001 -29.608 -25.676  0.00  0.00    -0.390 OA
ATOM     20  H8  149 d   1      -8.410 -29.346 -24.980  0.00  0.00     0.210 HD
ENDBRANCH   3  19
BRANCH   2  21
ATOM     21  O2  149 d   1      -9.645 -27.310 -24.006  0.00  0.00    -0.383 OA
ATOM     22  H7  149 d   1      -9.153 -26.608 -24.416  0.00  0.00     0.210 HD
ENDBRANCH   2  21
TORSDOF 5
