REMARK  10 active torsions:
REMARK  status: ('A' for Active; 'I' for Inactive)
REMARK    1  A    between atoms: N7_4  and  C29_26 
REMARK    2  A    between atoms: C8_5  and  C10_7 
REMARK    3  A    between atoms: C9_6  and  C27_24 
REMARK    4  A    between atoms: C9_6  and  C28_25 
REMARK    5  A    between atoms: C11_8  and  C12_9 
REMARK    6  A    between atoms: C12_9  and  C13_10 
REMARK    7  A    between atoms: N16_13  and  C23_20 
REMARK    8  A    between atoms: C23_20  and  C24_21 
REMARK    9  A    between atoms: C24_21  and  C25_22 
REMARK   10  A    between atoms: C25_22  and  S26_23 
ROOT
ATOM      1  C12 DIW d   1      27.167  -1.926  -5.745  0.00  0.00    -0.025 C 
ATOM      2  H4  DIW d   1      26.909  -2.751  -5.065  0.00  0.00     0.046 H 
ATOM      3  H5  DIW d   1      26.799  -0.977  -5.327  0.00  0.00     0.046 H 
ENDROOT
BRANCH   1   4
ATOM      4  C11 DIW d   1      26.402  -2.136  -6.842  0.00  0.00    -0.097 C 
ATOM      5  C10 DIW d   1      25.113  -2.226  -6.509  0.00  0.00    -0.063 C 
ATOM      6  H2  DIW d   1      24.817  -2.141  -5.465  0.00  0.00     0.086 H 
ATOM      7  H3  DIW d   1      26.786  -2.220  -7.857  0.00  0.00     0.077 H 
BRANCH   5   8
ATOM      8  C8  DIW d   1      24.067  -2.444  -7.568  0.00  0.00     0.024 A 
ATOM      9  N7  DIW d   1      22.753  -2.544  -7.281  0.00  0.00    -0.353 N 
ATOM     10  C3  DIW d   1      22.043  -2.725  -8.430  0.00  0.00     0.041 A 
ATOM     11  C   DIW d   1      20.678  -2.890  -8.681  0.00  0.00    -0.057 A 
ATOM     12  C2  DIW d   1      22.936  -2.741  -9.487  0.00  0.00    -0.017 A 
ATOM     13  C30 DIW d   1      20.193  -3.070  -9.980  0.00  0.00    -0.081 A 
ATOM     14  H1  DIW d   1      19.981  -2.878  -7.851  0.00  0.00     0.086 H 
ATOM     15  C31 DIW d   1      21.094  -3.084 -11.044  0.00  0.00    -0.082 A 
ATOM     16  H27 DIW d   1      19.131  -3.197 -10.157  0.00  0.00     0.083 H 
ATOM     17  C32 DIW d   1      22.464  -2.920 -10.799  0.00  0.00    -0.074 A 
ATOM     18  H28 DIW d   1      20.736  -3.221 -12.058  0.00  0.00     0.083 H 
ATOM     19  H29 DIW d   1      23.164  -2.931 -11.626  0.00  0.00     0.084 H 
ATOM     20  C9  DIW d   1      24.352  -2.542  -9.031  0.00  0.00     0.024 A 
BRANCH   9  21
ATOM     21  C29 DIW d   1      22.168  -2.466  -5.916  0.00  0.00    -0.014 C 
ATOM     22  H24 DIW d   1      21.076  -2.579  -5.978  0.00  0.00     0.057 H 
ATOM     23  H25 DIW d   1      22.411  -1.491  -5.468  0.00  0.00     0.057 H 
ATOM     24  H26 DIW d   1      22.585  -3.270  -5.292  0.00  0.00     0.057 H 
ENDBRANCH   9  21
BRANCH  20  25
ATOM     25  C27 DIW d   1      25.308  -3.680  -9.384  0.00  0.00    -0.060 C 
ATOM     26  H18 DIW d   1      25.474  -3.695 -10.471  0.00  0.00     0.029 H 
ATOM     27  H19 DIW d   1      24.871  -4.638  -9.066  0.00  0.00     0.029 H 
ATOM     28  H20 DIW d   1      26.267  -3.526  -8.869  0.00  0.00     0.029 H 
ENDBRANCH  20  25
BRANCH  20  29
ATOM     29  C28 DIW d   1      24.850  -1.173  -9.516  0.00  0.00    -0.060 C 
ATOM     30  H21 DIW d   1      24.123  -0.397  -9.234  0.00  0.00     0.029 H 
ATOM     31  H22 DIW d   1      24.962  -1.190 -10.610  0.00  0.00     0.029 H 
ATOM     32  H23 DIW d   1      25.822  -0.951  -9.052  0.00  0.00     0.029 H 
ENDBRANCH  20  29
ENDBRANCH   5   8
ENDBRANCH   1   4
BRANCH   1  33
ATOM     33  C13 DIW d   1      28.658  -1.821  -5.662  0.00  0.00    -0.041 A 
ATOM     34  C14 DIW d   1      29.311  -1.727  -4.422  0.00  0.00    -0.003 A 
ATOM     35  C15 DIW d   1      30.710  -1.680  -4.355  0.00  0.00     0.045 A 
ATOM     36  C22 DIW d   1      28.571  -1.652  -3.242  0.00  0.00    -0.070 A 
ATOM     37  N16 DIW d   1      31.451  -1.722  -5.486  0.00  0.00    -0.356 N 
ATOM     38  C19 DIW d   1      31.330  -1.558  -3.112  0.00  0.00    -0.056 A 
ATOM     39  C17 DIW d   1      30.836  -1.853  -6.674  0.00  0.00    -0.019 A 
ATOM     40  C18 DIW d   1      29.450  -1.907  -6.796  0.00  0.00    -0.061 A 
ATOM     41  H6  DIW d   1      31.442  -1.919  -7.571  0.00  0.00     0.111 H 
ATOM     42  H7  DIW d   1      28.993  -2.016  -7.773  0.00  0.00     0.086 H 
ATOM     43  C20 DIW d   1      30.588  -1.480  -1.936  0.00  0.00    -0.081 A 
ATOM     44  H8  DIW d   1      32.412  -1.523  -3.060  0.00  0.00     0.087 H 
ATOM     45  C21 DIW d   1      29.199  -1.533  -2.001  0.00  0.00    -0.082 A 
ATOM     46  H9  DIW d   1      31.088  -1.379  -0.979  0.00  0.00     0.083 H 
ATOM     47  H10 DIW d   1      28.608  -1.482  -1.093  0.00  0.00     0.083 H 
ATOM     48  H11 DIW d   1      27.489  -1.687  -3.289  0.00  0.00     0.084 H 
BRANCH  37  49
ATOM     49  C23 DIW d   1      32.931  -1.720  -5.472  0.00  0.00     0.001 C 
ATOM     50  H12 DIW d   1      33.266  -1.718  -6.520  0.00  0.00     0.064 H 
ATOM     51  H13 DIW d   1      33.253  -2.653  -4.986  0.00  0.00     0.064 H 
BRANCH  49  52
ATOM     52  C24 DIW d   1      33.648  -0.574  -4.768  0.00  0.00    -0.035 C 
ATOM     53  H14 DIW d   1      32.919  -0.027  -4.152  0.00  0.00     0.036 H 
ATOM     54  H15 DIW d   1      34.066   0.101  -5.529  0.00  0.00     0.036 H 
BRANCH  52  55
ATOM     55  C25 DIW d   1      34.790  -1.063  -3.862  0.00  0.00     0.047 C 
ATOM     56  H16 DIW d   1      34.436  -1.947  -3.311  0.00  0.00     0.060 H 
ATOM     57  H17 DIW d   1      35.031  -0.260  -3.150  0.00  0.00     0.060 H 
BRANCH  55  58
ATOM     58  S26 DIW d   1      36.195  -1.481  -4.671  0.00  0.00     0.101 S 
ATOM     59  O30 DIW d   1      37.157  -2.032  -3.699  0.00  0.00    -0.595 OA
ATOM     60  O31 DIW d   1      36.800  -0.298  -5.319  0.00  0.00    -0.595 OA
ATOM     61  O32 DIW d   1      35.940  -2.508  -5.697  0.00  0.00    -0.595 OA
ENDBRANCH  55  58
ENDBRANCH  52  55
ENDBRANCH  49  52
ENDBRANCH  37  49
ENDBRANCH   1  33
TORSDOF 10
