REMARK  6 active torsions:
REMARK  status: ('A' for Active; 'I' for Inactive)
REMARK    1  A    between atoms: N_2  and  C14_20 
REMARK    2  A    between atoms: O_3  and  C5_11 
REMARK    3  A    between atoms: C7_13  and  O_3 
REMARK    4  A    between atoms: C9_15  and  C24_30 
REMARK    5  A    between atoms: C14_20  and  C15_21 
REMARK    6  A    between atoms: C24_30  and  N26_31 
ROOT
ATOM      1  C   5MA d   1      11.408  12.366  15.553  0.00  0.00     0.070 A 
ATOM      2  N   5MA d   1       7.263  12.613  15.403  0.00  0.00    -0.266 N 
ATOM      3  C1  5MA d   1      10.853  12.612  14.285  0.00  0.00    -0.057 A 
ATOM      4 CL1  5MA d   1      13.082  12.206  15.720  0.00  0.00    -0.081 Cl
ATOM      5  C2  5MA d   1       9.461  12.666  14.114  0.00  0.00    -0.052 A 
ATOM      6  C3  5MA d   1       8.638  12.563  15.206  0.00  0.00     0.082 A 
ATOM      7  C4  5MA d   1       9.153  12.354  16.466  0.00  0.00     0.138 A 
ATOM      8  C5  5MA d   1      10.605  12.276  16.645  0.00  0.00     0.130 A 
ATOM      9  N12 5MA d   1       6.938  12.449  16.712  0.00  0.00     0.006 NA
ATOM     10  N13 5MA d   1       8.123  12.296  17.360  0.00  0.00    -0.155 NA
ATOM     11  H1  5MA d   1      11.505  12.761  13.432  0.00  0.00     0.086 H 
ATOM     12  H2  5MA d   1       9.038  12.789  13.123  0.00  0.00     0.087 H 
ENDROOT
BRANCH   8  13
ATOM     13  O   5MA d   1      11.264  12.116  17.848  0.00  0.00    -0.305 OA
BRANCH  13  14
ATOM     14  C7  5MA d   1      10.806  12.847  18.961  0.00  0.00     0.100 A 
ATOM     15  C6  5MA d   1      10.957  14.190  19.009  0.00  0.00    -0.028 A 
ATOM     16  C11 5MA d   1      10.560  14.846  20.164  0.00  0.00     0.037 A 
ATOM     17  H3  5MA d   1      11.375  14.736  18.171  0.00  0.00     0.090 H 
ATOM     18 CL2  5MA d   1      10.773  16.522  20.185  0.00  0.00    -0.084 Cl
ATOM     19  C10 5MA d   1       9.973  14.230  21.268  0.00  0.00    -0.052 A 
ATOM     20  C9  5MA d   1       9.801  12.841  21.208  0.00  0.00    -0.007 A 
ATOM     21  H4  5MA d   1       9.663  14.801  22.136  0.00  0.00     0.087 H 
ATOM     22  C8  5MA d   1      10.234  12.184  20.043  0.00  0.00     0.075 A 
ATOM     23 CL3  5MA d   1      10.037  10.494  19.958  0.00  0.00    -0.081 Cl
BRANCH  20  24
ATOM     24  C24 5MA d   1       9.170  12.109  22.364  0.00  0.00     0.105 C 
ATOM     25  H11 5MA d   1       8.292  11.556  21.998  0.00  0.00     0.082 H 
ATOM     26  H12 5MA d   1       8.853  12.843  23.119  0.00  0.00     0.082 H 
BRANCH  24  27
ATOM     27  N26 5MA d   1      10.095  11.168  22.982  0.00  0.00    -0.075 N 
ATOM     28  H13 5MA d   1       9.636  10.700  23.748  0.00  0.00     0.274 HD
ATOM     29  H14 5MA d   1      10.901  11.666  23.326  0.00  0.00     0.274 HD
ATOM     30  H15 5MA d   1      10.387  10.487  22.299  0.00  0.00     0.274 HD
ENDBRANCH  24  27
ENDBRANCH  20  24
ENDBRANCH  13  14
ENDBRANCH   8  13
BRANCH   2  31
ATOM     31  C14 5MA d   1       6.197  12.662  14.441  0.00  0.00     0.054 C 
ATOM     32  H5  5MA d   1       6.436  13.303  13.579  0.00  0.00     0.076 H 
ATOM     33  H6  5MA d   1       5.243  12.984  14.885  0.00  0.00     0.076 H 
BRANCH  31  34
ATOM     34  C15 5MA d   1       6.205  11.154  14.080  0.00  0.00     0.061 A 
ATOM     35  N16 5MA d   1       6.577  10.761  12.840  0.00  0.00    -0.278 N 
ATOM     36  N17 5MA d   1       6.523   9.405  12.848  0.00  0.00    -0.154 NA
ATOM     37  H7  5MA d   1       6.846  11.367  12.052  0.00  0.00     0.189 HD
ATOM     38  C18 5MA d   1       6.170   8.879  14.034  0.00  0.00     0.181 A 
ATOM     39  C19 5MA d   1       5.943   9.985  14.896  0.00  0.00     0.039 A 
ATOM     40  N20 5MA d   1       6.076   7.541  14.351  0.00  0.00    -0.239 NA
ATOM     41  C23 5MA d   1       5.557   9.655  16.243  0.00  0.00    -0.066 A 
ATOM     42  C22 5MA d   1       5.421   8.297  16.663  0.00  0.00    -0.065 A 
ATOM     43  H10 5MA d   1       5.366  10.453  16.952  0.00  0.00     0.085 H 
ATOM     44  C21 5MA d   1       5.717   7.307  15.680  0.00  0.00     0.005 A 
ATOM     45  H9  5MA d   1       5.112   8.034  17.668  0.00  0.00     0.085 H 
ATOM     46  H8  5MA d   1       5.657   6.272  15.995  0.00  0.00     0.114 H 
ENDBRANCH  31  34
ENDBRANCH   2  31
TORSDOF 6
