REMARK  12 active torsions:
REMARK  status: ('A' for Active; 'I' for Inactive)
REMARK    1  A    between atoms: C1_1  and  O1_2 
REMARK    2  A    between atoms: O1_2  and  CME_31 
REMARK    3  A    between atoms: C2_3  and  O2_4 
REMARK    4  A    between atoms: O2_4  and  CA1_13 
REMARK    5  A    between atoms: C3_5  and  N3_6 
REMARK       I    between atoms: N3_6  and  CB1_22 
REMARK    6  A    between atoms: C4_7  and  O4_8 
REMARK    7  A    between atoms: C5_9  and  C6_11 
REMARK    8  A    between atoms: C6_11  and  O6_12 
REMARK    9  A    between atoms: CA1_13  and  CA2_15 
REMARK   10  A    between atoms: CA5_18  and  CA8_21 
REMARK   11  A    between atoms: CB1_22  and  CB2_24 
REMARK   12  A    between atoms: CB5_27  and  CB8_30 
ROOT
ATOM      1  C1  DQT d   1      20.203  -8.766  -1.500  0.00  0.00     0.158 C 
ATOM      2  C2  DQT d   1      18.726  -9.138  -1.382  0.00  0.00     0.117 C 
ATOM      3  C3  DQT d   1      17.787  -7.936  -1.315  0.00  0.00     0.070 C 
ATOM      4  C4  DQT d   1      18.363  -6.808  -0.459  0.00  0.00     0.084 C 
ATOM      5  C5  DQT d   1      19.856  -6.579  -0.685  0.00  0.00     0.088 C 
ATOM      6  O5  DQT d   1      20.566  -7.805  -0.510  0.00  0.00    -0.349 OA
ATOM      7  H1  DQT d   1      20.388  -8.351  -2.502  0.00  0.00     0.133 H 
ATOM      8  H2  DQT d   1      18.442  -9.761  -2.243  0.00  0.00     0.095 H 
ATOM      9  H3  DQT d   1      17.600  -7.574  -2.337  0.00  0.00     0.081 H 
ATOM     10  H5  DQT d   1      17.836  -5.878  -0.717  0.00  0.00     0.090 H 
ATOM     11  H7  DQT d   1      20.002  -6.220  -1.714  0.00  0.00     0.090 H 
ENDROOT
BRANCH   3  12
ATOM     12  N3  DQT d   1      16.537  -8.295  -0.675  0.00  0.00    -0.347 N 
ATOM     13  CB1 DQT d   1      15.318  -8.221  -1.215  0.00  0.00     0.252 C 
ATOM     14  OB1 DQT d   1      15.144  -7.969  -2.399  0.00  0.00    -0.268 OA
ATOM     15  H4  DQT d   1      16.593  -8.632   0.265  0.00  0.00     0.163 HD
BRANCH  13  16
ATOM     16  CB2 DQT d   1      14.116  -8.393  -0.313  0.00  0.00     0.032 A 
ATOM     17  CB3 DQT d   1      14.206  -8.093   1.051  0.00  0.00    -0.067 A 
ATOM     18  CB4 DQT d   1      13.104  -8.238   1.886  0.00  0.00    -0.076 A 
ATOM     19  H18 DQT d   1      15.146  -7.743   1.461  0.00  0.00     0.085 H 
ATOM     20  CB5 DQT d   1      11.892  -8.679   1.373  0.00  0.00    -0.062 A 
ATOM     21  H19 DQT d   1      13.191  -8.006   2.941  0.00  0.00     0.084 H 
ATOM     22  CB6 DQT d   1      11.786  -8.976   0.015  0.00  0.00    -0.076 A 
ATOM     23  CB7 DQT d   1      12.892  -8.831  -0.825  0.00  0.00    -0.067 A 
ATOM     24  H20 DQT d   1      10.842  -9.321  -0.390  0.00  0.00     0.084 H 
ATOM     25  H21 DQT d   1      12.800  -9.060  -1.881  0.00  0.00     0.085 H 
BRANCH  20  26
ATOM     26  CB8 DQT d   1      10.710  -8.825   2.296  0.00  0.00    -0.051 C 
ATOM     27  H22 DQT d   1      11.005  -8.542   3.317  0.00  0.00     0.033 H 
ATOM     28  H23 DQT d   1      10.367  -9.870   2.290  0.00  0.00     0.033 H 
ATOM     29  H24 DQT d   1       9.895  -8.169   1.955  0.00  0.00     0.033 H 
ENDBRANCH  20  26
ENDBRANCH  13  16
ENDBRANCH   3  12
BRANCH   2  30
ATOM     30  O2  DQT d   1      18.592  -9.876  -0.175  0.00  0.00    -0.305 OA
BRANCH  30  31
ATOM     31  CA1 DQT d   1      18.210 -11.248  -0.275  0.00  0.00     0.293 C 
ATOM     32  OA1 DQT d   1      18.285 -11.862  -1.333  0.00  0.00    -0.259 OA
BRANCH  31  33
ATOM     33  CA2 DQT d   1      17.723 -11.900   0.983  0.00  0.00     0.039 A 
ATOM     34  CA3 DQT d   1      17.435 -13.264   1.030  0.00  0.00    -0.067 A 
ATOM     35  CA4 DQT d   1      16.986 -13.834   2.219  0.00  0.00    -0.076 A 
ATOM     36  H11 DQT d   1      17.560 -13.878   0.145  0.00  0.00     0.085 H 
ATOM     37  CA5 DQT d   1      16.828 -13.043   3.355  0.00  0.00    -0.062 A 
ATOM     38  H12 DQT d   1      16.759 -14.893   2.260  0.00  0.00     0.084 H 
ATOM     39  CA6 DQT d   1      17.116 -11.686   3.305  0.00  0.00    -0.076 A 
ATOM     40  CA7 DQT d   1      17.565 -11.115   2.123  0.00  0.00    -0.067 A 
ATOM     41  H13 DQT d   1      16.990 -11.072   4.190  0.00  0.00     0.084 H 
ATOM     42  H14 DQT d   1      17.793 -10.056   2.086  0.00  0.00     0.085 H 
BRANCH  37  43
ATOM     43  CA8 DQT d   1      16.344 -13.641   4.647  0.00  0.00    -0.051 C 
ATOM     44  H15 DQT d   1      16.166 -14.718   4.509  0.00  0.00     0.033 H 
ATOM     45  H16 DQT d   1      15.407 -13.150   4.950  0.00  0.00     0.033 H 
ATOM     46  H17 DQT d   1      17.105 -13.493   5.427  0.00  0.00     0.033 H 
ENDBRANCH  37  43
ENDBRANCH  31  33
ENDBRANCH  30  31
ENDBRANCH   2  30
BRANCH   4  47
ATOM     47  O4  DQT d   1      18.118  -7.112   0.920  0.00  0.00    -0.391 OA
ATOM     48  H6  DQT d   1      17.182  -7.184   1.066  0.00  0.00     0.210 HD
ENDBRANCH   4  47
BRANCH   1  49
ATOM     49  O1  DQT d   1      21.026  -9.914  -1.297  0.00  0.00    -0.363 OA
BRANCH  49  50
ATOM     50  CME DQT d   1      22.385  -9.644  -1.639  0.00  0.00     0.007 C 
ATOM     51  H25 DQT d   1      22.991 -10.546  -1.472  0.00  0.00     0.066 H 
ATOM     52  H26 DQT d   1      22.765  -8.825  -1.011  0.00  0.00     0.066 H 
ATOM     53  H27 DQT d   1      22.446  -9.353  -2.698  0.00  0.00     0.066 H 
ENDBRANCH  49  50
ENDBRANCH   1  49
BRANCH   5  54
ATOM     54  C6  DQT d   1      20.430  -5.547   0.281  0.00  0.00     0.043 C 
ATOM     55  H8  DQT d   1      20.293  -5.899   1.314  0.00  0.00     0.078 H 
ATOM     56  H9  DQT d   1      19.903  -4.591   0.147  0.00  0.00     0.078 H 
BRANCH  54  57
ATOM     57  O6  DQT d   1      21.821  -5.359   0.028  0.00  0.00    -0.398 OA
ATOM     58  H10 DQT d   1      22.277  -6.184   0.145  0.00  0.00     0.209 HD
ENDBRANCH  54  57
ENDBRANCH   5  54
TORSDOF 12
