REMARK  5 active torsions:
REMARK  status: ('A' for Active; 'I' for Inactive)
REMARK    1  A    between atoms: C2_2  and  O2_8 
REMARK    2  A    between atoms: C3_3  and  O3_9 
REMARK    3  A    between atoms: C4_4  and  O4_10 
REMARK    4  A    between atoms: C5_5  and  C6_6 
REMARK    5  A    between atoms: C6_6  and  O6_12 
ROOT
ATOM      1  C1  149 d   1     -11.928 -27.240 -25.505  0.00  0.00     0.291 C 
ATOM      2  C2  149 d   1     -10.835 -28.155 -25.004  0.00  0.00     0.146 C 
ATOM      3  C3  149 d   1     -10.017 -28.707 -26.167  0.00  0.00     0.096 C 
ATOM      4  C4  149 d   1     -10.906 -29.112 -27.342  0.00  0.00     0.090 C 
ATOM      5  C5  149 d   1     -11.794 -27.964 -27.825  0.00  0.00     0.095 C 
ATOM      6  O1  149 d   1     -12.264 -26.262 -24.863  0.00  0.00    -0.262 OA
ATOM      7  O5  149 d   1     -12.628 -27.501 -26.759  0.00  0.00    -0.309 OA
ATOM      8  H1  149 d   1     -11.310 -28.997 -24.479  0.00  0.00     0.103 H 
ATOM      9  H2  149 d   1      -9.320 -27.929 -26.511  0.00  0.00     0.091 H 
ATOM     10  H3  149 d   1     -10.261 -29.430 -28.174  0.00  0.00     0.091 H 
ATOM     11  H4  149 d   1     -11.148 -27.142 -28.169  0.00  0.00     0.091 H 
ENDROOT
BRANCH   5  12
ATOM     12  C6  149 d   1     -12.710 -28.393 -28.970  0.00  0.00     0.044 C 
ATOM     13  H5  149 d   1     -13.291 -27.522 -29.306  0.00  0.00     0.078 H 
ATOM     14  H6  149 d   1     -13.395 -29.172 -28.605  0.00  0.00     0.078 H 
BRANCH  12  15
ATOM     15  O6  149 d   1     -11.966 -28.912 -30.082  0.00  0.00    -0.398 OA
ATOM     16  H10 149 d   1     -11.376 -28.242 -30.407  0.00  0.00     0.209 HD
ENDBRANCH  12  15
ENDBRANCH   5  12
BRANCH   4  17
ATOM     17  O4  149 d   1     -11.735 -30.202 -26.947  0.00  0.00    -0.390 OA
ATOM     18  H9  149 d   1     -12.255 -30.488 -27.689  0.00  0.00     0.210 HD
ENDBRANCH   4  17
BRANCH   3  19
ATOM     19  O3  149 d   1      -9.266 -29.833 -25.696  0.00  0.00    -0.390 OA
ATOM     20  H8  149 d   1      -9.864 -30.514 -25.411  0.00  0.00     0.210 HD
ENDBRANCH   3  19
BRANCH   2  21
ATOM     21  O2  149 d   1      -9.957 -27.486 -24.085  0.00  0.00    -0.383 OA
ATOM     22  H7  149 d   1      -9.516 -26.773 -24.532  0.00  0.00     0.210 HD
ENDBRANCH   2  21
TORSDOF 5
