REMARK  5 active torsions:
REMARK  status: ('A' for Active; 'I' for Inactive)
REMARK    1  A    between atoms: C11_1  and  C10_4 
REMARK    2  A    between atoms: C10_4  and  C9_5 
REMARK    3  A    between atoms: C9_5  and  C8_6 
REMARK    4  A    between atoms: C8_6  and  C7_7 
REMARK    5  A    between atoms: C7_7  and  C2_8 
ROOT
ATOM      1  C2  BTN d   1      -8.363 -25.972   1.215  0.00  0.00     0.012 C 
ATOM      2  S1  BTN d   1      -8.825 -24.338   1.395  0.00  0.00    -0.160 SA
ATOM      3  C6  BTN d   1     -10.316 -24.901   2.259  0.00  0.00    -0.002 C 
ATOM      4  C5  BTN d   1      -9.808 -25.985   3.236  0.00  0.00     0.041 A 
ATOM      5  N1  BTN d   1      -9.265 -25.460   4.471  0.00  0.00    -0.347 N 
ATOM      6  C3  BTN d   1      -7.957 -25.790   4.554  0.00  0.00     0.248 A 
ATOM      7  O3  BTN d   1      -7.192 -25.429   5.640  0.00  0.00    -0.152 OA
ATOM      8  N2  BTN d   1      -7.525 -26.439   3.491  0.00  0.00    -0.347 N 
ATOM      9  C4  BTN d   1      -8.609 -26.673   2.554  0.00  0.00     0.045 A 
ATOM     10  H9  BTN d   1      -9.062 -26.416   0.491  0.00  0.00     0.059 H 
ATOM     11  H10 BTN d   1     -11.040 -25.326   1.549  0.00  0.00     0.052 H 
ATOM     12  H11 BTN d   1     -10.784 -24.071   2.808  0.00  0.00     0.052 H 
ATOM     13  H12 BTN d   1     -10.617 -26.698   3.451  0.00  0.00     0.076 H 
ATOM     14  H13 BTN d   1      -9.776 -24.937   5.153  0.00  0.00     0.163 HD
ATOM     15  H14 BTN d   1      -6.579 -26.731   3.349  0.00  0.00     0.163 HD
ATOM     16  H15 BTN d   1      -8.780 -27.748   2.398  0.00  0.00     0.077 H 
ENDROOT
BRANCH   1  17
ATOM     17  C7  BTN d   1      -6.946 -26.214   0.617  0.00  0.00    -0.051 C 
ATOM     18  H7  BTN d   1      -6.214 -25.585   1.144  0.00  0.00     0.034 H 
ATOM     19  H8  BTN d   1      -6.674 -27.273   0.738  0.00  0.00     0.034 H 
BRANCH  17  20
ATOM     20  C8  BTN d   1      -6.947 -25.856  -0.870  0.00  0.00    -0.063 C 
ATOM     21  H5  BTN d   1      -7.622 -26.547  -1.397  0.00  0.00     0.033 H 
ATOM     22  H6  BTN d   1      -7.316 -24.826  -0.983  0.00  0.00     0.033 H 
BRANCH  20  23
ATOM     23  C9  BTN d   1      -5.553 -25.950  -1.509  0.00  0.00    -0.056 C 
ATOM     24  H3  BTN d   1      -4.884 -25.256  -0.980  0.00  0.00     0.033 H 
ATOM     25  H4  BTN d   1      -5.186 -26.980  -1.385  0.00  0.00     0.033 H 
BRANCH  23  26
ATOM     26  C10 BTN d   1      -5.520 -25.604  -3.002  0.00  0.00     0.016 C 
ATOM     27  H1  BTN d   1      -5.812 -24.549  -3.104  0.00  0.00     0.049 H 
ATOM     28  H2  BTN d   1      -4.484 -25.733  -3.349  0.00  0.00     0.049 H 
BRANCH  26  29
ATOM     29  C11 BTN d   1      -6.419 -26.421  -3.923  0.00  0.00     0.172 C 
ATOM     30  O11 BTN d   1      -6.642 -27.644  -3.726  0.00  0.00    -0.648 OA
ATOM     31  O12 BTN d   1      -6.947 -25.889  -4.922  0.00  0.00    -0.648 OA
ENDBRANCH  26  29
ENDBRANCH  23  26
ENDBRANCH  20  23
ENDBRANCH  17  20
ENDBRANCH   1  17
TORSDOF 5
