REMARK  16 active torsions:
REMARK  status: ('A' for Active; 'I' for Inactive)
REMARK    1  A    between atoms: C2_2  and  N1_1 
REMARK    2  A    between atoms: S8_8  and  C5_5 
REMARK    3  A    between atoms: N11_11  and  S8_8 
REMARK    4  A    between atoms: N11_11  and  C12_12 
REMARK    5  A    between atoms: C16_16  and  N11_11 
REMARK    6  A    between atoms: C12_12  and  C13_13 
REMARK    7  A    between atoms: C13_13  and  C14_14 
REMARK    8  A    between atoms: C13_13  and  C15_15 
REMARK    9  A    between atoms: C17_17  and  C16_16 
REMARK   10  A    between atoms: C17_17  and  O18_18 
REMARK   11  A    between atoms: C19_19  and  C17_17 
REMARK   12  A    between atoms: C19_19  and  N20_20 
REMARK   13  A    between atoms: C32_32  and  C19_19 
REMARK       I    between atoms: N20_20  and  C21_21 
REMARK   14  A    between atoms: C21_21  and  O23_23 
REMARK   15  A    between atoms: O23_23  and  C24_24 
REMARK   16  A    between atoms: C38_38  and  C32_32 
ROOT
ATOM      1  C19 017 d   1      -2.407  -1.900 -21.339  0.00  0.00     0.044 C 
ATOM      2  H20 017 d   1      -1.699  -2.631 -21.756  0.00  0.00     0.077 H 
ENDROOT
BRANCH   1   3
ATOM      3  C17 017 d   1      -2.974  -2.469 -20.000  0.00  0.00     0.067 C 
ATOM      4  H18 017 d   1      -3.606  -3.326 -20.276  0.00  0.00     0.088 H 
BRANCH   3   5
ATOM      5  C16 017 d   1      -1.904  -3.001 -19.025  0.00  0.00     0.019 C 
ATOM      6  H16 017 d   1      -1.133  -2.236 -18.854  0.00  0.00     0.061 H 
ATOM      7  H17 017 d   1      -2.368  -3.275 -18.066  0.00  0.00     0.061 H 
BRANCH   5   8
ATOM      8  N11 017 d   1      -1.303  -4.199 -19.664  0.00  0.00    -0.204 NA
BRANCH   8   9
ATOM      9  S8  017 d   1       0.315  -4.097 -19.971  0.00  0.00     0.243 S 
ATOM     10  O9  017 d   1       0.608  -2.844 -20.585  0.00  0.00    -0.206 OA
ATOM     11  O10 017 d   1       0.633  -5.222 -20.797  0.00  0.00    -0.206 OA
BRANCH   9  12
ATOM     12  C5  017 d   1       1.169  -4.154 -18.587  0.00  0.00     0.074 A 
ATOM     13  C4  017 d   1       1.590  -2.970 -17.981  0.00  0.00    -0.059 A 
ATOM     14  C3  017 d   1       2.311  -3.013 -16.786  0.00  0.00    -0.056 A 
ATOM     15  H4  017 d   1       1.357  -2.015 -18.439  0.00  0.00     0.086 H 
ATOM     16  C2  017 d   1       2.616  -4.236 -16.197  0.00  0.00     0.025 A 
ATOM     17  H3  017 d   1       2.634  -2.091 -16.316  0.00  0.00     0.086 H 
ATOM     18  C7  017 d   1       2.204  -5.431 -16.792  0.00  0.00    -0.056 A 
ATOM     19  C6  017 d   1       1.502  -5.382 -17.994  0.00  0.00    -0.059 A 
ATOM     20  H6  017 d   1       2.428  -6.383 -16.325  0.00  0.00     0.086 H 
ATOM     21  H5  017 d   1       1.208  -6.306 -18.479  0.00  0.00     0.086 H 
BRANCH  16  22
ATOM     22  N1  017 d   1       3.305  -4.266 -15.022  0.00  0.00    -0.399 N 
ATOM     23  H1  017 d   1       3.610  -3.386 -14.581  0.00  0.00     0.156 HD
ATOM     24  H2  017 d   1       3.521  -5.168 -14.575  0.00  0.00     0.156 HD
ENDBRANCH  16  22
ENDBRANCH   9  12
ENDBRANCH   8   9
BRANCH   8  25
ATOM     25  C12 017 d   1      -1.692  -5.444 -18.977  0.00  0.00    -0.004 C 
ATOM     26  H7  017 d   1      -1.594  -5.293 -17.892  0.00  0.00     0.058 H 
ATOM     27  H8  017 d   1      -1.015  -6.250 -19.298  0.00  0.00     0.058 H 
BRANCH  25  28
ATOM     28  C13 017 d   1      -3.136  -5.863 -19.286  0.00  0.00    -0.049 C 
ATOM     29  H9  017 d   1      -3.815  -5.045 -19.005  0.00  0.00     0.040 H 
BRANCH  28  30
ATOM     30  C14 017 d   1      -3.338  -6.183 -20.770  0.00  0.00    -0.072 C 
ATOM     31  H10 017 d   1      -4.384  -6.477 -20.943  0.00  0.00     0.028 H 
ATOM     32  H11 017 d   1      -2.672  -7.009 -21.061  0.00  0.00     0.028 H 
ATOM     33  H12 017 d   1      -3.103  -5.293 -21.372  0.00  0.00     0.028 H 
ENDBRANCH  28  30
BRANCH  28  34
ATOM     34  C15 017 d   1      -3.452  -7.096 -18.456  0.00  0.00    -0.072 C 
ATOM     35  H13 017 d   1      -3.307  -6.867 -17.390  0.00  0.00     0.028 H 
ATOM     36  H14 017 d   1      -2.781  -7.917 -18.749  0.00  0.00     0.028 H 
ATOM     37  H15 017 d   1      -4.496  -7.396 -18.628  0.00  0.00     0.028 H 
ENDBRANCH  28  34
ENDBRANCH  25  28
ENDBRANCH   8  25
ENDBRANCH   5   8
ENDBRANCH   3   5
BRANCH   3  38
ATOM     38  O18 017 d   1      -3.807  -1.536 -19.316  0.00  0.00    -0.392 OA
ATOM     39  H19 017 d   1      -3.277  -0.814 -18.998  0.00  0.00     0.210 HD
ENDBRANCH   3  38
ENDBRANCH   1   3
BRANCH   1  40
ATOM     40  N20 017 d   1      -3.555  -1.721 -22.237  0.00  0.00    -0.329 N 
ATOM     41  C21 017 d   1      -3.804  -2.538 -23.262  0.00  0.00     0.361 C 
ATOM     42  O22 017 d   1      -3.142  -3.523 -23.600  0.00  0.00    -0.238 OA
ATOM     43  H21 017 d   1      -4.176  -0.955 -22.073  0.00  0.00     0.165 HD
BRANCH  41  44
ATOM     44  O23 017 d   1      -4.985  -2.196 -24.006  0.00  0.00    -0.296 OA
BRANCH  44  45
ATOM     45  C24 017 d   1      -5.209  -2.748 -25.307  0.00  0.00     0.078 C 
ATOM     46  C25 017 d   1      -6.710  -2.965 -25.335  0.00  0.00     0.048 C 
ATOM     47  O26 017 d   1      -7.214  -1.648 -25.485  0.00  0.00    -0.358 OA
ATOM     48  H23 017 d   1      -7.062  -3.420 -24.398  0.00  0.00     0.078 H 
ATOM     49  H24 017 d   1      -7.003  -3.600 -26.184  0.00  0.00     0.078 H 
ATOM     50  C27 017 d   1      -6.335  -0.921 -26.359  0.00  0.00     0.137 C 
ATOM     51  O28 017 d   1      -6.101   0.390 -25.856  0.00  0.00    -0.361 OA
ATOM     52  C31 017 d   1      -5.008  -1.660 -26.352  0.00  0.00     0.023 C 
ATOM     53  H25 017 d   1      -6.755  -0.871 -27.374  0.00  0.00     0.129 H 
ATOM     54  C29 017 d   1      -4.737   0.583 -25.449  0.00  0.00     0.023 C 
ATOM     55  C30 017 d   1      -3.956  -0.600 -26.019  0.00  0.00    -0.035 C 
ATOM     56  H26 017 d   1      -4.664   0.596 -24.352  0.00  0.00     0.074 H 
ATOM     57  H27 017 d   1      -4.348   1.529 -25.854  0.00  0.00     0.074 H 
ATOM     58  H28 017 d   1      -3.244  -0.985 -25.274  0.00  0.00     0.037 H 
ATOM     59  H29 017 d   1      -3.411  -0.300 -26.927  0.00  0.00     0.037 H 
ATOM     60  H30 017 d   1      -4.780  -2.114 -27.328  0.00  0.00     0.051 H 
ATOM     61  H22 017 d   1      -4.614  -3.652 -25.502  0.00  0.00     0.088 H 
ENDBRANCH  44  45
ENDBRANCH  41  44
ENDBRANCH   1  40
BRANCH   1  62
ATOM     62  C32 017 d   1      -1.711  -0.529 -21.269  0.00  0.00    -0.020 C 
ATOM     63  H31 017 d   1      -0.852  -0.586 -20.585  0.00  0.00     0.043 H 
ATOM     64  H32 017 d   1      -2.421   0.227 -20.903  0.00  0.00     0.043 H 
BRANCH  62  65
ATOM     65  C38 017 d   1      -1.224  -0.140 -22.678  0.00  0.00    -0.056 A 
ATOM     66  C33 017 d   1      -1.731   1.007 -23.296  0.00  0.00    -0.077 A 
ATOM     67  C34 017 d   1      -1.316   1.378 -24.585  0.00  0.00    -0.082 A 
ATOM     68  H33 017 d   1      -2.456   1.619 -22.772  0.00  0.00     0.084 H 
ATOM     69  C35 017 d   1      -0.397   0.593 -25.280  0.00  0.00    -0.083 A 
ATOM     70  H34 017 d   1      -1.712   2.278 -25.041  0.00  0.00     0.083 H 
ATOM     71  C36 017 d   1       0.117  -0.557 -24.673  0.00  0.00    -0.082 A 
ATOM     72  H35 017 d   1      -0.084   0.871 -26.280  0.00  0.00     0.083 H 
ATOM     73  C37 017 d   1      -0.290  -0.928 -23.376  0.00  0.00    -0.077 A 
ATOM     74  H36 017 d   1       0.836  -1.169 -25.206  0.00  0.00     0.083 H 
ATOM     75  H37 017 d   1       0.117  -1.821 -22.916  0.00  0.00     0.084 H 
ENDBRANCH  62  65
ENDBRANCH   1  62
TORSDOF 16
