REMARK  6 active torsions:
REMARK  status: ('A' for Active; 'I' for Inactive)
REMARK    1  A    between atoms: C6_6  and  NAB_8 
REMARK    2  A    between atoms: OAS_22  and  CAA_7 
REMARK    3  A    between atoms: CAN_19  and  CBB_28 
REMARK    4  A    between atoms: NBC_29  and  CAN_19 
REMARK    5  A    between atoms: CAT_23  and  OAS_22 
REMARK    6  A    between atoms: CAU_24  and  CAW_25 
ROOT
ATOM      1  N1  BK6 d   1      21.561  12.482  63.809  0.00  0.00    -0.224 NA
ATOM      2  C2  BK6 d   1      22.725  13.114  63.614  0.00  0.00     0.091 A 
ATOM      3  N3  BK6 d   1      22.786  14.442  63.580  0.00  0.00    -0.222 NA
ATOM      4  C4  BK6 d   1      21.665  15.173  63.727  0.00  0.00     0.163 A 
ATOM      5  C5  BK6 d   1      20.433  14.558  63.943  0.00  0.00     0.088 A 
ATOM      6  C6  BK6 d   1      20.404  13.154  63.987  0.00  0.00     0.139 A 
ATOM      7  NAQ BK6 d   1      20.248  16.759  63.946  0.00  0.00    -0.169 NA
ATOM      8  CAW BK6 d   1      19.536  15.632  64.073  0.00  0.00     0.105 A 
ATOM      9  NBC BK6 d   1      21.441  16.482  63.734  0.00  0.00    -0.250 N 
ATOM     10  H1  BK6 d   1      23.631  12.534  63.482  0.00  0.00     0.146 H 
ENDROOT
BRANCH   8  11
ATOM     11  CAU BK6 d   1      18.167  15.572  64.327  0.00  0.00    -0.004 A 
ATOM     12  CAD BK6 d   1      17.270  16.319  63.559  0.00  0.00    -0.070 A 
ATOM     13  CAF BK6 d   1      15.897  16.279  63.846  0.00  0.00    -0.071 A 
ATOM     14  H8  BK6 d   1      17.635  16.930  62.741  0.00  0.00     0.084 H 
ATOM     15  CAX BK6 d   1      15.405  15.525  64.921  0.00  0.00    -0.023 A 
ATOM     16  H10 BK6 d   1      15.206  16.840  63.227  0.00  0.00     0.084 H 
ATOM     17  CAH BK6 d   1      14.036  15.485  65.211  0.00  0.00    -0.040 A 
ATOM     18  CAY BK6 d   1      16.298  14.811  65.707  0.00  0.00    -0.025 A 
ATOM     19  CAT BK6 d   1      13.560  14.726  66.279  0.00  0.00     0.069 A 
ATOM     20  H11 BK6 d   1      13.340  16.049  64.600  0.00  0.00     0.089 H 
ATOM     21  CAC BK6 d   1      14.459  14.008  67.067  0.00  0.00    -0.050 A 
ATOM     22  CAE BK6 d   1      15.816  14.071  66.771  0.00  0.00    -0.070 A 
ATOM     23  H7  BK6 d   1      14.105  13.409  67.898  0.00  0.00     0.087 H 
ATOM     24  H9  BK6 d   1      16.516  13.524  67.392  0.00  0.00     0.085 H 
ATOM     25  CAI BK6 d   1      17.667  14.843  65.416  0.00  0.00    -0.060 A 
ATOM     26  H12 BK6 d   1      18.356  14.292  66.046  0.00  0.00     0.086 H 
BRANCH  19  27
ATOM     27  OAS BK6 d   1      12.227  14.654  66.574  0.00  0.00    -0.356 OA
BRANCH  27  28
ATOM     28  CAA BK6 d   1      11.318  15.312  65.642  0.00  0.00     0.010 C 
ATOM     29  H2  BK6 d   1      10.282  15.183  65.988  0.00  0.00     0.066 H 
ATOM     30  H3  BK6 d   1      11.429  14.864  64.643  0.00  0.00     0.066 H 
ATOM     31  H4  BK6 d   1      11.557  16.384  65.592  0.00  0.00     0.066 H 
ENDBRANCH  27  28
ENDBRANCH  19  27
ENDBRANCH   8  11
BRANCH   6  32
ATOM     32  NAB BK6 d   1      19.278  12.450  64.182  0.00  0.00    -0.383 N 
ATOM     33  H5  BK6 d   1      18.382  12.939  64.320  0.00  0.00     0.157 HD
ATOM     34  H6  BK6 d   1      19.310  11.421  64.193  0.00  0.00     0.157 HD
ENDBRANCH   6  32
BRANCH   9  35
ATOM     35  CAN BK6 d   1      22.499  17.499  63.542  0.00  0.00     0.022 C 
ATOM     36  H21 BK6 d   1      22.106  18.474  63.867  0.00  0.00     0.068 H 
ATOM     37  H22 BK6 d   1      23.362  17.224  64.167  0.00  0.00     0.068 H 
BRANCH  35  38
ATOM     38  CBB BK6 d   1      22.987  17.632  62.054  0.00  0.00    -0.034 C 
ATOM     39  CAL BK6 d   1      24.046  18.743  61.983  0.00  0.00    -0.038 C 
ATOM     40  CAJ BK6 d   1      24.433  19.018  60.521  0.00  0.00     0.082 C 
ATOM     41  H17 BK6 d   1      23.638  19.662  62.430  0.00  0.00     0.036 H 
ATOM     42  H18 BK6 d   1      24.940  18.429  62.542  0.00  0.00     0.036 H 
ATOM     43  NAR BK6 d   1      23.244  19.549  59.830  0.00  0.00    -0.075 N 
ATOM     44  H13 BK6 d   1      24.760  18.085  60.039  0.00  0.00     0.075 H 
ATOM     45  H14 BK6 d   1      25.248  19.756  60.483  0.00  0.00     0.075 H 
ATOM     46  CAK BK6 d   1      22.218  18.493  59.724  0.00  0.00     0.082 C 
ATOM     47  H23 BK6 d   1      23.503  19.858  58.906  0.00  0.00     0.277 HD
ATOM     48  H24 BK6 d   1      22.872  20.326  60.353  0.00  0.00     0.277 HD
ATOM     49  CAM BK6 d   1      21.805  17.981  61.128  0.00  0.00    -0.038 C 
ATOM     50  H15 BK6 d   1      21.333  18.901  59.214  0.00  0.00     0.075 H 
ATOM     51  H16 BK6 d   1      22.624  17.654  59.139  0.00  0.00     0.075 H 
ATOM     52  H19 BK6 d   1      21.192  17.077  60.998  0.00  0.00     0.036 H 
ATOM     53  H20 BK6 d   1      21.205  18.763  61.616  0.00  0.00     0.036 H 
ATOM     54  H25 BK6 d   1      23.431  16.680  61.729  0.00  0.00     0.042 H 
ENDBRANCH  35  38
ENDBRANCH   9  35
TORSDOF 6
