REMARK  3 active torsions:
REMARK  status: ('A' for Active; 'I' for Inactive)
REMARK    1  A    between atoms: C1_1  and  S1_4 
REMARK    2  A    between atoms: S1_4  and  N1_2 
REMARK    3  A    between atoms: N1_2  and  O3_8 
ROOT
ATOM      1  C1  A09 d   1      -5.729   2.501  16.062  0.00  0.00     0.081 A 
ATOM      2  C2  A09 d   1      -6.153   3.676  16.727  0.00  0.00    -0.060 A 
ATOM      3  C3  A09 d   1      -5.943   4.920  16.100  0.00  0.00    -0.082 A 
ATOM      4  C4  A09 d   1      -5.330   4.988  14.843  0.00  0.00    -0.083 A 
ATOM      5  C5  A09 d   1      -4.916   3.823  14.194  0.00  0.00    -0.082 A 
ATOM      6  C6  A09 d   1      -5.108   2.560  14.790  0.00  0.00    -0.060 A 
ATOM      7  H2  A09 d   1      -6.630   3.620  17.699  0.00  0.00     0.085 H 
ATOM      8  H3  A09 d   1      -6.258   5.832  16.595  0.00  0.00     0.083 H 
ATOM      9  H5  A09 d   1      -5.176   5.951  14.371  0.00  0.00     0.083 H 
ATOM     10  H6  A09 d   1      -4.442   3.890  13.222  0.00  0.00     0.083 H 
ATOM     11  H7  A09 d   1      -4.788   1.655  14.287  0.00  0.00     0.085 H 
ENDROOT
BRANCH   1  12
ATOM     12  S1  A09 d   1      -5.996   0.950  16.837  0.00  0.00     0.280 S 
ATOM     13  O1  A09 d   1      -7.422   0.761  16.834  0.00  0.00    -0.199 OA
ATOM     14  O2  A09 d   1      -5.302   0.969  18.093  0.00  0.00    -0.199 OA
BRANCH  12  15
ATOM     15  N1  A09 d   1      -5.344  -0.242  15.917  0.00  0.00    -0.190 N 
ATOM     16  H1  A09 d   1      -5.876  -0.901  15.386  0.00  0.00     0.207 HD
BRANCH  15  17
ATOM     17  O3  A09 d   1      -3.927  -0.215  15.974  0.00  0.00    -0.280 OA
ATOM     18  H4  A09 d   1      -3.645  -0.336  16.873  0.00  0.00     0.245 HD
ENDBRANCH  15  17
ENDBRANCH  12  15
ENDBRANCH   1  12
TORSDOF 3
