REMARK  8 active torsions:
REMARK  status: ('A' for Active; 'I' for Inactive)
REMARK    1  A    between atoms: C1'_11  and  N1_1 
REMARK    2  A    between atoms: C3'_26  and  O1_2 
REMARK    3  A    between atoms: N2_4  and  C17_12 
REMARK    4  A    between atoms: C5'_35  and  N2_4 
REMARK    5  A    between atoms: C17_12  and  C18_13 
REMARK    6  A    between atoms: C17_12  and  C24_20 
REMARK    7  A    between atoms: C17_12  and  C30_27 
REMARK    8  A    between atoms: C4'_33  and  C5'_35 
ROOT
ATOM      1  C17 DUA d   1      -8.714  27.421  -5.176  0.00  0.00     0.207 C 
ENDROOT
BRANCH   1   2
ATOM      2  N2  DUA d   1      -9.246  26.977  -3.914  0.00  0.00    -0.051 N 
ATOM      3  H2  DUA d   1      -9.020  25.999  -3.819  0.00  0.00     0.279 HD
ATOM      4  H3  DUA d   1     -10.247  27.089  -3.953  0.00  0.00     0.279 HD
BRANCH   2   5
ATOM      5  C5' DUA d   1      -8.767  27.668  -2.681  0.00  0.00     0.110 C 
ATOM      6  H27 DUA d   1      -9.381  28.572  -2.554  0.00  0.00     0.079 H 
ATOM      7  H28 DUA d   1      -7.720  27.958  -2.855  0.00  0.00     0.079 H 
BRANCH   5   8
ATOM      8  C4' DUA d   1      -8.812  26.891  -1.345  0.00  0.00     0.089 C 
ATOM      9  C3' DUA d   1      -8.115  27.572  -0.151  0.00  0.00     0.066 C 
ATOM     10  C2' DUA d   1      -7.403  26.502   0.723  0.00  0.00     0.002 C 
ATOM     11  H20 DUA d   1      -7.338  28.243  -0.546  0.00  0.00     0.087 H 
ATOM     12  C1' DUA d   1      -6.996  25.797  -0.518  0.00  0.00     0.116 C 
ATOM     13  H9  DUA d   1      -6.564  26.890   1.320  0.00  0.00     0.043 H 
ATOM     14  H10 DUA d   1      -8.078  25.924   1.371  0.00  0.00     0.043 H 
ATOM     15  O4' DUA d   1      -8.078  25.684  -1.446  0.00  0.00    -0.357 OA
ATOM     16  H7  DUA d   1      -7.024  24.775  -0.112  0.00  0.00     0.118 H 
ATOM     17  H26 DUA d   1      -9.866  26.692  -1.100  0.00  0.00     0.090 H 
BRANCH   9  18
ATOM     18  O1  DUA d   1      -9.041  28.375   0.565  0.00  0.00    -0.393 OA
ATOM     19  H1  DUA d   1      -9.437  29.004  -0.027  0.00  0.00     0.210 HD
ENDBRANCH   9  18
BRANCH  12  20
ATOM     20  N1  DUA d   1      -5.652  25.722  -1.016  0.00  0.00    -0.282 N 
ATOM     21  C2  DUA d   1      -5.156  24.572  -1.628  0.00  0.00     0.331 A 
ATOM     22  O2  DUA d   1      -5.861  23.575  -1.630  0.00  0.00    -0.246 OA
ATOM     23  N3  DUA d   1      -3.933  24.557  -2.175  0.00  0.00    -0.275 N 
ATOM     24  C4  DUA d   1      -3.182  25.663  -2.141  0.00  0.00     0.250 A 
ATOM     25  H4  DUA d   1      -3.584  23.725  -2.606  0.00  0.00     0.173 HD
ATOM     26  O4  DUA d   1      -2.068  25.652  -2.666  0.00  0.00    -0.268 OA
ATOM     27  C5  DUA d   1      -3.651  26.856  -1.558  0.00  0.00    -0.002 A 
ATOM     28  C6  DUA d   1      -4.926  26.874  -0.996  0.00  0.00    -0.008 A 
ATOM     29  H5  DUA d   1      -3.028  27.749  -1.547  0.00  0.00     0.094 H 
ATOM     30  H6  DUA d   1      -5.330  27.783  -0.553  0.00  0.00     0.112 H 
ENDBRANCH  12  20
ENDBRANCH   5   8
ENDBRANCH   2   5
ENDBRANCH   1   2
BRANCH   1  31
ATOM     31  C18 DUA d   1      -9.534  26.438  -6.087  0.00  0.00    -0.013 A 
ATOM     32  C19 DUA d   1     -10.833  26.001  -5.715  0.00  0.00    -0.074 A 
ATOM     33  C20 DUA d   1     -11.609  25.137  -6.542  0.00  0.00    -0.082 A 
ATOM     34  H8  DUA d   1     -11.248  26.335  -4.771  0.00  0.00     0.084 H 
ATOM     35  C21 DUA d   1     -11.141  24.646  -7.760  0.00  0.00    -0.083 A 
ATOM     36  H11 DUA d   1     -12.601  24.851  -6.211  0.00  0.00     0.083 H 
ATOM     37  C22 DUA d   1      -9.859  25.072  -8.151  0.00  0.00    -0.082 A 
ATOM     38  H12 DUA d   1     -11.732  23.974  -8.371  0.00  0.00     0.083 H 
ATOM     39  C23 DUA d   1      -9.112  25.946  -7.337  0.00  0.00    -0.074 A 
ATOM     40  H13 DUA d   1      -9.441  24.724  -9.089  0.00  0.00     0.083 H 
ATOM     41  H14 DUA d   1      -8.141  26.263  -7.700  0.00  0.00     0.084 H 
ENDBRANCH   1  31
BRANCH   1  42
ATOM     42  C24 DUA d   1      -7.260  27.237  -5.373  0.00  0.00    -0.013 A 
ATOM     43  C25 DUA d   1      -6.292  28.218  -5.675  0.00  0.00    -0.074 A 
ATOM     44  C26 DUA d   1      -4.929  27.920  -5.698  0.00  0.00    -0.082 A 
ATOM     45  H15 DUA d   1      -6.615  29.229  -5.895  0.00  0.00     0.084 H 
ATOM     46  C27 DUA d   1      -4.507  26.634  -5.430  0.00  0.00    -0.083 A 
ATOM     47  H16 DUA d   1      -4.206  28.695  -5.925  0.00  0.00     0.083 H 
ATOM     48  C28 DUA d   1      -5.438  25.650  -5.113  0.00  0.00    -0.082 A 
ATOM     49  H17 DUA d   1      -3.451  26.391  -5.466  0.00  0.00     0.083 H 
ATOM     50  C29 DUA d   1      -6.798  25.940  -5.060  0.00  0.00    -0.074 A 
ATOM     51  H18 DUA d   1      -5.099  24.642  -4.904  0.00  0.00     0.083 H 
ATOM     52  H19 DUA d   1      -7.505  25.168  -4.778  0.00  0.00     0.084 H 
ENDBRANCH   1  42
BRANCH   1  53
ATOM     53  C30 DUA d   1      -9.199  28.766  -5.710  0.00  0.00    -0.013 A 
ATOM     54  C31 DUA d   1      -9.386  29.814  -4.800  0.00  0.00    -0.074 A 
ATOM     55  C32 DUA d   1      -9.845  31.078  -5.194  0.00  0.00    -0.082 A 
ATOM     56  H21 DUA d   1      -9.168  29.641  -3.752  0.00  0.00     0.084 H 
ATOM     57  C33 DUA d   1     -10.115  31.364  -6.539  0.00  0.00    -0.083 A 
ATOM     58  H22 DUA d   1      -9.994  31.848  -4.446  0.00  0.00     0.083 H 
ATOM     59  C34 DUA d   1      -9.917  30.379  -7.498  0.00  0.00    -0.082 A 
ATOM     60  H23 DUA d   1     -10.475  32.345  -6.828  0.00  0.00     0.083 H 
ATOM     61  C35 DUA d   1      -9.434  29.121  -7.062  0.00  0.00    -0.074 A 
ATOM     62  H24 DUA d   1     -10.125  30.567  -8.545  0.00  0.00     0.083 H 
ATOM     63  H25 DUA d   1      -9.229  28.373  -7.819  0.00  0.00     0.084 H 
ENDBRANCH   1  53
TORSDOF 8
