REMARK  7 active torsions:
REMARK  status: ('A' for Active; 'I' for Inactive)
REMARK    1  A    between atoms: C1'_9  and  N1_1 
REMARK    2  A    between atoms: C17_10  and  C18_11 
REMARK    3  A    between atoms: C17_10  and  C24_18 
REMARK    4  A    between atoms: N5'_29  and  C17_10 
REMARK    5  A    between atoms: C3'_24  and  O3'_25 
REMARK    6  A    between atoms: C5'_28  and  C4'_26 
REMARK    7  A    between atoms: C5'_28  and  N5'_29 
ROOT
ATOM      1  N5' DU3 d   1      -9.524  26.898  -3.978  0.00  0.00    -0.060 N 
ATOM      2  H23 DU3 d   1      -9.226  25.953  -3.791  0.00  0.00     0.278 HD
ATOM      3  H24 DU3 d   1     -10.527  26.921  -4.077  0.00  0.00     0.278 HD
ENDROOT
BRANCH   1   4
ATOM      4  C17 DU3 d   1      -8.915  27.335  -5.268  0.00  0.00     0.152 C 
ATOM      5  H5  DU3 d   1      -9.135  28.406  -5.387  0.00  0.00     0.099 H 
BRANCH   4   6
ATOM      6  C18 DU3 d   1      -9.437  26.579  -6.510  0.00  0.00    -0.023 A 
ATOM      7  C19 DU3 d   1      -9.442  27.228  -7.744  0.00  0.00    -0.074 A 
ATOM      8  C20 DU3 d   1      -9.899  26.588  -8.891  0.00  0.00    -0.082 A 
ATOM      9  H6  DU3 d   1      -9.084  28.249  -7.811  0.00  0.00     0.084 H 
ATOM     10  C21 DU3 d   1     -10.338  25.276  -8.807  0.00  0.00    -0.083 A 
ATOM     11  H9  DU3 d   1      -9.912  27.110  -9.841  0.00  0.00     0.083 H 
ATOM     12  C22 DU3 d   1     -10.325  24.622  -7.583  0.00  0.00    -0.082 A 
ATOM     13  H10 DU3 d   1     -10.690  24.762  -9.694  0.00  0.00     0.083 H 
ATOM     14  C23 DU3 d   1      -9.874  25.266  -6.437  0.00  0.00    -0.074 A 
ATOM     15  H11 DU3 d   1     -10.671  23.597  -7.520  0.00  0.00     0.083 H 
ATOM     16  H12 DU3 d   1      -9.864  24.742  -5.488  0.00  0.00     0.084 H 
ENDBRANCH   4   6
BRANCH   4  17
ATOM     17  C24 DU3 d   1      -7.406  27.126  -5.296  0.00  0.00    -0.023 A 
ATOM     18  C25 DU3 d   1      -6.596  28.143  -5.802  0.00  0.00    -0.074 A 
ATOM     19  C26 DU3 d   1      -5.215  27.951  -5.834  0.00  0.00    -0.082 A 
ATOM     20  H13 DU3 d   1      -7.033  29.067  -6.164  0.00  0.00     0.084 H 
ATOM     21  C27 DU3 d   1      -4.652  26.759  -5.386  0.00  0.00    -0.083 A 
ATOM     22  H14 DU3 d   1      -4.573  28.738  -6.212  0.00  0.00     0.083 H 
ATOM     23  C28 DU3 d   1      -5.465  25.748  -4.906  0.00  0.00    -0.082 A 
ATOM     24  H15 DU3 d   1      -3.577  26.623  -5.413  0.00  0.00     0.083 H 
ATOM     25  C29 DU3 d   1      -6.842  25.921  -4.855  0.00  0.00    -0.074 A 
ATOM     26  H16 DU3 d   1      -5.025  24.817  -4.568  0.00  0.00     0.083 H 
ATOM     27  H17 DU3 d   1      -7.477  25.128  -4.476  0.00  0.00     0.084 H 
ENDBRANCH   4  17
ENDBRANCH   1   4
BRANCH   1  28
ATOM     28  C5' DU3 d   1      -9.146  27.754  -2.803  0.00  0.00     0.109 C 
ATOM     29  H21 DU3 d   1      -8.171  28.223  -3.002  0.00  0.00     0.079 H 
ATOM     30  H22 DU3 d   1      -9.909  28.536  -2.671  0.00  0.00     0.079 H 
BRANCH  28  31
ATOM     31  C4' DU3 d   1      -9.044  26.903  -1.464  0.00  0.00     0.089 C 
ATOM     32  C3' DU3 d   1      -8.493  27.745  -0.321  0.00  0.00     0.066 C 
ATOM     33  C2' DU3 d   1      -7.715  26.802   0.576  0.00  0.00     0.002 C 
ATOM     34  H18 DU3 d   1      -7.849  28.552  -0.702  0.00  0.00     0.087 H 
ATOM     35  C1' DU3 d   1      -7.337  25.643  -0.321  0.00  0.00     0.116 C 
ATOM     36  H7  DU3 d   1      -6.815  27.296   0.971  0.00  0.00     0.043 H 
ATOM     37  H8  DU3 d   1      -8.341  26.457   1.412  0.00  0.00     0.043 H 
ATOM     38  O4' DU3 d   1      -8.151  25.735  -1.521  0.00  0.00    -0.357 OA
ATOM     39  H4  DU3 d   1      -7.470  24.689   0.209  0.00  0.00     0.118 H 
ATOM     40  H20 DU3 d   1     -10.059  26.559  -1.214  0.00  0.00     0.090 H 
BRANCH  32  41
ATOM     41  O3' DU3 d   1      -9.587  28.285   0.436  0.00  0.00    -0.393 OA
ATOM     42  H19 DU3 d   1     -10.087  28.879  -0.111  0.00  0.00     0.210 HD
ENDBRANCH  32  41
BRANCH  35  43
ATOM     43  N1  DU3 d   1      -5.964  25.771  -0.882  0.00  0.00    -0.282 N 
ATOM     44  C2  DU3 d   1      -5.454  24.660  -1.537  0.00  0.00     0.331 A 
ATOM     45  O2  DU3 d   1      -6.102  23.615  -1.612  0.00  0.00    -0.246 OA
ATOM     46  N3  DU3 d   1      -4.180  24.729  -2.116  0.00  0.00    -0.275 N 
ATOM     47  C4  DU3 d   1      -3.452  25.908  -2.046  0.00  0.00     0.250 A 
ATOM     48  H1  DU3 d   1      -3.796  23.930  -2.579  0.00  0.00     0.173 HD
ATOM     49  O4  DU3 d   1      -2.345  25.921  -2.575  0.00  0.00    -0.268 OA
ATOM     50  C5  DU3 d   1      -3.951  27.032  -1.380  0.00  0.00    -0.002 A 
ATOM     51  C6  DU3 d   1      -5.228  26.961  -0.795  0.00  0.00    -0.008 A 
ATOM     52  H2  DU3 d   1      -3.362  27.945  -1.316  0.00  0.00     0.094 H 
ATOM     53  H3  DU3 d   1      -5.643  27.825  -0.278  0.00  0.00     0.112 H 
ENDBRANCH  35  43
ENDBRANCH  28  31
ENDBRANCH   1  28
TORSDOF 7
