REMARK  20 active torsions:
REMARK  status: ('A' for Active; 'I' for Inactive)
REMARK    1  A    between atoms: N_1  and  CA_2 
REMARK    2  A    between atoms: CA_2  and  C_3 
REMARK    3  A    between atoms: CA_2  and  CB_5 
REMARK       I    between atoms: C_3  and  N_8 
REMARK    4  A    between atoms: CB_5  and  CG1_6 
REMARK    5  A    between atoms: CB_5  and  CG2_7 
REMARK    6  A    between atoms: N_8  and  CA_9 
REMARK    7  A    between atoms: CA_9  and  C_10 
REMARK    8  A    between atoms: CA_9  and  CB_12 
REMARK       I    between atoms: C_10  and  N_15 
REMARK    9  A    between atoms: CB_12  and  CG1_13 
REMARK   10  A    between atoms: CB_12  and  CG2_14 
REMARK   11  A    between atoms: N_15  and  CA_16 
REMARK   12  A    between atoms: CA_16  and  C_17 
REMARK   13  A    between atoms: CA_16  and  CB_19 
REMARK       I    between atoms: C_17  and  N_27 
REMARK   14  A    between atoms: CB_19  and  CG_20 
REMARK   15  A    between atoms: CZ_25  and  OH_26 
REMARK   16  A    between atoms: CA_28  and  C_29 
REMARK       I    between atoms: C_29  and  N_34 
REMARK   17  A    between atoms: N_34  and  CA_35 
REMARK   18  A    between atoms: CA_35  and  C_36 
REMARK   19  A    between atoms: CA_35  and  CB_38 
REMARK   20  A    between atoms: CB_38  and  CG_39 
ROOT
ATOM      1  CA  TYR d   1      19.681  20.248  51.037  0.00  0.00     0.093 C 
ATOM      2  H22 TYR d   1      19.272  20.903  51.820  0.00  0.00     0.088 H 
ENDROOT
BRANCH   1   3
ATOM      3  N   TYR d   1      20.095  18.986  51.634  0.00  0.00    -0.346 N 
ATOM      4  C   VAL d   1      19.900  18.704  52.920  0.00  0.00     0.241 C 
ATOM      5  O   VAL d   1      19.654  19.562  53.767  0.00  0.00    -0.271 OA
ATOM      6  H21 TYR d   1      20.543  18.305  51.055  0.00  0.00     0.163 HD
BRANCH   4   7
ATOM      7  CA  VAL d   1      20.058  17.234  53.311  0.00  0.00     0.092 C 
ATOM      8  H13 VAL d   1      20.821  16.794  52.652  0.00  0.00     0.088 H 
BRANCH   7   9
ATOM      9  N   VAL d   1      20.501  17.051  54.684  0.00  0.00    -0.346 N 
ATOM     10  C   VAL d   1      21.682  16.519  54.961  0.00  0.00     0.249 C 
ATOM     11  O   VAL d   1      22.549  16.348  54.105  0.00  0.00    -0.271 OA
ATOM     12  H12 VAL d   1      19.902  17.332  55.434  0.00  0.00     0.163 HD
BRANCH  10  13
ATOM     13  CA  VAL d   1      21.922  16.140  56.423  0.00  0.00     0.178 C 
ATOM     14  H4  VAL d   1      20.943  15.998  56.904  0.00  0.00     0.099 H 
BRANCH  13  15
ATOM     15  N   VAL d   1      22.662  14.887  56.556  0.00  0.00    -0.066 N 
ATOM     16  H1  VAL d   1      22.163  14.150  56.083  0.00  0.00     0.275 HD
ATOM     17  H2  VAL d   1      22.758  14.655  57.532  0.00  0.00     0.275 HD
ATOM     18  H3  VAL d   1      23.576  14.991  56.144  0.00  0.00     0.275 HD
ENDBRANCH  13  15
BRANCH  13  19
ATOM     19  CB  VAL d   1      22.634  17.300  57.124  0.00  0.00    -0.025 C 
ATOM     20  H5  VAL d   1      23.626  17.439  56.669  0.00  0.00     0.042 H 
BRANCH  19  21
ATOM     21  CG1 VAL d   1      21.832  18.563  56.945  0.00  0.00    -0.071 C 
ATOM     22  H6  VAL d   1      22.343  19.396  57.449  0.00  0.00     0.028 H 
ATOM     23  H7  VAL d   1      20.832  18.428  57.383  0.00  0.00     0.028 H 
ATOM     24  H8  VAL d   1      21.735  18.787  55.872  0.00  0.00     0.028 H 
ENDBRANCH  19  21
BRANCH  19  25
ATOM     25  CG2 VAL d   1      22.812  16.993  58.599  0.00  0.00    -0.071 C 
ATOM     26  H9  VAL d   1      23.399  16.070  58.713  0.00  0.00     0.028 H 
ATOM     27  H10 VAL d   1      21.826  16.861  59.068  0.00  0.00     0.028 H 
ATOM     28  H11 VAL d   1      23.341  17.826  59.086  0.00  0.00     0.028 H 
ENDBRANCH  19  25
ENDBRANCH  13  19
ENDBRANCH  10  13
ENDBRANCH   7   9
BRANCH   7  29
ATOM     29  CB  VAL d   1      18.728  16.479  53.085  0.00  0.00    -0.033 C 
ATOM     30  H14 VAL d   1      18.173  16.482  54.035  0.00  0.00     0.042 H 
BRANCH  29  31
ATOM     31  CG1 VAL d   1      17.877  17.176  52.056  0.00  0.00    -0.071 C 
ATOM     32  H15 VAL d   1      16.940  16.618  51.916  0.00  0.00     0.028 H 
ATOM     33  H16 VAL d   1      18.421  17.223  51.101  0.00  0.00     0.028 H 
ATOM     34  H17 VAL d   1      17.649  18.196  52.399  0.00  0.00     0.028 H 
ENDBRANCH  29  31
BRANCH  29  35
ATOM     35  CG2 VAL d   1      18.994  15.018  52.704  0.00  0.00    -0.071 C 
ATOM     36  H18 VAL d   1      19.617  14.545  53.478  0.00  0.00     0.028 H 
ATOM     37  H19 VAL d   1      19.518  14.981  51.738  0.00  0.00     0.028 H 
ATOM     38  H20 VAL d   1      18.038  14.480  52.623  0.00  0.00     0.028 H 
ENDBRANCH  29  35
ENDBRANCH   7  29
ENDBRANCH   4   7
ENDBRANCH   1   3
BRANCH   1  39
ATOM     39  C   TYR d   1      18.599  19.951  50.002  0.00  0.00     0.243 C 
ATOM     40  O   TYR d   1      18.874  19.325  48.977  0.00  0.00    -0.271 OA
ATOM     41  N   PRO d   1      17.360  20.387  50.271  0.00  0.00    -0.337 N 
ATOM     42  CA  PRO d   1      16.220  20.125  49.389  0.00  0.00     0.091 C 
ATOM     43  CD  PRO d   1      16.973  21.222  51.422  0.00  0.00    -0.001 C 
ATOM     44  CB  PRO d   1      15.029  20.456  50.281  0.00  0.00    -0.036 C 
ATOM     45  H30 PRO d   1      16.204  19.076  49.059  0.00  0.00     0.087 H 
ATOM     46  CG  PRO d   1      15.533  21.574  51.124  0.00  0.00    -0.048 C 
ATOM     47  H31 PRO d   1      14.748  19.591  50.900  0.00  0.00     0.036 H 
ATOM     48  H32 PRO d   1      14.164  20.774  49.681  0.00  0.00     0.036 H 
ATOM     49  H33 PRO d   1      14.953  21.648  52.055  0.00  0.00     0.035 H 
ATOM     50  H34 PRO d   1      15.473  22.527  50.578  0.00  0.00     0.035 H 
ATOM     51  H35 PRO d   1      17.596  22.127  51.481  0.00  0.00     0.064 H 
ATOM     52  H36 PRO d   1      17.055  20.659  52.363  0.00  0.00     0.064 H 
BRANCH  42  53
ATOM     53  C   PRO d   1      16.212  21.049  48.178  0.00  0.00     0.241 C 
ATOM     54  O   PRO d   1      16.776  22.139  48.235  0.00  0.00    -0.271 OA
ATOM     55  N   TRP d   1      15.569  20.628  47.098  0.00  0.00    -0.344 N 
ATOM     56  H37 TRP d   1      15.196  19.701  47.071  0.00  0.00     0.163 HD
BRANCH  55  57
ATOM     57  CA  TRP d   1      15.404  21.510  45.951  0.00  0.00     0.100 C 
ATOM     58  H38 TRP d   1      16.245  22.219  45.936  0.00  0.00     0.090 H 
BRANCH  57  59
ATOM     59  C   TRP d   1      14.112  22.303  46.101  0.00  0.00     0.197 C 
ATOM     60  O   TRP d   1      13.618  22.453  47.219  0.00  0.00    -0.646 OA
ATOM     61  OXT TRP d   1      13.543  22.818  45.135  0.00  0.00    -0.646 OA
ENDBRANCH  57  59
BRANCH  57  62
ATOM     62  CB  TRP d   1      15.424  20.726  44.637  0.00  0.00    -0.011 C 
ATOM     63  H39 TRP d   1      16.462  20.431  44.426  0.00  0.00     0.044 H 
ATOM     64  H40 TRP d   1      15.060  21.385  43.835  0.00  0.00     0.044 H 
BRANCH  62  65
ATOM     65  CG  TRP d   1      14.581  19.496  44.652  0.00  0.00    -0.028 A 
ATOM     66  CD1 TRP d   1      14.978  18.237  44.994  0.00  0.00    -0.015 A 
ATOM     67  NE1 TRP d   1      13.923  17.362  44.887  0.00  0.00    -0.365 N 
ATOM     68  H41 TRP d   1      15.985  17.964  45.307  0.00  0.00     0.112 H 
ATOM     69  CE2 TRP d   1      12.816  18.051  44.469  0.00  0.00     0.042 A 
ATOM     70  H42 TRP d   1      13.959  16.352  45.089  0.00  0.00     0.165 HD
ATOM     71  CD2 TRP d   1      13.193  19.401  44.312  0.00  0.00    -0.002 A 
ATOM     72  CZ2 TRP d   1      11.523  17.602  44.220  0.00  0.00    -0.056 A 
ATOM     73  CE3 TRP d   1      12.232  20.327  43.892  0.00  0.00    -0.070 A 
ATOM     74  CZ3 TRP d   1      10.945  19.880  43.646  0.00  0.00    -0.082 A 
ATOM     75  H43 TRP d   1      12.490  21.372  43.762  0.00  0.00     0.084 H 
ATOM     76  CH2 TRP d   1      10.603  18.529  43.808  0.00  0.00    -0.081 A 
ATOM     77  H45 TRP d   1      10.189  20.586  43.323  0.00  0.00     0.083 H 
ATOM     78  H46 TRP d   1       9.587  18.212  43.602  0.00  0.00     0.083 H 
ATOM     79  H44 TRP d   1      11.254  16.559  44.347  0.00  0.00     0.086 H 
ENDBRANCH  62  65
ENDBRANCH  57  62
ENDBRANCH  55  57
ENDBRANCH  42  53
ENDBRANCH   1  39
BRANCH   1  80
ATOM     80  CB  TYR d   1      20.858  20.952  50.366  0.00  0.00    -0.014 C 
ATOM     81  H23 TYR d   1      21.176  20.351  49.501  0.00  0.00     0.043 H 
ATOM     82  H24 TYR d   1      21.683  21.017  51.090  0.00  0.00     0.043 H 
BRANCH  80  83
ATOM     83  CG  TYR d   1      20.533  22.352  49.883  0.00  0.00    -0.056 A 
ATOM     84  CD1 TYR d   1      20.933  23.469  50.607  0.00  0.00    -0.074 A 
ATOM     85  CE1 TYR d   1      20.635  24.745  50.171  0.00  0.00    -0.051 A 
ATOM     86  H25 TYR d   1      21.488  23.336  51.529  0.00  0.00     0.084 H 
ATOM     87  CZ  TYR d   1      19.925  24.917  48.997  0.00  0.00     0.065 A 
ATOM     88  H27 TYR d   1      20.956  25.606  50.746  0.00  0.00     0.087 H 
ATOM     89  CE2 TYR d   1      19.515  23.824  48.264  0.00  0.00    -0.051 A 
ATOM     90  CD2 TYR d   1      19.815  22.555  48.709  0.00  0.00    -0.074 A 
ATOM     91  H28 TYR d   1      18.960  23.962  47.343  0.00  0.00     0.087 H 
ATOM     92  H26 TYR d   1      19.485  21.698  48.133  0.00  0.00     0.084 H 
BRANCH  87  93
ATOM     93  OH  TYR d   1      19.622  26.186  48.554  0.00  0.00    -0.361 OA
ATOM     94  H29 TYR d   1      20.008  26.322  47.697  0.00  0.00     0.217 HD
ENDBRANCH  87  93
ENDBRANCH  80  83
ENDBRANCH   1  80
TORSDOF 20
