REMARK  8 active torsions:
REMARK  status: ('A' for Active; 'I' for Inactive)
REMARK    1  A    between atoms: C1'_9  and  N1_1 
REMARK    2  A    between atoms: C17_10  and  C18_11 
REMARK    3  A    between atoms: C17_10  and  C24_18 
REMARK    4  A    between atoms: N5'_30  and  C17_10 
REMARK    5  A    between atoms: C3'_24  and  O3'_25 
REMARK    6  A    between atoms: C5'_29  and  C4'_26 
REMARK    7  A    between atoms: N5'_30  and  C41_28 
REMARK    8  A    between atoms: C5'_29  and  N5'_30 
ROOT
ATOM      1  N5' DU4 d   1      -9.575  27.126  -4.296  0.00  0.00    -0.060 N 
ATOM      2  H26 DU4 d   1      -9.496  26.133  -4.142  0.00  0.00     0.280 HD
ENDROOT
BRANCH   1   3
ATOM      3  C17 DU4 d   1      -8.828  27.469  -5.548  0.00  0.00     0.154 C 
ATOM      4  H5  DU4 d   1      -8.935  28.556  -5.678  0.00  0.00     0.100 H 
BRANCH   3   5
ATOM      5  C18 DU4 d   1      -9.389  26.800  -6.832  0.00  0.00    -0.023 A 
ATOM      6  C19 DU4 d   1      -9.479  27.573  -7.996  0.00  0.00    -0.074 A 
ATOM      7  C20 DU4 d   1      -9.977  27.022  -9.176  0.00  0.00    -0.082 A 
ATOM      8  H6  DU4 d   1      -9.159  28.608  -7.980  0.00  0.00     0.084 H 
ATOM      9  C21 DU4 d   1     -10.382  25.689  -9.193  0.00  0.00    -0.083 A 
ATOM     10  H9  DU4 d   1     -10.049  27.626 -10.073  0.00  0.00     0.083 H 
ATOM     11  C22 DU4 d   1     -10.291  24.911  -8.038  0.00  0.00    -0.082 A 
ATOM     12  H10 DU4 d   1     -10.770  25.254 -10.107  0.00  0.00     0.083 H 
ATOM     13  C23 DU4 d   1      -9.792  25.467  -6.858  0.00  0.00    -0.074 A 
ATOM     14  H11 DU4 d   1     -10.608  23.875  -8.057  0.00  0.00     0.083 H 
ATOM     15  H12 DU4 d   1      -9.718  24.861  -5.962  0.00  0.00     0.084 H 
ENDBRANCH   3   5
BRANCH   3  16
ATOM     16  C24 DU4 d   1      -7.318  27.166  -5.465  0.00  0.00    -0.023 A 
ATOM     17  C25 DU4 d   1      -6.416  28.167  -5.823  0.00  0.00    -0.074 A 
ATOM     18  C26 DU4 d   1      -5.040  27.945  -5.761  0.00  0.00    -0.082 A 
ATOM     19  H13 DU4 d   1      -6.788  29.130  -6.154  0.00  0.00     0.084 H 
ATOM     20  C27 DU4 d   1      -4.555  26.707  -5.343  0.00  0.00    -0.083 A 
ATOM     21  H14 DU4 d   1      -4.350  28.734  -6.037  0.00  0.00     0.083 H 
ATOM     22  C28 DU4 d   1      -5.456  25.702  -4.994  0.00  0.00    -0.082 A 
ATOM     23  H15 DU4 d   1      -3.487  26.527  -5.290  0.00  0.00     0.083 H 
ATOM     24  C29 DU4 d   1      -6.835  25.922  -5.048  0.00  0.00    -0.074 A 
ATOM     25  H16 DU4 d   1      -5.081  24.736  -4.676  0.00  0.00     0.083 H 
ATOM     26  H17 DU4 d   1      -7.525  25.134  -4.769  0.00  0.00     0.084 H 
ENDBRANCH   3  16
ENDBRANCH   1   3
BRANCH   1  27
ATOM     27  C41 DU4 d   1     -11.008  27.491  -4.411  0.00  0.00     0.068 C 
ATOM     28  H21 DU4 d   1     -11.529  27.228  -3.479  0.00  0.00     0.068 H 
ATOM     29  H22 DU4 d   1     -11.460  26.943  -5.251  0.00  0.00     0.068 H 
ATOM     30  H23 DU4 d   1     -11.098  28.573  -4.588  0.00  0.00     0.068 H 
ENDBRANCH   1  27
BRANCH   1  31
ATOM     31  C5' DU4 d   1      -9.036  27.847  -3.112  0.00  0.00     0.110 C 
ATOM     32  H24 DU4 d   1      -7.975  28.076  -3.289  0.00  0.00     0.080 H 
ATOM     33  H25 DU4 d   1      -9.597  28.785  -2.982  0.00  0.00     0.080 H 
BRANCH  31  34
ATOM     34  C4' DU4 d   1      -9.157  27.008  -1.814  0.00  0.00     0.089 C 
ATOM     35  C3' DU4 d   1      -8.694  27.814  -0.595  0.00  0.00     0.066 C 
ATOM     36  C2' DU4 d   1      -8.020  26.794   0.299  0.00  0.00     0.002 C 
ATOM     37  H18 DU4 d   1      -8.009  28.625  -0.883  0.00  0.00     0.087 H 
ATOM     38  C1' DU4 d   1      -7.537  25.696  -0.647  0.00  0.00     0.116 C 
ATOM     39  H7  DU4 d   1      -7.170  27.247   0.831  0.00  0.00     0.043 H 
ATOM     40  H8  DU4 d   1      -8.735  26.388   1.030  0.00  0.00     0.043 H 
ATOM     41  O4' DU4 d   1      -8.314  25.814  -1.879  0.00  0.00    -0.357 OA
ATOM     42  H4  DU4 d   1      -7.698  24.721  -0.163  0.00  0.00     0.118 H 
ATOM     43  H20 DU4 d   1     -10.208  26.710  -1.682  0.00  0.00     0.090 H 
BRANCH  35  44
ATOM     44  O3' DU4 d   1      -9.836  28.333   0.105  0.00  0.00    -0.393 OA
ATOM     45  H19 DU4 d   1     -10.274  28.976  -0.440  0.00  0.00     0.210 HD
ENDBRANCH  35  44
BRANCH  38  46
ATOM     46  N1  DU4 d   1      -6.120  25.783  -1.128  0.00  0.00    -0.282 N 
ATOM     47  C2  DU4 d   1      -5.576  24.653  -1.756  0.00  0.00     0.331 A 
ATOM     48  O2  DU4 d   1      -6.229  23.615  -1.878  0.00  0.00    -0.246 OA
ATOM     49  N3  DU4 d   1      -4.270  24.709  -2.237  0.00  0.00    -0.275 N 
ATOM     50  C4  DU4 d   1      -3.510  25.875  -2.114  0.00  0.00     0.250 A 
ATOM     51  H1  DU4 d   1      -3.871  23.904  -2.676  0.00  0.00     0.173 HD
ATOM     52  O4  DU4 d   1      -2.367  25.869  -2.565  0.00  0.00    -0.268 OA
ATOM     53  C5  DU4 d   1      -4.042  27.014  -1.496  0.00  0.00    -0.002 A 
ATOM     54  C6  DU4 d   1      -5.354  26.964  -1.005  0.00  0.00    -0.008 A 
ATOM     55  H2  DU4 d   1      -3.447  27.921  -1.399  0.00  0.00     0.094 H 
ATOM     56  H3  DU4 d   1      -5.786  27.841  -0.525  0.00  0.00     0.112 H 
ENDBRANCH  38  46
ENDBRANCH  31  34
ENDBRANCH   1  31
TORSDOF 8
