REMARK  12 active torsions:
REMARK  status: ('A' for Active; 'I' for Inactive)
REMARK    1  A    between atoms: C1_1  and  O1_2 
REMARK    2  A    between atoms: C2_3  and  O2_4 
REMARK    3  A    between atoms: C3_5  and  O3_6 
REMARK    4  A    between atoms: O3_6  and  CAY_19 
REMARK    5  A    between atoms: C4_7  and  O4_8 
REMARK    6  A    between atoms: O4_8  and  CAX_18 
REMARK    7  A    between atoms: C5_9  and  C6_11 
REMARK    8  A    between atoms: C6_11  and  O6_12 
REMARK    9  A    between atoms: O6_12  and  SAI_15 
REMARK   10  A    between atoms: SAI_15  and  NAH_14 
REMARK   11  A    between atoms: CAX_18  and  CBA_21 
REMARK   12  A    between atoms: CAY_19  and  CBB_22 
ROOT
ATOM      1  C1  SG4 d   1      17.148   2.309  11.726  0.00  0.00     0.156 C 
ATOM      2  C2  SG4 d   1      16.533   3.475  10.913  0.00  0.00     0.111 C 
ATOM      3  C3  SG4 d   1      16.861   4.861  11.468  0.00  0.00     0.105 C 
ATOM      4  C4  SG4 d   1      17.012   4.948  12.986  0.00  0.00     0.103 C 
ATOM      5  C5  SG4 d   1      17.414   3.653  13.708  0.00  0.00     0.091 C 
ATOM      6  O5  SG4 d   1      16.802   2.461  13.143  0.00  0.00    -0.349 OA
ATOM      7  H1  SG4 d   1      16.566   1.431  11.411  0.00  0.00     0.133 H 
ATOM      8  H3  SG4 d   1      15.474   3.386  11.195  0.00  0.00     0.094 H 
ATOM      9  H5  SG4 d   1      17.891   5.024  11.118  0.00  0.00     0.092 H 
ATOM     10  H6  SG4 d   1      15.959   5.045  13.290  0.00  0.00     0.092 H 
ATOM     11  H7  SG4 d   1      18.488   3.534  13.502  0.00  0.00     0.091 H 
ENDROOT
BRANCH   5  12
ATOM     12  C6  SG4 d   1      17.325   3.773  15.207  0.00  0.00     0.066 C 
ATOM     13  H8  SG4 d   1      17.973   4.599  15.536  0.00  0.00     0.080 H 
ATOM     14  H9  SG4 d   1      17.672   2.832  15.659  0.00  0.00     0.080 H 
BRANCH  12  15
ATOM     15  O6  SG4 d   1      16.016   4.026  15.639  0.00  0.00    -0.257 OA
BRANCH  15  16
ATOM     16  SAI SG4 d   1      15.465   3.252  16.787  0.00  0.00     0.355 S 
ATOM     17  OAB SG4 d   1      16.162   3.688  17.991  0.00  0.00    -0.176 OA
ATOM     18  OAQ SG4 d   1      14.032   3.577  16.871  0.00  0.00    -0.176 OA
BRANCH  16  19
ATOM     19  NAH SG4 d   1      15.767   1.737  16.565  0.00  0.00    -0.306 N 
ATOM     20  H10 SG4 d   1      15.468   1.063  17.241  0.00  0.00     0.171 HD
ATOM     21  H11 SG4 d   1      16.259   1.440  15.747  0.00  0.00     0.171 HD
ENDBRANCH  16  19
ENDBRANCH  15  16
ENDBRANCH  12  15
ENDBRANCH   5  12
BRANCH   4  22
ATOM     22  O4  SG4 d   1      17.553   6.117  13.528  0.00  0.00    -0.311 OA
BRANCH  22  23
ATOM     23  CAX SG4 d   1      16.872   7.133  13.862  0.00  0.00     0.255 C 
ATOM     24  OAW SG4 d   1      15.609   7.113  13.815  0.00  0.00    -0.266 OA
BRANCH  23  25
ATOM     25  CBA SG4 d   1      17.592   8.348  14.352  0.00  0.00     0.004 C 
ATOM     26  H12 SG4 d   1      16.861   9.133  14.598  0.00  0.00     0.041 H 
ATOM     27  H13 SG4 d   1      18.272   8.713  13.568  0.00  0.00     0.041 H 
ATOM     28  H14 SG4 d   1      18.172   8.093  15.251  0.00  0.00     0.041 H 
ENDBRANCH  23  25
ENDBRANCH  22  23
ENDBRANCH   4  22
BRANCH   3  29
ATOM     29  O3  SG4 d   1      16.160   5.915  10.862  0.00  0.00    -0.311 OA
BRANCH  29  30
ATOM     30  CAY SG4 d   1      16.728   6.817  10.152  0.00  0.00     0.255 C 
ATOM     31  OAZ SG4 d   1      17.962   6.748   9.907  0.00  0.00    -0.266 OA
BRANCH  30  32
ATOM     32  CBB SG4 d   1      15.897   7.961   9.624  0.00  0.00     0.004 C 
ATOM     33  H15 SG4 d   1      16.536   8.639   9.039  0.00  0.00     0.041 H 
ATOM     34  H16 SG4 d   1      15.453   8.511  10.467  0.00  0.00     0.041 H 
ATOM     35  H17 SG4 d   1      15.096   7.566   8.981  0.00  0.00     0.041 H 
ENDBRANCH  30  32
ENDBRANCH  29  30
ENDBRANCH   3  29
BRANCH   1  36
ATOM     36  O1  SG4 d   1      18.430   1.940  11.402  0.00  0.00    -0.369 OA
ATOM     37  H2  SG4 d   1      18.623   1.096  11.792  0.00  0.00     0.212 HD
ENDBRANCH   1  36
BRANCH   2  38
ATOM     38  O2  SG4 d   1      16.429   3.332   9.550  0.00  0.00    -0.388 OA
ATOM     39  H4  SG4 d   1      16.038   4.114   9.180  0.00  0.00     0.210 HD
ENDBRANCH   2  38
TORSDOF 12
