REMARK  16 active torsions:
REMARK  status: ('A' for Active; 'I' for Inactive)
REMARK    1  A    between atoms: C2_3  and  O2A_8 
REMARK    2  A    between atoms: C3_4  and  O3A_13 
REMARK    3  A    between atoms: C4_5  and  O4A_18 
REMARK    4  A    between atoms: C5_6  and  C5A_23 
REMARK    5  A    between atoms: O2A_8  and  C2B_9 
REMARK    6  A    between atoms: C2B_9  and  C2D_11 
REMARK    7  A    between atoms: C2D_11  and  C2E_12 
REMARK    8  A    between atoms: O3A_13  and  C3B_14 
REMARK    9  A    between atoms: C3B_14  and  C3D_16 
REMARK   10  A    between atoms: C3D_16  and  C3E_17 
REMARK   11  A    between atoms: O4A_18  and  C4B_19 
REMARK   12  A    between atoms: C4B_19  and  C4D_21 
REMARK   13  A    between atoms: C4D_21  and  C4E_22 
REMARK   14  A    between atoms: C5A_23  and  O5B_24 
REMARK   15  A    between atoms: O5B_24  and  S5C_25 
REMARK   16  A    between atoms: S5C_25  and  N5F_28 
ROOT
ATOM      1  C1  SG5 d   1      17.250   0.164  12.021  0.00  0.00     0.289 C 
ATOM      2  O5  SG5 d   1      16.947   0.299  13.308  0.00  0.00    -0.336 OA
ATOM      3  C2  SG5 d   1      16.578   1.166  11.222  0.00  0.00     0.138 C 
ATOM      4  C3  SG5 d   1      17.028   2.610  11.597  0.00  0.00     0.106 C 
ATOM      5  C4  SG5 d   1      17.201   2.799  13.262  0.00  0.00     0.103 C 
ATOM      6  C5  SG5 d   1      17.615   1.357  13.926  0.00  0.00     0.092 C 
ATOM      7  O1A SG5 d   1      18.505  -0.220  11.614  0.00  0.00    -0.188 OA
ATOM      8  H1  SG5 d   1      15.514   1.092  11.489  0.00  0.00     0.097 H 
ATOM      9  H2  SG5 d   1      18.047   2.695  11.190  0.00  0.00     0.092 H 
ATOM     10  H3  SG5 d   1      16.190   3.011  13.640  0.00  0.00     0.092 H 
ATOM     11  H4  SG5 d   1      18.685   1.192  13.730  0.00  0.00     0.091 H 
ENDROOT
BRANCH   3  12
ATOM     12  O2A SG5 d   1      16.638   0.971   9.850  0.00  0.00    -0.307 OA
BRANCH  12  13
ATOM     13  C2B SG5 d   1      15.641   1.164   9.076  0.00  0.00     0.259 C 
ATOM     14  O2C SG5 d   1      14.696   1.905   9.454  0.00  0.00    -0.265 OA
BRANCH  13  15
ATOM     15  C2D SG5 d   1      15.876   0.936   7.608  0.00  0.00     0.013 C 
ATOM     16  H5  SG5 d   1      15.057   0.300   7.239  0.00  0.00     0.047 H 
ATOM     17  H6  SG5 d   1      16.831   0.399   7.508  0.00  0.00     0.047 H 
BRANCH  15  18
ATOM     18  C2E SG5 d   1      15.944   2.133   6.721  0.00  0.00    -0.068 C 
ATOM     19  H7  SG5 d   1      16.119   1.811   5.684  0.00  0.00     0.028 H 
ATOM     20  H8  SG5 d   1      16.768   2.784   7.047  0.00  0.00     0.028 H 
ATOM     21  H9  SG5 d   1      14.995   2.686   6.778  0.00  0.00     0.028 H 
ENDBRANCH  15  18
ENDBRANCH  13  15
ENDBRANCH  12  13
ENDBRANCH   3  12
BRANCH   4  22
ATOM     22  O3A SG5 d   1      16.331   3.660  10.997  0.00  0.00    -0.310 OA
BRANCH  22  23
ATOM     23  C3B SG5 d   1      16.899   4.500  10.208  0.00  0.00     0.259 C 
ATOM     24  O3C SG5 d   1      18.010   4.224   9.700  0.00  0.00    -0.265 OA
BRANCH  23  25
ATOM     25  C3D SG5 d   1      16.033   5.595   9.637  0.00  0.00     0.013 C 
ATOM     26  H10 SG5 d   1      15.961   6.386  10.398  0.00  0.00     0.047 H 
ATOM     27  H11 SG5 d   1      15.036   5.166   9.459  0.00  0.00     0.047 H 
BRANCH  25  28
ATOM     28  C3E SG5 d   1      16.481   6.249   8.345  0.00  0.00    -0.068 C 
ATOM     29  H12 SG5 d   1      15.755   7.022   8.055  0.00  0.00     0.028 H 
ATOM     30  H13 SG5 d   1      16.544   5.489   7.552  0.00  0.00     0.028 H 
ATOM     31  H14 SG5 d   1      17.469   6.710   8.491  0.00  0.00     0.028 H 
ENDBRANCH  25  28
ENDBRANCH  23  25
ENDBRANCH  22  23
ENDBRANCH   4  22
BRANCH   5  32
ATOM     32  O4A SG5 d   1      17.954   3.912  13.660  0.00  0.00    -0.311 OA
BRANCH  32  33
ATOM     33  C4B SG5 d   1      17.389   5.034  13.937  0.00  0.00     0.259 C 
ATOM     34  O4C SG5 d   1      16.150   5.152  13.835  0.00  0.00    -0.265 OA
BRANCH  33  35
ATOM     35  C4D SG5 d   1      18.245   6.215  14.309  0.00  0.00     0.013 C 
ATOM     36  H15 SG5 d   1      18.700   6.002  15.287  0.00  0.00     0.047 H 
ATOM     37  H16 SG5 d   1      17.585   7.091  14.394  0.00  0.00     0.047 H 
BRANCH  35  38
ATOM     38  C4E SG5 d   1      19.353   6.570  13.359  0.00  0.00    -0.068 C 
ATOM     39  H17 SG5 d   1      19.899   7.444  13.743  0.00  0.00     0.028 H 
ATOM     40  H18 SG5 d   1      18.928   6.808  12.373  0.00  0.00     0.028 H 
ATOM     41  H19 SG5 d   1      20.043   5.718  13.266  0.00  0.00     0.028 H 
ENDBRANCH  35  38
ENDBRANCH  33  35
ENDBRANCH  32  33
ENDBRANCH   5  32
BRANCH   6  42
ATOM     42  C5A SG5 d   1      17.465   1.487  15.426  0.00  0.00     0.066 C 
ATOM     43  H20 SG5 d   1      18.169   2.248  15.795  0.00  0.00     0.080 H 
ATOM     44  H21 SG5 d   1      17.691   0.519  15.897  0.00  0.00     0.080 H 
BRANCH  42  45
ATOM     45  O5B SG5 d   1      16.152   1.870  15.761  0.00  0.00    -0.257 OA
BRANCH  45  46
ATOM     46  S5C SG5 d   1      15.531   1.129  16.898  0.00  0.00     0.355 S 
ATOM     47  O5D SG5 d   1      14.104   1.467  16.911  0.00  0.00    -0.176 OA
ATOM     48  O5E SG5 d   1      16.248   1.517  18.105  0.00  0.00    -0.176 OA
BRANCH  46  49
ATOM     49  N5F SG5 d   1      15.820  -0.396  16.709  0.00  0.00    -0.306 N 
ATOM     50  H22 SG5 d   1      15.479  -1.056  17.378  0.00  0.00     0.171 HD
ATOM     51  H23 SG5 d   1      16.345  -0.711  15.919  0.00  0.00     0.171 HD
ENDBRANCH  46  49
ENDBRANCH  45  46
ENDBRANCH  42  45
ENDBRANCH   6  42
TORSDOF 16
