REMARK  23 active torsions:
REMARK  status: ('A' for Active; 'I' for Inactive)
REMARK    1  A    between atoms: C2_4  and  C1_1 
REMARK       I    between atoms: C3_7  and  N1_2 
REMARK    2  A    between atoms: N1_2  and  C4_9 
REMARK    3  A    between atoms: C2_4  and  C3_7 
REMARK    4  A    between atoms: N5_12  and  C2_4 
REMARK       I    between atoms: C9_17  and  N2_5 
REMARK    5  A    between atoms: N2_5  and  C10_19 
REMARK    6  A    between atoms: C5_11  and  O2_6 
REMARK    7  A    between atoms: O2_6  and  C6_13 
REMARK    8  A    between atoms: C7_15  and  O3_8 
REMARK    9  A    between atoms: O3_8  and  C8_16 
REMARK   10  A    between atoms: C4_9  and  C5_11 
REMARK       I    between atoms: C39_24  and  N5_12 
REMARK   11  A    between atoms: C6_13  and  C7_15 
REMARK   12  A    between atoms: C41_26  and  N6_14 
REMARK   13  A    between atoms: C8_16  and  C9_17 
REMARK   14  A    between atoms: C10_19  and  C11_21 
REMARK   15  A    between atoms: C10_19  and  C25_23 
REMARK   16  A    between atoms: C46_31  and  O10_20 
REMARK   17  A    between atoms: O10_20  and  C49_34 
REMARK   18  A    between atoms: C40_25  and  O11_22 
REMARK   19  A    between atoms: C40_25  and  C39_24 
REMARK   20  A    between atoms: C41_26  and  C40_25 
REMARK   21  A    between atoms: C42_27  and  C41_26 
REMARK   22  A    between atoms: C43_28  and  C42_27 
REMARK   23  A    between atoms: C49_34  and  C50_35 
ROOT
ATOM      1  N5  BTJ d   1      15.343  11.202  10.435  0.00  0.00    -0.346 N 
ATOM      2  O9  BTJ d   1      14.400   9.879  11.720  0.00  0.00    -0.271 OA
ATOM      3  C39 BTJ d   1      14.513  10.986  11.186  0.00  0.00     0.249 C 
ATOM      4  H11 BTJ d   1      15.337  12.016   9.855  0.00  0.00     0.163 HD
ENDROOT
BRANCH   1   5
ATOM      5  C2  BTJ d   1      16.417  10.212  10.375  0.00  0.00     0.086 C 
ATOM      6  H5  BTJ d   1      15.809   9.299  10.293  0.00  0.00     0.086 H 
BRANCH   5   7
ATOM      7  C1  BTJ d   1      17.181  10.160   9.102  0.00  0.00    -0.049 C 
ATOM      8  H1  BTJ d   1      16.519  10.430   8.266  0.00  0.00     0.030 H 
ATOM      9  H2  BTJ d   1      17.570   9.142   8.949  0.00  0.00     0.030 H 
ATOM     10  H3  BTJ d   1      18.020  10.870   9.149  0.00  0.00     0.030 H 
ENDBRANCH   5   7
BRANCH   5  11
ATOM     11  C3  BTJ d   1      17.290   9.839  11.630  0.00  0.00     0.240 C 
ATOM     12  N1  BTJ d   1      17.700   8.533  11.665  0.00  0.00    -0.357 N 
ATOM     13  H4  BTJ d   1      17.258   7.932  10.999  0.00  0.00     0.162 HD
ATOM     14  O1  BTJ d   1      17.512  10.588  12.418  0.00  0.00    -0.271 OA
BRANCH  12  15
ATOM     15  C4  BTJ d   1      18.674   7.890  12.517  0.00  0.00     0.015 C 
ATOM     16  H7  BTJ d   1      19.578   8.510  12.605  0.00  0.00     0.067 H 
ATOM     17  H8  BTJ d   1      18.945   6.902  12.116  0.00  0.00     0.067 H 
BRANCH  15  18
ATOM     18  C5  BTJ d   1      18.008   7.751  13.837  0.00  0.00     0.034 C 
ATOM     19  H9  BTJ d   1      18.510   6.952  14.402  0.00  0.00     0.076 H 
ATOM     20  H10 BTJ d   1      18.105   8.702  14.382  0.00  0.00     0.076 H 
BRANCH  18  21
ATOM     21  O2  BTJ d   1      16.637   7.432  13.724  0.00  0.00    -0.387 OA
BRANCH  21  22
ATOM     22  C6  BTJ d   1      16.347   6.144  14.083  0.00  0.00     0.039 C 
ATOM     23  H12 BTJ d   1      17.119   5.789  14.782  0.00  0.00     0.077 H 
ATOM     24  H13 BTJ d   1      16.352   5.515  13.181  0.00  0.00     0.077 H 
BRANCH  22  25
ATOM     25  C7  BTJ d   1      14.995   6.027  14.750  0.00  0.00     0.040 C 
ATOM     26  H17 BTJ d   1      14.229   6.478  14.101  0.00  0.00     0.077 H 
ATOM     27  H18 BTJ d   1      14.760   4.965  14.912  0.00  0.00     0.077 H 
BRANCH  25  28
ATOM     28  O3  BTJ d   1      15.007   6.678  15.958  0.00  0.00    -0.380 OA
BRANCH  28  29
ATOM     29  C8  BTJ d   1      14.987   6.137  17.315  0.00  0.00     0.093 C 
ATOM     30  H19 BTJ d   1      13.972   5.736  17.452  0.00  0.00     0.089 H 
ATOM     31  H20 BTJ d   1      15.130   7.005  17.975  0.00  0.00     0.089 H 
BRANCH  29  32
ATOM     32  C9  BTJ d   1      15.909   5.074  17.853  0.00  0.00     0.241 C 
ATOM     33  N2  BTJ d   1      15.361   3.768  18.232  0.00  0.00    -0.355 N 
ATOM     34  H6  BTJ d   1      15.313   3.092  17.496  0.00  0.00     0.162 HD
ATOM     35  O4  BTJ d   1      17.063   5.408  17.954  0.00  0.00    -0.271 OA
BRANCH  33  36
ATOM     36  C10 BTJ d   1      14.854   3.295  19.588  0.00  0.00     0.005 C 
ATOM     37  H21 BTJ d   1      14.914   4.267  20.099  0.00  0.00     0.071 H 
BRANCH  36  38
ATOM     38  C11 BTJ d   1      15.745   2.466  20.403  0.00  0.00    -0.058 C 
ATOM     39  H22 BTJ d   1      15.242   2.205  21.346  0.00  0.00     0.030 H 
ATOM     40  H23 BTJ d   1      16.668   3.024  20.621  0.00  0.00     0.030 H 
ATOM     41  H24 BTJ d   1      15.994   1.546  19.854  0.00  0.00     0.030 H 
ENDBRANCH  36  38
BRANCH  36  42
ATOM     42  C25 BTJ d   1      13.467   2.870  20.024  0.00  0.00    -0.058 C 
ATOM     43  H26 BTJ d   1      13.486   2.592  21.088  0.00  0.00     0.030 H 
ATOM     44  H27 BTJ d   1      13.143   2.006  19.425  0.00  0.00     0.030 H 
ATOM     45  H28 BTJ d   1      12.764   3.703  19.876  0.00  0.00     0.030 H 
ENDBRANCH  36  42
ENDBRANCH  33  36
ENDBRANCH  29  32
ENDBRANCH  28  29
ENDBRANCH  25  28
ENDBRANCH  22  25
ENDBRANCH  21  22
ENDBRANCH  18  21
ENDBRANCH  15  18
ENDBRANCH  12  15
ENDBRANCH   5  11
ENDBRANCH   1   5
BRANCH   3  46
ATOM     46  C40 BTJ d   1      13.822  12.262  11.321  0.00  0.00     0.139 C 
ATOM     47  H29 BTJ d   1      14.580  13.029  11.541  0.00  0.00     0.101 H 
BRANCH  46  48
ATOM     48  O11 BTJ d   1      13.140  12.717  10.353  0.00  0.00    -0.384 OA
ATOM     49  H25 BTJ d   1      13.705  12.838   9.599  0.00  0.00     0.210 HD
ENDBRANCH  46  48
BRANCH  46  50
ATOM     50  C41 BTJ d   1      13.025  12.051  12.468  0.00  0.00     0.136 C 
ATOM     51  H30 BTJ d   1      13.353  11.067  12.833  0.00  0.00     0.089 H 
BRANCH  50  52
ATOM     52  N6  BTJ d   1      11.696  11.949  12.385  0.00  0.00    -0.072 N 
ATOM     53  H14 BTJ d   1      11.312  11.801  13.305  0.00  0.00     0.274 HD
ATOM     54  H15 BTJ d   1      11.455  11.171  11.792  0.00  0.00     0.274 HD
ATOM     55  H16 BTJ d   1      11.318  12.798  11.995  0.00  0.00     0.274 HD
ENDBRANCH  50  52
BRANCH  50  56
ATOM     56  C42 BTJ d   1      13.332  13.021  13.550  0.00  0.00    -0.012 C 
ATOM     57  H31 BTJ d   1      12.740  13.931  13.373  0.00  0.00     0.043 H 
ATOM     58  H32 BTJ d   1      14.403  13.265  13.498  0.00  0.00     0.043 H 
BRANCH  56  59
ATOM     59  C43 BTJ d   1      13.021  12.513  14.980  0.00  0.00    -0.056 A 
ATOM     60  C44 BTJ d   1      12.893  13.322  15.991  0.00  0.00    -0.074 A 
ATOM     61  C45 BTJ d   1      12.620  12.721  17.186  0.00  0.00    -0.050 A 
ATOM     62  H33 BTJ d   1      12.996  14.396  15.892  0.00  0.00     0.084 H 
ATOM     63  C46 BTJ d   1      12.508  11.446  17.554  0.00  0.00     0.069 A 
ATOM     64  H34 BTJ d   1      12.463  13.422  17.998  0.00  0.00     0.087 H 
ATOM     65  C47 BTJ d   1      12.588  10.640  16.648  0.00  0.00    -0.050 A 
ATOM     66  C48 BTJ d   1      12.812  11.147  15.423  0.00  0.00    -0.074 A 
ATOM     67  H35 BTJ d   1      12.485   9.574  16.818  0.00  0.00     0.087 H 
ATOM     68  H36 BTJ d   1      12.841  10.409  14.630  0.00  0.00     0.084 H 
BRANCH  63  69
ATOM     69  O10 BTJ d   1      12.230  11.229  18.731  0.00  0.00    -0.347 OA
BRANCH  69  70
ATOM     70  C49 BTJ d   1      11.927  10.096  19.465  0.00  0.00     0.050 C 
ATOM     71  H37 BTJ d   1      11.229   9.457  18.905  0.00  0.00     0.082 H 
ATOM     72  H38 BTJ d   1      11.476  10.377  20.428  0.00  0.00     0.082 H 
BRANCH  70  73
ATOM     73  C50 BTJ d   1      13.236   9.366  19.694  0.00  0.00    -0.034 A 
ATOM     74  C51 BTJ d   1      13.337   7.902  19.805  0.00  0.00    -0.075 A 
ATOM     75  C52 BTJ d   1      14.552   7.347  20.175  0.00  0.00    -0.082 A 
ATOM     76  H39 BTJ d   1      12.479   7.271  19.602  0.00  0.00     0.084 H 
ATOM     77  C53 BTJ d   1      15.687   8.162  20.400  0.00  0.00    -0.083 A 
ATOM     78  H40 BTJ d   1      14.634   6.273  20.294  0.00  0.00     0.083 H 
ATOM     79  C54 BTJ d   1      15.579   9.552  20.300  0.00  0.00    -0.082 A 
ATOM     80  H41 BTJ d   1      16.639   7.709  20.650  0.00  0.00     0.083 H 
ATOM     81  C55 BTJ d   1      14.460  10.159  19.925  0.00  0.00    -0.075 A 
ATOM     82  H42 BTJ d   1      16.445  10.159  20.538  0.00  0.00     0.083 H 
ATOM     83  H43 BTJ d   1      14.445  11.234  19.789  0.00  0.00     0.084 H 
ENDBRANCH  70  73
ENDBRANCH  69  70
ENDBRANCH  63  69
ENDBRANCH  56  59
ENDBRANCH  50  56
ENDBRANCH  46  50
ENDBRANCH   3  46
TORSDOF 23
