REMARK  11 active torsions:
REMARK  status: ('A' for Active; 'I' for Inactive)
REMARK    1  A    between atoms: O3B_8  and  PG_1 
REMARK    2  A    between atoms: PB_5  and  O3B_8 
REMARK    3  A    between atoms: O3A_12  and  PB_5 
REMARK    4  A    between atoms: PA_9  and  O3A_12 
REMARK    5  A    between atoms: PA_9  and  O5'_13 
REMARK    6  A    between atoms: O5'_13  and  C5'_14 
REMARK    7  A    between atoms: C5'_14  and  C4'_15 
REMARK    8  A    between atoms: C3'_17  and  O3'_18 
REMARK    9  A    between atoms: C2'_19  and  O2'_20 
REMARK   10  A    between atoms: C1'_21  and  N9_22 
REMARK   11  A    between atoms: C6_26  and  N6_27 
ROOT
ATOM      1  C4' ATP d   1     -56.315  -9.020 -15.525  0.00  0.00     0.089 C 
ATOM      2  O4' ATP d   1     -54.889  -9.224 -15.519  0.00  0.00    -0.353 OA
ATOM      3  C3' ATP d   1     -56.655  -8.600 -16.942  0.00  0.00     0.091 C 
ATOM      4  C2' ATP d   1     -55.457  -7.752 -17.384  0.00  0.00     0.105 C 
ATOM      5  C1' ATP d   1     -54.344  -8.545 -16.713  0.00  0.00     0.139 C 
ATOM      6  H3  ATP d   1     -56.581  -8.207 -14.834  0.00  0.00     0.090 H 
ATOM      7  H4  ATP d   1     -56.719  -9.494 -17.580  0.00  0.00     0.091 H 
ATOM      8  H6  ATP d   1     -55.346  -7.714 -18.478  0.00  0.00     0.093 H 
ATOM      9  H8  ATP d   1     -53.587  -7.819 -16.382  0.00  0.00     0.122 H 
ENDROOT
BRANCH   1  10
ATOM     10  C5' ATP d   1     -57.034 -10.301 -15.061  0.00  0.00     0.058 C 
ATOM     11  H1  ATP d   1     -56.638 -10.613 -14.083  0.00  0.00     0.079 H 
ATOM     12  H2  ATP d   1     -58.113 -10.107 -14.975  0.00  0.00     0.079 H 
BRANCH  10  13
ATOM     13  O5' ATP d   1     -56.810 -11.326 -16.013  0.00  0.00    -0.287 OA
BRANCH  13  14
ATOM     14  PA  ATP d   1     -57.206 -12.885 -15.738  0.00  0.00     0.417 P 
ATOM     15  O1A ATP d   1     -57.290 -13.274 -14.270  0.00  0.00    -0.624 OA
ATOM     16  O2A ATP d   1     -56.131 -13.801 -16.390  0.00  0.00    -0.624 OA
BRANCH  14  17
ATOM     17  O3A ATP d   1     -58.519 -13.172 -16.493  0.00  0.00    -0.180 OA
BRANCH  17  18
ATOM     18  PB  ATP d   1     -58.986 -14.578 -17.030  0.00  0.00     0.428 P 
ATOM     19  O1B ATP d   1     -60.339 -14.818 -16.344  0.00  0.00    -0.624 OA
ATOM     20  O2B ATP d   1     -59.602 -14.591 -18.423  0.00  0.00    -0.624 OA
BRANCH  18  21
ATOM     21  O3B ATP d   1     -58.110 -15.858 -16.768  0.00  0.00    -0.173 OA
BRANCH  21  22
ATOM     22  PG  ATP d   1     -57.728 -16.632 -15.452  0.00  0.00     0.431 P 
ATOM     23  O1G ATP d   1     -58.201 -16.098 -14.080  0.00  0.00    -0.616 OA
ATOM     24  O2G ATP d   1     -56.189 -16.525 -15.488  0.00  0.00    -0.616 OA
ATOM     25  O3G ATP d   1     -58.139 -18.042 -15.717  0.00  0.00    -0.616 OA
ENDBRANCH  21  22
ENDBRANCH  18  21
ENDBRANCH  17  18
ENDBRANCH  14  17
ENDBRANCH  13  14
ENDBRANCH  10  13
ENDBRANCH   1  10
BRANCH   3  26
ATOM     26  O3' ATP d   1     -57.878  -7.929 -17.035  0.00  0.00    -0.390 OA
ATOM     27  H5  ATP d   1     -58.574  -8.498 -16.727  0.00  0.00     0.210 HD
ENDBRANCH   3  26
BRANCH   5  28
ATOM     28  N9  ATP d   1     -53.664  -9.508 -17.543  0.00  0.00    -0.294 N 
ATOM     29  C8  ATP d   1     -53.983 -10.825 -17.714  0.00  0.00     0.071 A 
ATOM     30  N7  ATP d   1     -53.153 -11.447 -18.518  0.00  0.00    -0.236 NA
ATOM     31  H9  ATP d   1     -54.834 -11.307 -17.235  0.00  0.00     0.144 H 
ATOM     32  C5  ATP d   1     -52.243 -10.504 -18.892  0.00  0.00     0.149 A 
ATOM     33  C6  ATP d   1     -51.100 -10.550 -19.737  0.00  0.00     0.155 A 
ATOM     34  C4  ATP d   1     -52.544  -9.255 -18.293  0.00  0.00     0.167 A 
ATOM     35  N1  ATP d   1     -50.363  -9.385 -19.908  0.00  0.00    -0.222 NA
ATOM     36  C2  ATP d   1     -50.773  -8.234 -19.278  0.00  0.00     0.091 A 
ATOM     37  N3  ATP d   1     -51.852  -8.083 -18.441  0.00  0.00    -0.222 NA
ATOM     38  H12 ATP d   1     -50.179  -7.346 -19.462  0.00  0.00     0.146 H 
BRANCH  33  39
ATOM     39  N6  ATP d   1     -50.708 -11.705 -20.364  0.00  0.00    -0.382 N 
ATOM     40  H10 ATP d   1     -49.875 -11.705 -20.970  0.00  0.00     0.157 HD
ATOM     41  H11 ATP d   1     -51.247 -12.573 -20.229  0.00  0.00     0.157 HD
ENDBRANCH  33  39
ENDBRANCH   5  28
BRANCH   4  42
ATOM     42  O2' ATP d   1     -55.546  -6.416 -16.846  0.00  0.00    -0.388 OA
ATOM     43  H7  ATP d   1     -54.795  -5.910 -17.132  0.00  0.00     0.210 HD
ENDBRANCH   4  42
TORSDOF 11
