REMARK  9 active torsions:
REMARK  status: ('A' for Active; 'I' for Inactive)
REMARK    1  A    between atoms: O3A_8  and  PB_1 
REMARK    2  A    between atoms: PA_5  and  O3A_8 
REMARK    3  A    between atoms: PA_5  and  O5'_9 
REMARK    4  A    between atoms: O5'_9  and  C5'_10 
REMARK    5  A    between atoms: C5'_10  and  C4'_11 
REMARK    6  A    between atoms: C3'_13  and  O3'_14 
REMARK    7  A    between atoms: C2'_15  and  O2'_16 
REMARK    8  A    between atoms: C1'_17  and  N9_18 
REMARK    9  A    between atoms: C6_22  and  N6_23 
ROOT
ATOM      1  C4' ADP d   1       5.272  -9.336 -15.618  0.00  0.00     0.089 C 
ATOM      2  O4' ADP d   1       6.689  -9.573 -15.629  0.00  0.00    -0.353 OA
ATOM      3  C3' ADP d   1       4.946  -8.726 -16.978  0.00  0.00     0.091 C 
ATOM      4  C2' ADP d   1       6.239  -7.911 -17.310  0.00  0.00     0.105 C 
ATOM      5  C1' ADP d   1       7.330  -8.774 -16.693  0.00  0.00     0.139 C 
ATOM      6  H3  ADP d   1       5.007  -8.634 -14.813  0.00  0.00     0.090 H 
ATOM      7  H4  ADP d   1       4.807  -9.527 -17.720  0.00  0.00     0.091 H 
ATOM      8  H6  ADP d   1       6.383  -7.751 -18.389  0.00  0.00     0.093 H 
ATOM      9  H8  ADP d   1       8.080  -8.102 -16.250  0.00  0.00     0.122 H 
ENDROOT
BRANCH   5  10
ATOM     10  N9  ADP d   1       8.044  -9.708 -17.598  0.00  0.00    -0.294 N 
ATOM     11  C8  ADP d   1       7.742 -11.013 -17.915  0.00  0.00     0.071 A 
ATOM     12  N7  ADP d   1       8.653 -11.558 -18.723  0.00  0.00    -0.236 NA
ATOM     13  H9  ADP d   1       6.862 -11.539 -17.549  0.00  0.00     0.144 H 
ATOM     14  C5  ADP d   1       9.590 -10.550 -18.923  0.00  0.00     0.149 A 
ATOM     15  C6  ADP d   1      10.795 -10.479 -19.685  0.00  0.00     0.155 A 
ATOM     16  C4  ADP d   1       9.226  -9.393 -18.263  0.00  0.00     0.167 A 
ATOM     17  N1  ADP d   1      11.492  -9.294 -19.693  0.00  0.00    -0.222 NA
ATOM     18  C2  ADP d   1      11.033  -8.220 -19.026  0.00  0.00     0.091 A 
ATOM     19  N3  ADP d   1       9.883  -8.217 -18.258  0.00  0.00    -0.222 NA
ATOM     20  H12 ADP d   1      11.600  -7.299 -19.095  0.00  0.00     0.146 H 
BRANCH  15  21
ATOM     21  N6  ADP d   1      11.272 -11.597 -20.369  0.00  0.00    -0.382 N 
ATOM     22  H10 ADP d   1      12.143 -11.534 -20.916  0.00  0.00     0.157 HD
ATOM     23  H11 ADP d   1      10.754 -12.486 -20.328  0.00  0.00     0.157 HD
ENDBRANCH  15  21
ENDBRANCH   5  10
BRANCH   4  24
ATOM     24  O2' ADP d   1       6.158  -6.684 -16.606  0.00  0.00    -0.388 OA
ATOM     25  H7  ADP d   1       6.932  -6.164 -16.788  0.00  0.00     0.210 HD
ENDBRANCH   4  24
BRANCH   1  26
ATOM     26  C5' ADP d   1       4.514 -10.657 -15.411  0.00  0.00     0.058 C 
ATOM     27  H1  ADP d   1       4.791 -11.108 -14.447  0.00  0.00     0.079 H 
ATOM     28  H2  ADP d   1       3.428 -10.481 -15.435  0.00  0.00     0.079 H 
BRANCH  26  29
ATOM     29  O5' ADP d   1       4.892 -11.495 -16.464  0.00  0.00    -0.287 OA
BRANCH  29  30
ATOM     30  PA  ADP d   1       3.833 -12.654 -16.864  0.00  0.00     0.418 P 
ATOM     31  O1A ADP d   1       4.518 -13.484 -17.930  0.00  0.00    -0.624 OA
ATOM     32  O2A ADP d   1       2.518 -12.045 -17.307  0.00  0.00    -0.624 OA
BRANCH  30  33
ATOM     33  O3A ADP d   1       3.520 -13.549 -15.644  0.00  0.00    -0.173 OA
BRANCH  33  34
ATOM     34  PB  ADP d   1       4.450 -14.434 -14.808  0.00  0.00     0.431 P 
ATOM     35  O1B ADP d   1       5.220 -15.371 -15.771  0.00  0.00    -0.616 OA
ATOM     36  O2B ADP d   1       3.641 -15.212 -13.834  0.00  0.00    -0.616 OA
ATOM     37  O3B ADP d   1       5.516 -13.611 -14.108  0.00  0.00    -0.616 OA
ENDBRANCH  33  34
ENDBRANCH  30  33
ENDBRANCH  29  30
ENDBRANCH  26  29
ENDBRANCH   1  26
BRANCH   3  38
ATOM     38  O3' ADP d   1       3.757  -7.913 -16.982  0.00  0.00    -0.390 OA
ATOM     39  H5  ADP d   1       3.012  -8.443 -16.724  0.00  0.00     0.210 HD
ENDBRANCH   3  38
TORSDOF 9
