REMARK  4 active torsions:
REMARK  status: ('A' for Active; 'I' for Inactive)
REMARK    1  A    between atoms: C1_1  and  C2_2 
REMARK    2  A    between atoms: C2_2  and  O1P_6 
REMARK    3  A    between atoms: N2_3  and  O2_4 
REMARK    4  A    between atoms: O1P_6  and  P_10 
ROOT
ATOM      1  C2  PGH d   1     -23.725   7.409  12.464  0.00  0.00     0.095 C 
ATOM      2  H1  PGH d   1     -24.071   6.726  13.254  0.00  0.00     0.088 H 
ATOM      3  H2  PGH d   1     -24.207   7.142  11.512  0.00  0.00     0.088 H 
ENDROOT
BRANCH   1   4
ATOM      4  C1  PGH d   1     -22.228   7.300  12.321  0.00  0.00     0.199 C 
ATOM      5  N2  PGH d   1     -21.615   6.308  12.949  0.00  0.00    -0.247 N 
ATOM      6  H3  PGH d   1     -22.102   5.787  13.650  0.00  0.00     0.196 HD
ATOM      7  O1  PGH d   1     -21.537   8.248  11.562  0.00  0.00    -0.173 OA
BRANCH   5   8
ATOM      8  O2  PGH d   1     -20.325   5.994  12.646  0.00  0.00    -0.288 OA
ATOM      9  H4  PGH d   1     -19.769   6.746  12.813  0.00  0.00     0.244 HD
ENDBRANCH   5   8
ENDBRANCH   1   4
BRANCH   1  10
ATOM     10  O1P PGH d   1     -24.059   8.740  12.808  0.00  0.00    -0.275 OA
BRANCH  10  11
ATOM     11  P   PGH d   1     -25.605   9.089  13.177  0.00  0.00     0.422 P 
ATOM     12  O2P PGH d   1     -25.521  10.458  13.858  0.00  0.00    -0.617 OA
ATOM     13  O3P PGH d   1     -26.163   8.002  14.074  0.00  0.00    -0.617 OA
ATOM     14  O4P PGH d   1     -26.447   9.216  11.920  0.00  0.00    -0.617 OA
ENDBRANCH  10  11
ENDBRANCH   1  10
TORSDOF 4
