REMARK  13 active torsions:
REMARK  status: ('A' for Active; 'I' for Inactive)
REMARK    1  A    between atoms: C1_1  and  C2_2 
REMARK    2  A    between atoms: C2_2  and  O2_3 
REMARK    3  A    between atoms: O2_3  and  C12_21 
REMARK    4  A    between atoms: C4_5  and  O4_6 
REMARK    5  A    between atoms: C5_7  and  N5_8 
REMARK       I    between atoms: N5_8  and  C10_17 
REMARK    6  A    between atoms: C6_9  and  C7_11 
REMARK    7  A    between atoms: C7_11  and  O7_12 
REMARK    8  A    between atoms: C7_11  and  C8_13 
REMARK    9  A    between atoms: C8_13  and  O8_14 
REMARK   10  A    between atoms: C8_13  and  C9_15 
REMARK   11  A    between atoms: C9_15  and  O9_16 
REMARK   12  A    between atoms: C10_17  and  C11_19 
REMARK   13  A    between atoms: C11_19  and  O11_20 
ROOT
ATOM      1  C2  MN0 d   1     -32.943  40.707  21.801  0.00  0.00     0.258 C 
ATOM      2  C3  MN0 d   1     -33.784  41.478  22.847  0.00  0.00     0.023 C 
ATOM      3  C4  MN0 d   1     -33.064  41.673  24.200  0.00  0.00     0.063 C 
ATOM      4  C5  MN0 d   1     -31.587  42.092  24.057  0.00  0.00     0.065 C 
ATOM      5  C6  MN0 d   1     -30.858  41.139  23.099  0.00  0.00     0.091 C 
ATOM      6  O6  MN0 d   1     -31.568  41.169  21.813  0.00  0.00    -0.336 OA
ATOM      7  H1  MN0 d   1     -34.714  40.918  23.026  0.00  0.00     0.045 H 
ATOM      8  H2  MN0 d   1     -34.026  42.469  22.436  0.00  0.00     0.045 H 
ATOM      9  H3  MN0 d   1     -33.101  40.721  24.749  0.00  0.00     0.086 H 
ATOM     10  H5  MN0 d   1     -31.548  43.103  23.625  0.00  0.00     0.080 H 
ATOM     11  H7  MN0 d   1     -30.895  40.130  23.536  0.00  0.00     0.090 H 
ENDROOT
BRANCH   5  12
ATOM     12  C7  MN0 d   1     -29.398  41.458  22.739  0.00  0.00     0.089 C 
ATOM     13  H8  MN0 d   1     -28.767  41.285  23.623  0.00  0.00     0.091 H 
BRANCH  12  14
ATOM     14  O7  MN0 d   1     -29.297  42.839  22.353  0.00  0.00    -0.390 OA
ATOM     15  H9  MN0 d   1     -29.575  43.390  23.075  0.00  0.00     0.210 HD
ENDBRANCH  12  14
BRANCH  12  16
ATOM     16  C8  MN0 d   1     -28.903  40.557  21.595  0.00  0.00     0.083 C 
ATOM     17  H10 MN0 d   1     -29.335  40.927  20.654  0.00  0.00     0.090 H 
BRANCH  16  18
ATOM     18  O8  MN0 d   1     -29.329  39.205  21.800  0.00  0.00    -0.391 OA
ATOM     19  H11 MN0 d   1     -30.278  39.174  21.829  0.00  0.00     0.210 HD
ENDBRANCH  16  18
BRANCH  16  20
ATOM     20  C9  MN0 d   1     -27.382  40.578  21.473  0.00  0.00     0.043 C 
ATOM     21  H12 MN0 d   1     -26.928  40.193  22.398  0.00  0.00     0.078 H 
ATOM     22  H13 MN0 d   1     -27.036  41.607  21.296  0.00  0.00     0.078 H 
BRANCH  20  23
ATOM     23  O9  MN0 d   1     -27.015  39.748  20.372  0.00  0.00    -0.398 OA
ATOM     24  H14 MN0 d   1     -27.413  40.084  19.577  0.00  0.00     0.209 HD
ENDBRANCH  20  23
ENDBRANCH  16  20
ENDBRANCH  12  16
ENDBRANCH   5  12
BRANCH   4  25
ATOM     25  N5  MN0 d   1     -30.963  42.140  25.401  0.00  0.00    -0.350 N 
ATOM     26  C10 MN0 d   1     -30.006  43.014  25.748  0.00  0.00     0.241 C 
ATOM     27  O10 MN0 d   1     -29.517  43.846  24.989  0.00  0.00    -0.271 OA
ATOM     28  H6  MN0 d   1     -31.273  41.483  26.088  0.00  0.00     0.163 HD
BRANCH  26  29
ATOM     29  C11 MN0 d   1     -29.499  42.924  27.194  0.00  0.00     0.090 C 
ATOM     30  H15 MN0 d   1     -29.646  43.899  27.681  0.00  0.00     0.088 H 
ATOM     31  H16 MN0 d   1     -28.427  42.680  27.178  0.00  0.00     0.088 H 
BRANCH  29  32
ATOM     32  O11 MN0 d   1     -30.185  41.926  27.951  0.00  0.00    -0.392 OA
ATOM     33  H17 MN0 d   1     -29.839  41.907  28.835  0.00  0.00     0.210 HD
ENDBRANCH  29  32
ENDBRANCH  26  29
ENDBRANCH   4  25
BRANCH   3  34
ATOM     34  O4  MN0 d   1     -33.751  42.674  24.950  0.00  0.00    -0.393 OA
ATOM     35  H4  MN0 d   1     -33.313  42.799  25.784  0.00  0.00     0.210 HD
ENDBRANCH   3  34
BRANCH   1  36
ATOM     36  C1  MN0 d   1     -33.030  39.175  21.996  0.00  0.00     0.239 C 
ATOM     37  O1B MN0 d   1     -31.957  38.534  22.065  0.00  0.00    -0.644 OA
ATOM     38  O1A MN0 d   1     -34.170  38.674  22.032  0.00  0.00    -0.644 OA
ENDBRANCH   1  36
BRANCH   1  39
ATOM     39  O2  MN0 d   1     -33.524  41.036  20.519  0.00  0.00    -0.351 OA
BRANCH  39  40
ATOM     40  C12 MN0 d   1     -32.967  40.290  19.421  0.00  0.00     0.008 C 
ATOM     41  H18 MN0 d   1     -33.457  40.595  18.485  0.00  0.00     0.066 H 
ATOM     42  H19 MN0 d   1     -33.130  39.215  19.588  0.00  0.00     0.066 H 
ATOM     43  H20 MN0 d   1     -31.888  40.490  19.352  0.00  0.00     0.066 H 
ENDBRANCH  39  40
ENDBRANCH   1  39
TORSDOF 13
