REMARK  8 active torsions:
REMARK  status: ('A' for Active; 'I' for Inactive)
REMARK    1  A    between atoms: C1_1  and  C2_2 
REMARK    2  A    between atoms: C2_2  and  C3_3 
REMARK    3  A    between atoms: C2_2  and  N2_12 
REMARK    4  A    between atoms: C3_3  and  C4_4 
REMARK    5  A    between atoms: C4_4  and  C5_5 
REMARK    6  A    between atoms: C5_5  and  C6_6 
REMARK    7  A    between atoms: C6_6  and  C7_7 
REMARK    8  A    between atoms: C6_6  and  N6_13 
ROOT
ATOM      1  C4  API d   1      20.420   1.602  28.002  0.00  0.00    -0.060 C 
ATOM      2  H4  API d   1      20.267   0.607  28.445  0.00  0.00     0.033 H 
ATOM      3  H5  API d   1      21.229   1.552  27.258  0.00  0.00     0.033 H 
ENDROOT
BRANCH   1   4
ATOM      4  C3  API d   1      20.792   2.583  29.085  0.00  0.00    -0.029 C 
ATOM      5  H2  API d   1      21.525   3.291  28.672  0.00  0.00     0.036 H 
ATOM      6  H3  API d   1      19.884   3.127  29.384  0.00  0.00     0.036 H 
BRANCH   4   7
ATOM      7  C2  API d   1      21.415   1.920  30.368  0.00  0.00     0.182 C 
ATOM      8  H1  API d   1      20.644   1.380  30.936  0.00  0.00     0.101 H 
BRANCH   7   9
ATOM      9  C1  API d   1      22.549   1.009  30.002  0.00  0.00     0.204 C 
ATOM     10  O1  API d   1      23.570   1.579  29.507  0.00  0.00    -0.646 OA
ATOM     11  O2  API d   1      22.415  -0.228  30.164  0.00  0.00    -0.646 OA
ENDBRANCH   7   9
BRANCH   7  12
ATOM     12  N2  API d   1      22.020   2.984  31.158  0.00  0.00    -0.065 N 
ATOM     13  H9  API d   1      22.430   2.592  31.991  0.00  0.00     0.275 HD
ATOM     14  H10 API d   1      21.313   3.655  31.415  0.00  0.00     0.275 HD
ATOM     15  H11 API d   1      22.735   3.441  30.614  0.00  0.00     0.275 HD
ENDBRANCH   7  12
ENDBRANCH   4   7
ENDBRANCH   1   4
BRANCH   1  16
ATOM     16  C5  API d   1      19.093   2.076  27.303  0.00  0.00    -0.029 C 
ATOM     17  H6  API d   1      18.451   2.580  28.040  0.00  0.00     0.036 H 
ATOM     18  H7  API d   1      18.564   1.204  26.892  0.00  0.00     0.036 H 
BRANCH  16  19
ATOM     19  C6  API d   1      19.427   3.042  26.178  0.00  0.00     0.182 C 
ATOM     20  H8  API d   1      20.178   3.762  26.534  0.00  0.00     0.101 H 
BRANCH  19  21
ATOM     21  C7  API d   1      18.167   3.835  25.783  0.00  0.00     0.204 C 
ATOM     22  O3  API d   1      17.927   3.871  24.567  0.00  0.00    -0.646 OA
ATOM     23  O4  API d   1      17.407   4.411  26.581  0.00  0.00    -0.646 OA
ENDBRANCH  19  21
BRANCH  19  24
ATOM     24  N6  API d   1      20.025   2.262  25.078  0.00  0.00    -0.065 N 
ATOM     25  H12 API d   1      20.257   2.880  24.316  0.00  0.00     0.275 HD
ATOM     26  H13 API d   1      19.366   1.569  24.760  0.00  0.00     0.275 HD
ATOM     27  H14 API d   1      20.861   1.804  25.406  0.00  0.00     0.275 HD
ENDBRANCH  19  24
ENDBRANCH  16  19
ENDBRANCH   1  16
TORSDOF 8
