REMARK  7 active torsions:
REMARK  status: ('A' for Active; 'I' for Inactive)
REMARK    1  A    between atoms: CAV_22  and  CAX_24 
REMARK    2  A    between atoms: CBE_31  and  CAV_22 
REMARK    3  A    between atoms: CAY_25  and  CAW_23 
REMARK    4  A    between atoms: CAW_23  and  CBE_31 
REMARK       I    between atoms: NBC_29  and  CAY_25 
REMARK    5  A    between atoms: CBB_28  and  CAZ_26 
REMARK    6  A    between atoms: CBB_28  and  CBA_27 
REMARK    7  A    between atoms: CBB_28  and  NBD_30 
ROOT
ATOM      1  OAB 2CJ d   1       2.099  23.869   7.670  0.00  0.00    -0.273 OA
ATOM      2  CAP 2CJ d   1       2.836  27.293   6.988  0.00  0.00     0.020 C 
ATOM      3  CAQ 2CJ d   1       1.442  26.284   8.739  0.00  0.00     0.020 C 
ATOM      4  CAR 2CJ d   1       1.574  27.963   6.400  0.00  0.00     0.099 C 
ATOM      5  CAS 2CJ d   1       0.763  27.638   8.570  0.00  0.00     0.099 C 
ATOM      6  CAY 2CJ d   1       2.611  24.815   7.114  0.00  0.00     0.220 C 
ATOM      7  NBC 2CJ d   1       2.353  26.047   7.597  0.00  0.00    -0.349 N 
ATOM      8  NBD 2CJ d   1       0.337  27.696   7.175  0.00  0.00    -0.056 N 
ATOM      9  H15 2CJ d   1       3.300  27.940   7.747  0.00  0.00     0.066 H 
ATOM     10  H16 2CJ d   1       3.566  27.078   6.194  0.00  0.00     0.066 H 
ATOM     11  H17 2CJ d   1       0.679  25.492   8.771  0.00  0.00     0.066 H 
ATOM     12  H18 2CJ d   1       2.018  26.276   9.676  0.00  0.00     0.066 H 
ATOM     13  H19 2CJ d   1       1.429  27.590   5.376  0.00  0.00     0.078 H 
ATOM     14  H20 2CJ d   1       1.739  29.050   6.374  0.00  0.00     0.078 H 
ATOM     15  H21 2CJ d   1       1.470  28.451   8.789  0.00  0.00     0.078 H 
ATOM     16  H22 2CJ d   1      -0.106  27.717   9.240  0.00  0.00     0.078 H 
ATOM     17  H32 2CJ d   1      -0.126  26.844   6.899  0.00  0.00     0.281 HD
ENDROOT
BRANCH   8  18
ATOM     18  CBB 2CJ d   1      -0.488  28.870   6.899  0.00  0.00     0.154 C 
ATOM     19  H31 2CJ d   1       0.089  29.698   7.336  0.00  0.00     0.100 H 
BRANCH  18  20
ATOM     20  CAZ 2CJ d   1      -1.910  29.007   7.409  0.00  0.00    -0.023 A 
ATOM     21  CAJ 2CJ d   1      -2.152  29.865   8.419  0.00  0.00    -0.074 A 
ATOM     22  CAF 2CJ d   1      -3.411  30.113   8.877  0.00  0.00    -0.082 A 
ATOM     23  H7  2CJ d   1      -1.316  30.376   8.883  0.00  0.00     0.084 H 
ATOM     24  CAD 2CJ d   1      -4.453  29.517   8.257  0.00  0.00    -0.083 A 
ATOM     25  H3  2CJ d   1      -3.573  30.774   9.721  0.00  0.00     0.083 H 
ATOM     26  CAG 2CJ d   1      -4.215  28.675   7.212  0.00  0.00    -0.082 A 
ATOM     27  H1  2CJ d   1      -5.468  29.706   8.587  0.00  0.00     0.083 H 
ATOM     28  CAK 2CJ d   1      -2.953  28.440   6.753  0.00  0.00    -0.074 A 
ATOM     29  H4  2CJ d   1      -5.051  28.179   6.733  0.00  0.00     0.083 H 
ATOM     30  H8  2CJ d   1      -2.787  27.814   5.884  0.00  0.00     0.084 H 
ENDBRANCH  18  20
BRANCH  18  31
ATOM     31  CBA 2CJ d   1      -0.748  29.197   5.414  0.00  0.00    -0.023 A 
ATOM     32  CAL 2CJ d   1      -1.620  28.469   4.641  0.00  0.00    -0.074 A 
ATOM     33  CAH 2CJ d   1      -1.851  28.867   3.348  0.00  0.00    -0.082 A 
ATOM     34  H9  2CJ d   1      -2.117  27.595   5.046  0.00  0.00     0.084 H 
ATOM     35  CAE 2CJ d   1      -1.246  29.990   2.840  0.00  0.00    -0.083 A 
ATOM     36  H5  2CJ d   1      -2.519  28.288   2.720  0.00  0.00     0.083 H 
ATOM     37  CAI 2CJ d   1      -0.392  30.740   3.607  0.00  0.00    -0.082 A 
ATOM     38  H2  2CJ d   1      -1.446  30.288   1.817  0.00  0.00     0.083 H 
ATOM     39  CAM 2CJ d   1      -0.166  30.350   4.894  0.00  0.00    -0.074 A 
ATOM     40  H6  2CJ d   1       0.091  31.621   3.200  0.00  0.00     0.083 H 
ATOM     41  H10 2CJ d   1       0.480  30.950   5.525  0.00  0.00     0.084 H 
ENDBRANCH  18  31
ENDBRANCH   8  18
BRANCH   6  42
ATOM     42  CAW 2CJ d   1       3.504  24.494   5.929  0.00  0.00     0.017 C 
ATOM     43  H29 2CJ d   1       4.379  25.160   5.948  0.00  0.00     0.048 H 
ATOM     44  H30 2CJ d   1       2.939  24.657   4.999  0.00  0.00     0.048 H 
BRANCH  42  45
ATOM     45  CBE 2CJ d   1       3.993  23.009   5.975  0.00  0.00    -0.023 C 
ATOM     46  CAT 2CJ d   1       2.874  22.005   6.217  0.00  0.00    -0.057 C 
ATOM     47  CAN 2CJ d   1       2.691  21.342   4.852  0.00  0.00    -0.064 C 
ATOM     48  H23 2CJ d   1       3.166  21.266   6.978  0.00  0.00     0.034 H 
ATOM     49  H24 2CJ d   1       1.952  22.513   6.535  0.00  0.00     0.034 H 
ATOM     50  CAO 2CJ d   1       4.093  21.218   4.364  0.00  0.00    -0.064 C 
ATOM     51  H11 2CJ d   1       2.215  20.355   4.950  0.00  0.00     0.033 H 
ATOM     52  H12 2CJ d   1       2.091  21.973   4.181  0.00  0.00     0.033 H 
ATOM     53  CAU 2CJ d   1       4.551  22.641   4.652  0.00  0.00    -0.057 C 
ATOM     54  H13 2CJ d   1       4.140  20.975   3.292  0.00  0.00     0.033 H 
ATOM     55  H14 2CJ d   1       4.667  20.473   4.934  0.00  0.00     0.033 H 
ATOM     56  H25 2CJ d   1       4.173  23.325   3.878  0.00  0.00     0.034 H 
ATOM     57  H26 2CJ d   1       5.650  22.688   4.678  0.00  0.00     0.034 H 
BRANCH  45  58
ATOM     58  CAV 2CJ d   1       5.062  22.774   7.027  0.00  0.00     0.023 C 
ATOM     59  H27 2CJ d   1       5.457  23.752   7.340  0.00  0.00     0.050 H 
ATOM     60  H28 2CJ d   1       4.593  22.275   7.888  0.00  0.00     0.050 H 
BRANCH  58  61
ATOM     61  CAX 2CJ d   1       6.216  21.927   6.563  0.00  0.00     0.173 C 
ATOM     62  OAA 2CJ d   1       6.001  21.164   5.637  0.00  0.00    -0.648 OA
ATOM     63  OAC 2CJ d   1       7.281  21.994   7.185  0.00  0.00    -0.648 OA
ENDBRANCH  58  61
ENDBRANCH  45  58
ENDBRANCH  42  45
ENDBRANCH   6  42
TORSDOF 7
