REMARK  6 active torsions:
REMARK  status: ('A' for Active; 'I' for Inactive)
REMARK    1  A    between atoms: CAQ_18  and  NAR_19 
REMARK    2  A    between atoms: CBB_29  and  CAQ_18 
REMARK       I    between atoms: NAR_19  and  CAU_22 
REMARK    3  A    between atoms: SAS_20  and  CAX_25 
REMARK    4  A    between atoms: CAY_26  and  SAS_20 
REMARK    5  A    between atoms: CAZ_27  and  CAT_21 
REMARK    6  A    between atoms: CAU_22  and  CBA_28 
ROOT
ATOM      1 CLAE 03L d   1      -3.939 -30.338   4.634  0.00  0.00    -0.084 Cl
ATOM      2  CAH 03L d   1      -0.153 -31.083   3.908  0.00  0.00    -0.080 A 
ATOM      3  CAI 03L d   1      -1.526 -31.189   3.960  0.00  0.00    -0.061 A 
ATOM      4  CAJ 03L d   1       0.480 -29.991   4.481  0.00  0.00    -0.066 A 
ATOM      5  CAW 03L d   1      -2.269 -30.203   4.583  0.00  0.00     0.043 A 
ATOM      6  CAY 03L d   1      -0.265 -29.001   5.103  0.00  0.00     0.015 A 
ATOM      7  CBB 03L d   1      -1.643 -29.102   5.153  0.00  0.00    -0.002 A 
ATOM      8  H3  03L d   1       0.432 -31.854   3.419  0.00  0.00     0.083 H 
ATOM      9  H4  03L d   1      -2.022 -32.043   3.514  0.00  0.00     0.086 H 
ATOM     10  H5  03L d   1       1.560 -29.911   4.443  0.00  0.00     0.085 H 
ENDROOT
BRANCH   7  11
ATOM     11  CAQ 03L d   1      -2.468 -28.051   5.839  0.00  0.00     0.022 C 
ATOM     12  H11 03L d   1      -1.791 -27.311   6.291  0.00  0.00     0.071 H 
ATOM     13  H12 03L d   1      -3.103 -27.557   5.089  0.00  0.00     0.071 H 
BRANCH  11  14
ATOM     14  NAR 03L d   1      -3.325 -28.605   6.888  0.00  0.00    -0.352 N 
ATOM     15  CAU 03L d   1      -4.716 -28.292   6.972  0.00  0.00     0.253 C 
ATOM     16  OAB 03L d   1      -5.248 -27.517   6.149  0.00  0.00    -0.268 OA
ATOM     17  H13 03L d   1      -2.925 -29.221   7.566  0.00  0.00     0.163 HD
BRANCH  15  18
ATOM     18  CBA 03L d   1      -5.565 -28.956   8.102  0.00  0.00     0.049 A 
ATOM     19  CAL 03L d   1      -5.564 -30.342   8.180  0.00  0.00    -0.067 A 
ATOM     20  CAG 03L d   1      -6.306 -30.982   9.162  0.00  0.00    -0.082 A 
ATOM     21  H7  03L d   1      -4.983 -30.924   7.474  0.00  0.00     0.085 H 
ATOM     22  CAF 03L d   1      -7.044 -30.228  10.063  0.00  0.00    -0.082 A 
ATOM     23  H2  03L d   1      -6.309 -32.064   9.225  0.00  0.00     0.083 H 
ATOM     24  CAK 03L d   1      -7.049 -28.841   9.985  0.00  0.00    -0.065 A 
ATOM     25  H1  03L d   1      -7.621 -30.725  10.834  0.00  0.00     0.083 H 
ATOM     26  CAZ 03L d   1      -6.308 -28.200   9.005  0.00  0.00     0.056 A 
ATOM     27  H6  03L d   1      -7.632 -28.260  10.691  0.00  0.00     0.085 H 
BRANCH  26  28
ATOM     28  CAT 03L d   1      -6.324 -26.675   8.934  0.00  0.00     0.210 C 
ATOM     29  OAA 03L d   1      -5.231 -26.021   8.890  0.00  0.00    -0.644 OA
ATOM     30  OAC 03L d   1      -7.450 -26.051   8.921  0.00  0.00    -0.644 OA
ENDBRANCH  26  28
ENDBRANCH  15  18
ENDBRANCH  11  14
ENDBRANCH   7  11
BRANCH   6  31
ATOM     31  SAS 03L d   1       0.578 -27.611   5.833  0.00  0.00    -0.088 SA
BRANCH  31  32
ATOM     32  CAX 03L d   1       1.808 -28.325   6.863  0.00  0.00     0.027 A 
ATOM     33  CAO 03L d   1       3.143 -28.318   6.515  0.00  0.00    -0.063 A 
ATOM     34  CAM 03L d   1       4.064 -28.903   7.362  0.00  0.00    -0.061 A 
ATOM     35  H10 03L d   1       3.465 -27.859   5.588  0.00  0.00     0.085 H 
ATOM     36  CAV 03L d   1       3.640 -29.496   8.542  0.00  0.00     0.035 A 
ATOM     37  H8  03L d   1       5.117 -28.899   7.105  0.00  0.00     0.086 H 
ATOM     38 CLAD 03L d   1       4.782 -30.221   9.592  0.00  0.00    -0.084 Cl
ATOM     39  CAN 03L d   1       2.300 -29.506   8.881  0.00  0.00    -0.040 A 
ATOM     40  CAP 03L d   1       1.386 -28.919   8.033  0.00  0.00     0.052 A 
ATOM     41  H9  03L d   1       1.972 -29.971   9.804  0.00  0.00     0.088 H 
ATOM     42 CLAF 03L d   1      -0.294 -28.892   8.400  0.00  0.00    -0.083 Cl
ENDBRANCH  31  32
ENDBRANCH   6  31
TORSDOF 6
