REMARK  11 active torsions:
REMARK  status: ('A' for Active; 'I' for Inactive)
REMARK    1  A    between atoms: CAT_20  and  CAA_1 
REMARK    2  A    between atoms: CAK_11  and  OAD_4 
REMARK    3  A    between atoms: CAW_23  and  OAE_5 
REMARK    4  A    between atoms: CAL_12  and  CAK_11 
REMARK    5  A    between atoms: CAM_13  and  CAL_12 
REMARK    6  A    between atoms: CAU_21  and  CAM_13 
REMARK    7  A    between atoms: CAN_14  and  NAP_16 
REMARK    8  A    between atoms: CAY_25  and  CAN_14 
REMARK    9  A    between atoms: CAO_15  and  OAS_19 
REMARK   10  A    between atoms: CAV_22  and  CAO_15 
REMARK   11  A    between atoms: OAS_19  and  PBA_27 
ROOT
ATOM      1  CAN PL8 d   1      21.792  -6.787 -28.613  0.00  0.00     0.043 C 
ATOM      2  H15 PL8 d   1      21.935  -6.104 -27.762  0.00  0.00     0.074 H 
ATOM      3  H16 PL8 d   1      22.104  -6.286 -29.541  0.00  0.00     0.074 H 
ENDROOT
BRANCH   1   4
ATOM      4  NAP PL8 d   1      20.358  -7.072 -28.720  0.00  0.00    -0.280 NA
ATOM      5  CAX PL8 d   1      19.575  -6.144 -29.267  0.00  0.00     0.121 A 
ATOM      6  CAI PL8 d   1      20.106  -4.940 -29.719  0.00  0.00    -0.048 A 
ATOM      7  CAZ PL8 d   1      18.209  -6.395 -29.319  0.00  0.00     0.295 A 
ATOM      8  CAH PL8 d   1      19.275  -3.974 -30.274  0.00  0.00    -0.057 A 
ATOM      9  H7  PL8 d   1      21.176  -4.754 -29.638  0.00  0.00     0.087 H 
ATOM     10  CAU PL8 d   1      17.905  -4.208 -30.344  0.00  0.00     0.038 A 
ATOM     11  H6  PL8 d   1      19.693  -3.042 -30.651  0.00  0.00     0.086 H 
ATOM     12  NAQ PL8 d   1      17.369  -5.418 -29.872  0.00  0.00    -0.213 NA
ATOM     13  OAB PL8 d   1      17.739  -7.454 -28.902  0.00  0.00    -0.264 OA
BRANCH  10  14
ATOM     14  CAM PL8 d   1      17.060  -3.254 -30.902  0.00  0.00    -0.023 C 
ATOM     15  H13 PL8 d   1      17.633  -2.630 -31.604  0.00  0.00     0.042 H 
ATOM     16  H14 PL8 d   1      16.247  -3.762 -31.442  0.00  0.00     0.042 H 
BRANCH  14  17
ATOM     17  CAL PL8 d   1      16.462  -2.366 -29.815  0.00  0.00    -0.040 C 
ATOM     18  H11 PL8 d   1      15.900  -2.986 -29.102  0.00  0.00     0.036 H 
ATOM     19  H12 PL8 d   1      17.269  -1.839 -29.286  0.00  0.00     0.036 H 
BRANCH  17  20
ATOM     20  CAK PL8 d   1      15.518  -1.343 -30.460  0.00  0.00     0.017 C 
ATOM     21  H9  PL8 d   1      16.082  -0.716 -31.166  0.00  0.00     0.073 H 
ATOM     22  H10 PL8 d   1      14.716  -1.870 -30.997  0.00  0.00     0.073 H 
BRANCH  20  23
ATOM     23  OAD PL8 d   1      14.947  -0.517 -29.434  0.00  0.00    -0.401 OA
ATOM     24  H4  PL8 d   1      15.642  -0.064 -28.971  0.00  0.00     0.209 HD
ENDBRANCH  20  23
ENDBRANCH  17  20
ENDBRANCH  14  17
ENDBRANCH  10  14
ENDBRANCH   1   4
BRANCH   1  25
ATOM     25  CAY PL8 d   1      22.631  -7.886 -28.421  0.00  0.00     0.007 A 
ATOM     26  CAV PL8 d   1      23.975  -7.589 -28.300  0.00  0.00    -0.006 A 
ATOM     27  CAJ PL8 d   1      24.898  -8.611 -28.121  0.00  0.00     0.011 A 
ATOM     28  NAR PL8 d   1      24.467  -9.945 -28.049  0.00  0.00    -0.262 NA
ATOM     29  H8  PL8 d   1      25.953  -8.378 -28.037  0.00  0.00     0.115 H 
ATOM     30  CAT PL8 d   1      23.166 -10.245 -28.156  0.00  0.00     0.064 A 
ATOM     31  CAW PL8 d   1      22.244  -9.223 -28.343  0.00  0.00     0.098 A 
BRANCH  26  32
ATOM     32  CAO PL8 d   1      24.365  -6.253 -28.395  0.00  0.00     0.058 C 
ATOM     33  H17 PL8 d   1      25.370  -6.207 -28.841  0.00  0.00     0.082 H 
ATOM     34  H18 PL8 d   1      23.652  -5.720 -29.041  0.00  0.00     0.082 H 
BRANCH  32  35
ATOM     35  OAS PL8 d   1      24.397  -5.612 -27.114  0.00  0.00    -0.278 OA
BRANCH  35  36
ATOM     36  PBA PL8 d   1      24.018  -4.033 -27.027  0.00  0.00     0.422 P 
ATOM     37  OAC PL8 d   1      22.825  -3.701 -28.044  0.00  0.00    -0.617 OA
ATOM     38  OAF PL8 d   1      25.319  -3.246 -27.544  0.00  0.00    -0.617 OA
ATOM     39  OAG PL8 d   1      23.674  -3.621 -25.637  0.00  0.00    -0.617 OA
ENDBRANCH  35  36
ENDBRANCH  32  35
ENDBRANCH  26  32
BRANCH  30  40
ATOM     40  CAA PL8 d   1      22.748 -11.574 -28.081  0.00  0.00    -0.033 C 
ATOM     41  H1  PL8 d   1      21.654 -11.621 -28.189  0.00  0.00     0.035 H 
ATOM     42  H2  PL8 d   1      23.039 -11.995 -27.107  0.00  0.00     0.035 H 
ATOM     43  H3  PL8 d   1      23.221 -12.153 -28.887  0.00  0.00     0.035 H 
ENDBRANCH  30  40
BRANCH  31  44
ATOM     44  OAE PL8 d   1      20.932  -9.562 -28.448  0.00  0.00    -0.358 OA
ATOM     45  H5  PL8 d   1      20.412  -8.777 -28.572  0.00  0.00     0.217 HD
ENDBRANCH  31  44
ENDBRANCH   1  25
TORSDOF 11
