REMARK  13 active torsions:
REMARK  status: ('A' for Active; 'I' for Inactive)
REMARK    1  A    between atoms: N10_10  and  C14_14 
REMARK    2  A    between atoms: C11_11  and  C13_13 
REMARK    3  A    between atoms: C14_14  and  C17_17 
REMARK    4  A    between atoms: C17_17  and  C18_18 
REMARK    5  A    between atoms: C17_17  and  O30_30 
REMARK    6  A    between atoms: C18_18  and  N19_19 
REMARK    7  A    between atoms: C18_18  and  C20_20 
REMARK       I    between atoms: N19_19  and  C27_27 
REMARK    8  A    between atoms: C20_20  and  C21_21 
REMARK    9  A    between atoms: C27_27  and  O29_29 
REMARK   10  A    between atoms: O29_29  and  C31_31 
REMARK   11  A    between atoms: C31_31  and  C32_32 
REMARK   12  A    between atoms: C31_31  and  C33_33 
REMARK   13  A    between atoms: C31_31  and  C34_34 
ROOT
ATOM      1  C18 9Y9 d   1      11.976  23.700   4.436  0.00  0.00     0.044 C 
ATOM      2  H15 9Y9 d   1      11.723  22.721   4.870  0.00  0.00     0.077 H 
ENDROOT
BRANCH   1   3
ATOM      3  C17 9Y9 d   1      13.464  23.921   4.709  0.00  0.00     0.071 C 
ATOM      4  H14 9Y9 d   1      13.530  24.047   5.800  0.00  0.00     0.088 H 
BRANCH   3   5
ATOM      5  C14 9Y9 d   1      14.472  22.832   4.399  0.00  0.00     0.031 C 
ATOM      6  H12 9Y9 d   1      14.377  22.535   3.344  0.00  0.00     0.069 H 
ATOM      7  H13 9Y9 d   1      15.488  23.211   4.583  0.00  0.00     0.069 H 
BRANCH   5   8
ATOM      8  N10 9Y9 d   1      14.221  21.664   5.262  0.00  0.00    -0.304 N 
ATOM      9  S8  9Y9 d   1      13.717  20.236   4.580  0.00  0.00     0.261 S 
ATOM     10  C7  9Y9 d   1      15.193  19.505   3.975  0.00  0.00     0.086 A 
ATOM     11  O15 9Y9 d   1      13.293  19.386   5.632  0.00  0.00    -0.200 OA
ATOM     12  O16 9Y9 d   1      12.837  20.589   3.497  0.00  0.00    -0.200 OA
ATOM     13  C4  9Y9 d   1      15.211  19.138   2.608  0.00  0.00    -0.057 A 
ATOM     14  C6  9Y9 d   1      16.299  19.301   4.864  0.00  0.00    -0.032 A 
ATOM     15  C1  9Y9 d   1      16.356  18.550   2.036  0.00  0.00    -0.044 A 
ATOM     16  H3  9Y9 d   1      14.334  19.311   1.995  0.00  0.00     0.086 H 
ATOM     17  C2  9Y9 d   1      17.445  18.367   2.885  0.00  0.00     0.117 A 
ATOM     18  H1  9Y9 d   1      16.388  18.256   0.993  0.00  0.00     0.088 H 
ATOM     19  C3  9Y9 d   1      17.447  18.715   4.263  0.00  0.00    -0.038 A 
ATOM     20  F5  9Y9 d   1      18.519  17.827   2.430  0.00  0.00    -0.206 F 
ATOM     21  H2  9Y9 d   1      18.332  18.532   4.862  0.00  0.00     0.089 H 
ATOM     22  C9  9Y9 d   1      16.342  19.683   6.345  0.00  0.00    -0.035 C 
ATOM     23  C11 9Y9 d   1      16.189  21.175   6.678  0.00  0.00    -0.038 C 
ATOM     24  H4  9Y9 d   1      17.310  19.349   6.747  0.00  0.00     0.040 H 
ATOM     25  H5  9Y9 d   1      15.529  19.143   6.852  0.00  0.00     0.040 H 
ATOM     26  C12 9Y9 d   1      14.770  21.700   6.619  0.00  0.00     0.009 C 
ATOM     27  H6  9Y9 d   1      16.802  21.733   5.955  0.00  0.00     0.042 H 
ATOM     28  H7  9Y9 d   1      14.137  21.083   7.273  0.00  0.00     0.066 H 
ATOM     29  H8  9Y9 d   1      14.762  22.740   6.976  0.00  0.00     0.066 H 
BRANCH  23  30
ATOM     30  C13 9Y9 d   1      16.663  21.515   8.126  0.00  0.00    -0.071 C 
ATOM     31  H9  9Y9 d   1      17.697  21.167   8.264  0.00  0.00     0.028 H 
ATOM     32  H10 9Y9 d   1      16.007  21.015   8.854  0.00  0.00     0.028 H 
ATOM     33  H11 9Y9 d   1      16.619  22.603   8.280  0.00  0.00     0.028 H 
ENDBRANCH  23  30
ENDBRANCH   5   8
ENDBRANCH   3   5
BRANCH   3  34
ATOM     34  O30 9Y9 d   1      13.860  25.163   4.135  0.00  0.00    -0.392 OA
ATOM     35  H24 9Y9 d   1      13.705  25.141   3.198  0.00  0.00     0.210 HD
ENDBRANCH   3  34
ENDBRANCH   1   3
BRANCH   1  36
ATOM     36  N19 9Y9 d   1      11.175  24.725   5.181  0.00  0.00    -0.329 N 
ATOM     37  C27 9Y9 d   1      10.698  24.476   6.430  0.00  0.00     0.361 C 
ATOM     38  O28 9Y9 d   1      10.896  23.414   7.055  0.00  0.00    -0.238 OA
ATOM     39  H16 9Y9 d   1      10.988  25.608   4.752  0.00  0.00     0.165 HD
BRANCH  37  40
ATOM     40  O29 9Y9 d   1      10.009  25.559   6.871  0.00  0.00    -0.294 OA
BRANCH  40  41
ATOM     41  C31 9Y9 d   1       9.527  25.660   8.245  0.00  0.00     0.061 C 
BRANCH  41  42
ATOM     42  C32 9Y9 d   1      10.717  25.658   9.224  0.00  0.00    -0.048 C 
ATOM     43  H25 9Y9 d   1      10.343  25.734  10.256  0.00  0.00     0.031 H 
ATOM     44  H26 9Y9 d   1      11.372  26.515   9.007  0.00  0.00     0.031 H 
ATOM     45  H27 9Y9 d   1      11.285  24.723   9.108  0.00  0.00     0.031 H 
ENDBRANCH  41  42
BRANCH  41  46
ATOM     46  C33 9Y9 d   1       8.821  27.027   8.309  0.00  0.00    -0.048 C 
ATOM     47  H28 9Y9 d   1       8.423  27.187   9.322  0.00  0.00     0.031 H 
ATOM     48  H29 9Y9 d   1       7.995  27.047   7.583  0.00  0.00     0.031 H 
ATOM     49  H30 9Y9 d   1       9.541  27.823   8.068  0.00  0.00     0.031 H 
ENDBRANCH  41  46
BRANCH  41  50
ATOM     50  C34 9Y9 d   1       8.512  24.575   8.553  0.00  0.00    -0.048 C 
ATOM     51  H31 9Y9 d   1       8.169  24.678   9.593  0.00  0.00     0.031 H 
ATOM     52  H32 9Y9 d   1       8.978  23.588   8.417  0.00  0.00     0.031 H 
ATOM     53  H33 9Y9 d   1       7.653  24.672   7.872  0.00  0.00     0.031 H 
ENDBRANCH  41  50
ENDBRANCH  40  41
ENDBRANCH  37  40
ENDBRANCH   1  36
BRANCH   1  54
ATOM     54  C20 9Y9 d   1      11.592  23.608   2.953  0.00  0.00    -0.020 C 
ATOM     55  H17 9Y9 d   1      12.166  22.800   2.476  0.00  0.00     0.043 H 
ATOM     56  H18 9Y9 d   1      11.819  24.563   2.456  0.00  0.00     0.043 H 
BRANCH  54  57
ATOM     57  C21 9Y9 d   1      10.152  23.323   2.831  0.00  0.00    -0.056 A 
ATOM     58  C22 9Y9 d   1       9.689  21.995   3.008  0.00  0.00    -0.077 A 
ATOM     59  C23 9Y9 d   1       8.317  21.748   2.904  0.00  0.00    -0.082 A 
ATOM     60  H19 9Y9 d   1      10.383  21.189   3.219  0.00  0.00     0.084 H 
ATOM     61  C24 9Y9 d   1       7.411  22.816   2.649  0.00  0.00    -0.083 A 
ATOM     62  H20 9Y9 d   1       7.941  20.738   3.018  0.00  0.00     0.083 H 
ATOM     63  C25 9Y9 d   1       7.885  24.123   2.474  0.00  0.00    -0.082 A 
ATOM     64  H21 9Y9 d   1       6.347  22.617   2.590  0.00  0.00     0.083 H 
ATOM     65  C26 9Y9 d   1       9.264  24.394   2.563  0.00  0.00    -0.077 A 
ATOM     66  H22 9Y9 d   1       7.188  24.928   2.269  0.00  0.00     0.083 H 
ATOM     67  H23 9Y9 d   1       9.639  25.402   2.429  0.00  0.00     0.084 H 
ENDBRANCH  54  57
ENDBRANCH   1  54
TORSDOF 13
