REMARK  9 active torsions:
REMARK  status: ('A' for Active; 'I' for Inactive)
REMARK    1  A    between atoms: O3A_8  and  PB_1 
REMARK    2  A    between atoms: PA_5  and  O3A_8 
REMARK    3  A    between atoms: PA_5  and  O5'_9 
REMARK    4  A    between atoms: O5'_9  and  C5'_10 
REMARK    5  A    between atoms: C5'_10  and  C4'_11 
REMARK    6  A    between atoms: C3'_13  and  O3'_14 
REMARK    7  A    between atoms: C2'_15  and  O2'_16 
REMARK    8  A    between atoms: C1'_17  and  N9_18 
REMARK    9  A    between atoms: C6_22  and  N6_23 
ROOT
ATOM      1  C4' ADP d   1      34.731   0.991 -13.797  0.00  0.00     0.089 C 
ATOM      2  O4' ADP d   1      35.348   0.424 -14.936  0.00  0.00    -0.353 OA
ATOM      3  C3' ADP d   1      35.694   1.981 -13.202  0.00  0.00     0.091 C 
ATOM      4  C2' ADP d   1      36.679   2.209 -14.220  0.00  0.00     0.105 C 
ATOM      5  C1' ADP d   1      36.671   0.971 -15.057  0.00  0.00     0.139 C 
ATOM      6  H3  ADP d   1      34.591   0.185 -13.062  0.00  0.00     0.090 H 
ATOM      7  H4  ADP d   1      35.157   2.915 -12.980  0.00  0.00     0.091 H 
ATOM      8  H6  ADP d   1      36.369   3.066 -14.835  0.00  0.00     0.093 H 
ATOM      9  H8  ADP d   1      37.406   0.262 -14.649  0.00  0.00     0.122 H 
ENDROOT
BRANCH   5  10
ATOM     10  N9  ADP d   1      36.986   1.189 -16.459  0.00  0.00    -0.294 N 
ATOM     11  C8  ADP d   1      36.260   1.924 -17.325  0.00  0.00     0.071 A 
ATOM     12  N7  ADP d   1      36.850   1.888 -18.531  0.00  0.00    -0.236 NA
ATOM     13  H9  ADP d   1      35.343   2.460 -17.085  0.00  0.00     0.144 H 
ATOM     14  C5  ADP d   1      37.967   1.120 -18.415  0.00  0.00     0.149 A 
ATOM     15  C6  ADP d   1      38.955   0.738 -19.327  0.00  0.00     0.155 A 
ATOM     16  C4  ADP d   1      38.059   0.674 -17.105  0.00  0.00     0.167 A 
ATOM     17  N1  ADP d   1      39.966  -0.044 -18.922  0.00  0.00    -0.222 NA
ATOM     18  C2  ADP d   1      40.027  -0.463 -17.643  0.00  0.00     0.091 A 
ATOM     19  N3  ADP d   1      39.092  -0.118 -16.738  0.00  0.00    -0.222 NA
ATOM     20  H12 ADP d   1      40.852  -1.095 -17.334  0.00  0.00     0.146 H 
BRANCH  15  21
ATOM     21  N6  ADP d   1      38.889   1.170 -20.667  0.00  0.00    -0.382 N 
ATOM     22  H10 ADP d   1      39.619   0.886 -21.336  0.00  0.00     0.157 HD
ATOM     23  H11 ADP d   1      38.111   1.769 -20.977  0.00  0.00     0.157 HD
ENDBRANCH  15  21
ENDBRANCH   5  10
BRANCH   4  24
ATOM     24  O2' ADP d   1      37.949   2.490 -13.707  0.00  0.00    -0.388 OA
ATOM     25  H7  ADP d   1      37.906   3.272 -13.169  0.00  0.00     0.210 HD
ENDBRANCH   4  24
BRANCH   1  26
ATOM     26  C5' ADP d   1      33.352   1.562 -14.070  0.00  0.00     0.058 C 
ATOM     27  H1  ADP d   1      32.829   0.842 -14.716  0.00  0.00     0.079 H 
ATOM     28  H2  ADP d   1      32.835   1.629 -13.101  0.00  0.00     0.079 H 
BRANCH  26  29
ATOM     29  O5' ADP d   1      33.239   2.807 -14.677  0.00  0.00    -0.287 OA
BRANCH  29  30
ATOM     30  PA  ADP d   1      31.866   3.511 -14.989  0.00  0.00     0.418 P 
ATOM     31  O1A ADP d   1      31.561   2.179 -15.654  0.00  0.00    -0.624 OA
ATOM     32  O2A ADP d   1      32.616   4.578 -15.865  0.00  0.00    -0.624 OA
BRANCH  30  33
ATOM     33  O3A ADP d   1      31.752   3.761 -13.440  0.00  0.00    -0.173 OA
BRANCH  33  34
ATOM     34  PB  ADP d   1      30.676   4.835 -12.989  0.00  0.00     0.431 P 
ATOM     35  O1B ADP d   1      29.912   5.337 -14.171  0.00  0.00    -0.616 OA
ATOM     36  O2B ADP d   1      29.715   4.172 -12.020  0.00  0.00    -0.616 OA
ATOM     37  O3B ADP d   1      31.361   5.948 -12.268  0.00  0.00    -0.616 OA
ENDBRANCH  33  34
ENDBRANCH  30  33
ENDBRANCH  29  30
ENDBRANCH  26  29
ENDBRANCH   1  26
BRANCH   3  38
ATOM     38  O3' ADP d   1      36.323   1.548 -12.029  0.00  0.00    -0.390 OA
ATOM     39  H5  ADP d   1      36.817   0.756 -12.209  0.00  0.00     0.210 HD
ENDBRANCH   3  38
TORSDOF 9
