REMARK  4 active torsions:
REMARK  status: ('A' for Active; 'I' for Inactive)
REMARK    1  A    between atoms: N_1  and  CA_2 
REMARK    2  A    between atoms: CA_2  and  C_3 
REMARK    3  A    between atoms: CA_2  and  CB_5 
REMARK    4  A    between atoms: CB_5  and  CG_6 
ROOT
ATOM      1  CB  PHE d   1       5.993  -8.265 -14.659  0.00  0.00    -0.005 C 
ATOM      2  H5  PHE d   1       6.965  -8.295 -14.144  0.00  0.00     0.044 H 
ATOM      3  H6  PHE d   1       5.584  -9.284 -14.730  0.00  0.00     0.044 H 
ENDROOT
BRANCH   1   4
ATOM      4  CA  PHE d   1       6.195  -7.713 -16.065  0.00  0.00     0.186 C 
ATOM      5  H4  PHE d   1       6.277  -6.617 -16.015  0.00  0.00     0.101 H 
BRANCH   4   6
ATOM      6  N   PHE d   1       5.091  -8.066 -17.010  0.00  0.00    -0.065 N 
ATOM      7  H1  PHE d   1       4.225  -7.670 -16.678  0.00  0.00     0.275 HD
ATOM      8  H2  PHE d   1       5.003  -9.069 -17.065  0.00  0.00     0.275 HD
ATOM      9  H3  PHE d   1       5.300  -7.697 -17.924  0.00  0.00     0.275 HD
ENDBRANCH   4   6
BRANCH   4  10
ATOM     10  C   PHE d   1       7.498  -8.311 -16.569  0.00  0.00     0.204 C 
ATOM     11  O   PHE d   1       8.477  -8.464 -15.812  0.00  0.00    -0.646 OA
ATOM     12  OXT PHE d   1       7.600  -8.665 -17.713  0.00  0.00    -0.646 OA
ENDBRANCH   4  10
ENDBRANCH   1   4
BRANCH   1  13
ATOM     13  CG  PHE d   1       5.051  -7.418 -13.868  0.00  0.00    -0.056 A 
ATOM     14  CD1 PHE d   1       3.696  -7.815 -13.720  0.00  0.00    -0.077 A 
ATOM     15  CE1 PHE d   1       2.804  -6.995 -13.024  0.00  0.00    -0.082 A 
ATOM     16  H7  PHE d   1       3.354  -8.752 -14.146  0.00  0.00     0.084 H 
ATOM     17  CZ  PHE d   1       3.250  -5.776 -12.483  0.00  0.00    -0.083 A 
ATOM     18  H9  PHE d   1       1.770  -7.298 -12.901  0.00  0.00     0.083 H 
ATOM     19  CE2 PHE d   1       4.601  -5.386 -12.640  0.00  0.00    -0.082 A 
ATOM     20  H11 PHE d   1       2.559  -5.136 -11.946  0.00  0.00     0.083 H 
ATOM     21  CD2 PHE d   1       5.527  -6.214 -13.329  0.00  0.00    -0.077 A 
ATOM     22  H10 PHE d   1       4.935  -4.441 -12.228  0.00  0.00     0.083 H 
ATOM     23  H8  PHE d   1       6.566  -5.925 -13.435  0.00  0.00     0.084 H 
ENDBRANCH   1  13
TORSDOF 4
