REMARK  16 active torsions:
REMARK  status: ('A' for Active; 'I' for Inactive)
REMARK    1  A    between atoms: C2_2  and  N1_1 
REMARK    2  A    between atoms: S8_8  and  C5_5 
REMARK    3  A    between atoms: N11_11  and  S8_8 
REMARK    4  A    between atoms: N11_11  and  C12_12 
REMARK    5  A    between atoms: C16_16  and  N11_11 
REMARK    6  A    between atoms: C12_12  and  C13_13 
REMARK    7  A    between atoms: C13_13  and  C14_14 
REMARK    8  A    between atoms: C13_13  and  C15_15 
REMARK    9  A    between atoms: C17_17  and  C16_16 
REMARK   10  A    between atoms: C17_17  and  O18_18 
REMARK   11  A    between atoms: C19_19  and  C17_17 
REMARK   12  A    between atoms: C19_19  and  N20_20 
REMARK   13  A    between atoms: C32_32  and  C19_19 
REMARK       I    between atoms: N20_20  and  C21_21 
REMARK   14  A    between atoms: C21_21  and  O23_23 
REMARK   15  A    between atoms: O23_23  and  C24_24 
REMARK   16  A    between atoms: C38_38  and  C32_32 
ROOT
ATOM      1  C19 017 d   1     -11.650  19.388 -18.559  0.00  0.00     0.044 C 
ATOM      2  H20 017 d   1     -11.274  20.306 -18.083  0.00  0.00     0.077 H 
ENDROOT
BRANCH   1   3
ATOM      3  C17 017 d   1     -13.162  19.255 -18.317  0.00  0.00     0.071 C 
ATOM      4  H18 017 d   1     -13.336  19.040 -17.252  0.00  0.00     0.088 H 
BRANCH   3   5
ATOM      5  C16 017 d   1     -13.934  20.521 -18.683  0.00  0.00     0.031 C 
ATOM      6  H16 017 d   1     -13.601  20.872 -19.671  0.00  0.00     0.069 H 
ATOM      7  H17 017 d   1     -15.009  20.289 -18.719  0.00  0.00     0.069 H 
BRANCH   5   8
ATOM      8  N11 017 d   1     -13.706  21.572 -17.702  0.00  0.00    -0.304 N 
BRANCH   8   9
ATOM      9  S8  017 d   1     -12.969  22.862 -18.361  0.00  0.00     0.260 S 
ATOM     10  O9  017 d   1     -11.975  22.361 -19.354  0.00  0.00    -0.200 OA
ATOM     11  O10 017 d   1     -12.361  23.691 -17.277  0.00  0.00    -0.200 OA
BRANCH   9  12
ATOM     12  C5  017 d   1     -14.145  23.866 -19.195  0.00  0.00     0.079 A 
ATOM     13  C4  017 d   1     -14.647  23.518 -20.438  0.00  0.00    -0.058 A 
ATOM     14  C3  017 d   1     -15.582  24.347 -21.068  0.00  0.00    -0.056 A 
ATOM     15  H4  017 d   1     -14.316  22.606 -20.922  0.00  0.00     0.086 H 
ATOM     16  C2  017 d   1     -15.999  25.512 -20.436  0.00  0.00     0.025 A 
ATOM     17  H3  017 d   1     -15.978  24.082 -22.042  0.00  0.00     0.086 H 
ATOM     18  C7  017 d   1     -15.481  25.845 -19.181  0.00  0.00    -0.056 A 
ATOM     19  C6  017 d   1     -14.551  25.022 -18.555  0.00  0.00    -0.058 A 
ATOM     20  H6  017 d   1     -15.808  26.755 -18.690  0.00  0.00     0.086 H 
ATOM     21  H5  017 d   1     -14.151  25.283 -17.582  0.00  0.00     0.086 H 
BRANCH  16  22
ATOM     22  N1  017 d   1     -16.875  26.195 -21.131  0.00  0.00    -0.399 N 
ATOM     23  H1  017 d   1     -17.185  25.849 -22.050  0.00  0.00     0.156 HD
ATOM     24  H2  017 d   1     -17.253  27.078 -20.758  0.00  0.00     0.156 HD
ENDBRANCH  16  22
ENDBRANCH   9  12
ENDBRANCH   8   9
BRANCH   8  25
ATOM     25  C12 017 d   1     -14.800  21.823 -16.795  0.00  0.00     0.008 C 
ATOM     26  H7  017 d   1     -15.752  21.721 -17.336  0.00  0.00     0.066 H 
ATOM     27  H8  017 d   1     -14.714  22.843 -16.393  0.00  0.00     0.066 H 
BRANCH  25  28
ATOM     28  C13 017 d   1     -14.762  20.819 -15.642  0.00  0.00    -0.045 C 
ATOM     29  H9  017 d   1     -14.884  19.813 -16.070  0.00  0.00     0.041 H 
BRANCH  28  30
ATOM     30  C14 017 d   1     -13.403  20.861 -14.923  0.00  0.00    -0.072 C 
ATOM     31  H10 017 d   1     -13.401  20.131 -14.100  0.00  0.00     0.028 H 
ATOM     32  H11 017 d   1     -13.233  21.870 -14.519  0.00  0.00     0.028 H 
ATOM     33  H12 017 d   1     -12.603  20.611 -15.636  0.00  0.00     0.028 H 
ENDBRANCH  28  30
BRANCH  28  34
ATOM     34  C15 017 d   1     -15.918  21.049 -14.661  0.00  0.00    -0.072 C 
ATOM     35  H13 017 d   1     -16.873  21.013 -15.205  0.00  0.00     0.028 H 
ATOM     36  H14 017 d   1     -15.804  22.034 -14.185  0.00  0.00     0.028 H 
ATOM     37  H15 017 d   1     -15.906  20.265 -13.889  0.00  0.00     0.028 H 
ENDBRANCH  28  34
ENDBRANCH  25  28
ENDBRANCH   8  25
ENDBRANCH   5   8
ENDBRANCH   3   5
BRANCH   3  38
ATOM     38  O18 017 d   1     -13.617  18.148 -19.109  0.00  0.00    -0.392 OA
ATOM     39  H19 017 d   1     -13.480  18.341 -20.029  0.00  0.00     0.210 HD
ENDBRANCH   3  38
ENDBRANCH   1   3
BRANCH   1  40
ATOM     40  N20 017 d   1     -11.023  18.212 -17.950  0.00  0.00    -0.329 N 
ATOM     41  C21 017 d   1     -10.150  18.279 -16.939  0.00  0.00     0.361 C 
ATOM     42  O22 017 d   1      -9.855  19.348 -16.401  0.00  0.00    -0.238 OA
ATOM     43  H21 017 d   1     -11.261  17.310 -18.310  0.00  0.00     0.165 HD
BRANCH  41  44
ATOM     44  O23 017 d   1      -9.601  17.120 -16.539  0.00  0.00    -0.296 OA
BRANCH  44  45
ATOM     45  C24 017 d   1      -8.526  17.092 -15.636  0.00  0.00     0.078 C 
ATOM     46  C25 017 d   1      -8.710  15.847 -14.753  0.00  0.00     0.048 C 
ATOM     47  O26 017 d   1      -8.290  14.778 -15.616  0.00  0.00    -0.358 OA
ATOM     48  H23 017 d   1      -9.762  15.725 -14.455  0.00  0.00     0.078 H 
ATOM     49  H24 017 d   1      -8.078  15.902 -13.854  0.00  0.00     0.078 H 
ATOM     50  C27 017 d   1      -7.190  15.247 -16.394  0.00  0.00     0.137 C 
ATOM     51  O28 017 d   1      -7.358  14.884 -17.777  0.00  0.00    -0.361 OA
ATOM     52  C31 017 d   1      -7.177  16.766 -16.294  0.00  0.00     0.023 C 
ATOM     53  H25 017 d   1      -6.249  14.827 -16.009  0.00  0.00     0.129 H 
ATOM     54  C29 017 d   1      -7.645  16.047 -18.534  0.00  0.00     0.023 C 
ATOM     55  C30 017 d   1      -7.073  17.236 -17.757  0.00  0.00    -0.035 C 
ATOM     56  H26 017 d   1      -8.732  16.162 -18.654  0.00  0.00     0.074 H 
ATOM     57  H27 017 d   1      -7.172  15.980 -19.525  0.00  0.00     0.074 H 
ATOM     58  H28 017 d   1      -7.670  18.144 -17.925  0.00  0.00     0.037 H 
ATOM     59  H29 017 d   1      -6.027  17.428 -18.039  0.00  0.00     0.037 H 
ATOM     60  H30 017 d   1      -6.340  17.153 -15.695  0.00  0.00     0.051 H 
ATOM     61  H22 017 d   1      -8.483  18.028 -15.060  0.00  0.00     0.088 H 
ENDBRANCH  44  45
ENDBRANCH  41  44
ENDBRANCH   1  40
BRANCH   1  62
ATOM     62  C32 017 d   1     -11.339  19.433 -20.059  0.00  0.00    -0.020 C 
ATOM     63  H31 017 d   1     -11.832  20.309 -20.507  0.00  0.00     0.043 H 
ATOM     64  H32 017 d   1     -11.715  18.516 -20.536  0.00  0.00     0.043 H 
BRANCH  62  65
ATOM     65  C38 017 d   1      -9.825  19.535 -20.280  0.00  0.00    -0.056 A 
ATOM     66  C33 017 d   1      -9.118  18.455 -20.798  0.00  0.00    -0.077 A 
ATOM     67  C34 017 d   1      -7.740  18.546 -20.954  0.00  0.00    -0.082 A 
ATOM     68  H33 017 d   1      -9.639  17.547 -21.079  0.00  0.00     0.084 H 
ATOM     69  C35 017 d   1      -7.064  19.697 -20.567  0.00  0.00    -0.083 A 
ATOM     70  H34 017 d   1      -7.190  17.715 -21.380  0.00  0.00     0.083 H 
ATOM     71  C36 017 d   1      -7.786  20.766 -20.052  0.00  0.00    -0.082 A 
ATOM     72  H35 017 d   1      -5.986  19.760 -20.666  0.00  0.00     0.083 H 
ATOM     73  C37 017 d   1      -9.164  20.695 -19.897  0.00  0.00    -0.077 A 
ATOM     74  H36 017 d   1      -7.264  21.672 -19.766  0.00  0.00     0.083 H 
ATOM     75  H37 017 d   1      -9.715  21.532 -19.484  0.00  0.00     0.084 H 
ENDBRANCH  62  65
ENDBRANCH   1  62
TORSDOF 16
