REMARK  21 active torsions:
REMARK  status: ('A' for Active; 'I' for Inactive)
REMARK    1  A    between atoms: BN1_1  and  BC1'_13 
REMARK    2  A    between atoms: BC5_8  and  BC7_9 
REMARK    3  A    between atoms: BC4'_11  and  BC5'_10 
REMARK    4  A    between atoms: BC5'_10  and  BO5'_20 
REMARK    5  A    between atoms: BC3'_15  and  BO3'_16 
REMARK    6  A    between atoms: BO5'_20  and  PA_17 
REMARK    7  A    between atoms: PA_17  and  O3A_21 
REMARK    8  A    between atoms: O3A_21  and  PB_22 
REMARK    9  A    between atoms: PB_22  and  O3B_25 
REMARK   10  A    between atoms: O3B_25  and  PC_26 
REMARK   11  A    between atoms: PC_26  and  O3C_29 
REMARK   12  A    between atoms: O3C_29  and  PD_30 
REMARK   13  A    between atoms: PD_30  and  O3D_33 
REMARK   14  A    between atoms: O3D_33  and  PE_34 
REMARK   15  A    between atoms: PE_34  and  AO5'_37 
REMARK   16  A    between atoms: AO5'_37  and  AC5'_38 
REMARK   17  A    between atoms: AC5'_38  and  AC4'_39 
REMARK   18  A    between atoms: AC1'_41  and  AN9_46 
REMARK   19  A    between atoms: AC2'_42  and  AO2'_43 
REMARK   20  A    between atoms: AC3'_44  and  AO3'_45 
REMARK   21  A    between atoms: AC6_51  and  AN6_52 
ROOT
ATOM      1  PC  T5A d   1       0.325  -3.053 148.089  0.00  0.00     0.427 P 
ATOM      2  O1C T5A d   1      -0.062  -4.467 148.018  0.00  0.00    -0.624 OA
ATOM      3  O2C T5A d   1       1.697  -2.593 147.713  0.00  0.00    -0.624 OA
ENDROOT
BRANCH   1   4
ATOM      4  O3B T5A d   1      -0.864  -2.120 147.712  0.00  0.00    -0.180 OA
BRANCH   4   5
ATOM      5  PB  T5A d   1      -1.350  -1.200 146.558  0.00  0.00     0.427 P 
ATOM      6  O2B T5A d   1      -1.253   0.237 146.962  0.00  0.00    -0.624 OA
ATOM      7  O1B T5A d   1      -2.663  -1.690 146.073  0.00  0.00    -0.624 OA
BRANCH   5   8
ATOM      8  O3A T5A d   1      -0.209  -1.292 145.372  0.00  0.00    -0.180 OA
BRANCH   8   9
ATOM      9  PA  T5A d   1       0.574  -0.215 144.523  0.00  0.00     0.417 P 
ATOM     10  O2A T5A d   1       1.707   0.292 145.348  0.00  0.00    -0.624 OA
ATOM     11  O1A T5A d   1      -0.400   0.818 144.039  0.00  0.00    -0.624 OA
BRANCH   9  12
ATOM     12  BO5 T5A d   1       1.165  -1.171 143.389  0.00  0.00    -0.287 OA
BRANCH  12  13
ATOM     13  BC5 T5A d   1       0.364  -1.711 142.344  0.00  0.00     0.058 C 
ATOM     14  H6  T5A d   1      -0.456  -2.303 142.777  0.00  0.00     0.079 H 
ATOM     15  H7  T5A d   1      -0.054  -0.892 141.741  0.00  0.00     0.079 H 
BRANCH  13  16
ATOM     16  BC4 T5A d   1       1.201  -2.578 141.488  0.00  0.00     0.087 C 
ATOM     17  BO4 T5A d   1       2.085  -1.660 140.826  0.00  0.00    -0.356 OA
ATOM     18  BC1 T5A d   1       3.185  -2.527 140.501  0.00  0.00     0.116 C 
ATOM     19  BC2 T5A d   1       3.454  -3.180 141.887  0.00  0.00     0.002 C 
ATOM     20  H9  T5A d   1       2.907  -3.287 139.756  0.00  0.00     0.118 H 
ATOM     21  BC3 T5A d   1       2.055  -3.485 142.359  0.00  0.00     0.066 C 
ATOM     22  H10 T5A d   1       3.963  -2.481 142.567  0.00  0.00     0.043 H 
ATOM     23  H11 T5A d   1       4.053  -4.098 141.788  0.00  0.00     0.043 H 
ATOM     24  H12 T5A d   1       1.909  -3.257 143.425  0.00  0.00     0.087 H 
ATOM     25  H8  T5A d   1       0.596  -3.162 140.779  0.00  0.00     0.090 H 
BRANCH  18  26
ATOM     26  BN1 T5A d   1       4.290  -1.726 139.984  0.00  0.00    -0.282 N 
ATOM     27  BC2 T5A d   1       5.007  -2.248 138.896  0.00  0.00     0.331 C 
ATOM     28  BN3 T5A d   1       5.898  -1.402 138.319  0.00  0.00    -0.275 N 
ATOM     29  BO2 T5A d   1       4.867  -3.386 138.469  0.00  0.00    -0.246 OA
ATOM     30  BC4 T5A d   1       6.127  -0.080 138.637  0.00  0.00     0.256 C 
ATOM     31  H2  T5A d   1       6.452  -1.781 137.578  0.00  0.00     0.173 HD
ATOM     32  BC5 T5A d   1       5.403   0.361 139.874  0.00  0.00     0.022 C 
ATOM     33  BO4 T5A d   1       6.885   0.615 137.927  0.00  0.00    -0.267 OA
ATOM     34  BC6 T5A d   1       4.528  -0.469 140.472  0.00  0.00    -0.002 C 
ATOM     35  H1  T5A d   1       3.998  -0.134 141.363  0.00  0.00     0.113 H 
BRANCH  32  36
ATOM     36  BC7 T5A d   1       5.615   1.765 140.436  0.00  0.00    -0.045 C 
ATOM     37  H3  T5A d   1       5.000   1.895 141.339  0.00  0.00     0.033 H 
ATOM     38  H4  T5A d   1       5.321   2.510 139.682  0.00  0.00     0.033 H 
ATOM     39  H5  T5A d   1       6.676   1.901 140.692  0.00  0.00     0.033 H 
ENDBRANCH  32  36
ENDBRANCH  18  26
BRANCH  21  40
ATOM     40  BO3 T5A d   1       1.861  -4.844 142.123  0.00  0.00    -0.393 OA
ATOM     41  H13 T5A d   1       0.953  -5.067 142.291  0.00  0.00     0.210 HD
ENDBRANCH  21  40
ENDBRANCH  13  16
ENDBRANCH  12  13
ENDBRANCH   9  12
ENDBRANCH   8   9
ENDBRANCH   5   8
ENDBRANCH   4   5
ENDBRANCH   1   4
BRANCH   1  42
ATOM     42  O3C T5A d   1       0.110  -2.500 149.654  0.00  0.00    -0.180 OA
BRANCH  42  43
ATOM     43  PD  T5A d   1       0.987  -1.829 150.772  0.00  0.00     0.427 P 
ATOM     44  O2D T5A d   1       2.148  -2.684 150.914  0.00  0.00    -0.624 OA
ATOM     45  O1D T5A d   1       1.103  -0.345 150.569  0.00  0.00    -0.624 OA
BRANCH  43  46
ATOM     46  O3D T5A d   1       0.017  -1.963 152.137  0.00  0.00    -0.180 OA
BRANCH  46  47
ATOM     47  PE  T5A d   1      -0.884  -0.952 152.978  0.00  0.00     0.417 P 
ATOM     48  O2E T5A d   1      -1.825  -0.182 152.132  0.00  0.00    -0.624 OA
ATOM     49  O1E T5A d   1       0.052  -0.094 153.756  0.00  0.00    -0.624 OA
BRANCH  47  50
ATOM     50  AO5 T5A d   1      -1.645  -2.051 153.854  0.00  0.00    -0.287 OA
BRANCH  50  51
ATOM     51  AC5 T5A d   1      -2.591  -3.007 153.538  0.00  0.00     0.058 C 
ATOM     52  H14 T5A d   1      -2.094  -3.878 153.085  0.00  0.00     0.079 H 
ATOM     53  H15 T5A d   1      -3.313  -2.585 152.824  0.00  0.00     0.079 H 
BRANCH  51  54
ATOM     54  AC4 T5A d   1      -3.333  -3.448 154.818  0.00  0.00     0.089 C 
ATOM     55  AC3 T5A d   1      -4.017  -2.296 155.545  0.00  0.00     0.091 C 
ATOM     56  AC2 T5A d   1      -3.008  -1.975 156.613  0.00  0.00     0.105 C 
ATOM     57  H20 T5A d   1      -4.296  -1.442 154.911  0.00  0.00     0.091 H 
ATOM     58  AC1 T5A d   1      -2.484  -3.400 156.988  0.00  0.00     0.139 C 
ATOM     59  H18 T5A d   1      -2.180  -1.378 156.204  0.00  0.00     0.093 H 
ATOM     60  AO4 T5A d   1      -2.514  -4.140 155.754  0.00  0.00    -0.353 OA
ATOM     61  H17 T5A d   1      -3.172  -3.858 157.714  0.00  0.00     0.122 H 
ATOM     62  H16 T5A d   1      -4.119  -4.146 154.494  0.00  0.00     0.090 H 
BRANCH  55  63
ATOM     63  AO3 T5A d   1      -5.134  -2.930 156.202  0.00  0.00    -0.390 OA
ATOM     64  H21 T5A d   1      -5.501  -2.335 156.845  0.00  0.00     0.210 HD
ENDBRANCH  55  63
BRANCH  56  65
ATOM     65  AO2 T5A d   1      -3.638  -1.196 157.675  0.00  0.00    -0.388 OA
ATOM     66  H19 T5A d   1      -4.349  -1.698 158.056  0.00  0.00     0.210 HD
ENDBRANCH  56  65
BRANCH  58  67
ATOM     67  AN9 T5A d   1      -1.067  -3.409 157.603  0.00  0.00    -0.294 N 
ATOM     68  AC8 T5A d   1      -0.067  -2.517 157.362  0.00  0.00     0.071 A 
ATOM     69  AN7 T5A d   1       1.000  -2.673 158.104  0.00  0.00    -0.236 NA
ATOM     70  H25 T5A d   1      -0.149  -1.734 156.610  0.00  0.00     0.144 H 
ATOM     71  AC5 T5A d   1       0.729  -3.805 158.823  0.00  0.00     0.149 A 
ATOM     72  AC4 T5A d   1      -0.526  -4.280 158.525  0.00  0.00     0.167 A 
ATOM     73  AC6 T5A d   1       1.511  -4.486 159.773  0.00  0.00     0.155 C 
ATOM     74  AN3 T5A d   1      -1.137  -5.354 159.104  0.00  0.00    -0.222 NA
ATOM     75  AC2 T5A d   1      -0.278  -5.992 159.929  0.00  0.00     0.091 C 
ATOM     76  AN1 T5A d   1       0.993  -5.650 160.240  0.00  0.00    -0.222 NA
ATOM     77  H22 T5A d   1      -0.655  -6.892 160.401  0.00  0.00     0.146 H 
BRANCH  73  78
ATOM     78  AN6 T5A d   1       2.716  -4.026 160.165  0.00  0.00    -0.382 N 
ATOM     79  H23 T5A d   1       3.076  -3.138 159.788  0.00  0.00     0.157 HD
ATOM     80  H24 T5A d   1       3.277  -4.563 160.842  0.00  0.00     0.157 HD
ENDBRANCH  73  78
ENDBRANCH  58  67
ENDBRANCH  51  54
ENDBRANCH  50  51
ENDBRANCH  47  50
ENDBRANCH  46  47
ENDBRANCH  43  46
ENDBRANCH  42  43
ENDBRANCH   1  42
TORSDOF 21
