REMARK  15 active torsions:
REMARK  status: ('A' for Active; 'I' for Inactive)
REMARK    1  A    between atoms: C12_4  and  C11_3 
REMARK       I    between atoms: C11_3  and  N2_22 
REMARK    2  A    between atoms: C13_5  and  C12_4 
REMARK    3  A    between atoms: C27_19  and  C13_5 
REMARK    4  A    between atoms: C16_8  and  C18_10 
REMARK    5  A    between atoms: C20_12  and  C21_13 
REMARK    6  A    between atoms: N2_22  and  C7_23 
REMARK    7  A    between atoms: C7_23  and  C6_24 
REMARK    8  A    between atoms: C7_23  and  C8_26 
REMARK       I    between atoms: C6_24  and  N1_31 
REMARK    9  A    between atoms: C8_26  and  C9_27 
REMARK   10  A    between atoms: C9_27  and  C10_28 
REMARK   11  A    between atoms: N1_31  and  C2_32 
REMARK   12  A    between atoms: C2_32  and  C1_33 
REMARK   13  A    between atoms: C2_32  and  C3_35 
REMARK       I    between atoms: C1_33  and  N9_40 
REMARK   14  A    between atoms: C3_35  and  C4_36 
REMARK   15  A    between atoms: C4_36  and  C5_37 
ROOT
ATOM      1  O2  EEG d   1      10.296  26.600   3.293  0.00  0.00    -0.274 OA
ATOM      2  C11 EEG d   1       9.170  26.702   2.772  0.00  0.00     0.218 C 
ATOM      3  N2  EEG d   1       8.999  26.974   1.392  0.00  0.00    -0.348 N 
ATOM      4  H16 EEG d   1       8.084  27.047   0.994  0.00  0.00     0.163 HD
ENDROOT
BRANCH   2   5
ATOM      5  C12 EEG d   1       7.905  26.469   3.646  0.00  0.00     0.013 C 
ATOM      6  H1  EEG d   1       7.110  27.170   3.352  0.00  0.00     0.047 H 
ATOM      7  H2  EEG d   1       8.149  26.616   4.708  0.00  0.00     0.047 H 
BRANCH   5   8
ATOM      8  C13 EEG d   1       7.449  25.031   3.409  0.00  0.00    -0.033 C 
ATOM      9  H3  EEG d   1       8.269  24.357   3.699  0.00  0.00     0.040 H 
ATOM     10  H4  EEG d   1       7.235  24.909   2.337  0.00  0.00     0.040 H 
BRANCH   8  11
ATOM     11  C27 EEG d   1       6.207  24.635   4.191  0.00  0.00    -0.058 A 
ATOM     12  C14 EEG d   1       4.987  25.102   3.756  0.00  0.00    -0.076 A 
ATOM     13  C17 EEG d   1       3.836  24.757   4.447  0.00  0.00    -0.071 A 
ATOM     14  H5  EEG d   1       4.927  25.736   2.878  0.00  0.00     0.084 H 
ATOM     15  C16 EEG d   1       3.963  23.955   5.566  0.00  0.00    -0.019 A 
ATOM     16  H7  EEG d   1       2.864  25.106   4.119  0.00  0.00     0.084 H 
ATOM     17  C15 EEG d   1       5.211  23.495   6.011  0.00  0.00    -0.071 A 
ATOM     18  C28 EEG d   1       6.338  23.844   5.334  0.00  0.00    -0.076 A 
ATOM     19  H6  EEG d   1       5.277  22.864   6.890  0.00  0.00     0.084 H 
ATOM     20  H14 EEG d   1       7.314  23.516   5.674  0.00  0.00     0.084 H 
BRANCH  15  21
ATOM     21  C18 EEG d   1       2.726  23.558   6.389  0.00  0.00     0.015 A 
ATOM     22  S7  EEG d   1       2.843  22.590   7.740  0.00  0.00    -0.100 SA
ATOM     23  C29 EEG d   1       1.202  22.593   8.157  0.00  0.00    -0.034 A 
ATOM     24  C20 EEG d   1       0.555  23.387   7.214  0.00  0.00    -0.018 A 
ATOM     25  H15 EEG d   1       0.743  22.075   8.998  0.00  0.00     0.096 H 
ATOM     26  C19 EEG d   1       1.402  23.948   6.226  0.00  0.00    -0.054 A 
ATOM     27  H8  EEG d   1       1.056  24.608   5.432  0.00  0.00     0.086 H 
BRANCH  24  28
ATOM     28  C21 EEG d   1      -0.907  23.632   7.256  0.00  0.00    -0.025 A 
ATOM     29  C22 EEG d   1      -1.414  24.763   6.643  0.00  0.00    -0.072 A 
ATOM     30  C23 EEG d   1      -2.778  25.001   6.684  0.00  0.00    -0.082 A 
ATOM     31  H9  EEG d   1      -0.752  25.456   6.136  0.00  0.00     0.084 H 
ATOM     32  C24 EEG d   1      -3.609  24.121   7.323  0.00  0.00    -0.083 A 
ATOM     33  H10 EEG d   1      -3.188  25.885   6.209  0.00  0.00     0.083 H 
ATOM     34  C25 EEG d   1      -3.099  22.976   7.937  0.00  0.00    -0.082 A 
ATOM     35  H11 EEG d   1      -4.675  24.315   7.353  0.00  0.00     0.083 H 
ATOM     36  C26 EEG d   1      -1.738  22.738   7.900  0.00  0.00    -0.072 A 
ATOM     37  H12 EEG d   1      -3.763  22.281   8.438  0.00  0.00     0.083 H 
ATOM     38  H13 EEG d   1      -1.326  21.855   8.374  0.00  0.00     0.084 H 
ENDBRANCH  24  28
ENDBRANCH  15  21
ENDBRANCH   8  11
ENDBRANCH   5   8
ENDBRANCH   2   5
BRANCH   3  39
ATOM     39  C7  EEG d   1      10.174  27.143   0.575  0.00  0.00     0.090 C 
ATOM     40  H17 EEG d   1      11.012  26.595   1.032  0.00  0.00     0.087 H 
BRANCH  39  41
ATOM     41  C6  EEG d   1      10.632  28.537   0.351  0.00  0.00     0.241 C 
ATOM     42  O1  EEG d   1      11.639  28.755  -0.370  0.00  0.00    -0.271 OA
ATOM     43  N1  EEG d   1       9.916  29.595   0.941  0.00  0.00    -0.346 N 
ATOM     44  H22 EEG d   1       9.116  29.398   1.508  0.00  0.00     0.163 HD
BRANCH  43  45
ATOM     45  C2  EEG d   1      10.347  31.027   0.724  0.00  0.00     0.089 C 
ATOM     46  H23 EEG d   1      11.297  31.011   0.170  0.00  0.00     0.087 H 
BRANCH  45  47
ATOM     47  C1  EEG d   1      10.567  31.668   1.995  0.00  0.00     0.238 C 
ATOM     48  O9  EEG d   1       9.944  31.266   3.043  0.00  0.00    -0.271 OA
ATOM     49  N9  EEG d   1      11.526  32.804   2.090  0.00  0.00    -0.368 N 
ATOM     50  H28 EEG d   1      11.683  33.253   2.969  0.00  0.00     0.159 HD
ATOM     51  H29 EEG d   1      12.012  33.117   1.274  0.00  0.00     0.159 HD
ENDBRANCH  45  47
BRANCH  45  52
ATOM     52  C3  EEG d   1       9.340  31.854  -0.093  0.00  0.00    -0.029 C 
ATOM     53  H24 EEG d   1       9.917  32.582  -0.682  0.00  0.00     0.037 H 
ATOM     54  H25 EEG d   1       8.698  32.388   0.623  0.00  0.00     0.037 H 
BRANCH  52  55
ATOM     55  C4  EEG d   1       8.515  31.189  -0.962  0.00  0.00     0.018 C 
ATOM     56  H26 EEG d   1       7.537  31.692  -0.971  0.00  0.00     0.049 H 
ATOM     57  H27 EEG d   1       8.393  30.155  -0.607  0.00  0.00     0.049 H 
BRANCH  55  58
ATOM     58  C5  EEG d   1       9.070  31.152  -2.425  0.00  0.00     0.172 C 
ATOM     59  O8E EEG d   1       9.636  30.026  -2.832  0.00  0.00    -0.648 OA
ATOM     60  O8  EEG d   1       9.026  32.165  -3.149  0.00  0.00    -0.648 OA
ENDBRANCH  55  58
ENDBRANCH  52  55
ENDBRANCH  45  52
ENDBRANCH  43  45
ENDBRANCH  39  41
BRANCH  39  61
ATOM     61  C8  EEG d   1       9.760  26.478  -0.701  0.00  0.00    -0.029 C 
ATOM     62  H18 EEG d   1      10.536  26.668  -1.457  0.00  0.00     0.037 H 
ATOM     63  H19 EEG d   1       8.810  26.924  -1.031  0.00  0.00     0.037 H 
BRANCH  61  64
ATOM     64  C9  EEG d   1       9.570  25.004  -0.584  0.00  0.00     0.018 C 
ATOM     65  H20 EEG d   1      10.187  24.635   0.248  0.00  0.00     0.049 H 
ATOM     66  H21 EEG d   1       9.898  24.532  -1.522  0.00  0.00     0.049 H 
BRANCH  64  67
ATOM     67  C10 EEG d   1       8.096  24.609  -0.320  0.00  0.00     0.172 C 
ATOM     68  O4E EEG d   1       7.312  25.419  -0.768  0.00  0.00    -0.648 OA
ATOM     69  O4  EEG d   1       7.842  23.623   0.276  0.00  0.00    -0.648 OA
ENDBRANCH  64  67
ENDBRANCH  61  64
ENDBRANCH  39  61
ENDBRANCH   3  39
TORSDOF 15
