REMARK  15 active torsions:
REMARK  status: ('A' for Active; 'I' for Inactive)
REMARK    1  A    between atoms: C12_4  and  C11_3 
REMARK       I    between atoms: C11_3  and  N2_22 
REMARK    2  A    between atoms: C13_5  and  C12_4 
REMARK    3  A    between atoms: C27_19  and  C13_5 
REMARK    4  A    between atoms: C16_8  and  C18_10 
REMARK    5  A    between atoms: C20_12  and  C21_13 
REMARK    6  A    between atoms: N2_22  and  C7_23 
REMARK    7  A    between atoms: C7_23  and  C6_24 
REMARK    8  A    between atoms: C7_23  and  C8_26 
REMARK       I    between atoms: C6_24  and  N1_31 
REMARK    9  A    between atoms: C8_26  and  C9_27 
REMARK   10  A    between atoms: C9_27  and  C10_28 
REMARK       I    between atoms: C10_28  and  N4_30 
REMARK   11  A    between atoms: N1_31  and  C2_32 
REMARK   12  A    between atoms: C2_32  and  C1_33 
REMARK   13  A    between atoms: C2_32  and  C3_35 
REMARK       I    between atoms: C1_33  and  N9_40 
REMARK   14  A    between atoms: C3_35  and  C4_36 
REMARK   15  A    between atoms: C4_36  and  C5_37 
ROOT
ATOM      1  O2  QEG d   1       9.740  26.224   4.440  0.00  0.00    -0.274 OA
ATOM      2  C11 QEG d   1       8.561  26.317   4.385  0.00  0.00     0.218 C 
ATOM      3  N2  QEG d   1       7.880  27.364   4.826  0.00  0.00    -0.348 N 
ATOM      4  H16 QEG d   1       6.886  27.319   4.730  0.00  0.00     0.163 HD
ENDROOT
BRANCH   2   5
ATOM      5  C12 QEG d   1       7.773  25.190   3.769  0.00  0.00     0.013 C 
ATOM      6  H1  QEG d   1       8.226  24.974   2.790  0.00  0.00     0.047 H 
ATOM      7  H2  QEG d   1       6.745  25.553   3.626  0.00  0.00     0.047 H 
BRANCH   5   8
ATOM      8  C13 QEG d   1       7.683  23.875   4.520  0.00  0.00    -0.033 C 
ATOM      9  H3  QEG d   1       8.409  23.884   5.347  0.00  0.00     0.040 H 
ATOM     10  H4  QEG d   1       7.922  23.051   3.831  0.00  0.00     0.040 H 
BRANCH   8  11
ATOM     11  C27 QEG d   1       6.303  23.661   5.081  0.00  0.00    -0.058 A 
ATOM     12  C14 QEG d   1       5.164  24.216   4.508  0.00  0.00    -0.076 A 
ATOM     13  C17 QEG d   1       3.894  24.003   5.050  0.00  0.00    -0.071 A 
ATOM     14  H5  QEG d   1       5.264  24.829   3.619  0.00  0.00     0.084 H 
ATOM     15  C16 QEG d   1       3.723  23.235   6.192  0.00  0.00    -0.019 A 
ATOM     16  H7  QEG d   1       3.028  24.445   4.570  0.00  0.00     0.084 H 
ATOM     17  C15 QEG d   1       4.877  22.709   6.740  0.00  0.00    -0.071 A 
ATOM     18  C28 QEG d   1       6.142  22.908   6.219  0.00  0.00    -0.076 A 
ATOM     19  H6  QEG d   1       4.785  22.103   7.634  0.00  0.00     0.084 H 
ATOM     20  H14 QEG d   1       7.005  22.471   6.707  0.00  0.00     0.084 H 
BRANCH  15  21
ATOM     21  C18 QEG d   1       2.388  22.933   6.860  0.00  0.00     0.015 A 
ATOM     22  S7  QEG d   1       2.446  22.303   8.412  0.00  0.00    -0.100 SA
ATOM     23  C29 QEG d   1       0.859  22.046   8.803  0.00  0.00    -0.034 A 
ATOM     24  C20 QEG d   1       0.225  22.462   7.684  0.00  0.00    -0.018 A 
ATOM     25  H15 QEG d   1       0.435  21.646   9.723  0.00  0.00     0.096 H 
ATOM     26  C19 QEG d   1       1.041  22.960   6.616  0.00  0.00    -0.054 A 
ATOM     27  H8  QEG d   1       0.622  23.331   5.682  0.00  0.00     0.086 H 
BRANCH  24  28
ATOM     28  C21 QEG d   1      -1.239  22.417   7.751  0.00  0.00    -0.025 A 
ATOM     29  C22 QEG d   1      -1.850  21.285   8.182  0.00  0.00    -0.072 A 
ATOM     30  C23 QEG d   1      -3.214  21.212   8.276  0.00  0.00    -0.082 A 
ATOM     31  H9  QEG d   1      -1.249  20.425   8.456  0.00  0.00     0.084 H 
ATOM     32  C24 QEG d   1      -3.963  22.313   7.983  0.00  0.00    -0.083 A 
ATOM     33  H10 QEG d   1      -3.693  20.289   8.580  0.00  0.00     0.083 H 
ATOM     34  C25 QEG d   1      -3.353  23.468   7.578  0.00  0.00    -0.082 A 
ATOM     35  H11 QEG d   1      -5.043  22.273   8.071  0.00  0.00     0.083 H 
ATOM     36  C26 QEG d   1      -1.986  23.529   7.471  0.00  0.00    -0.072 A 
ATOM     37  H12 QEG d   1      -3.952  24.340   7.340  0.00  0.00     0.083 H 
ATOM     38  H13 QEG d   1      -1.502  24.450   7.167  0.00  0.00     0.084 H 
ENDBRANCH  24  28
ENDBRANCH  15  21
ENDBRANCH   8  11
ENDBRANCH   5   8
ENDBRANCH   2   5
BRANCH   3  39
ATOM     39  C7  QEG d   1       8.414  28.569   5.432  0.00  0.00     0.089 C 
ATOM     40  H17 QEG d   1       9.491  28.432   5.609  0.00  0.00     0.087 H 
BRANCH  39  41
ATOM     41  C6  QEG d   1       7.758  28.811   6.784  0.00  0.00     0.241 C 
ATOM     42  O1  QEG d   1       6.689  28.354   7.100  0.00  0.00    -0.271 OA
ATOM     43  N1  QEG d   1       8.422  29.540   7.647  0.00  0.00    -0.346 N 
ATOM     44  H24 QEG d   1       9.312  29.926   7.404  0.00  0.00     0.163 HD
BRANCH  43  45
ATOM     45  C2  QEG d   1       7.855  29.780   8.952  0.00  0.00     0.089 C 
ATOM     46  H25 QEG d   1       7.605  28.796   9.374  0.00  0.00     0.087 H 
BRANCH  45  47
ATOM     47  C1  QEG d   1       6.585  30.583   8.902  0.00  0.00     0.238 C 
ATOM     48  O9  QEG d   1       6.448  31.512   8.178  0.00  0.00    -0.271 OA
ATOM     49  N9  QEG d   1       5.617  30.198   9.689  0.00  0.00    -0.368 N 
ATOM     50  H30 QEG d   1       4.750  30.696   9.696  0.00  0.00     0.159 HD
ATOM     51  H31 QEG d   1       5.742  29.405  10.285  0.00  0.00     0.159 HD
ENDBRANCH  45  47
BRANCH  45  52
ATOM     52  C3  QEG d   1       8.821  30.438   9.888  0.00  0.00    -0.029 C 
ATOM     53  H26 QEG d   1       8.511  31.489   9.986  0.00  0.00     0.037 H 
ATOM     54  H27 QEG d   1       9.813  30.391   9.415  0.00  0.00     0.037 H 
BRANCH  52  55
ATOM     55  C4  QEG d   1       8.970  29.887  11.287  0.00  0.00     0.018 C 
ATOM     56  H28 QEG d   1       9.307  28.849  11.152  0.00  0.00     0.049 H 
ATOM     57  H29 QEG d   1       7.953  29.890  11.707  0.00  0.00     0.049 H 
BRANCH  55  58
ATOM     58  C5  QEG d   1       9.830  30.436  12.356  0.00  0.00     0.172 C 
ATOM     59  O8E QEG d   1       9.816  29.846  13.430  0.00  0.00    -0.648 OA
ATOM     60  O8  QEG d   1      10.526  31.455  12.214  0.00  0.00    -0.648 OA
ENDBRANCH  55  58
ENDBRANCH  52  55
ENDBRANCH  45  52
ENDBRANCH  43  45
ENDBRANCH  39  41
BRANCH  39  61
ATOM     61  C8  QEG d   1       8.242  29.718   4.409  0.00  0.00    -0.030 C 
ATOM     62  H18 QEG d   1       7.467  30.396   4.796  0.00  0.00     0.037 H 
ATOM     63  H19 QEG d   1       7.901  29.274   3.462  0.00  0.00     0.037 H 
BRANCH  61  64
ATOM     64  C9  QEG d   1       9.500  30.567   4.104  0.00  0.00     0.011 C 
ATOM     65  H20 QEG d   1      10.337  29.859   4.011  0.00  0.00     0.047 H 
ATOM     66  H21 QEG d   1       9.660  31.211   4.981  0.00  0.00     0.047 H 
BRANCH  64  67
ATOM     67  C10 QEG d   1       9.569  31.483   2.877  0.00  0.00     0.215 C 
ATOM     68  O4E QEG d   1       8.896  31.383   1.895  0.00  0.00    -0.274 OA
ATOM     69  N4  QEG d   1      10.477  32.430   2.903  0.00  0.00    -0.370 N 
ATOM     70  H22 QEG d   1      10.568  33.057   2.130  0.00  0.00     0.159 HD
ATOM     71  H23 QEG d   1      11.079  32.524   3.696  0.00  0.00     0.159 HD
ENDBRANCH  64  67
ENDBRANCH  61  64
ENDBRANCH  39  61
ENDBRANCH   3  39
TORSDOF 15
