REMARK  10 active torsions:
REMARK  status: ('A' for Active; 'I' for Inactive)
REMARK    1  A    between atoms: C1_1  and  C2_3 
REMARK    2  A    between atoms: C14_13  and  C1_1 
REMARK       I    between atoms: C2_3  and  N1_2 
REMARK    3  A    between atoms: N1_2  and  C35_26 
REMARK    4  A    between atoms: C3_5  and  C4_7 
REMARK    5  A    between atoms: C35_26  and  C3_5 
REMARK       I    between atoms: C13_12  and  N3_6 
REMARK    6  A    between atoms: C4_7  and  C5_8 
REMARK    7  A    between atoms: C35_26  and  C13_12 
REMARK    8  A    between atoms: C15_14  and  C14_13 
REMARK    9  A    between atoms: C19_18  and  C30_24 
REMARK   10  A    between atoms: C27_23  and  C24_22 
ROOT
ATOM      1  C14 E1S d   1      -6.428  10.979 -13.775  0.00  0.00    -0.033 C 
ATOM      2  H10 E1S d   1      -7.093  10.261 -13.273  0.00  0.00     0.040 H 
ATOM      3  H11 E1S d   1      -6.646  10.988 -14.853  0.00  0.00     0.040 H 
ENDROOT
BRANCH   1   4
ATOM      4  C1  E1S d   1      -4.963  10.539 -13.563  0.00  0.00     0.013 C 
ATOM      5  H1  E1S d   1      -4.282  11.278 -14.011  0.00  0.00     0.047 H 
ATOM      6  H2  E1S d   1      -4.751  10.450 -12.487  0.00  0.00     0.047 H 
BRANCH   4   7
ATOM      7  C2  E1S d   1      -4.781   9.196 -14.237  0.00  0.00     0.218 C 
ATOM      8  N1  E1S d   1      -4.128   9.125 -15.549  0.00  0.00    -0.348 N 
ATOM      9  H3  E1S d   1      -3.793   9.973 -15.959  0.00  0.00     0.163 HD
ATOM     10  O2  E1S d   1      -5.236   8.193 -13.743  0.00  0.00    -0.274 OA
BRANCH   8  11
ATOM     11  C35 E1S d   1      -3.942   7.876 -16.289  0.00  0.00     0.089 C 
ATOM     12  H21 E1S d   1      -4.472   7.060 -15.775  0.00  0.00     0.087 H 
BRANCH  11  13
ATOM     13  C3  E1S d   1      -4.524   8.024 -17.702  0.00  0.00    -0.029 C 
ATOM     14  H4  E1S d   1      -4.111   8.922 -18.184  0.00  0.00     0.037 H 
ATOM     15  H5  E1S d   1      -4.274   7.138 -18.303  0.00  0.00     0.037 H 
BRANCH  13  16
ATOM     16  C4  E1S d   1      -6.028   8.153 -17.578  0.00  0.00     0.018 C 
ATOM     17  H8  E1S d   1      -6.322   7.736 -16.603  0.00  0.00     0.049 H 
ATOM     18  H9  E1S d   1      -6.484   7.558 -18.383  0.00  0.00     0.049 H 
BRANCH  16  19
ATOM     19  C5  E1S d   1      -6.577   9.534 -17.666  0.00  0.00     0.172 C 
ATOM     20  O6  E1S d   1      -7.741   9.786 -17.219  0.00  0.00    -0.648 OA
ATOM     21  O7  E1S d   1      -5.898  10.481 -18.177  0.00  0.00    -0.648 OA
ENDBRANCH  16  19
ENDBRANCH  13  16
ENDBRANCH  11  13
BRANCH  11  22
ATOM     22  C13 E1S d   1      -2.451   7.570 -16.299  0.00  0.00     0.238 C 
ATOM     23  N3  E1S d   1      -1.697   7.781 -15.252  0.00  0.00    -0.368 N 
ATOM     24  H6  E1S d   1      -2.099   8.142 -14.411  0.00  0.00     0.159 HD
ATOM     25  H7  E1S d   1      -0.718   7.582 -15.293  0.00  0.00     0.159 HD
ATOM     26  O5  E1S d   1      -1.921   7.133 -17.295  0.00  0.00    -0.271 OA
ENDBRANCH  11  22
ENDBRANCH   8  11
ENDBRANCH   4   7
ENDBRANCH   1   4
BRANCH   1  27
ATOM     27  C15 E1S d   1      -6.682  12.359 -13.212  0.00  0.00    -0.058 A 
ATOM     28  C16 E1S d   1      -7.583  12.512 -12.172  0.00  0.00    -0.076 A 
ATOM     29  C17 E1S d   1      -7.788  13.887 -11.595  0.00  0.00    -0.071 A 
ATOM     30  H12 E1S d   1      -8.129  11.661 -11.782  0.00  0.00     0.084 H 
ATOM     31  C30 E1S d   1      -7.104  14.965 -12.141  0.00  0.00    -0.019 A 
ATOM     32  H13 E1S d   1      -8.464  14.034 -10.760  0.00  0.00     0.084 H 
ATOM     33  C31 E1S d   1      -6.128  14.769 -13.210  0.00  0.00    -0.071 A 
ATOM     34  C18 E1S d   1      -5.929  13.526 -13.752  0.00  0.00    -0.076 A 
ATOM     35  H20 E1S d   1      -5.556  15.614 -13.578  0.00  0.00     0.084 H 
ATOM     36  H14 E1S d   1      -5.228  13.393 -14.568  0.00  0.00     0.084 H 
BRANCH  31  37
ATOM     37  C19 E1S d   1      -7.326  16.349 -11.567  0.00  0.00     0.015 A 
ATOM     38  C20 E1S d   1      -6.995  17.608 -12.155  0.00  0.00    -0.065 A 
ATOM     39  C21 E1S d   1      -7.389  18.711 -11.301  0.00  0.00    -0.069 A 
ATOM     40  H15 E1S d   1      -6.508  17.724 -13.122  0.00  0.00     0.085 H 
ATOM     41  C27 E1S d   1      -8.007  18.260 -10.139  0.00  0.00    -0.021 A 
ATOM     42  H16 E1S d   1      -7.222  19.761 -11.539  0.00  0.00     0.085 H 
ATOM     43  S23 E1S d   1      -8.123  16.542 -10.018  0.00  0.00    -0.095 SA
BRANCH  41  44
ATOM     44  C24 E1S d   1      -8.515  19.111  -8.991  0.00  0.00    -0.045 C 
ATOM     45  H17 E1S d   1      -8.953  18.461  -8.219  0.00  0.00     0.034 H 
ATOM     46  H18 E1S d   1      -9.281  19.808  -9.362  0.00  0.00     0.034 H 
ATOM     47  H19 E1S d   1      -7.679  19.681  -8.559  0.00  0.00     0.034 H 
ENDBRANCH  41  44
ENDBRANCH  31  37
ENDBRANCH   1  27
TORSDOF 10
