REMARK  5 active torsions:
REMARK  status: ('A' for Active; 'I' for Inactive)
REMARK    1  A    between atoms: N2_1  and  C4_2 
REMARK    2  A    between atoms: C4_2  and  C3_3 
REMARK    3  A    between atoms: C3_3  and  C2_4 
REMARK    4  A    between atoms: C2_4  and  C1_5 
REMARK    5  A    between atoms: C1_5  and  N1_6 
ROOT
ATOM      1  C3  PUT d   1      16.827  16.528  27.068  0.00  0.00    -0.041 C 
ATOM      2  H6  PUT d   1      16.037  16.102  26.432  0.00  0.00     0.035 H 
ATOM      3  H7  PUT d   1      16.542  16.426  28.125  0.00  0.00     0.035 H 
ENDROOT
BRANCH   1   4
ATOM      4  C4  PUT d   1      16.992  18.023  26.733  0.00  0.00     0.080 C 
ATOM      5  H4  PUT d   1      17.480  18.533  27.577  0.00  0.00     0.075 H 
ATOM      6  H5  PUT d   1      17.614  18.127  25.832  0.00  0.00     0.075 H 
BRANCH   4   7
ATOM      7  N2  PUT d   1      15.688  18.630  26.491  0.00  0.00    -0.079 N 
ATOM      8  H1  PUT d   1      15.807  19.607  26.273  0.00  0.00     0.274 HD
ATOM      9  H2  PUT d   1      15.116  18.537  27.316  0.00  0.00     0.274 HD
ATOM     10  H3  PUT d   1      15.239  18.165  25.717  0.00  0.00     0.274 HD
ENDBRANCH   4   7
ENDBRANCH   1   4
BRANCH   1  11
ATOM     11  C2  PUT d   1      18.135  15.759  26.825  0.00  0.00    -0.041 C 
ATOM     12  H8  PUT d   1      18.924  16.177  27.468  0.00  0.00     0.035 H 
ATOM     13  H9  PUT d   1      18.426  15.868  25.770  0.00  0.00     0.035 H 
BRANCH  11  14
ATOM     14  C1  PUT d   1      17.961  14.274  27.146  0.00  0.00     0.080 C 
ATOM     15  H10 PUT d   1      17.005  13.921  26.733  0.00  0.00     0.075 H 
ATOM     16  H11 PUT d   1      17.964  14.133  28.237  0.00  0.00     0.075 H 
BRANCH  14  17
ATOM     17  N1  PUT d   1      19.053  13.512  26.557  0.00  0.00    -0.079 N 
ATOM     18  H12 PUT d   1      18.934  12.534  26.771  0.00  0.00     0.274 HD
ATOM     19  H13 PUT d   1      19.930  13.835  26.935  0.00  0.00     0.274 HD
ATOM     20  H14 PUT d   1      19.051  13.640  25.557  0.00  0.00     0.274 HD
ENDBRANCH  14  17
ENDBRANCH  11  14
ENDBRANCH   1  11
TORSDOF 5
