REMARK  9 active torsions:
REMARK  status: ('A' for Active; 'I' for Inactive)
REMARK    1  A    between atoms: S10_1  and  C13_4 
REMARK    2  A    between atoms: S10_1  and  N9_5 
REMARK    3  A    between atoms: N9_5  and  C8_6 
REMARK    4  A    between atoms: C8_6  and  C15_7 
REMARK    5  A    between atoms: C8_6  and  C7_9 
REMARK       I    between atoms: C15_7  and  N17_16 
REMARK    6  A    between atoms: C7_9  and  C6_10 
REMARK    7  A    between atoms: C21_17  and  C22_18 
REMARK       I    between atoms: C22_18  and  N24_23 
REMARK    8  A    between atoms: N24_23  and  C25_24 
REMARK    9  A    between atoms: C25_24  and  C26_25 
REMARK       I    between atoms: N29_28  and  C32_31 
REMARK       I    between atoms: C32_31  and  N33_32 
ROOT
ATOM      1  C15 0BM d   1      26.948   4.506  21.628  0.00  0.00     0.244 C 
ATOM      2  O16 0BM d   1      26.881   5.078  20.554  0.00  0.00    -0.271 OA
ATOM      3  N17 0BM d   1      26.609   3.204  21.760  0.00  0.00    -0.337 N 
ATOM      4  C21 0BM d   1      26.212   2.404  20.594  0.00  0.00     0.091 C 
ATOM      5  C20 0BM d   1      26.133   0.969  21.150  0.00  0.00    -0.036 C 
ATOM      6  C19 0BM d   1      26.806   1.014  22.499  0.00  0.00    -0.048 C 
ATOM      7  C18 0BM d   1      26.543   2.404  22.993  0.00  0.00    -0.001 C 
ATOM      8  H13 0BM d   1      26.955   2.476  19.786  0.00  0.00     0.087 H 
ATOM      9  H14 0BM d   1      26.659   0.270  20.483  0.00  0.00     0.036 H 
ATOM     10  H15 0BM d   1      25.084   0.656  21.256  0.00  0.00     0.036 H 
ATOM     11  H16 0BM d   1      27.887   0.832  22.402  0.00  0.00     0.035 H 
ATOM     12  H17 0BM d   1      26.368   0.269  23.179  0.00  0.00     0.035 H 
ATOM     13  H18 0BM d   1      25.550   2.477  23.461  0.00  0.00     0.064 H 
ATOM     14  H19 0BM d   1      27.312   2.721  23.713  0.00  0.00     0.064 H 
ENDROOT
BRANCH   4  15
ATOM     15  C22 0BM d   1      24.849   2.867  20.089  0.00  0.00     0.240 C 
ATOM     16  O23 0BM d   1      24.005   3.295  20.875  0.00  0.00    -0.271 OA
ATOM     17  N24 0BM d   1      24.643   2.810  18.779  0.00  0.00    -0.359 N 
ATOM     18  H20 0BM d   1      25.344   2.412  18.188  0.00  0.00     0.162 HD
BRANCH  17  19
ATOM     19  C25 0BM d   1      23.413   3.318  18.188  0.00  0.00    -0.001 C 
ATOM     20  H21 0BM d   1      22.654   3.336  18.984  0.00  0.00     0.064 H 
ATOM     21  H22 0BM d   1      23.110   2.604  17.408  0.00  0.00     0.064 H 
BRANCH  19  22
ATOM     22  C26 0BM d   1      23.426   4.701  17.550  0.00  0.00    -0.036 C 
ATOM     23  C27 0BM d   1      24.225   4.734  16.250  0.00  0.00    -0.045 C 
ATOM     24  C28 0BM d   1      24.070   6.075  15.515  0.00  0.00     0.012 C 
ATOM     25  H24 0BM d   1      23.870   3.926  15.594  0.00  0.00     0.036 H 
ATOM     26  H25 0BM d   1      25.289   4.577  16.482  0.00  0.00     0.036 H 
ATOM     27  N29 0BM d   1      24.414   7.215  16.383  0.00  0.00    -0.219 N 
ATOM     28  H26 0BM d   1      23.026   6.181  15.184  0.00  0.00     0.065 H 
ATOM     29  H27 0BM d   1      24.735   6.080  14.639  0.00  0.00     0.065 H 
ATOM     30  C30 0BM d   1      23.699   7.231  17.677  0.00  0.00     0.012 C 
ATOM     31  C32 0BM d   1      24.886   8.420  15.747  0.00  0.00     0.667 C 
ATOM     32  C31 0BM d   1      23.834   5.893  18.417  0.00  0.00    -0.045 C 
ATOM     33  H28 0BM d   1      22.633   7.430  17.493  0.00  0.00     0.065 H 
ATOM     34  H29 0BM d   1      24.118   8.030  18.306  0.00  0.00     0.065 H 
ATOM     35  H30 0BM d   1      24.882   5.764  18.724  0.00  0.00     0.036 H 
ATOM     36  H31 0BM d   1      23.191   5.917  19.309  0.00  0.00     0.036 H 
ATOM     37  N33 0BM d   1      24.724   9.636  16.522  0.00  0.00    -0.235 N 
ATOM     38  N34 0BM d   1      25.437   8.536  14.579  0.00  0.00    -0.235 N 
ATOM     39  H32 0BM d   1      25.037  10.538  16.136  0.00  0.00     0.174 HD
ATOM     40  H33 0BM d   1      24.296   9.597  17.458  0.00  0.00     0.174 HD
ATOM     41  H34 0BM d   1      25.575   7.703  13.989  0.00  0.00     0.174 HD
ATOM     42  H35 0BM d   1      25.737   9.461  14.241  0.00  0.00     0.174 HD
ATOM     43  H23 0BM d   1      22.378   4.889  17.275  0.00  0.00     0.042 H 
ENDBRANCH  19  22
ENDBRANCH  17  19
ENDBRANCH   4  15
BRANCH   1  44
ATOM     44  C8  0BM d   1      27.344   5.320  22.869  0.00  0.00     0.100 C 
ATOM     45  H5  0BM d   1      27.081   4.766  23.782  0.00  0.00     0.088 H 
BRANCH  44  46
ATOM     46  N9  0BM d   1      26.611   6.578  22.799  0.00  0.00    -0.306 N 
ATOM     47  H4  0BM d   1      26.995   7.324  22.255  0.00  0.00     0.173 HD
BRANCH  46  48
ATOM     48  S10 0BM d   1      25.188   6.825  23.570  0.00  0.00     0.223 S 
ATOM     49  O11 0BM d   1      25.409   6.422  24.921  0.00  0.00    -0.206 OA
ATOM     50  O12 0BM d   1      24.825   8.180  23.298  0.00  0.00    -0.206 OA
BRANCH  48  51
ATOM     51  C13 0BM d   1      23.973   5.780  22.872  0.00  0.00     0.032 C 
ATOM     52  H1  0BM d   1      24.234   4.730  23.071  0.00  0.00     0.051 H 
ATOM     53  H2  0BM d   1      23.926   5.947  21.786  0.00  0.00     0.051 H 
ATOM     54  H3  0BM d   1      22.994   6.005  23.320  0.00  0.00     0.051 H 
ENDBRANCH  48  51
ENDBRANCH  46  48
ENDBRANCH  44  46
BRANCH  44  55
ATOM     55  C7  0BM d   1      28.843   5.650  22.874  0.00  0.00    -0.013 C 
ATOM     56  H6  0BM d   1      29.058   6.291  23.742  0.00  0.00     0.043 H 
ATOM     57  H7  0BM d   1      29.086   6.192  21.948  0.00  0.00     0.043 H 
BRANCH  55  58
ATOM     58  C6  0BM d   1      29.715   4.423  22.955  0.00  0.00    -0.056 A 
ATOM     59  C1  0BM d   1      30.478   4.019  21.863  0.00  0.00    -0.077 A 
ATOM     60  C2  0BM d   1      31.269   2.882  21.931  0.00  0.00    -0.082 A 
ATOM     61  H8  0BM d   1      30.453   4.600  20.948  0.00  0.00     0.084 H 
ATOM     62  C3  0BM d   1      31.313   2.135  23.095  0.00  0.00    -0.083 A 
ATOM     63  H10 0BM d   1      31.854   2.578  21.071  0.00  0.00     0.083 H 
ATOM     64  C4  0BM d   1      30.564   2.525  24.187  0.00  0.00    -0.082 A 
ATOM     65  H12 0BM d   1      31.933   1.247  23.149  0.00  0.00     0.083 H 
ATOM     66  C5  0BM d   1      29.770   3.662  24.119  0.00  0.00    -0.077 A 
ATOM     67  H11 0BM d   1      30.596   1.942  25.100  0.00  0.00     0.083 H 
ATOM     68  H9  0BM d   1      29.186   3.960  24.982  0.00  0.00     0.084 H 
ENDBRANCH  55  58
ENDBRANCH  44  55
ENDBRANCH   1  44
TORSDOF 9
