REMARK  10 active torsions:
REMARK  status: ('A' for Active; 'I' for Inactive)
REMARK    1  A    between atoms: C2_3  and  C1_1 
REMARK    2  A    between atoms: N1_2  and  C4_7 
REMARK       I    between atoms: C6_10  and  N1_2 
REMARK    3  A    between atoms: C3_5  and  C2_3 
REMARK    4  A    between atoms: C4_7  and  C3_5 
REMARK       I    between atoms: C5_8  and  N3_6 
REMARK    5  A    between atoms: C4_7  and  C5_8 
REMARK    6  A    between atoms: C7_12  and  C6_10 
REMARK    7  A    between atoms: C8_14  and  C7_12 
REMARK    8  A    between atoms: C9_15  and  C8_14 
REMARK    9  A    between atoms: C19_24  and  C12_18 
REMARK   10  A    between atoms: C15_21  and  C37_27 
ROOT
ATOM      1  C9  E3P d   1     -10.483 -25.244   0.692  0.00  0.00    -0.058 A 
ATOM      2  C10 E3P d   1      -9.562 -24.329   0.275  0.00  0.00    -0.076 A 
ATOM      3  C11 E3P d   1      -9.452 -22.997   0.944  0.00  0.00    -0.072 A 
ATOM      4  C12 E3P d   1     -10.292 -22.697   1.951  0.00  0.00    -0.026 A 
ATOM      5  C13 E3P d   1     -11.297 -23.689   2.419  0.00  0.00    -0.072 A 
ATOM      6  C14 E3P d   1     -11.398 -24.921   1.816  0.00  0.00    -0.076 A 
ATOM      7  H13 E3P d   1      -8.902 -24.570  -0.551  0.00  0.00     0.084 H 
ATOM      8  H14 E3P d   1      -8.704 -22.281   0.622  0.00  0.00     0.084 H 
ATOM      9  H15 E3P d   1     -11.956 -23.439   3.243  0.00  0.00     0.084 H 
ATOM     10  H16 E3P d   1     -12.132 -25.643   2.155  0.00  0.00     0.084 H 
ENDROOT
BRANCH   1  11
ATOM     11  C8  E3P d   1     -10.547 -26.577  -0.011  0.00  0.00    -0.033 C 
ATOM     12  H11 E3P d   1      -9.730 -26.648  -0.744  0.00  0.00     0.040 H 
ATOM     13  H12 E3P d   1     -10.450 -27.388   0.726  0.00  0.00     0.040 H 
BRANCH  11  14
ATOM     14  C7  E3P d   1     -11.876 -26.693  -0.721  0.00  0.00     0.013 C 
ATOM     15  H9  E3P d   1     -12.703 -26.441  -0.041  0.00  0.00     0.047 H 
ATOM     16  H10 E3P d   1     -11.907 -26.030  -1.598  0.00  0.00     0.047 H 
BRANCH  14  17
ATOM     17  C6  E3P d   1     -11.955 -28.147  -1.145  0.00  0.00     0.218 C 
ATOM     18  N1  E3P d   1     -12.617 -29.118  -0.315  0.00  0.00    -0.348 N 
ATOM     19  H1  E3P d   1     -13.047 -28.831   0.541  0.00  0.00     0.163 HD
ATOM     20  O2  E3P d   1     -11.433 -28.516  -2.177  0.00  0.00    -0.274 OA
BRANCH  18  21
ATOM     21  C4  E3P d   1     -12.663 -30.512  -0.716  0.00  0.00     0.089 C 
ATOM     22  H8  E3P d   1     -12.032 -30.651  -1.606  0.00  0.00     0.087 H 
BRANCH  21  23
ATOM     23  C3  E3P d   1     -12.134 -31.394   0.402  0.00  0.00    -0.029 C 
ATOM     24  H4  E3P d   1     -12.654 -31.137   1.337  0.00  0.00     0.037 H 
ATOM     25  H5  E3P d   1     -12.330 -32.447   0.150  0.00  0.00     0.037 H 
BRANCH  23  26
ATOM     26  C2  E3P d   1     -10.661 -31.206   0.597  0.00  0.00     0.018 C 
ATOM     27  H2  E3P d   1     -10.216 -32.156   0.928  0.00  0.00     0.049 H 
ATOM     28  H3  E3P d   1     -10.206 -30.900  -0.357  0.00  0.00     0.049 H 
BRANCH  26  29
ATOM     29  C1  E3P d   1     -10.398 -30.151   1.630  0.00  0.00     0.172 C 
ATOM     30  O6  E3P d   1      -9.250 -29.656   1.768  0.00  0.00    -0.648 OA
ATOM     31  O7  E3P d   1     -11.330 -29.754   2.383  0.00  0.00    -0.648 OA
ENDBRANCH  26  29
ENDBRANCH  23  26
ENDBRANCH  21  23
BRANCH  21  32
ATOM     32  C5  E3P d   1     -14.071 -30.883  -1.056  0.00  0.00     0.238 C 
ATOM     33  N3  E3P d   1     -14.869 -30.002  -1.595  0.00  0.00    -0.368 N 
ATOM     34  H6  E3P d   1     -15.810 -30.252  -1.821  0.00  0.00     0.159 HD
ATOM     35  H7  E3P d   1     -14.539 -29.077  -1.781  0.00  0.00     0.159 HD
ATOM     36  O5  E3P d   1     -14.488 -32.018  -0.836  0.00  0.00    -0.271 OA
ENDBRANCH  21  32
ENDBRANCH  18  21
ENDBRANCH  14  17
ENDBRANCH  11  14
ENDBRANCH   1  11
BRANCH   4  37
ATOM     37  C19 E3P d   1     -10.175 -21.346   2.615  0.00  0.00    -0.026 A 
ATOM     38  C17 E3P d   1     -10.948 -21.101   3.858  0.00  0.00    -0.071 A 
ATOM     39  C16 E3P d   1     -10.853 -19.884   4.486  0.00  0.00    -0.071 A 
ATOM     40  H18 E3P d   1     -11.584 -21.878   4.267  0.00  0.00     0.084 H 
ATOM     41  C15 E3P d   1      -9.985 -18.827   3.921  0.00  0.00    -0.026 A 
ATOM     42  H17 E3P d   1     -11.413 -19.697   5.395  0.00  0.00     0.084 H 
ATOM     43  C36 E3P d   1      -9.257 -19.044   2.785  0.00  0.00    -0.071 A 
ATOM     44  C35 E3P d   1      -9.370 -20.375   2.092  0.00  0.00    -0.071 A 
ATOM     45  H20 E3P d   1      -8.609 -18.270   2.390  0.00  0.00     0.084 H 
ATOM     46  H19 E3P d   1      -8.814 -20.562   1.181  0.00  0.00     0.084 H 
BRANCH  41  47
ATOM     47  C37 E3P d   1      -9.891 -17.535   4.658  0.00  0.00    -0.026 A 
ATOM     48  C38 E3P d   1      -9.620 -16.255   3.941  0.00  0.00    -0.072 A 
ATOM     49  C39 E3P d   1      -9.522 -15.104   4.666  0.00  0.00    -0.082 A 
ATOM     50  H21 E3P d   1      -9.503 -16.240   2.863  0.00  0.00     0.084 H 
ATOM     51  C40 E3P d   1      -9.669 -15.142   6.154  0.00  0.00    -0.083 A 
ATOM     52  H22 E3P d   1      -9.338 -14.161   4.164  0.00  0.00     0.083 H 
ATOM     53  C41 E3P d   1      -9.901 -16.317   6.806  0.00  0.00    -0.082 A 
ATOM     54  H23 E3P d   1      -9.590 -14.222   6.722  0.00  0.00     0.083 H 
ATOM     55  C42 E3P d   1     -10.015 -17.577   6.017  0.00  0.00    -0.072 A 
ATOM     56  H24 E3P d   1     -10.001 -16.335   7.885  0.00  0.00     0.083 H 
ATOM     57  H25 E3P d   1     -10.195 -18.521   6.519  0.00  0.00     0.084 H 
ENDBRANCH  41  47
ENDBRANCH   4  37
TORSDOF 10
