REMARK  5 active torsions:
REMARK  status: ('A' for Active; 'I' for Inactive)
REMARK    1  A    between atoms: C1_2  and  C2_4 
REMARK    2  A    between atoms: C2_4  and  C3_6 
REMARK    3  A    between atoms: C3_6  and  C4_7 
REMARK    4  A    between atoms: C4_7  and  C5_8 
REMARK    5  A    between atoms: C4_7  and  C6_9 
ROOT
ATOM      1  C4  03H d   1      -9.227 -31.485  16.703  0.00  0.00    -0.059 C 
ATOM      2  H4  03H d   1      -8.981 -30.431  16.898  0.00  0.00     0.038 H 
ENDROOT
BRANCH   1   3
ATOM      3  C3  03H d   1      -9.017 -31.753  15.218  0.00  0.00    -0.037 C 
ATOM      4  H2  03H d   1      -9.012 -32.841  15.053  0.00  0.00     0.036 H 
ATOM      5  H3  03H d   1      -9.848 -31.301  14.657  0.00  0.00     0.036 H 
BRANCH   3   6
ATOM      6  C2  03H d   1      -7.706 -31.175  14.698  0.00  0.00     0.102 C 
ATOM      7 CL   03H d   1      -7.775 -29.390  14.521  0.00  0.00    -0.114 Cl
ATOM      8  H1  03H d   1      -6.896 -31.434  15.396  0.00  0.00     0.081 H 
BRANCH   6   9
ATOM      9  C1  03H d   1      -7.433 -31.781  13.354  0.00  0.00     0.192 C 
ATOM     10  O1  03H d   1      -6.923 -32.886  13.303  0.00  0.00    -0.647 OA
ATOM     11  O2  03H d   1      -8.145 -31.374  12.304  0.00  0.00    -0.647 OA
ENDBRANCH   6   9
ENDBRANCH   3   6
ENDBRANCH   1   3
BRANCH   1  12
ATOM     12  C5  03H d   1     -10.683 -31.719  17.067  0.00  0.00    -0.073 C 
ATOM     13  H5  03H d   1     -10.829 -31.524  18.140  0.00  0.00     0.028 H 
ATOM     14  H6  03H d   1     -10.954 -32.761  16.844  0.00  0.00     0.028 H 
ATOM     15  H7  03H d   1     -11.321 -31.041  16.481  0.00  0.00     0.028 H 
ENDBRANCH   1  12
BRANCH   1  16
ATOM     16  C6  03H d   1      -8.334 -32.351  17.583  0.00  0.00    -0.073 C 
ATOM     17  H8  03H d   1      -7.280 -32.180  17.317  0.00  0.00     0.028 H 
ATOM     18  H9  03H d   1      -8.583 -33.411  17.428  0.00  0.00     0.028 H 
ATOM     19  H10 03H d   1      -8.493 -32.087  18.639  0.00  0.00     0.028 H 
ENDBRANCH   1  16
TORSDOF 5
