REMARK  8 active torsions:
REMARK  status: ('A' for Active; 'I' for Inactive)
REMARK    1  A    between atoms: C6_4  and  N1_1 
REMARK    2  A    between atoms: C7_5  and  C8_6 
REMARK    3  A    between atoms: C3_12  and  C7_5 
REMARK    4  A    between atoms: C8_6  and  C12_9 
REMARK    5  A    between atoms: C8_6  and  N2_11 
REMARK    6  A    between atoms: C9_18  and  C10_7 
REMARK    7  A    between atoms: C10_7  and  C11_19 
REMARK    8  A    between atoms: C2_17  and  C9_18 
ROOT
ATOM      1  C4  TZG d   1      -3.898  27.587  57.276  0.00  0.00    -0.053 A 
ATOM      2  C5  TZG d   1      -5.244  27.918  57.364  0.00  0.00     0.067 A 
ATOM      3  C6  TZG d   1      -6.158  27.322  56.498  0.00  0.00     0.125 A 
ATOM      4  C3  TZG d   1      -3.457  26.670  56.322  0.00  0.00    -0.048 A 
ATOM      5 CL1  TZG d   1      -5.748  29.052  58.574  0.00  0.00    -0.082 Cl
ATOM      6  C1  TZG d   1      -5.716  26.417  55.543  0.00  0.00    -0.043 A 
ATOM      7  C2  TZG d   1      -4.372  26.081  55.449  0.00  0.00    -0.049 A 
ATOM      8  H1  TZG d   1      -3.186  28.044  57.953  0.00  0.00     0.087 H 
ATOM      9  H10 TZG d   1      -6.429  25.967  54.862  0.00  0.00     0.088 H 
ENDROOT
BRANCH   4  10
ATOM     10  C7  TZG d   1      -1.962  26.368  56.294  0.00  0.00    -0.004 C 
ATOM     11  H2  TZG d   1      -1.603  26.386  55.254  0.00  0.00     0.044 H 
ATOM     12  H3  TZG d   1      -1.423  27.126  56.881  0.00  0.00     0.044 H 
BRANCH  10  13
ATOM     13  C8  TZG d   1      -1.716  24.995  56.892  0.00  0.00     0.186 C 
ATOM     14  H4  TZG d   1      -2.351  24.250  56.391  0.00  0.00     0.101 H 
BRANCH  13  15
ATOM     15  C12 TZG d   1      -0.249  24.628  56.692  0.00  0.00     0.204 C 
ATOM     16  O4  TZG d   1       0.104  24.384  55.515  0.00  0.00    -0.646 OA
ATOM     17  O5  TZG d   1       0.482  24.606  57.710  0.00  0.00    -0.646 OA
ENDBRANCH  13  15
BRANCH  13  18
ATOM     18  N2  TZG d   1      -2.051  25.042  58.316  0.00  0.00    -0.065 N 
ATOM     19  H7  TZG d   1      -1.893  24.136  58.728  0.00  0.00     0.275 HD
ATOM     20  H8  TZG d   1      -3.020  25.296  58.425  0.00  0.00     0.275 HD
ATOM     21  H9  TZG d   1      -1.471  25.726  58.775  0.00  0.00     0.275 HD
ENDBRANCH  13  18
ENDBRANCH  10  13
ENDBRANCH   4  10
BRANCH   7  22
ATOM     22  C9  TZG d   1      -3.989  25.070  54.368  0.00  0.00    -0.031 C 
ATOM     23  H11 TZG d   1      -2.893  24.987  54.326  0.00  0.00     0.040 H 
ATOM     24  H12 TZG d   1      -4.421  24.091  54.622  0.00  0.00     0.040 H 
BRANCH  22  25
ATOM     25  C10 TZG d   1      -4.509  25.505  53.001  0.00  0.00     0.019 C 
ATOM     26  H5  TZG d   1      -3.917  25.011  52.217  0.00  0.00     0.049 H 
ATOM     27  H6  TZG d   1      -4.405  26.596  52.907  0.00  0.00     0.049 H 
BRANCH  25  28
ATOM     28  C11 TZG d   1      -5.985  25.125  52.830  0.00  0.00     0.172 C 
ATOM     29  O7  TZG d   1      -6.688  25.897  52.153  0.00  0.00    -0.648 OA
ATOM     30  O6  TZG d   1      -6.386  24.083  53.388  0.00  0.00    -0.648 OA
ENDBRANCH  25  28
ENDBRANCH  22  25
ENDBRANCH   7  22
BRANCH   3  31
ATOM     31  N1  TZG d   1      -7.454  27.621  56.534  0.00  0.00    -0.114 N 
ATOM     32  O1  TZG d   1      -8.429  26.662  56.138  0.00  0.00    -0.532 OA
ATOM     33  O2  TZG d   1      -7.850  28.939  56.848  0.00  0.00    -0.532 OA
ENDBRANCH   3  31
TORSDOF 8
