REMARK  4 active torsions:
REMARK  status: ('A' for Active; 'I' for Inactive)
REMARK    1  A    between atoms: CAW_9  and  CBB_10 
REMARK    2  A    between atoms: CBA_12  and  CAV_13 
REMARK    3  A    between atoms: CAU_18  and  CAT_19 
REMARK       I    between atoms: CAT_19  and  NAA_21 
REMARK    4  A    between atoms: CBC_23  and  CAX_24 
ROOT
ATOM      1  CBB 085 d   1       4.650   8.758   5.945  0.00  0.00     0.098 A 
ATOM      2  NAP 085 d   1       4.129   8.277   7.077  0.00  0.00    -0.227 NA
ATOM      3  CBA 085 d   1       4.687   8.873   8.134  0.00  0.00     0.139 A 
ATOM      4  NAQ 085 d   1       5.594   9.737   7.673  0.00  0.00    -0.336 N 
ATOM      5  CBC 085 d   1       5.605   9.701   6.332  0.00  0.00     0.092 A 
ATOM      6  H12 085 d   1       6.193  10.338   8.257  0.00  0.00     0.168 HD
ENDROOT
BRANCH   3   7
ATOM      7  CAV 085 d   1       4.370   8.618   9.473  0.00  0.00     0.010 A 
ATOM      8  CAJ 085 d   1       4.881   9.419  10.506  0.00  0.00    -0.068 A 
ATOM      9  CAH 085 d   1       4.551   9.146  11.840  0.00  0.00    -0.067 A 
ATOM     10  H6  085 d   1       5.534  10.252  10.271  0.00  0.00     0.085 H 
ATOM     11  CAU 085 d   1       3.719   8.066  12.157  0.00  0.00     0.031 A 
ATOM     12  H7  085 d   1       4.942   9.775  12.631  0.00  0.00     0.085 H 
ATOM     13  CAG 085 d   1       3.226   7.254  11.135  0.00  0.00    -0.067 A 
ATOM     14  CAI 085 d   1       3.546   7.530   9.801  0.00  0.00    -0.068 A 
ATOM     15  H9  085 d   1       2.593   6.407  11.375  0.00  0.00     0.085 H 
ATOM     16  H8  085 d   1       3.154   6.897   9.013  0.00  0.00     0.085 H 
BRANCH  11  17
ATOM     17  CAT 085 d   1       3.365   7.776  13.619  0.00  0.00     0.249 C 
ATOM     18  OAB 085 d   1       4.168   8.005  14.532  0.00  0.00    -0.268 OA
ATOM     19  NAA 085 d   1       2.135   7.302  13.811  0.00  0.00    -0.366 N 
ATOM     20  H10 085 d   1       1.821   7.085  14.736  0.00  0.00     0.159 HD
ATOM     21  H11 085 d   1       1.525   7.163  13.031  0.00  0.00     0.159 HD
ENDBRANCH  11  17
ENDBRANCH   3   7
BRANCH   1  22
ATOM     22  CAW 085 d   1       4.291   8.276   4.663  0.00  0.00    -0.002 A 
ATOM     23  CAM 085 d   1       2.980   7.842   4.451  0.00  0.00    -0.036 A 
ATOM     24  CAZ 085 d   1       2.585   7.302   3.233  0.00  0.00     0.105 A 
ATOM     25  H1  085 d   1       2.256   7.928   5.253  0.00  0.00     0.089 H 
ATOM     26  OAS 085 d   1       1.362   6.847   2.825  0.00  0.00    -0.323 OA
ATOM     27  CAY 085 d   1       3.514   7.156   2.197  0.00  0.00     0.105 A 
ATOM     28  CAN 085 d   1       1.487   6.539   1.449  0.00  0.00     0.115 C 
ATOM     29  OAR 085 d   1       2.890   6.613   1.114  0.00  0.00    -0.323 OA
ATOM     30  H2  085 d   1       0.919   7.264   0.849  0.00  0.00     0.118 H 
ATOM     31  H3  085 d   1       1.107   5.525   1.255  0.00  0.00     0.118 H 
ATOM     32  CAL 085 d   1       4.830   7.554   2.392  0.00  0.00    -0.047 A 
ATOM     33  CAK 085 d   1       5.214   8.106   3.620  0.00  0.00    -0.068 A 
ATOM     34  H4  085 d   1       5.557   7.438   1.597  0.00  0.00     0.087 H 
ATOM     35  H5  085 d   1       6.245   8.408   3.768  0.00  0.00     0.085 H 
ENDBRANCH   1  22
BRANCH   5  36
ATOM     36  CAX 085 d   1       6.423  10.512   5.523  0.00  0.00     0.085 A 
ATOM     37  CAF 085 d   1       7.705  10.812   5.981  0.00  0.00    -0.053 A 
ATOM     38  CAD 085 d   1       8.546  11.633   5.231  0.00  0.00    -0.079 A 
ATOM     39  H13 085 d   1       8.050  10.405   6.925  0.00  0.00     0.087 H 
ATOM     40  CAC 085 d   1       8.080  12.188   4.036  0.00  0.00    -0.066 A 
ATOM     41  H14 085 d   1       9.554  11.839   5.572  0.00  0.00     0.083 H 
ATOM     42  CAE 085 d   1       6.774  11.879   3.624  0.00  0.00     0.003 A 
ATOM     43  H15 085 d   1       8.711  12.840   3.443  0.00  0.00     0.085 H 
ATOM     44  NAO 085 d   1       5.984  11.075   4.366  0.00  0.00    -0.259 NA
ATOM     45  H16 085 d   1       6.395  12.292   2.696  0.00  0.00     0.114 H 
ENDBRANCH   5  36
TORSDOF 4
