REMARK  2 active torsions:
REMARK  status: ('A' for Active; 'I' for Inactive)
REMARK    1  A    between atoms: CAR_9  and  CAA_10 
REMARK    2  A    between atoms: CAO_16  and  CAQ_17 
ROOT
ATOM      1  CAS 08H d   1      29.121  15.727  -1.182  0.00  0.00     0.022 A 
ATOM      2  CAJ 08H d   1      27.843  15.159  -1.053  0.00  0.00    -0.048 A 
ATOM      3  CAP 08H d   1      27.286  15.083   0.217  0.00  0.00     0.035 A 
ATOM      4 CLAB 08H d   1      25.701  14.389   0.432  0.00  0.00    -0.084 Cl
ATOM      5  CAH 08H d   1      27.915  15.578   1.366  0.00  0.00    -0.060 A 
ATOM      6  CAI 08H d   1      29.192  16.150   1.224  0.00  0.00    -0.054 A 
ATOM      7  CAU 08H d   1      29.763  16.230  -0.040  0.00  0.00     0.055 A 
ATOM      8  NAV 08H d   1      31.023  16.810  -0.046  0.00  0.00    -0.282 N 
ATOM      9  CAR 08H d   1      31.533  17.872   0.633  0.00  0.00     0.131 A 
ATOM     10  NAM 08H d   1      32.815  18.037   0.299  0.00  0.00    -0.135 NA
ATOM     11  NAN 08H d   1      33.151  17.112  -0.526  0.00  0.00    -0.133 NA
ATOM     12  CAT 08H d   1      32.058  16.349  -0.758  0.00  0.00     0.154 A 
ATOM     13  CAK 08H d   1      31.956  15.215  -1.730  0.00  0.00     0.072 C 
ATOM     14  NAL 08H d   1      30.979  15.691  -2.746  0.00  0.00    -0.281 NA
ATOM     15  CAO 08H d   1      29.651  15.777  -2.509  0.00  0.00     0.074 C 
ATOM     16  H1  08H d   1      27.307  14.790  -1.920  0.00  0.00     0.087 H 
ATOM     17  H2  08H d   1      27.433  15.522   2.335  0.00  0.00     0.086 H 
ATOM     18  H3  08H d   1      29.725  16.524   2.091  0.00  0.00     0.087 H 
ATOM     19  H7  08H d   1      31.588  14.306  -1.232  0.00  0.00     0.079 H 
ATOM     20  H8  08H d   1      32.932  15.010  -2.194  0.00  0.00     0.079 H 
ENDROOT
BRANCH  15  21
ATOM     21  CAQ 08H d   1      28.859  16.264  -3.614  0.00  0.00    -0.007 A 
ATOM     22  CAF 08H d   1      27.692  16.991  -3.398  0.00  0.00    -0.071 A 
ATOM     23  CAD 08H d   1      26.958  17.533  -4.455  0.00  0.00    -0.082 A 
ATOM     24  H9  08H d   1      27.344  17.140  -2.382  0.00  0.00     0.084 H 
ATOM     25  CAC 08H d   1      27.343  17.328  -5.777  0.00  0.00    -0.083 A 
ATOM     26  H10 08H d   1      26.074  18.123  -4.243  0.00  0.00     0.083 H 
ATOM     27  CAE 08H d   1      28.491  16.593  -5.996  0.00  0.00    -0.082 A 
ATOM     28  H11 08H d   1      26.765  17.729  -6.601  0.00  0.00     0.083 H 
ATOM     29  CAG 08H d   1      29.227  16.066  -4.939  0.00  0.00    -0.071 A 
ATOM     30  H12 08H d   1      28.826  16.423  -7.013  0.00  0.00     0.083 H 
ATOM     31  H13 08H d   1      30.115  15.483  -5.156  0.00  0.00     0.084 H 
ENDBRANCH  15  21
BRANCH   9  32
ATOM     32  CAA 08H d   1      30.806  18.822   1.603  0.00  0.00    -0.019 C 
ATOM     33  H4  08H d   1      31.514  19.575   1.978  0.00  0.00     0.037 H 
ATOM     34  H5  08H d   1      30.403  18.245   2.448  0.00  0.00     0.037 H 
ATOM     35  H6  08H d   1      29.982  19.325   1.075  0.00  0.00     0.037 H 
ENDBRANCH   9  32
TORSDOF 2
