REMARK  3 active torsions:
REMARK  status: ('A' for Active; 'I' for Inactive)
REMARK    1  A    between atoms: CAO_5  and  CAQ_6 
REMARK    2  A    between atoms: NAK_13  and  C23_14 
REMARK    3  A    between atoms: CAR_17  and  CAA_18 
ROOT
ATOM      1 CLA  08K d   1      25.614  14.426   0.445  0.00  0.00    -0.084 Cl
ATOM      2  CAP 08K d   1      27.214  15.117   0.230  0.00  0.00     0.035 A 
ATOM      3  CAJ 08K d   1      27.753  15.183  -1.031  0.00  0.00    -0.048 A 
ATOM      4  CAS 08K d   1      29.024  15.761  -1.189  0.00  0.00     0.025 A 
ATOM      5  CAO 08K d   1      29.591  15.844  -2.573  0.00  0.00     0.100 C 
ATOM      6  NAL 08K d   1      30.858  15.687  -2.793  0.00  0.00    -0.156 NA
ATOM      7  NAK 08K d   1      31.858  15.323  -1.794  0.00  0.00    -0.101 N 
ATOM      8  CAT 08K d   1      31.991  16.274  -0.835  0.00  0.00     0.749 A 
ATOM      9  NAV 08K d   1      31.008  16.811  -0.147  0.00  0.00    -0.128 N 
ATOM     10  CAR 08K d   1      31.496  17.851   0.557  0.00  0.00     0.147 A 
ATOM     11  NAM 08K d   1      32.776  17.996   0.241  0.00  0.00    -0.120 NA
ATOM     12  NAN 08K d   1      33.125  16.975  -0.661  0.00  0.00     0.046 NA
ATOM     13  CAU 08K d   1      29.739  16.256  -0.079  0.00  0.00     0.071 A 
ATOM     14  CAI 08K d   1      29.136  16.096   1.184  0.00  0.00    -0.053 A 
ATOM     15  CAH 08K d   1      27.878  15.563   1.351  0.00  0.00    -0.060 A 
ATOM     16  H1  08K d   1      27.210  14.797  -1.886  0.00  0.00     0.087 H 
ATOM     17  H13 08K d   1      29.688  16.407   2.064  0.00  0.00     0.087 H 
ATOM     18  H14 08K d   1      27.424  15.496   2.333  0.00  0.00     0.086 H 
ENDROOT
BRANCH   5  19
ATOM     19  CAQ 08K d   1      28.692  16.306  -3.688  0.00  0.00    -0.005 A 
ATOM     20  CAG 08K d   1      27.529  17.056  -3.449  0.00  0.00    -0.071 A 
ATOM     21  CAE 08K d   1      26.760  17.544  -4.509  0.00  0.00    -0.082 A 
ATOM     22  H2  08K d   1      27.224  17.259  -2.429  0.00  0.00     0.084 H 
ATOM     23  CAC 08K d   1      27.156  17.300  -5.819  0.00  0.00    -0.083 A 
ATOM     24  H3  08K d   1      25.858  18.111  -4.310  0.00  0.00     0.083 H 
ATOM     25  CAD 08K d   1      28.339  16.589  -6.052  0.00  0.00    -0.082 A 
ATOM     26  H4  08K d   1      26.556  17.656  -6.649  0.00  0.00     0.083 H 
ATOM     27  CAF 08K d   1      29.088  16.089  -5.008  0.00  0.00    -0.071 A 
ATOM     28  H5  08K d   1      28.672  16.429  -7.071  0.00  0.00     0.083 H 
ATOM     29  H6  08K d   1      29.990  15.524  -5.214  0.00  0.00     0.084 H 
ENDBRANCH   5  19
BRANCH   7  30
ATOM     30  C23 08K d   1      32.982  14.496  -2.169  0.00  0.00     0.020 C 
ATOM     31  H7  08K d   1      33.623  14.329  -1.291  0.00  0.00     0.060 H 
ATOM     32  H8  08K d   1      33.562  15.000  -2.956  0.00  0.00     0.060 H 
ATOM     33  H9  08K d   1      32.617  13.529  -2.546  0.00  0.00     0.060 H 
ENDBRANCH   7  30
BRANCH  10  34
ATOM     34  CAA 08K d   1      30.803  18.745   1.525  0.00  0.00    -0.018 C 
ATOM     35  H10 08K d   1      31.515  19.490   1.911  0.00  0.00     0.037 H 
ATOM     36  H11 08K d   1      30.410  18.147   2.360  0.00  0.00     0.037 H 
ATOM     37  H12 08K d   1      29.973  19.259   1.019  0.00  0.00     0.037 H 
ENDBRANCH  10  34
TORSDOF 3
