REMARK  11 active torsions:
REMARK  status: ('A' for Active; 'I' for Inactive)
REMARK    1  A    between atoms: N3_2  and  C23_35 
REMARK    2  A    between atoms: C10_8  and  O1_26 
REMARK    3  A    between atoms: N2_30  and  C15_10 
REMARK    4  A    between atoms: C20_12  and  C22_14 
REMARK    5  A    between atoms: N4_36  and  C24_15 
REMARK    6  A    between atoms: O3_19  and  C11_18 
REMARK    7  A    between atoms: C2_20  and  O3_19 
REMARK    8  A    between atoms: C1_22  and  O2_23 
REMARK    9  A    between atoms: O2_23  and  C12_24 
REMARK   10  A    between atoms: O1_26  and  C9_25 
REMARK       I    between atoms: C18_31  and  N2_30 
REMARK   11  A    between atoms: C18_31  and  C19_33 
ROOT
ATOM      1  C10 03X d   1      21.676   4.632 -19.239  0.00  0.00     0.114 A 
ATOM      2  C13 03X d   1      22.087   5.428 -18.177  0.00  0.00     0.152 A 
ATOM      3  C15 03X d   1      22.596   3.485 -16.840  0.00  0.00     0.037 A 
ATOM      4  C17 03X d   1      21.717   3.236 -19.105  0.00  0.00    -0.045 A 
ATOM      5  C14 03X d   1      22.556   4.869 -16.991  0.00  0.00    -0.017 A 
ATOM      6  F1  03X d   1      22.040   6.758 -18.306  0.00  0.00    -0.203 F 
ATOM      7  C16 03X d   1      22.187   2.671 -17.906  0.00  0.00    -0.054 A 
ATOM      8  H4  03X d   1      21.389   2.599 -19.918  0.00  0.00     0.088 H 
ATOM      9  H17 03X d   1      22.890   5.512 -16.184  0.00  0.00     0.091 H 
ATOM     10  H18 03X d   1      22.234   1.593 -17.805  0.00  0.00     0.087 H 
ENDROOT
BRANCH   3  11
ATOM     11  N2  03X d   1      23.095   3.027 -15.679  0.00  0.00    -0.326 N 
ATOM     12  C18 03X d   1      23.209   1.758 -15.273  0.00  0.00     0.241 C 
ATOM     13  O4  03X d   1      22.857   0.775 -15.919  0.00  0.00    -0.272 OA
ATOM     14  H19 03X d   1      23.422   3.722 -15.039  0.00  0.00     0.169 HD
BRANCH  12  15
ATOM     15  C19 03X d   1      23.894   1.586 -13.911  0.00  0.00     0.140 A 
ATOM     16  C20 03X d   1      24.257   0.396 -13.303  0.00  0.00     0.025 A 
ATOM     17  N3  03X d   1      24.857   0.710 -12.150  0.00  0.00    -0.294 N 
ATOM     18  N4  03X d   1      24.890   1.947 -11.988  0.00  0.00    -0.222 N 
ATOM     19  C21 03X d   1      24.347   2.576 -13.046  0.00  0.00     0.262 A 
ATOM     20  O5  03X d   1      24.228   3.794 -13.207  0.00  0.00    -0.270 OA
ATOM     21  H20 03X d   1      22.895   1.576 -13.451  0.00  0.00     0.079 H 
BRANCH  16  22
ATOM     22  C22 03X d   1      24.006  -1.020 -13.834  0.00  0.00    -0.038 C 
ATOM     23  H5  03X d   1      23.494  -0.962 -14.806  0.00  0.00     0.035 H 
ATOM     24  H6  03X d   1      23.377  -1.573 -13.121  0.00  0.00     0.035 H 
ATOM     25  H7  03X d   1      24.967  -1.541 -13.957  0.00  0.00     0.035 H 
ENDBRANCH  16  22
BRANCH  17  26
ATOM     26  C23 03X d   1      25.387  -0.312 -11.171  0.00  0.00     0.001 C 
ATOM     27  H21 03X d   1      25.225  -1.323 -11.573  0.00  0.00     0.059 H 
ATOM     28  H22 03X d   1      24.858  -0.210 -10.212  0.00  0.00     0.059 H 
ATOM     29  H23 03X d   1      26.463  -0.147 -11.016  0.00  0.00     0.059 H 
ENDBRANCH  17  26
BRANCH  18  30
ATOM     30  C24 03X d   1      25.501   2.535 -10.957  0.00  0.00     0.060 A 
ATOM     31  C25 03X d   1      26.893   2.644 -11.077  0.00  0.00    -0.055 A 
ATOM     32  C26 03X d   1      27.673   3.219 -10.079  0.00  0.00    -0.081 A 
ATOM     33  H24 03X d   1      27.375   2.270 -11.973  0.00  0.00     0.087 H 
ATOM     34  C27 03X d   1      27.041   3.695  -8.936  0.00  0.00    -0.083 A 
ATOM     35  H8  03X d   1      28.749   3.294 -10.190  0.00  0.00     0.083 H 
ATOM     36  C28 03X d   1      25.654   3.587  -8.804  0.00  0.00    -0.081 A 
ATOM     37  H25 03X d   1      27.625   4.151  -8.145  0.00  0.00     0.083 H 
ATOM     38  C29 03X d   1      24.871   3.009  -9.808  0.00  0.00    -0.055 A 
ATOM     39  H9  03X d   1      25.175   3.959  -7.905  0.00  0.00     0.083 H 
ATOM     40  H26 03X d   1      23.796   2.931  -9.695  0.00  0.00     0.087 H 
ENDBRANCH  18  30
ENDBRANCH  12  15
ENDBRANCH   3  11
BRANCH   1  41
ATOM     41  O1  03X d   1      21.225   5.265 -20.372  0.00  0.00    -0.307 OA
BRANCH  41  42
ATOM     42  C9  03X d   1      21.996   5.283 -21.505  0.00  0.00     0.090 A 
ATOM     43  C5  03X d   1      21.407   5.703 -22.705  0.00  0.00     0.029 A 
ATOM     44  C4  03X d   1      20.057   6.075 -22.743  0.00  0.00    -0.033 A 
ATOM     45  C6  03X d   1      22.170   5.734 -23.873  0.00  0.00     0.072 A 
ATOM     46  C1  03X d   1      19.473   6.481 -23.947  0.00  0.00     0.102 A 
ATOM     47  H1  03X d   1      19.463   6.048 -21.836  0.00  0.00     0.089 H 
ATOM     48  C2  03X d   1      20.237   6.517 -25.109  0.00  0.00     0.103 A 
ATOM     49  C3  03X d   1      21.582   6.140 -25.074  0.00  0.00    -0.019 A 
ATOM     50  H13 03X d   1      22.172   6.163 -25.983  0.00  0.00     0.091 H 
ATOM     51  N1  03X d   1      23.469   5.368 -23.850  0.00  0.00    -0.260 NA
ATOM     52  C7  03X d   1      24.065   4.963 -22.722  0.00  0.00     0.005 A 
ATOM     53  C8  03X d   1      23.351   4.918 -21.521  0.00  0.00    -0.032 A 
ATOM     54  H2  03X d   1      25.108   4.668 -22.740  0.00  0.00     0.114 H 
ATOM     55  H3  03X d   1      23.841   4.603 -20.607  0.00  0.00     0.090 H 
BRANCH  46  56
ATOM     56  O2  03X d   1      18.161   6.870 -24.039  0.00  0.00    -0.353 OA
BRANCH  56  57
ATOM     57  C12 03X d   1      17.367   6.822 -22.826  0.00  0.00     0.010 C 
ATOM     58  H14 03X d   1      16.343   7.159 -23.045  0.00  0.00     0.066 H 
ATOM     59  H15 03X d   1      17.815   7.481 -22.068  0.00  0.00     0.066 H 
ATOM     60  H16 03X d   1      17.341   5.790 -22.446  0.00  0.00     0.066 H 
ENDBRANCH  56  57
ENDBRANCH  46  56
BRANCH  48  61
ATOM     61  O3  03X d   1      19.615   6.925 -26.260  0.00  0.00    -0.353 OA
BRANCH  61  62
ATOM     62  C11 03X d   1      20.432   7.005 -27.448  0.00  0.00     0.010 C 
ATOM     63  H10 03X d   1      19.816   7.342 -28.295  0.00  0.00     0.066 H 
ATOM     64  H11 03X d   1      20.852   6.013 -27.672  0.00  0.00     0.066 H 
ATOM     65  H12 03X d   1      21.251   7.721 -27.282  0.00  0.00     0.066 H 
ENDBRANCH  61  62
ENDBRANCH  48  61
ENDBRANCH  41  42
ENDBRANCH   1  41
TORSDOF 11
