REMARK  12 active torsions:
REMARK  status: ('A' for Active; 'I' for Inactive)
REMARK    1  A    between atoms: CAA_1  and  OBM_39 
REMARK    2  A    between atoms: OAK_11  and  CAG_7 
REMARK    3  A    between atoms: CAL_12  and  OAK_11 
REMARK    4  A    between atoms: NAR_18  and  CAP_16 
REMARK       I    between atoms: CAU_21  and  NAR_18 
REMARK    5  A    between atoms: CAT_20  and  CAU_21 
REMARK    6  A    between atoms: NAW_23  and  CBI_35 
REMARK    7  A    between atoms: CAX_24  and  CBH_34 
REMARK    8  A    between atoms: NAY_25  and  CBA_27 
REMARK    9  A    between atoms: CBI_35  and  CBJ_36 
REMARK   10  A    between atoms: CBJ_36  and  CBK_37 
REMARK   11  A    between atoms: CBJ_36  and  OBL_38 
REMARK   12  A    between atoms: OBM_39  and  CBN_40 
ROOT
ATOM      1  NAR 044 d   1      23.277  -2.807  15.480  0.00  0.00    -0.323 N 
ATOM      2  CAU 044 d   1      23.326  -1.534  15.059  0.00  0.00     0.263 C 
ATOM      3  OAV 044 d   1      22.904  -0.569  15.697  0.00  0.00    -0.267 OA
ATOM      4  H9  044 d   1      23.670  -3.481  14.854  0.00  0.00     0.169 HD
ENDROOT
BRANCH   2   5
ATOM      5  CAT 044 d   1      24.047  -1.351  13.705  0.00  0.00     0.125 A 
ATOM      6  CAS 044 d   1      24.503  -2.362  12.874  0.00  0.00     0.284 A 
ATOM      7  NAY 044 d   1      25.085  -1.782  11.819  0.00  0.00    -0.217 N 
ATOM      8  OAZ 044 d   1      24.357  -3.571  13.065  0.00  0.00    -0.265 OA
ATOM      9  NAW 044 d   1      25.057  -0.537  11.920  0.00  0.00    -0.283 N 
ATOM     10  CAX 044 d   1      24.449  -0.183  13.067  0.00  0.00     0.046 A 
BRANCH   7  11
ATOM     11  CBA 044 d   1      25.680  -2.460  10.834  0.00  0.00     0.060 A 
ATOM     12  CBB 044 d   1      27.068  -2.622  10.939  0.00  0.00    -0.055 A 
ATOM     13  CBE 044 d   1      27.786  -3.313   9.964  0.00  0.00    -0.081 A 
ATOM     14  H10 044 d   1      27.591  -2.204  11.791  0.00  0.00     0.087 H 
ATOM     15  CBF 044 d   1      27.102  -3.851   8.874  0.00  0.00    -0.083 A 
ATOM     16  H13 044 d   1      28.860  -3.430  10.052  0.00  0.00     0.083 H 
ATOM     17  CBD 044 d   1      25.720  -3.695   8.768  0.00  0.00    -0.081 A 
ATOM     18  H14 044 d   1      27.646  -4.391   8.108  0.00  0.00     0.083 H 
ATOM     19  CBC 044 d   1      24.999  -3.003   9.744  0.00  0.00    -0.055 A 
ATOM     20  H12 044 d   1      25.198  -4.117   7.917  0.00  0.00     0.083 H 
ATOM     21  H11 044 d   1      23.925  -2.889   9.656  0.00  0.00     0.087 H 
ENDBRANCH   7  11
BRANCH   9  22
ATOM     22  CBI 044 d   1      25.672   0.414  10.945  0.00  0.00     0.039 C 
ATOM     23  H18 044 d   1      26.452  -0.138  10.399  0.00  0.00     0.071 H 
ATOM     24  H19 044 d   1      26.136   1.224  11.528  0.00  0.00     0.071 H 
BRANCH  22  25
ATOM     25  CBJ 044 d   1      24.766   1.069   9.901  0.00  0.00     0.049 C 
ATOM     26  H20 044 d   1      23.953   1.600  10.417  0.00  0.00     0.085 H 
BRANCH  25  27
ATOM     27  CBK 044 d   1      25.578   2.081   9.077  0.00  0.00    -0.051 C 
ATOM     28  H21 044 d   1      24.925   2.551   8.327  0.00  0.00     0.030 H 
ATOM     29  H22 044 d   1      26.404   1.562   8.570  0.00  0.00     0.030 H 
ATOM     30  H23 044 d   1      25.985   2.854   9.745  0.00  0.00     0.030 H 
ENDBRANCH  25  27
BRANCH  25  31
ATOM     31  OBL 044 d   1      24.200   0.081   9.049  0.00  0.00    -0.394 OA
ATOM     32  H24 044 d   1      23.701  -0.537   9.570  0.00  0.00     0.210 HD
ENDBRANCH  25  31
ENDBRANCH  22  25
ENDBRANCH   9  22
BRANCH  10  33
ATOM     33  CBH 044 d   1      24.209   1.256  13.558  0.00  0.00    -0.035 C 
ATOM     34  H15 044 d   1      23.690   1.231  14.527  0.00  0.00     0.035 H 
ATOM     35  H16 044 d   1      23.591   1.795  12.825  0.00  0.00     0.035 H 
ATOM     36  H17 044 d   1      25.175   1.770  13.672  0.00  0.00     0.035 H 
ENDBRANCH  10  33
ENDBRANCH   2   5
BRANCH   1  37
ATOM     37  CAP 044 d   1      22.773  -3.307  16.628  0.00  0.00     0.038 A 
ATOM     38  CAO 044 d   1      22.779  -4.696  16.776  0.00  0.00    -0.017 A 
ATOM     39  CAN 044 d   1      22.305  -5.287  17.944  0.00  0.00     0.152 A 
ATOM     40  H7  044 d   1      23.156  -5.320  15.974  0.00  0.00     0.091 H 
ATOM     41  CAL 044 d   1      21.837  -4.511  18.992  0.00  0.00     0.114 A 
ATOM     42  FBG 044 d   1      22.307  -6.624  18.092  0.00  0.00    -0.203 F 
ATOM     43  CAM 044 d   1      21.822  -3.116  18.865  0.00  0.00    -0.045 A 
ATOM     44  CAQ 044 d   1      22.299  -2.525  17.686  0.00  0.00    -0.054 A 
ATOM     45  H6  044 d   1      21.445  -2.498  19.672  0.00  0.00     0.088 H 
ATOM     46  H8  044 d   1      22.300  -1.445  17.593  0.00  0.00     0.087 H 
BRANCH  41  47
ATOM     47  OAK 044 d   1      21.380  -5.163  20.103  0.00  0.00    -0.307 OA
BRANCH  47  48
ATOM     48  CAG 044 d   1      22.162  -5.174  21.233  0.00  0.00     0.090 A 
ATOM     49  CAB 044 d   1      23.517  -4.821  21.238  0.00  0.00    -0.032 A 
ATOM     50  CAC 044 d   1      24.237  -4.853  22.435  0.00  0.00     0.005 A 
ATOM     51  H1  044 d   1      24.005  -4.524  20.317  0.00  0.00     0.090 H 
ATOM     52  NAD 044 d   1      23.650  -5.218  23.571  0.00  0.00    -0.260 NA
ATOM     53  H2  044 d   1      25.285  -4.577  22.438  0.00  0.00     0.114 H 
ATOM     54  CAE 044 d   1      22.343  -5.557  23.608  0.00  0.00     0.072 A 
ATOM     55  CAF 044 d   1      21.574  -5.550  22.436  0.00  0.00     0.027 A 
ATOM     56  CAH 044 d   1      21.752  -5.930  24.812  0.00  0.00    -0.022 A 
ATOM     57  CAJ 044 d   1      20.222  -5.900  22.475  0.00  0.00    -0.065 A 
ATOM     58  CAI 044 d   1      19.636  -6.266  23.684  0.00  0.00    -0.050 A 
ATOM     59  H5  044 d   1      19.631  -5.887  21.567  0.00  0.00     0.085 H 
ATOM     60  CAA 044 d   1      20.398  -6.290  24.850  0.00  0.00     0.070 A 
ATOM     61  H4  044 d   1      18.586  -6.532  23.718  0.00  0.00     0.087 H 
ATOM     62  H3  044 d   1      22.340  -5.942  25.722  0.00  0.00     0.091 H 
BRANCH  60  63
ATOM     63  OBM 044 d   1      19.784  -6.655  26.011  0.00  0.00    -0.356 OA
BRANCH  63  64
ATOM     64  CBN 044 d   1      20.682  -7.074  27.056  0.00  0.00     0.010 C 
ATOM     65  H25 044 d   1      20.102  -7.348  27.950  0.00  0.00     0.066 H 
ATOM     66  H26 044 d   1      21.368  -6.250  27.302  0.00  0.00     0.066 H 
ATOM     67  H27 044 d   1      21.262  -7.944  26.714  0.00  0.00     0.066 H 
ENDBRANCH  63  64
ENDBRANCH  60  63
ENDBRANCH  47  48
ENDBRANCH  41  47
ENDBRANCH   1  37
TORSDOF 12
