REMARK  11 active torsions:
REMARK  status: ('A' for Active; 'I' for Inactive)
REMARK    1  A    between atoms: N_1  and  CA_2 
REMARK    2  A    between atoms: CA_2  and  CB_3 
REMARK    3  A    between atoms: CA_2  and  C_6 
REMARK    4  A    between atoms: CB_3  and  CG_4 
REMARK    5  A    between atoms: CG_4  and  SD_5 
REMARK    6  A    between atoms: SD_5  and  C5'_9 
REMARK    7  A    between atoms: C5'_9  and  C4'_10 
REMARK    8  A    between atoms: C3'_12  and  O3'_13 
REMARK    9  A    between atoms: C2'_14  and  O2'_15 
REMARK   10  A    between atoms: C1'_16  and  N9_17 
REMARK   11  A    between atoms: C6_21  and  N6_22 
ROOT
ATOM      1  C4' SAH d   1     -16.253 -12.374  15.594  0.00  0.00     0.076 C 
ATOM      2  O4' SAH d   1     -16.674 -13.454  16.425  0.00  0.00    -0.355 OA
ATOM      3  C3' SAH d   1     -17.341 -12.126  14.550  0.00  0.00     0.090 C 
ATOM      4  C2' SAH d   1     -18.443 -13.117  15.021  0.00  0.00     0.105 C 
ATOM      5  C1' SAH d   1     -17.659 -14.194  15.721  0.00  0.00     0.139 C 
ATOM      6  H11 SAH d   1     -15.335 -12.660  15.059  0.00  0.00     0.088 H 
ATOM      7  H12 SAH d   1     -17.700 -11.088  14.613  0.00  0.00     0.091 H 
ATOM      8  H14 SAH d   1     -19.101 -12.608  15.741  0.00  0.00     0.093 H 
ATOM      9  H16 SAH d   1     -17.211 -14.877  14.984  0.00  0.00     0.122 H 
ENDROOT
BRANCH   1  10
ATOM     10  C5' SAH d   1     -15.912 -11.190  16.511  0.00  0.00     0.003 C 
ATOM     11  H9  SAH d   1     -16.852 -10.758  16.885  0.00  0.00     0.052 H 
ATOM     12  H10 SAH d   1     -15.319 -11.566  17.358  0.00  0.00     0.052 H 
BRANCH  10  13
ATOM     13  SD  SAH d   1     -14.985  -9.904  15.702  0.00  0.00    -0.166 SA
BRANCH  13  14
ATOM     14  CG  SAH d   1     -13.402 -10.747  15.539  0.00  0.00    -0.021 C 
ATOM     15  H7  SAH d   1     -13.114 -11.185  16.506  0.00  0.00     0.049 H 
ATOM     16  H8  SAH d   1     -13.481 -11.543  14.784  0.00  0.00     0.049 H 
BRANCH  14  17
ATOM     17  CB  SAH d   1     -12.369  -9.740  15.109  0.00  0.00    -0.021 C 
ATOM     18  H5  SAH d   1     -12.772  -9.170  14.259  0.00  0.00     0.037 H 
ATOM     19  H6  SAH d   1     -12.177  -9.058  15.950  0.00  0.00     0.037 H 
BRANCH  17  20
ATOM     20  CA  SAH d   1     -11.036 -10.373  14.682  0.00  0.00     0.183 C 
ATOM     21  H4  SAH d   1     -11.217 -10.957  13.767  0.00  0.00     0.101 H 
BRANCH  20  22
ATOM     22  N   SAH d   1     -10.468 -11.279  15.700  0.00  0.00    -0.065 N 
ATOM     23  H1  SAH d   1     -11.134 -12.005  15.913  0.00  0.00     0.275 HD
ATOM     24  H2  SAH d   1     -10.261 -10.757  16.537  0.00  0.00     0.275 HD
ATOM     25  H3  SAH d   1      -9.621 -11.694  15.345  0.00  0.00     0.275 HD
ENDBRANCH  20  22
BRANCH  20  26
ATOM     26  C   SAH d   1     -10.019  -9.289  14.376  0.00  0.00     0.204 C 
ATOM     27  O   SAH d   1      -9.137  -9.000  15.197  0.00  0.00    -0.646 OA
ATOM     28  OXT SAH d   1     -10.159  -8.714  13.296  0.00  0.00    -0.646 OA
ENDBRANCH  20  26
ENDBRANCH  17  20
ENDBRANCH  14  17
ENDBRANCH  13  14
ENDBRANCH  10  13
ENDBRANCH   1  10
BRANCH   3  29
ATOM     29  O3' SAH d   1     -16.930 -12.369  13.217  0.00  0.00    -0.390 OA
ATOM     30  H13 SAH d   1     -16.660 -13.276  13.130  0.00  0.00     0.210 HD
ENDBRANCH   3  29
BRANCH   5  31
ATOM     31  N9  SAH d   1     -18.402 -14.973  16.712  0.00  0.00    -0.294 N 
ATOM     32  C8  SAH d   1     -19.280 -14.460  17.629  0.00  0.00     0.071 A 
ATOM     33  N7  SAH d   1     -19.696 -15.422  18.494  0.00  0.00    -0.236 NA
ATOM     34  H17 SAH d   1     -19.602 -13.420  17.661  0.00  0.00     0.144 H 
ATOM     35  C5  SAH d   1     -19.039 -16.566  18.076  0.00  0.00     0.149 A 
ATOM     36  C6  SAH d   1     -19.032 -17.902  18.558  0.00  0.00     0.155 A 
ATOM     37  C4  SAH d   1     -18.233 -16.280  16.954  0.00  0.00     0.167 A 
ATOM     38  N1  SAH d   1     -18.259 -18.782  17.936  0.00  0.00    -0.222 NA
ATOM     39  C2  SAH d   1     -17.539 -18.404  16.864  0.00  0.00     0.091 A 
ATOM     40  N3  SAH d   1     -17.459 -17.171  16.332  0.00  0.00    -0.222 NA
ATOM     41  H20 SAH d   1     -16.959 -19.179  16.375  0.00  0.00     0.146 H 
BRANCH  36  42
ATOM     42  N6  SAH d   1     -19.797 -18.271  19.621  0.00  0.00    -0.382 N 
ATOM     43  H18 SAH d   1     -19.778 -19.245  19.956  0.00  0.00     0.157 HD
ATOM     44  H19 SAH d   1     -20.395 -17.576  20.091  0.00  0.00     0.157 HD
ENDBRANCH  36  42
ENDBRANCH   5  31
BRANCH   4  45
ATOM     45  O2' SAH d   1     -19.277 -13.646  13.976  0.00  0.00    -0.388 OA
ATOM     46  H15 SAH d   1     -19.724 -12.932  13.537  0.00  0.00     0.210 HD
ENDBRANCH   4  45
TORSDOF 11
