REMARK  1 active torsions:
REMARK  status: ('A' for Active; 'I' for Inactive)
REMARK    1  A    between atoms: C8_11  and  N2_7 
ROOT
ATOM      1  C1  09O d   1       3.706  18.320  37.902  0.00  0.00     0.018 C 
ATOM      2  C2  09O d   1       4.562  18.807  36.711  0.00  0.00     0.096 C 
ATOM      3  N1  09O d   1       5.578  17.800  36.315  0.00  0.00    -0.074 N 
ATOM      4  C3  09O d   1       6.893  17.922  37.003  0.00  0.00     0.083 C 
ATOM      5  C4  09O d   1       6.910  17.516  38.499  0.00  0.00    -0.028 C 
ATOM      6  C5  09O d   1       5.715  18.020  39.333  0.00  0.00    -0.003 C 
ATOM      7  N2  09O d   1       4.443  17.453  38.837  0.00  0.00    -0.378 N 
ATOM      8  H1  09O d   1       2.848  17.757  37.507  0.00  0.00     0.066 H 
ATOM      9  H2  09O d   1       3.344  19.200  38.454  0.00  0.00     0.066 H 
ATOM     10  H3  09O d   1       5.075  19.737  36.998  0.00  0.00     0.078 H 
ATOM     11  H4  09O d   1       3.901  19.002  35.854  0.00  0.00     0.078 H 
ATOM     12  H5  09O d   1       5.735  17.889  35.323  0.00  0.00     0.277 HD
ATOM     13  H6  09O d   1       5.205  16.885  36.515  0.00  0.00     0.277 HD
ATOM     14  H7  09O d   1       7.214  18.972  36.934  0.00  0.00     0.075 H 
ATOM     15  H8  09O d   1       7.613  17.283  36.471  0.00  0.00     0.075 H 
ATOM     16  H9  09O d   1       7.831  17.916  38.949  0.00  0.00     0.037 H 
ATOM     17  H10 09O d   1       6.922  16.417  38.553  0.00  0.00     0.037 H 
ATOM     18  H11 09O d   1       5.669  19.117  39.268  0.00  0.00     0.064 H 
ATOM     19  H12 09O d   1       5.857  17.720  40.382  0.00  0.00     0.064 H 
ENDROOT
BRANCH   7  20
ATOM     20  C8  09O d   1       3.883  16.287  39.275  0.00  0.00     0.048 A 
ATOM     21  C7  09O d   1       2.499  16.000  39.051  0.00  0.00     0.027 A 
ATOM     22  N3  09O d   1       1.847  14.887  39.465  0.00  0.00    -0.271 NA
ATOM     23  H14 09O d   1       1.923  16.737  38.503  0.00  0.00     0.118 H 
ATOM     24  C6  09O d   1       2.570  13.978  40.152  0.00  0.00     0.002 A 
ATOM     25  C10 09O d   1       3.938  14.150  40.436  0.00  0.00    -0.064 A 
ATOM     26  H13 09O d   1       2.077  13.078  40.500  0.00  0.00     0.114 H 
ATOM     27  C9  09O d   1       4.609  15.311  39.995  0.00  0.00    -0.055 A 
ATOM     28  H16 09O d   1       4.476  13.391  40.993  0.00  0.00     0.085 H 
ATOM     29  H15 09O d   1       5.663  15.452  40.205  0.00  0.00     0.087 H 
ENDBRANCH   7  20
TORSDOF 1
