REMARK  4 active torsions:
REMARK  status: ('A' for Active; 'I' for Inactive)
REMARK    1  A    between atoms: C9_11  and  N2_6 
REMARK    2  A    between atoms: C7_9  and  O1_14 
REMARK    3  A    between atoms: O1_14  and  C11_15 
REMARK    4  A    between atoms: C11_15  and  C12_16 
ROOT
ATOM      1  C1  09P d   1      86.693  73.048 -11.160  0.00  0.00     0.096 C 
ATOM      2  N1  09P d   1      85.768  73.255 -12.295  0.00  0.00    -0.074 N 
ATOM      3  C2  09P d   1      85.572  72.135 -13.252  0.00  0.00     0.083 C 
ATOM      4  C3  09P d   1      84.756  70.977 -12.643  0.00  0.00    -0.028 C 
ATOM      5  C4  09P d   1      85.307  70.459 -11.305  0.00  0.00    -0.003 C 
ATOM      6  N2  09P d   1      84.965  71.397 -10.222  0.00  0.00    -0.378 N 
ATOM      7  C5  09P d   1      86.017  72.400  -9.931  0.00  0.00     0.018 C 
ATOM      8  H1  09P d   1      87.101  74.024 -10.860  0.00  0.00     0.078 H 
ATOM      9  H2  09P d   1      87.513  72.394 -11.492  0.00  0.00     0.078 H 
ATOM     10  H3  09P d   1      86.112  74.042 -12.822  0.00  0.00     0.277 HD
ATOM     11  H4  09P d   1      84.865  73.479 -11.908  0.00  0.00     0.277 HD
ATOM     12  H5  09P d   1      86.558  71.752 -13.554  0.00  0.00     0.075 H 
ATOM     13  H6  09P d   1      85.040  72.515 -14.136  0.00  0.00     0.075 H 
ATOM     14  H7  09P d   1      84.750  70.143 -13.361  0.00  0.00     0.037 H 
ATOM     15  H8  09P d   1      83.726  71.328 -12.480  0.00  0.00     0.037 H 
ATOM     16  H9  09P d   1      86.401  70.365 -11.373  0.00  0.00     0.064 H 
ATOM     17  H10 09P d   1      84.867  69.475 -11.087  0.00  0.00     0.064 H 
ATOM     18  H11 09P d   1      85.560  73.204  -9.335  0.00  0.00     0.066 H 
ATOM     19  H12 09P d   1      86.800  71.904  -9.338  0.00  0.00     0.066 H 
ENDROOT
BRANCH   6  20
ATOM     20  C9  09P d   1      83.791  71.355  -9.557  0.00  0.00     0.050 A 
ATOM     21  C8  09P d   1      82.719  70.551 -10.007  0.00  0.00    -0.022 A 
ATOM     22  C7  09P d   1      81.494  70.536  -9.292  0.00  0.00     0.088 A 
ATOM     23  H14 09P d   1      82.833  69.946 -10.899  0.00  0.00     0.091 H 
ATOM     24  C6  09P d   1      81.419  71.348  -8.149  0.00  0.00     0.034 A 
ATOM     25  N3  09P d   1      82.415  72.123  -7.703  0.00  0.00    -0.268 NA
ATOM     26  H13 09P d   1      80.491  71.347  -7.589  0.00  0.00     0.119 H 
ATOM     27  C10 09P d   1      83.570  72.121  -8.393  0.00  0.00     0.027 A 
ATOM     28  H15 09P d   1      84.379  72.746  -8.033  0.00  0.00     0.118 H 
BRANCH  22  29
ATOM     29  O1  09P d   1      80.362  69.816  -9.652  0.00  0.00    -0.350 OA
BRANCH  29  30
ATOM     30  C11 09P d   1      80.258  69.265 -10.965  0.00  0.00     0.023 C 
ATOM     31  H16 09P d   1      81.139  69.548 -11.560  0.00  0.00     0.074 H 
ATOM     32  H17 09P d   1      79.348  69.640 -11.456  0.00  0.00     0.074 H 
BRANCH  30  33
ATOM     33  C12 09P d   1      80.188  67.746 -10.833  0.00  0.00    -0.056 C 
ATOM     34  H18 09P d   1      80.107  67.294 -11.833  0.00  0.00     0.030 H 
ATOM     35  H19 09P d   1      79.308  67.470 -10.234  0.00  0.00     0.030 H 
ATOM     36  H20 09P d   1      81.099  67.379 -10.337  0.00  0.00     0.030 H 
ENDBRANCH  30  33
ENDBRANCH  29  30
ENDBRANCH  22  29
ENDBRANCH   6  20
TORSDOF 4
