REMARK  2 active torsions:
REMARK  status: ('A' for Active; 'I' for Inactive)
REMARK    1  A    between atoms: C9_9  and  C1_1 
REMARK    2  A    between atoms: N1_17  and  C11_11 
ROOT
ATOM      1  C7  09Q d   1      -4.790  25.237  32.514  0.00  0.00     0.027 A 
ATOM      2  C8  09Q d   1      -5.777  27.312  32.818  0.00  0.00     0.013 A 
ATOM      3  C9  09Q d   1      -6.989  26.876  32.241  0.00  0.00    -0.006 A 
ATOM      4  C10 09Q d   1      -7.028  25.565  31.745  0.00  0.00    -0.044 A 
ATOM      5  C11 09Q d   1      -5.939  24.684  31.883  0.00  0.00     0.048 A 
ATOM      6  N3  09Q d   1      -4.701  26.503  32.976  0.00  0.00    -0.270 NA
ATOM      7  H6  09Q d   1      -3.924  24.596  32.633  0.00  0.00     0.118 H 
ATOM      8  H7  09Q d   1      -5.703  28.341  33.150  0.00  0.00     0.116 H 
ATOM      9  H8  09Q d   1      -7.923  25.220  31.240  0.00  0.00     0.088 H 
ENDROOT
BRANCH   5  10
ATOM     10  N1  09Q d   1      -6.067  23.383  31.460  0.00  0.00    -0.378 N 
ATOM     11  C12 09Q d   1      -7.379  22.716  31.330  0.00  0.00    -0.003 C 
ATOM     12  C13 09Q d   1      -7.977  22.915  29.933  0.00  0.00    -0.028 C 
ATOM     13  H9  09Q d   1      -7.252  21.639  31.514  0.00  0.00     0.064 H 
ATOM     14  H10 09Q d   1      -8.069  23.136  32.077  0.00  0.00     0.064 H 
ATOM     15  C14 09Q d   1      -7.469  21.873  28.917  0.00  0.00     0.083 C 
ATOM     16  H11 09Q d   1      -7.706  23.919  29.573  0.00  0.00     0.037 H 
ATOM     17  H12 09Q d   1      -9.072  22.834  30.003  0.00  0.00     0.037 H 
ATOM     18  N2  09Q d   1      -5.993  21.798  28.902  0.00  0.00    -0.074 N 
ATOM     19  H13 09Q d   1      -7.822  22.152  27.913  0.00  0.00     0.075 H 
ATOM     20  H14 09Q d   1      -7.873  20.886  29.186  0.00  0.00     0.075 H 
ATOM     21  C15 09Q d   1      -5.354  21.336  30.158  0.00  0.00     0.096 C 
ATOM     22  H19 09Q d   1      -5.639  22.719  28.697  0.00  0.00     0.277 HD
ATOM     23  H20 09Q d   1      -5.724  21.163  28.167  0.00  0.00     0.277 HD
ATOM     24  C16 09Q d   1      -4.948  22.479  31.118  0.00  0.00     0.018 C 
ATOM     25  H15 09Q d   1      -6.062  20.678  30.684  0.00  0.00     0.078 H 
ATOM     26  H16 09Q d   1      -4.450  20.767  29.896  0.00  0.00     0.078 H 
ATOM     27  H17 09Q d   1      -4.155  23.072  30.639  0.00  0.00     0.066 H 
ATOM     28  H18 09Q d   1      -4.563  22.034  32.047  0.00  0.00     0.066 H 
ENDBRANCH   5  10
BRANCH   3  29
ATOM     29  C1  09Q d   1      -8.165  27.716  31.991  0.00  0.00    -0.025 A 
ATOM     30  C2  09Q d   1      -8.306  28.348  30.732  0.00  0.00    -0.072 A 
ATOM     31  C3  09Q d   1      -9.450  29.108  30.417  0.00  0.00    -0.082 A 
ATOM     32  H1  09Q d   1      -7.518  28.245  29.995  0.00  0.00     0.084 H 
ATOM     33  C4  09Q d   1     -10.480  29.229  31.366  0.00  0.00    -0.083 A 
ATOM     34  H2  09Q d   1      -9.535  29.595  29.452  0.00  0.00     0.083 H 
ATOM     35  C5  09Q d   1     -10.358  28.592  32.615  0.00  0.00    -0.082 A 
ATOM     36  H3  09Q d   1     -11.365  29.811  31.137  0.00  0.00     0.083 H 
ATOM     37  C6  09Q d   1      -9.216  27.831  32.928  0.00  0.00    -0.072 A 
ATOM     38  H4  09Q d   1     -11.153  28.689  33.345  0.00  0.00     0.083 H 
ATOM     39  H5  09Q d   1      -9.143  27.333  33.888  0.00  0.00     0.084 H 
ENDBRANCH   3  29
TORSDOF 2
