REMARK  4 active torsions:
REMARK  status: ('A' for Active; 'I' for Inactive)
REMARK    1  A    between atoms: C8_11  and  N2_7 
REMARK    2  A    between atoms: C10_13  and  O1_15 
REMARK    3  A    between atoms: O1_15  and  C11_16 
REMARK    4  A    between atoms: C11_16  and  C12_17 
ROOT
ATOM      1  C1  09S d   1      51.535  22.143 102.084  0.00  0.00     0.018 C 
ATOM      2  C2  09S d   1      50.536  22.430 100.962  0.00  0.00     0.096 C 
ATOM      3  N1  09S d   1      51.258  22.817  99.734  0.00  0.00    -0.074 N 
ATOM      4  C3  09S d   1      51.398  24.286  99.565  0.00  0.00     0.083 C 
ATOM      5  C4  09S d   1      52.500  24.870 100.462  0.00  0.00    -0.028 C 
ATOM      6  C5  09S d   1      52.275  24.589 101.968  0.00  0.00    -0.003 C 
ATOM      7  N2  09S d   1      52.573  23.179 102.270  0.00  0.00    -0.378 N 
ATOM      8  H1  09S d   1      52.038  21.191 101.859  0.00  0.00     0.066 H 
ATOM      9  H2  09S d   1      50.974  22.048 103.025  0.00  0.00     0.066 H 
ATOM     10  H3  09S d   1      49.870  23.250 101.267  0.00  0.00     0.078 H 
ATOM     11  H4  09S d   1      49.939  21.527 100.765  0.00  0.00     0.078 H 
ATOM     12  H5  09S d   1      50.756  22.451  98.940  0.00  0.00     0.277 HD
ATOM     13  H6  09S d   1      52.180  22.410  99.765  0.00  0.00     0.277 HD
ATOM     14  H7  09S d   1      50.441  24.765  99.821  0.00  0.00     0.075 H 
ATOM     15  H8  09S d   1      51.645  24.500  98.515  0.00  0.00     0.075 H 
ATOM     16  H9  09S d   1      52.533  25.959 100.311  0.00  0.00     0.037 H 
ATOM     17  H10 09S d   1      53.463  24.429 100.164  0.00  0.00     0.037 H 
ATOM     18  H11 09S d   1      51.227  24.802 102.225  0.00  0.00     0.064 H 
ATOM     19  H12 09S d   1      52.938  25.236 102.562  0.00  0.00     0.064 H 
ENDROOT
BRANCH   7  20
ATOM     20  C8  09S d   1      53.831  22.771 102.590  0.00  0.00     0.050 A 
ATOM     21  C7  09S d   1      54.057  21.525 103.236  0.00  0.00     0.029 A 
ATOM     22  N3  09S d   1      55.280  21.085 103.574  0.00  0.00    -0.248 NA
ATOM     23  H13 09S d   1      53.202  20.900 103.467  0.00  0.00     0.118 H 
ATOM     24  C6  09S d   1      56.357  21.856 103.290  0.00  0.00     0.136 A 
ATOM     25  C10 09S d   1      56.270  23.122 102.660  0.00  0.00     0.106 A 
ATOM     26 BR1  09S d   1      57.894  21.218 103.761  0.00  0.00    -0.026 Br
ATOM     27  C9  09S d   1      54.970  23.564 102.311  0.00  0.00    -0.021 A 
ATOM     28  H14 09S d   1      54.846  24.524 101.823  0.00  0.00     0.091 H 
BRANCH  25  29
ATOM     29  O1  09S d   1      57.432  23.838 102.394  0.00  0.00    -0.348 OA
BRANCH  29  30
ATOM     30  C11 09S d   1      57.270  25.135 101.856  0.00  0.00     0.023 C 
ATOM     31  H15 09S d   1      56.844  25.782 102.637  0.00  0.00     0.074 H 
ATOM     32  H16 09S d   1      56.570  25.072 101.010  0.00  0.00     0.074 H 
BRANCH  30  33
ATOM     33  C12 09S d   1      58.566  25.774 101.359  0.00  0.00    -0.056 C 
ATOM     34  H17 09S d   1      58.351  26.776 100.959  0.00  0.00     0.030 H 
ATOM     35  H18 09S d   1      59.003  25.148 100.567  0.00  0.00     0.030 H 
ATOM     36  H19 09S d   1      59.277  25.858 102.194  0.00  0.00     0.030 H 
ENDBRANCH  30  33
ENDBRANCH  29  30
ENDBRANCH  25  29
ENDBRANCH   7  20
TORSDOF 4
