REMARK  13 active torsions:
REMARK  status: ('A' for Active; 'I' for Inactive)
REMARK    1  A    between atoms: O2S_3  and  S_1 
REMARK    2  A    between atoms: C1_6  and  O2S_3 
REMARK    3  A    between atoms: C12_17  and  C1_6 
REMARK    4  A    between atoms: C3_8  and  C2_7 
REMARK    5  A    between atoms: C4_9  and  C3_8 
REMARK    6  A    between atoms: C5_10  and  C4_9 
REMARK    7  A    between atoms: C6_11  and  C5_10 
REMARK    8  A    between atoms: C7_12  and  C6_11 
REMARK    9  A    between atoms: C8_13  and  C7_12 
REMARK   10  A    between atoms: C9_14  and  C8_13 
REMARK   11  A    between atoms: C10_15  and  C9_14 
REMARK   12  A    between atoms: C11_16  and  C10_15 
REMARK   13  A    between atoms: C11_16  and  C12_17 
ROOT
ATOM      1  C8  SDS d   1      35.559  -0.412  36.863  0.00  0.00    -0.065 C 
ATOM      2  H16 SDS d   1      35.303  -1.389  36.427  0.00  0.00     0.033 H 
ATOM      3  H17 SDS d   1      36.209  -0.560  37.738  0.00  0.00     0.033 H 
ENDROOT
BRANCH   1   4
ATOM      4  C7  SDS d   1      34.308   0.284  37.288  0.00  0.00    -0.065 C 
ATOM      5  H14 SDS d   1      34.342   0.459  38.373  0.00  0.00     0.033 H 
ATOM      6  H15 SDS d   1      34.233   1.248  36.763  0.00  0.00     0.033 H 
BRANCH   4   7
ATOM      7  C6  SDS d   1      33.112  -0.548  36.961  0.00  0.00    -0.065 C 
ATOM      8  H12 SDS d   1      33.424  -1.593  36.815  0.00  0.00     0.033 H 
ATOM      9  H13 SDS d   1      32.393  -0.493  37.791  0.00  0.00     0.033 H 
BRANCH   7  10
ATOM     10  C5  SDS d   1      32.465  -0.047  35.714  0.00  0.00    -0.065 C 
ATOM     11  H10 SDS d   1      32.490   1.053  35.708  0.00  0.00     0.033 H 
ATOM     12  H11 SDS d   1      33.013  -0.431  34.841  0.00  0.00     0.033 H 
BRANCH  10  13
ATOM     13  C4  SDS d   1      31.046  -0.508  35.647  0.00  0.00    -0.065 C 
ATOM     14  H8  SDS d   1      31.016  -1.563  35.338  0.00  0.00     0.033 H 
ATOM     15  H9  SDS d   1      30.578  -0.402  36.637  0.00  0.00     0.033 H 
BRANCH  13  16
ATOM     16  C3  SDS d   1      30.306   0.325  34.652  0.00  0.00    -0.069 C 
ATOM     17  H6  SDS d   1      30.216   1.353  35.034  0.00  0.00     0.032 H 
ATOM     18  H7  SDS d   1      30.860   0.334  33.702  0.00  0.00     0.032 H 
BRANCH  16  19
ATOM     19  C2  SDS d   1      28.942  -0.236  34.422  0.00  0.00    -0.077 C 
ATOM     20  H3  SDS d   1      28.409   0.386  33.688  0.00  0.00     0.027 H 
ATOM     21  H4  SDS d   1      28.384  -0.244  35.370  0.00  0.00     0.027 H 
ATOM     22  H5  SDS d   1      29.028  -1.263  34.038  0.00  0.00     0.027 H 
ENDBRANCH  16  19
ENDBRANCH  13  16
ENDBRANCH  10  13
ENDBRANCH   7  10
ENDBRANCH   4   7
ENDBRANCH   1   4
BRANCH   1  23
ATOM     23  C9  SDS d   1      36.276   0.410  35.847  0.00  0.00    -0.065 C 
ATOM     24  H18 SDS d   1      37.014   1.051  36.351  0.00  0.00     0.033 H 
ATOM     25  H19 SDS d   1      35.551   1.039  35.309  0.00  0.00     0.033 H 
BRANCH  23  26
ATOM     26  C10 SDS d   1      36.977  -0.481  34.874  0.00  0.00    -0.065 C 
ATOM     27  H20 SDS d   1      36.433  -1.433  34.795  0.00  0.00     0.033 H 
ATOM     28  H21 SDS d   1      38.001  -0.672  35.227  0.00  0.00     0.033 H 
BRANCH  26  29
ATOM     29  C11 SDS d   1      37.031   0.171  33.531  0.00  0.00    -0.063 C 
ATOM     30  H22 SDS d   1      37.856  -0.264  32.948  0.00  0.00     0.033 H 
ATOM     31  H23 SDS d   1      37.200   1.251  33.656  0.00  0.00     0.033 H 
BRANCH  29  32
ATOM     32  C12 SDS d   1      35.744  -0.048  32.807  0.00  0.00    -0.044 C 
ATOM     33  H24 SDS d   1      35.469  -1.111  32.868  0.00  0.00     0.036 H 
ATOM     34  H25 SDS d   1      34.956   0.561  33.274  0.00  0.00     0.036 H 
BRANCH  32  35
ATOM     35  C1  SDS d   1      35.886   0.344  31.373  0.00  0.00     0.040 C 
ATOM     36  H1  SDS d   1      36.129   1.415  31.311  0.00  0.00     0.076 H 
ATOM     37  H2  SDS d   1      36.696  -0.242  30.915  0.00  0.00     0.076 H 
BRANCH  35  38
ATOM     38  O2S SDS d   1      34.707   0.103  30.694  0.00  0.00    -0.257 OA
BRANCH  38  39
ATOM     39  S   SDS d   1      34.485   0.767  29.402  0.00  0.00     0.251 S 
ATOM     40  O1S SDS d   1      35.335   0.219  28.376  0.00  0.00    -0.572 OA
ATOM     41  O3S SDS d   1      34.757   2.176  29.545  0.00  0.00    -0.572 OA
ATOM     42  O4  SDS d   1      33.080   0.527  29.042  0.00  0.00    -0.572 OA
ENDBRANCH  38  39
ENDBRANCH  35  38
ENDBRANCH  32  35
ENDBRANCH  29  32
ENDBRANCH  26  29
ENDBRANCH  23  26
ENDBRANCH   1  23
TORSDOF 13
