REMARK  5 active torsions:
REMARK  status: ('A' for Active; 'I' for Inactive)
REMARK    1  A    between atoms: CG2_10  and  CD2_4 
REMARK    2  A    between atoms: CA_5  and  C_11 
REMARK    3  A    between atoms: CB_6  and  CB1_7 
REMARK    4  A    between atoms: CB1_7  and  CG1_9 
REMARK    5  A    between atoms: CG_8  and  CG2_10 
ROOT
ATOM      1  N   KAI d   1      44.212  34.767  16.968  0.00  0.00    -0.060 N 
ATOM      2  CD  KAI d   1      45.587  35.275  17.084  0.00  0.00     0.090 C 
ATOM      3  CA  KAI d   1      43.747  34.530  18.320  0.00  0.00     0.189 C 
ATOM      4  CB  KAI d   1      44.936  34.698  19.212  0.00  0.00     0.001 C 
ATOM      5  CG  KAI d   1      45.689  35.751  18.496  0.00  0.00    -0.004 C 
ATOM      6  H1  KAI d   1      44.201  33.908  16.440  0.00  0.00     0.278 HD
ATOM      7  H2  KAI d   1      43.626  35.449  16.512  0.00  0.00     0.278 HD
ATOM      8  H3  KAI d   1      45.757  36.104  16.381  0.00  0.00     0.076 H 
ATOM      9  H4  KAI d   1      46.316  34.474  16.890  0.00  0.00     0.076 H 
ATOM     10  H10 KAI d   1      43.364  33.502  18.404  0.00  0.00     0.102 H 
ATOM     11  H11 KAI d   1      44.624  35.046  20.208  0.00  0.00     0.045 H 
ATOM     12  H14 KAI d   1      45.162  36.712  18.590  0.00  0.00     0.050 H 
ENDROOT
BRANCH   5  13
ATOM     13  CG2 KAI d   1      47.141  35.975  19.054  0.00  0.00    -0.087 C 
ATOM     14  CD1 KAI d   1      47.311  36.115  20.466  0.00  0.00    -0.119 C 
ATOM     15  H5  KAI d   1      48.305  36.271  20.882  0.00  0.00     0.067 H 
ATOM     16  H6  KAI d   1      46.446  36.065  21.126  0.00  0.00     0.067 H 
BRANCH  13  17
ATOM     17  CD2 KAI d   1      48.281  35.945  18.180  0.00  0.00    -0.055 C 
ATOM     18  H7  KAI d   1      49.196  36.123  18.764  0.00  0.00     0.033 H 
ATOM     19  H8  KAI d   1      48.177  36.728  17.415  0.00  0.00     0.033 H 
ATOM     20  H9  KAI d   1      48.343  34.961  17.692  0.00  0.00     0.033 H 
ENDBRANCH  13  17
ENDBRANCH   5  13
BRANCH   4  21
ATOM     21  CB1 KAI d   1      45.758  33.438  19.381  0.00  0.00     0.022 C 
ATOM     22  H12 KAI d   1      46.727  33.737  19.808  0.00  0.00     0.049 H 
ATOM     23  H13 KAI d   1      45.914  33.016  18.378  0.00  0.00     0.049 H 
BRANCH  21  24
ATOM     24  CG1 KAI d   1      45.200  32.308  20.268  0.00  0.00     0.172 C 
ATOM     25  OD1 KAI d   1      44.254  32.548  21.077  0.00  0.00    -0.648 OA
ATOM     26  OD2 KAI d   1      45.697  31.125  20.191  0.00  0.00    -0.648 OA
ENDBRANCH  21  24
ENDBRANCH   4  21
BRANCH   3  27
ATOM     27  C   KAI d   1      42.650  35.485  18.696  0.00  0.00     0.205 C 
ATOM     28  O   KAI d   1      42.132  36.183  17.791  0.00  0.00    -0.646 OA
ATOM     29  OXT KAI d   1      42.235  35.578  19.892  0.00  0.00    -0.646 OA
ENDBRANCH   3  27
TORSDOF 5
