REMARK  5 active torsions:
REMARK  status: ('A' for Active; 'I' for Inactive)
REMARK    1  A    between atoms: N_1  and  CA_2 
REMARK    2  A    between atoms: CA_2  and  C_3 
REMARK    3  A    between atoms: CA_2  and  CB_5 
REMARK    4  A    between atoms: CB_5  and  CG_6 
REMARK    5  A    between atoms: CG_6  and  CD_7 
ROOT
ATOM      1  CA  GLU d   1      21.455  21.422  18.335  0.00  0.00     0.183 C 
ATOM      2  H4  GLU d   1      21.766  22.472  18.442  0.00  0.00     0.101 H 
ENDROOT
BRANCH   1   3
ATOM      3  N   GLU d   1      20.980  21.213  16.941  0.00  0.00    -0.065 N 
ATOM      4  H1  GLU d   1      20.193  21.817  16.760  0.00  0.00     0.275 HD
ATOM      5  H2  GLU d   1      20.701  20.252  16.822  0.00  0.00     0.275 HD
ATOM      6  H3  GLU d   1      21.724  21.429  16.297  0.00  0.00     0.275 HD
ENDBRANCH   1   3
BRANCH   1   7
ATOM      7  C   GLU d   1      22.645  20.536  18.669  0.00  0.00     0.204 C 
ATOM      8  O   GLU d   1      23.206  19.891  17.791  0.00  0.00    -0.646 OA
ATOM      9  OXT GLU d   1      23.068  20.443  19.822  0.00  0.00    -0.646 OA
ENDBRANCH   1   7
BRANCH   1  10
ATOM     10  CB  GLU d   1      20.310  21.147  19.308  0.00  0.00    -0.020 C 
ATOM     11  H5  GLU d   1      20.733  20.980  20.310  0.00  0.00     0.037 H 
ATOM     12  H6  GLU d   1      19.779  20.242  18.979  0.00  0.00     0.037 H 
BRANCH  10  13
ATOM     13  CG  GLU d   1      19.309  22.297  19.387  0.00  0.00     0.018 C 
ATOM     14  H7  GLU d   1      18.412  21.950  19.921  0.00  0.00     0.049 H 
ATOM     15  H8  GLU d   1      19.034  22.598  18.365  0.00  0.00     0.049 H 
BRANCH  13  16
ATOM     16  CD  GLU d   1      19.873  23.500  20.114  0.00  0.00     0.172 C 
ATOM     17  OE1 GLU d   1      20.829  23.314  20.896  0.00  0.00    -0.648 OA
ATOM     18  OE2 GLU d   1      19.355  24.626  19.918  0.00  0.00    -0.648 OA
ENDBRANCH  13  16
ENDBRANCH  10  13
ENDBRANCH   1  10
TORSDOF 5
