REMARK  14 active torsions:
REMARK  status: ('A' for Active; 'I' for Inactive)
REMARK    1  A    between atoms: C1_1  and  C2_2 
REMARK    2  A    between atoms: C2_2  and  O2_4 
REMARK    3  A    between atoms: O2_4  and  C3_5 
REMARK    4  A    between atoms: C4_6  and  O3_7 
REMARK    5  A    between atoms: C5_8  and  O4_9 
REMARK    6  A    between atoms: O4_9  and  C6_10 
REMARK    7  A    between atoms: C6_10  and  C7_12 
REMARK    8  A    between atoms: C8_13  and  C9_14 
REMARK    9  A    between atoms: C10_16  and  O7_17 
REMARK   10  A    between atoms: O7_17  and  C11_18 
REMARK   11  A    between atoms: C13_21  and  C14_22 
REMARK   12  A    between atoms: C17_25  and  O9_26 
REMARK   13  A    between atoms: C22_32  and  O11_33 
REMARK   14  A    between atoms: C24_35  and  O12_37 
ROOT
ATOM      1  C3  SL0 d   1      31.926   5.209   6.208  0.00  0.00     0.105 C 
ATOM      2  C4  SL0 d   1      33.290   4.926   5.768  0.00  0.00     0.111 C 
ATOM      3  C5  SL0 d   1      31.858   6.487   7.065  0.00  0.00     0.100 C 
ATOM      4  C8  SL0 d   1      32.892   6.400   8.162  0.00  0.00     0.066 C 
ATOM      5  O6  SL0 d   1      34.138   6.025   7.670  0.00  0.00    -0.351 OA
ATOM      6  C10 SL0 d   1      34.230   4.825   6.973  0.00  0.00     0.165 C 
ATOM      7  H4  SL0 d   1      31.587   4.364   6.826  0.00  0.00     0.092 H 
ATOM      8  H5  SL0 d   1      33.308   3.976   5.214  0.00  0.00     0.094 H 
ATOM      9  H7  SL0 d   1      32.105   7.349   6.428  0.00  0.00     0.092 H 
ATOM     10  H11 SL0 d   1      32.563   5.612   8.855  0.00  0.00     0.086 H 
ATOM     11  H15 SL0 d   1      35.268   4.694   6.633  0.00  0.00     0.134 H 
ENDROOT
BRANCH   6  12
ATOM     12  O7  SL0 d   1      33.851   3.685   7.712  0.00  0.00    -0.311 OA
BRANCH  12  13
ATOM     13  C11 SL0 d   1      34.522   3.558   8.934  0.00  0.00     0.157 A 
ATOM     14  C12 SL0 d   1      36.050   3.417   8.957  0.00  0.00     0.223 A 
ATOM     15  O8  SL0 d   1      36.726   3.442   7.917  0.00  0.00    -0.284 OA
ATOM     16  C25 SL0 d   1      36.760   3.272  10.311  0.00  0.00     0.084 A 
ATOM     17  C20 SL0 d   1      35.984   3.244  11.438  0.00  0.00     0.096 A 
ATOM     18  C24 SL0 d   1      38.119   3.139  10.442  0.00  0.00     0.085 A 
ATOM     19  O10 SL0 d   1      34.488   3.402  11.323  0.00  0.00    -0.306 OA
ATOM     20  C21 SL0 d   1      36.504   3.133  12.696  0.00  0.00    -0.017 A 
ATOM     21  C13 SL0 d   1      33.847   3.533  10.091  0.00  0.00     0.123 A 
ATOM     22  C22 SL0 d   1      37.859   2.995  12.810  0.00  0.00     0.071 A 
ATOM     23  H21 SL0 d   1      35.866   3.154  13.572  0.00  0.00     0.092 H 
ATOM     24  C23 SL0 d   1      38.687   3.007  11.694  0.00  0.00    -0.018 A 
ATOM     25  H23 SL0 d   1      39.761   2.914  11.804  0.00  0.00     0.092 H 
BRANCH  21  26
ATOM     26  C14 SL0 d   1      32.328   3.588  10.254  0.00  0.00     0.001 A 
ATOM     27  C15 SL0 d   1      31.802   3.999  11.485  0.00  0.00    -0.068 A 
ATOM     28  C16 SL0 d   1      30.426   3.996  11.678  0.00  0.00    -0.050 A 
ATOM     29  H16 SL0 d   1      32.464   4.317  12.282  0.00  0.00     0.085 H 
ATOM     30  C17 SL0 d   1      29.600   3.528  10.648  0.00  0.00     0.065 A 
ATOM     31  H17 SL0 d   1      29.999   4.350  12.610  0.00  0.00     0.087 H 
ATOM     32  C18 SL0 d   1      30.130   3.075   9.442  0.00  0.00    -0.050 A 
ATOM     33  C19 SL0 d   1      31.519   3.077   9.251  0.00  0.00    -0.068 A 
ATOM     34  H19 SL0 d   1      29.472   2.723   8.656  0.00  0.00     0.087 H 
ATOM     35  H20 SL0 d   1      31.952   2.687   8.337  0.00  0.00     0.085 H 
BRANCH  30  36
ATOM     36  O9  SL0 d   1      28.217   3.516  10.823  0.00  0.00    -0.361 OA
ATOM     37  H18 SL0 d   1      27.803   3.173  10.040  0.00  0.00     0.217 HD
ENDBRANCH  30  36
ENDBRANCH  21  26
BRANCH  22  38
ATOM     38  O11 SL0 d   1      38.352   2.884  14.076  0.00  0.00    -0.361 OA
ATOM     39  H22 SL0 d   1      39.297   2.793  14.040  0.00  0.00     0.217 HD
ENDBRANCH  22  38
BRANCH  18  40
ATOM     40  O12 SL0 d   1      38.928   3.141   9.280  0.00  0.00    -0.360 OA
ATOM     41  H24 SL0 d   1      39.839   3.041   9.530  0.00  0.00     0.217 HD
ENDBRANCH  18  40
ENDBRANCH  12  13
ENDBRANCH   6  12
BRANCH   2  42
ATOM     42  O3  SL0 d   1      33.705   5.964   4.933  0.00  0.00    -0.388 OA
ATOM     43  H6  SL0 d   1      33.124   6.017   4.183  0.00  0.00     0.210 HD
ENDBRANCH   2  42
BRANCH   1  44
ATOM     44  O2  SL0 d   1      31.066   5.326   5.116  0.00  0.00    -0.311 OA
BRANCH  44  45
ATOM     45  C2  SL0 d   1      30.238   4.250   4.837  0.00  0.00     0.255 C 
ATOM     46  O1  SL0 d   1      30.490   3.134   5.325  0.00  0.00    -0.266 OA
BRANCH  45  47
ATOM     47  C1  SL0 d   1      29.113   4.405   3.794  0.00  0.00     0.004 C 
ATOM     48  H1  SL0 d   1      28.563   3.457   3.704  0.00  0.00     0.041 H 
ATOM     49  H2  SL0 d   1      29.550   4.669   2.820  0.00  0.00     0.041 H 
ATOM     50  H3  SL0 d   1      28.423   5.200   4.114  0.00  0.00     0.041 H 
ENDBRANCH  45  47
ENDBRANCH  44  45
ENDBRANCH   1  44
BRANCH   4  51
ATOM     51  C9  SL0 d   1      32.988   7.700   8.965  0.00  0.00    -0.050 C 
ATOM     52  H12 SL0 d   1      33.751   7.591   9.750  0.00  0.00     0.031 H 
ATOM     53  H13 SL0 d   1      32.014   7.918   9.428  0.00  0.00     0.031 H 
ATOM     54  H14 SL0 d   1      33.268   8.525   8.294  0.00  0.00     0.031 H 
ENDBRANCH   4  51
BRANCH   3  55
ATOM     55  O4  SL0 d   1      30.575   6.678   7.563  0.00  0.00    -0.311 OA
BRANCH  55  56
ATOM     56  C6  SL0 d   1      29.762   7.691   7.082  0.00  0.00     0.255 C 
ATOM     57  O5  SL0 d   1      30.251   8.628   6.429  0.00  0.00    -0.266 OA
BRANCH  56  58
ATOM     58  C7  SL0 d   1      28.280   7.539   7.191  0.00  0.00     0.004 C 
ATOM     59  H8  SL0 d   1      27.788   8.426   6.765  0.00  0.00     0.041 H 
ATOM     60  H9  SL0 d   1      27.999   7.437   8.249  0.00  0.00     0.041 H 
ATOM     61  H10 SL0 d   1      27.962   6.642   6.639  0.00  0.00     0.041 H 
ENDBRANCH  56  58
ENDBRANCH  55  56
ENDBRANCH   3  55
TORSDOF 14
