REMARK  4 active torsions:
REMARK  status: ('A' for Active; 'I' for Inactive)
REMARK    1  A    between atoms: C1_1  and  S1_12 
REMARK    2  A    between atoms: N4_8  and  C2_2 
REMARK    3  A    between atoms: C3_3  and  C4_4 
REMARK       I    between atoms: C3_3  and  N4_8 
REMARK    4  A    between atoms: S1_12  and  N1_5 
ROOT
ATOM      1  C1  AZM d   1      76.004  52.229 107.004  0.00  0.00     0.237 A 
ATOM      2  C2  AZM d   1      76.214  54.261 108.294  0.00  0.00     0.197 A 
ATOM      3  N2  AZM d   1      77.421  53.731 107.902  0.00  0.00    -0.122 NA
ATOM      4  N3  AZM d   1      77.310  52.482 107.094  0.00  0.00    -0.126 NA
ATOM      5  S2  AZM d   1      74.866  53.389 107.728  0.00  0.00    -0.015 SA
ENDROOT
BRANCH   2   6
ATOM      6  N4  AZM d   1      76.228  55.372 109.184  0.00  0.00    -0.305 N 
ATOM      7  C3  AZM d   1      75.076  55.866 109.643  0.00  0.00     0.219 C 
ATOM      8  O3  AZM d   1      74.040  55.150 109.597  0.00  0.00    -0.274 OA
ATOM      9  H6  AZM d   1      77.097  55.780 109.464  0.00  0.00     0.171 HD
BRANCH   7  10
ATOM     10  C4  AZM d   1      75.069  57.285 110.181  0.00  0.00    -0.002 C 
ATOM     11  H1  AZM d   1      74.055  57.544 110.519  0.00  0.00     0.040 H 
ATOM     12  H2  AZM d   1      75.380  57.980 109.387  0.00  0.00     0.040 H 
ATOM     13  H3  AZM d   1      75.767  57.360 111.028  0.00  0.00     0.040 H 
ENDBRANCH   7  10
ENDBRANCH   2   6
BRANCH   1  14
ATOM     14  S1  AZM d   1      75.460  50.831 106.111  0.00  0.00     0.282 S 
ATOM     15  O1  AZM d   1      75.585  50.965 104.757  0.00  0.00    -0.199 OA
ATOM     16  O2  AZM d   1      74.043  50.813 106.603  0.00  0.00    -0.199 OA
BRANCH  14  17
ATOM     17  N1  AZM d   1      75.979  49.469 106.724  0.00  0.00    -0.323 N 
ATOM     18  H4  AZM d   1      75.730  48.601 106.295  0.00  0.00     0.169 HD
ATOM     19  H5  AZM d   1      76.556  49.476 107.541  0.00  0.00     0.169 HD
ENDBRANCH  14  17
ENDBRANCH   1  14
TORSDOF 4
