REMARK  10 active torsions:
REMARK  status: ('A' for Active; 'I' for Inactive)
REMARK    1  A    between atoms: S1_1  and  C2_2 
REMARK    2  A    between atoms: S1_1  and  C25_16 
REMARK    3  A    between atoms: C2_2  and  C5_3 
REMARK    4  A    between atoms: C7_5  and  C10_8 
REMARK    5  A    between atoms: C15_11  and  O20_14 
REMARK    6  A    between atoms: O20_14  and  C21_15 
REMARK    7  A    between atoms: N26_17  and  C34_22 
REMARK    8  A    between atoms: C27_18  and  C30_21 
REMARK    9  A    between atoms: C39_25  and  O44_28 
REMARK   10  A    between atoms: O44_28  and  C45_29 
ROOT
ATOM      1  C25 34M d   1     -24.890  -4.565  10.029  0.00  0.00     0.196 A 
ATOM      2  N26 34M d   1     -25.070  -4.872   8.755  0.00  0.00    -0.276 N 
ATOM      3  C27 34M d   1     -25.769  -5.978   8.782  0.00  0.00     0.131 A 
ATOM      4  N28 34M d   1     -25.992  -6.406   9.952  0.00  0.00    -0.134 NA
ATOM      5  N29 34M d   1     -25.374  -5.442  10.803  0.00  0.00    -0.122 NA
ENDROOT
BRANCH   1   6
ATOM      6  S1  34M d   1     -23.970  -3.172  10.602  0.00  0.00    -0.082 SA
BRANCH   6   7
ATOM      7  C2  34M d   1     -24.028  -3.614  12.373  0.00  0.00     0.047 C 
ATOM      8  H1  34M d   1     -23.567  -4.604  12.506  0.00  0.00     0.062 H 
ATOM      9  H2  34M d   1     -25.080  -3.654  12.693  0.00  0.00     0.062 H 
BRANCH   7  10
ATOM     10  C5  34M d   1     -23.306  -2.632  13.225  0.00  0.00     0.182 A 
ATOM     11  N6  34M d   1     -22.689  -1.588  12.930  0.00  0.00    -0.203 NA
ATOM     12  C7  34M d   1     -22.133  -1.008  14.098  0.00  0.00     0.189 A 
ATOM     13  N8  34M d   1     -22.512  -1.696  15.104  0.00  0.00    -0.106 NA
ATOM     14  O9  34M d   1     -23.266  -2.761  14.566  0.00  0.00    -0.195 OA
BRANCH  12  15
ATOM     15  C10 34M d   1     -21.391   0.299  14.149  0.00  0.00     0.014 A 
ATOM     16  C11 34M d   1     -20.870   0.746  15.370  0.00  0.00    -0.067 A 
ATOM     17  C13 34M d   1     -20.236   1.999  15.436  0.00  0.00    -0.050 A 
ATOM     18  H3  34M d   1     -20.955   0.130  16.258  0.00  0.00     0.085 H 
ATOM     19  C15 34M d   1     -20.189   2.828  14.300  0.00  0.00     0.068 A 
ATOM     20  H4  34M d   1     -19.782   2.327  16.364  0.00  0.00     0.087 H 
ATOM     21  C16 34M d   1     -20.750   2.371  13.080  0.00  0.00    -0.050 A 
ATOM     22  C18 34M d   1     -21.385   1.123  13.009  0.00  0.00    -0.067 A 
ATOM     23  H5  34M d   1     -20.687   2.993  12.194  0.00  0.00     0.087 H 
ATOM     24  H6  34M d   1     -21.863   0.799  12.092  0.00  0.00     0.085 H 
BRANCH  19  25
ATOM     25  O20 34M d   1     -19.531   4.072  14.428  0.00  0.00    -0.356 OA
BRANCH  25  26
ATOM     26  C21 34M d   1     -19.526   5.057  13.369  0.00  0.00     0.010 C 
ATOM     27  H7  34M d   1     -18.956   5.940  13.692  0.00  0.00     0.066 H 
ATOM     28  H8  34M d   1     -20.560   5.353  13.139  0.00  0.00     0.066 H 
ATOM     29  H9  34M d   1     -19.059   4.627  12.471  0.00  0.00     0.066 H 
ENDBRANCH  25  26
ENDBRANCH  19  25
ENDBRANCH  12  15
ENDBRANCH   7  10
ENDBRANCH   6   7
ENDBRANCH   1   6
BRANCH   2  30
ATOM     30  C34 34M d   1     -24.653  -4.160   7.669  0.00  0.00     0.043 A 
ATOM     31  C35 34M d   1     -23.690  -4.682   6.777  0.00  0.00    -0.054 A 
ATOM     32  C37 34M d   1     -23.259  -3.921   5.681  0.00  0.00    -0.049 A 
ATOM     33  H13 34M d   1     -23.283  -5.673   6.940  0.00  0.00     0.087 H 
ATOM     34  C39 34M d   1     -23.788  -2.634   5.456  0.00  0.00     0.068 A 
ATOM     35  H14 34M d   1     -22.515  -4.324   5.003  0.00  0.00     0.087 H 
ATOM     36  C40 34M d   1     -24.747  -2.106   6.358  0.00  0.00    -0.049 A 
ATOM     37  C42 34M d   1     -25.194  -2.880   7.438  0.00  0.00    -0.054 A 
ATOM     38  H15 34M d   1     -25.134  -1.104   6.212  0.00  0.00     0.087 H 
ATOM     39  H16 34M d   1     -25.960  -2.491   8.099  0.00  0.00     0.087 H 
BRANCH  34  40
ATOM     40  O44 34M d   1     -23.271  -1.907   4.383  0.00  0.00    -0.356 OA
BRANCH  40  41
ATOM     41  C45 34M d   1     -23.498  -0.503   4.156  0.00  0.00     0.010 C 
ATOM     42  H17 34M d   1     -22.974  -0.190   3.241  0.00  0.00     0.066 H 
ATOM     43  H18 34M d   1     -23.116   0.073   5.012  0.00  0.00     0.066 H 
ATOM     44  H19 34M d   1     -24.577  -0.320   4.042  0.00  0.00     0.066 H 
ENDBRANCH  40  41
ENDBRANCH  34  40
ENDBRANCH   2  30
BRANCH   3  45
ATOM     45  C30 34M d   1     -26.287  -6.756   7.596  0.00  0.00    -0.019 C 
ATOM     46  H10 34M d   1     -26.838  -7.640   7.950  0.00  0.00     0.037 H 
ATOM     47  H11 34M d   1     -25.441  -7.078   6.971  0.00  0.00     0.037 H 
ATOM     48  H12 34M d   1     -26.959  -6.117   7.004  0.00  0.00     0.037 H 
ENDBRANCH   3  45
TORSDOF 10
