REMARK  0 active torsions:
REMARK  status: ('A' for Active; 'I' for Inactive)
ROOT
ATOM      1  C1  091 d   1      23.087  36.334  41.412  0.00  0.00     0.096 A 
ATOM      2  C2  091 d   1      24.480  36.845  41.285  0.00  0.00    -0.012 A 
ATOM      3  C3  091 d   1      22.981  36.165  42.912  0.00  0.00     0.237 A 
ATOM      4  C4  091 d   1      22.082  37.370  40.979  0.00  0.00    -0.021 C 
ATOM      5  C5  091 d   1      22.777  35.061  40.652  0.00  0.00     0.101 C 
ATOM      6  C6  091 d   1      25.057  36.990  42.511  0.00  0.00     0.042 A 
ATOM      7  C7  091 d   1      25.180  37.161  40.158  0.00  0.00    -0.073 A 
ATOM      8  N1  091 d   1      24.167  36.593  43.503  0.00  0.00    -0.326 N 
ATOM      9  O1  091 d   1      21.926  35.873  43.465  0.00  0.00    -0.272 OA
ATOM     10  C8  091 d   1      20.944  36.609  40.335  0.00  0.00     0.083 C 
ATOM     11  N2  091 d   1      21.599  35.398  39.791  0.00  0.00    -0.074 N 
ATOM     12  C9  091 d   1      26.331  37.480  42.668  0.00  0.00    -0.057 A 
ATOM     13  C10 091 d   1      26.466  37.651  40.287  0.00  0.00    -0.082 A 
ATOM     14  C11 091 d   1      27.037  37.796  41.532  0.00  0.00    -0.081 A 
ATOM     15  H1  091 d   1      22.536  38.063  40.255  0.00  0.00     0.037 H 
ATOM     16  H2  091 d   1      21.718  37.936  41.849  0.00  0.00     0.037 H 
ATOM     17  H3  091 d   1      22.526  34.247  41.348  0.00  0.00     0.078 H 
ATOM     18  H4  091 d   1      23.635  34.762  40.032  0.00  0.00     0.078 H 
ATOM     19  H5  091 d   1      24.735  37.030  39.178  0.00  0.00     0.084 H 
ATOM     20  H6  091 d   1      24.350  36.612  44.486  0.00  0.00     0.169 HD
ATOM     21  H7  091 d   1      20.482  37.200  39.531  0.00  0.00     0.075 H 
ATOM     22  H8  091 d   1      20.180  36.341  41.079  0.00  0.00     0.075 H 
ATOM     23  H9  091 d   1      20.947  34.630  39.793  0.00  0.00     0.277 HD
ATOM     24  H10 091 d   1      21.908  35.574  38.848  0.00  0.00     0.277 HD
ATOM     25  H11 091 d   1      26.764  37.613  43.653  0.00  0.00     0.086 H 
ATOM     26  H12 091 d   1      27.029  37.923  39.402  0.00  0.00     0.083 H 
ATOM     27  H13 091 d   1      28.053  38.163  41.617  0.00  0.00     0.083 H 
ENDROOT
TORSDOF 0
