REMARK  13 active torsions:
REMARK  status: ('A' for Active; 'I' for Inactive)
REMARK    1  A    between atoms: C1_1  and  C2_4 
REMARK    2  A    between atoms: C2_4  and  C3_5 
REMARK    3  A    between atoms: C3_5  and  C4_6 
REMARK    4  A    between atoms: C4_6  and  C5_7 
REMARK    5  A    between atoms: C5_7  and  C6_8 
REMARK    6  A    between atoms: C6_8  and  C7_9 
REMARK    7  A    between atoms: C7_9  and  C8_10 
REMARK    8  A    between atoms: C8_10  and  C9_11 
REMARK    9  A    between atoms: C9_11  and  C10_12 
REMARK   10  A    between atoms: C10_12  and  C11_13 
REMARK   11  A    between atoms: C11_13  and  C12_14 
REMARK   12  A    between atoms: C12_14  and  C13_15 
REMARK   13  A    between atoms: C13_15  and  C14_16 
ROOT
ATOM      1  C8  MYR d   1      -3.350  10.900  18.356  0.00  0.00    -0.065 C 
ATOM      2  H13 MYR d   1      -4.401  10.778  18.655  0.00  0.00     0.033 H 
ATOM      3  H14 MYR d   1      -3.273  10.852  17.260  0.00  0.00     0.033 H 
ENDROOT
BRANCH   1   4
ATOM      4  C7  MYR d   1      -2.539   9.766  18.952  0.00  0.00    -0.065 C 
ATOM      5  H11 MYR d   1      -1.731   9.489  18.258  0.00  0.00     0.033 H 
ATOM      6  H12 MYR d   1      -2.105  10.090  19.910  0.00  0.00     0.033 H 
BRANCH   4   7
ATOM      7  C6  MYR d   1      -3.444   8.559  19.186  0.00  0.00    -0.065 C 
ATOM      8  H9  MYR d   1      -3.981   8.695  20.136  0.00  0.00     0.033 H 
ATOM      9  H10 MYR d   1      -4.169   8.492  18.361  0.00  0.00     0.033 H 
BRANCH   7  10
ATOM     10  C5  MYR d   1      -2.646   7.262  19.250  0.00  0.00    -0.065 C 
ATOM     11  H7  MYR d   1      -2.589   6.823  18.243  0.00  0.00     0.033 H 
ATOM     12  H8  MYR d   1      -1.631   7.481  19.613  0.00  0.00     0.033 H 
BRANCH  10  13
ATOM     13  C4  MYR d   1      -3.311   6.264  20.194  0.00  0.00    -0.065 C 
ATOM     14  H5  MYR d   1      -3.954   6.811  20.899  0.00  0.00     0.033 H 
ATOM     15  H6  MYR d   1      -3.924   5.566  19.604  0.00  0.00     0.033 H 
BRANCH  13  16
ATOM     16  C3  MYR d   1      -2.275   5.471  20.981  0.00  0.00    -0.056 C 
ATOM     17  H3  MYR d   1      -2.021   6.033  21.892  0.00  0.00     0.033 H 
ATOM     18  H4  MYR d   1      -2.713   4.501  21.259  0.00  0.00     0.033 H 
BRANCH  16  19
ATOM     19  C2  MYR d   1      -0.988   5.216  20.190  0.00  0.00     0.016 C 
ATOM     20  H1  MYR d   1      -0.934   5.929  19.355  0.00  0.00     0.049 H 
ATOM     21  H2  MYR d   1      -0.124   5.364  20.855  0.00  0.00     0.049 H 
BRANCH  19  22
ATOM     22  C1  MYR d   1      -0.949   3.810  19.639  0.00  0.00     0.172 C 
ATOM     23  O1  MYR d   1      -1.015   3.680  18.399  0.00  0.00    -0.648 OA
ATOM     24  O2  MYR d   1      -0.841   2.834  20.425  0.00  0.00    -0.648 OA
ENDBRANCH  19  22
ENDBRANCH  16  19
ENDBRANCH  13  16
ENDBRANCH  10  13
ENDBRANCH   7  10
ENDBRANCH   4   7
ENDBRANCH   1   4
BRANCH   1  25
ATOM     25  C9  MYR d   1      -2.862  12.273  18.823  0.00  0.00    -0.065 C 
ATOM     26  H15 MYR d   1      -1.765  12.320  18.751  0.00  0.00     0.033 H 
ATOM     27  H16 MYR d   1      -3.168  12.439  19.866  0.00  0.00     0.033 H 
BRANCH  25  28
ATOM     28  C10 MYR d   1      -3.478  13.338  17.935  0.00  0.00    -0.065 C 
ATOM     29  H17 MYR d   1      -4.566  13.340  18.094  0.00  0.00     0.033 H 
ATOM     30  H18 MYR d   1      -3.261  13.088  16.886  0.00  0.00     0.033 H 
BRANCH  28  31
ATOM     31  C11 MYR d   1      -2.940  14.745  18.222  0.00  0.00    -0.065 C 
ATOM     32  H19 MYR d   1      -1.843  14.760  18.142  0.00  0.00     0.033 H 
ATOM     33  H20 MYR d   1      -3.239  15.072  19.229  0.00  0.00     0.033 H 
BRANCH  31  34
ATOM     34  C12 MYR d   1      -3.554  15.634  17.177  0.00  0.00    -0.065 C 
ATOM     35  H21 MYR d   1      -4.536  15.224  16.898  0.00  0.00     0.033 H 
ATOM     36  H22 MYR d   1      -2.897  15.647  16.294  0.00  0.00     0.033 H 
BRANCH  34  37
ATOM     37  C13 MYR d   1      -3.740  17.045  17.661  0.00  0.00    -0.069 C 
ATOM     38  H23 MYR d   1      -2.787  17.429  18.054  0.00  0.00     0.032 H 
ATOM     39  H24 MYR d   1      -4.500  17.065  18.456  0.00  0.00     0.032 H 
BRANCH  37  40
ATOM     40  C14 MYR d   1      -4.192  17.900  16.509  0.00  0.00    -0.077 C 
ATOM     41  H25 MYR d   1      -4.331  18.935  16.853  0.00  0.00     0.027 H 
ATOM     42  H26 MYR d   1      -5.144  17.513  16.117  0.00  0.00     0.027 H 
ATOM     43  H27 MYR d   1      -3.432  17.877  15.715  0.00  0.00     0.027 H 
ENDBRANCH  37  40
ENDBRANCH  34  37
ENDBRANCH  31  34
ENDBRANCH  28  31
ENDBRANCH  25  28
ENDBRANCH   1  25
TORSDOF 13
