REMARK  15 active torsions:
REMARK  status: ('A' for Active; 'I' for Inactive)
REMARK    1  A    between atoms: C1_1  and  C2_4 
REMARK    2  A    between atoms: C2_4  and  C3_5 
REMARK    3  A    between atoms: C3_5  and  C4_6 
REMARK    4  A    between atoms: C4_6  and  C5_7 
REMARK    5  A    between atoms: C5_7  and  C6_8 
REMARK    6  A    between atoms: C6_8  and  C7_9 
REMARK    7  A    between atoms: C7_9  and  C8_10 
REMARK    8  A    between atoms: C8_10  and  C9_11 
REMARK    9  A    between atoms: C9_11  and  CA_12 
REMARK   10  A    between atoms: CA_12  and  CB_13 
REMARK   11  A    between atoms: CB_13  and  CC_14 
REMARK   12  A    between atoms: CC_14  and  CD_15 
REMARK   13  A    between atoms: CD_15  and  CE_16 
REMARK   14  A    between atoms: CE_16  and  CF_17 
REMARK   15  A    between atoms: CF_17  and  CG_18 
ROOT
ATOM      1  C9  PLM d   1      -3.154  10.376  19.430  0.00  0.00    -0.065 C 
ATOM      2  H15 PLM d   1      -2.150  10.175  19.027  0.00  0.00     0.033 H 
ATOM      3  H16 PLM d   1      -3.073  10.666  20.488  0.00  0.00     0.033 H 
ENDROOT
BRANCH   1   4
ATOM      4  C8  PLM d   1      -4.006   9.117  19.315  0.00  0.00    -0.065 C 
ATOM      5  H13 PLM d   1      -4.856   9.192  20.009  0.00  0.00     0.033 H 
ATOM      6  H14 PLM d   1      -4.381   9.029  18.285  0.00  0.00     0.033 H 
BRANCH   4   7
ATOM      7  C7  PLM d   1      -3.191   7.878  19.657  0.00  0.00    -0.065 C 
ATOM      8  H11 PLM d   1      -2.601   7.582  18.777  0.00  0.00     0.033 H 
ATOM      9  H12 PLM d   1      -2.514   8.113  20.491  0.00  0.00     0.033 H 
BRANCH   7  10
ATOM     10  C6  PLM d   1      -4.101   6.716  20.063  0.00  0.00    -0.065 C 
ATOM     11  H9  PLM d   1      -4.951   7.111  20.639  0.00  0.00     0.033 H 
ATOM     12  H10 PLM d   1      -4.473   6.219  19.155  0.00  0.00     0.033 H 
BRANCH  10  13
ATOM     13  C5  PLM d   1      -3.355   5.697  20.916  0.00  0.00    -0.065 C 
ATOM     14  H7  PLM d   1      -3.135   6.137  21.900  0.00  0.00     0.033 H 
ATOM     15  H8  PLM d   1      -3.982   4.803  21.047  0.00  0.00     0.033 H 
BRANCH  13  16
ATOM     16  C4  PLM d   1      -2.047   5.302  20.235  0.00  0.00    -0.065 C 
ATOM     17  H5  PLM d   1      -2.268   4.974  19.208  0.00  0.00     0.033 H 
ATOM     18  H6  PLM d   1      -1.385   6.180  20.205  0.00  0.00     0.033 H 
BRANCH  16  19
ATOM     19  C3  PLM d   1      -1.331   4.173  20.966  0.00  0.00    -0.056 C 
ATOM     20  H3  PLM d   1      -0.411   4.568  21.422  0.00  0.00     0.033 H 
ATOM     21  H4  PLM d   1      -1.991   3.780  21.753  0.00  0.00     0.033 H 
BRANCH  19  22
ATOM     22  C2  PLM d   1      -0.967   3.042  20.013  0.00  0.00     0.016 C 
ATOM     23  H1  PLM d   1      -1.769   2.908  19.272  0.00  0.00     0.049 H 
ATOM     24  H2  PLM d   1      -0.026   3.280  19.496  0.00  0.00     0.049 H 
BRANCH  22  25
ATOM     25  C1  PLM d   1      -0.800   1.773  20.822  0.00  0.00     0.172 C 
ATOM     26  O1  PLM d   1       0.241   1.624  21.499  0.00  0.00    -0.648 OA
ATOM     27  O2  PLM d   1      -1.719   0.920  20.787  0.00  0.00    -0.648 OA
ENDBRANCH  22  25
ENDBRANCH  19  22
ENDBRANCH  16  19
ENDBRANCH  13  16
ENDBRANCH  10  13
ENDBRANCH   7  10
ENDBRANCH   4   7
ENDBRANCH   1   4
BRANCH   1  28
ATOM     28  CA  PLM d   1      -3.793  11.507  18.646  0.00  0.00    -0.065 C 
ATOM     29  H17 PLM d   1      -4.866  11.552  18.885  0.00  0.00     0.033 H 
ATOM     30  H18 PLM d   1      -3.665  11.319  17.570  0.00  0.00     0.033 H 
BRANCH  28  31
ATOM     31  CB  PLM d   1      -3.150  12.824  18.999  0.00  0.00    -0.065 C 
ATOM     32  H19 PLM d   1      -2.114  12.839  18.630  0.00  0.00     0.033 H 
ATOM     33  H20 PLM d   1      -3.153  12.955  20.091  0.00  0.00     0.033 H 
BRANCH  31  34
ATOM     34  CC  PLM d   1      -3.934  13.942  18.353  0.00  0.00    -0.065 C 
ATOM     35  H21 PLM d   1      -4.902  14.056  18.863  0.00  0.00     0.033 H 
ATOM     36  H22 PLM d   1      -4.104  13.707  17.292  0.00  0.00     0.033 H 
BRANCH  34  37
ATOM     37  CD  PLM d   1      -3.149  15.227  18.466  0.00  0.00    -0.065 C 
ATOM     38  H23 PLM d   1      -2.309  15.195  17.757  0.00  0.00     0.033 H 
ATOM     39  H24 PLM d   1      -2.760  15.319  19.491  0.00  0.00     0.033 H 
BRANCH  37  40
ATOM     40  CE  PLM d   1      -4.011  16.440  18.155  0.00  0.00    -0.065 C 
ATOM     41  H25 PLM d   1      -3.850  17.193  18.941  0.00  0.00     0.033 H 
ATOM     42  H26 PLM d   1      -5.066  16.128  18.156  0.00  0.00     0.033 H 
BRANCH  40  43
ATOM     43  CF  PLM d   1      -3.698  17.069  16.816  0.00  0.00    -0.069 C 
ATOM     44  H27 PLM d   1      -3.923  16.340  16.023  0.00  0.00     0.032 H 
ATOM     45  H28 PLM d   1      -2.628  17.323  16.788  0.00  0.00     0.032 H 
BRANCH  43  46
ATOM     46  CG  PLM d   1      -4.500  18.325  16.561  0.00  0.00    -0.077 C 
ATOM     47  H29 PLM d   1      -4.232  18.738  15.577  0.00  0.00     0.027 H 
ATOM     48  H30 PLM d   1      -4.278  19.067  17.342  0.00  0.00     0.027 H 
ATOM     49  H31 PLM d   1      -5.573  18.085  16.578  0.00  0.00     0.027 H 
ENDBRANCH  43  46
ENDBRANCH  40  43
ENDBRANCH  37  40
ENDBRANCH  34  37
ENDBRANCH  31  34
ENDBRANCH  28  31
ENDBRANCH   1  28
TORSDOF 15
