REMARK  9 active torsions:
REMARK  status: ('A' for Active; 'I' for Inactive)
REMARK    1  A    between atoms: NBE_6  and  CAN_7 
REMARK    2  A    between atoms: CAN_7  and  CAJ_8 
REMARK    3  A    between atoms: CAJ_8  and  CAK_9 
REMARK    4  A    between atoms: CAK_9  and  OAV_10 
REMARK    5  A    between atoms: OAV_10  and  CBA_11 
REMARK    6  A    between atoms: CAZ_12  and  OAT_14 
REMARK    7  A    between atoms: OAT_14  and  CAA_15 
REMARK    8  A    between atoms: C6_22  and  NAS_23 
REMARK    9  A    between atoms: NAS_23  and  CAY_24 
ROOT
ATOM      1  CBA IRE d   1      -0.546  49.884  18.370  0.00  0.00     0.103 A 
ATOM      2  CAZ IRE d   1      -1.175  50.829  17.581  0.00  0.00     0.103 A 
ATOM      3  CAH IRE d   1      -1.749  51.943  18.178  0.00  0.00    -0.019 A 
ATOM      4  CAI IRE d   1      -0.516  50.031  19.778  0.00  0.00    -0.032 A 
ATOM      5  C5  IRE d   1      -1.130  51.141  20.356  0.00  0.00     0.042 A 
ATOM      6  C4  IRE d   1      -1.747  52.088  19.548  0.00  0.00     0.075 A 
ATOM      7  N3  IRE d   1      -2.344  53.166  20.086  0.00  0.00    -0.241 NA
ATOM      8  C2  IRE d   1      -2.313  53.388  21.393  0.00  0.00     0.089 A 
ATOM      9  N1  IRE d   1      -1.723  52.505  22.196  0.00  0.00    -0.224 NA
ATOM     10  C6  IRE d   1      -1.137  51.383  21.725  0.00  0.00     0.142 A 
ATOM     11  H16 IRE d   1      -2.204  52.708  17.559  0.00  0.00     0.091 H 
ATOM     12  H20 IRE d   1      -0.023  49.291  20.398  0.00  0.00     0.089 H 
ATOM     13  H21 IRE d   1      -2.765  54.283  21.805  0.00  0.00     0.146 H 
ENDROOT
BRANCH   1  14
ATOM     14  OAV IRE d   1      -0.001  48.827  17.686  0.00  0.00    -0.348 OA
BRANCH  14  15
ATOM     15  CAK IRE d   1       0.793  47.788  18.291  0.00  0.00     0.028 C 
ATOM     16  H14 IRE d   1       1.161  48.133  19.269  0.00  0.00     0.075 H 
ATOM     17  H15 IRE d   1       0.174  46.889  18.428  0.00  0.00     0.075 H 
BRANCH  15  18
ATOM     18  CAJ IRE d   1       1.986  47.451  17.389  0.00  0.00    -0.022 C 
ATOM     19  H12 IRE d   1       2.557  48.372  17.201  0.00  0.00     0.038 H 
ATOM     20  H13 IRE d   1       2.626  46.722  17.909  0.00  0.00     0.038 H 
BRANCH  18  21
ATOM     21  CAN IRE d   1       1.556  46.855  16.041  0.00  0.00     0.086 C 
ATOM     22  H10 IRE d   1       0.577  46.360  16.129  0.00  0.00     0.076 H 
ATOM     23  H11 IRE d   1       1.504  47.637  15.269  0.00  0.00     0.076 H 
BRANCH  21  24
ATOM     24  NBE IRE d   1       2.595  45.887  15.723  0.00  0.00    -0.067 N 
ATOM     25  CAO IRE d   1       3.404  46.117  14.507  0.00  0.00     0.103 C 
ATOM     26  CAL IRE d   1       4.386  44.938  14.375  0.00  0.00     0.042 C 
ATOM     27  H1  IRE d   1       2.750  46.162  13.624  0.00  0.00     0.079 H 
ATOM     28  H2  IRE d   1       3.961  47.061  14.599  0.00  0.00     0.079 H 
ATOM     29  OAU IRE d   1       3.690  43.688  14.554  0.00  0.00    -0.388 OA
ATOM     30  H3  IRE d   1       5.170  45.030  15.141  0.00  0.00     0.076 H 
ATOM     31  H4  IRE d   1       4.846  44.958  13.376  0.00  0.00     0.076 H 
ATOM     32  CAM IRE d   1       3.080  43.444  15.849  0.00  0.00     0.042 C 
ATOM     33  CAP IRE d   1       2.794  44.730  16.644  0.00  0.00     0.103 C 
ATOM     34  H5  IRE d   1       3.759  42.813  16.441  0.00  0.00     0.076 H 
ATOM     35  H6  IRE d   1       2.130  42.913  15.692  0.00  0.00     0.076 H 
ATOM     36  H7  IRE d   1       3.645  44.940  17.309  0.00  0.00     0.079 H 
ATOM     37  H8  IRE d   1       1.885  44.587  17.246  0.00  0.00     0.079 H 
ATOM     38  H9  IRE d   1       1.943  45.340  15.183  0.00  0.00     0.280 HD
ENDBRANCH  21  24
ENDBRANCH  18  21
ENDBRANCH  15  18
ENDBRANCH  14  15
ENDBRANCH   1  14
BRANCH   2  39
ATOM     39  OAT IRE d   1      -1.217  50.679  16.220  0.00  0.00    -0.353 OA
BRANCH  39  40
ATOM     40  CAA IRE d   1      -2.338  51.260  15.508  0.00  0.00     0.010 C 
ATOM     41  H17 IRE d   1      -2.233  51.058  14.432  0.00  0.00     0.066 H 
ATOM     42  H18 IRE d   1      -2.357  52.347  15.677  0.00  0.00     0.066 H 
ATOM     43  H19 IRE d   1      -3.275  50.816  15.874  0.00  0.00     0.066 H 
ENDBRANCH  39  40
ENDBRANCH   2  39
BRANCH  10  44
ATOM     44  NAS IRE d   1      -0.550  50.516  22.568  0.00  0.00    -0.340 N 
ATOM     45  H22 IRE d   1       0.166  49.900  22.158  0.00  0.00     0.167 HD
BRANCH  44  46
ATOM     46  CAY IRE d   1      -0.789  50.354  23.905  0.00  0.00     0.035 A 
ATOM     47  CAG IRE d   1      -2.068  50.503  24.445  0.00  0.00    -0.033 A 
ATOM     48  CAX IRE d   1      -2.286  50.336  25.807  0.00  0.00     0.074 A 
ATOM     49  H23 IRE d   1      -2.899  50.752  23.795  0.00  0.00     0.089 H 
ATOM     50 CL   IRE d   1      -3.877  50.528  26.605  0.00  0.00    -0.081 Cl
ATOM     51  CAW IRE d   1      -1.248  49.996  26.611  0.00  0.00     0.138 A 
ATOM     52  FAB IRE d   1      -1.549  49.841  27.924  0.00  0.00    -0.204 F 
ATOM     53  CAD IRE d   1       0.043  49.802  26.087  0.00  0.00    -0.042 A 
ATOM     54  CAE IRE d   1       0.267  49.966  24.734  0.00  0.00    -0.054 A 
ATOM     55  H24 IRE d   1       0.860  49.525  26.743  0.00  0.00     0.088 H 
ATOM     56  H25 IRE d   1       1.254  49.795  24.319  0.00  0.00     0.087 H 
ENDBRANCH  44  46
ENDBRANCH  10  44
TORSDOF 9
