REMARK  6 active torsions:
REMARK  status: ('A' for Active; 'I' for Inactive)
REMARK    1  A    between atoms: C9_5  and  C17_15 
REMARK    2  A    between atoms: C18_18  and  C1_6 
REMARK    3  A    between atoms: C10_8  and  O15_24 
REMARK    4  A    between atoms: C7_9  and  C13_16 
REMARK    5  A    between atoms: O15_24  and  C16_17 
REMARK    6  A    between atoms: C18_18  and  N19_22 
ROOT
ATOM      1  C5  C1L d   1       4.712  11.670  41.939  0.00  0.00    -0.038 A 
ATOM      2  C14 C1L d   1       4.268  13.158  40.081  0.00  0.00    -0.043 A 
ATOM      3  C2  C1L d   1       4.329  12.684  42.839  0.00  0.00     0.005 A 
ATOM      4  C3  C1L d   1       3.933  13.497  45.086  0.00  0.00     0.046 A 
ATOM      5  C9  C1L d   1       3.875  14.224  40.950  0.00  0.00    -0.030 A 
ATOM      6  C1  C1L d   1       4.336  12.426  44.245  0.00  0.00    -0.004 A 
ATOM      7  C4  C1L d   1       3.895  13.989  42.343  0.00  0.00     0.076 A 
ATOM      8  C10 C1L d   1       4.718  11.892  40.560  0.00  0.00     0.069 A 
ATOM      9  C7  C1L d   1       3.767  13.735  46.461  0.00  0.00     0.038 A 
ATOM     10  C6  C1L d   1       3.579  14.720  44.483  0.00  0.00     0.182 A 
ATOM     11  N8  C1L d   1       3.503  14.999  43.155  0.00  0.00    -0.226 NA
ATOM     12  N11 C1L d   1       3.256  15.560  45.488  0.00  0.00    -0.154 NA
ATOM     13  N12 C1L d   1       3.364  15.006  46.692  0.00  0.00    -0.280 N 
ATOM     14  H1  C1L d   1       5.007  10.700  42.324  0.00  0.00     0.089 H 
ATOM     15  H2  C1L d   1       4.222  13.319  39.010  0.00  0.00     0.088 H 
ATOM     16  H22 C1L d   1       3.180  15.449  47.604  0.00  0.00     0.189 HD
ENDROOT
BRANCH   6  17
ATOM     17  C18 C1L d   1       4.886  11.108  44.791  0.00  0.00     0.109 C 
ATOM     18  H20 C1L d   1       4.366  10.267  44.309  0.00  0.00     0.083 H 
ATOM     19  H21 C1L d   1       4.723  11.066  45.878  0.00  0.00     0.083 H 
BRANCH  17  20
ATOM     20  N19 C1L d   1       6.364  11.015  44.502  0.00  0.00    -0.063 N 
ATOM     21  C20 C1L d   1       6.926   9.666  44.620  0.00  0.00     0.103 C 
ATOM     22  C21 C1L d   1       8.327   9.630  44.010  0.00  0.00     0.042 C 
ATOM     23  H3  C1L d   1       6.984   9.387  45.682  0.00  0.00     0.079 H 
ATOM     24  H4  C1L d   1       6.278   8.954  44.088  0.00  0.00     0.079 H 
ATOM     25  O22 C1L d   1       9.158  10.627  44.595  0.00  0.00    -0.388 OA
ATOM     26  H7  C1L d   1       8.254   9.811  42.928  0.00  0.00     0.076 H 
ATOM     27  H8  C1L d   1       8.772   8.640  44.187  0.00  0.00     0.076 H 
ATOM     28  C23 C1L d   1       8.598  11.967  44.498  0.00  0.00     0.042 C 
ATOM     29  C24 C1L d   1       7.205  12.061  45.101  0.00  0.00     0.103 C 
ATOM     30  H9  C1L d   1       9.261  12.666  45.030  0.00  0.00     0.076 H 
ATOM     31  H10 C1L d   1       8.543  12.250  43.437  0.00  0.00     0.076 H 
ATOM     32  H5  C1L d   1       6.774  13.050  44.887  0.00  0.00     0.079 H 
ATOM     33  H6  C1L d   1       7.261  11.913  46.190  0.00  0.00     0.079 H 
ATOM     34  H23 C1L d   1       6.418  11.210  43.514  0.00  0.00     0.280 HD
ENDBRANCH  17  20
ENDBRANCH   6  17
BRANCH   9  35
ATOM     35  C13 C1L d   1       4.089  12.809  47.584  0.00  0.00    -0.035 C 
ATOM     36  H14 C1L d   1       3.843  13.293  48.541  0.00  0.00     0.035 H 
ATOM     37  H15 C1L d   1       5.161  12.564  47.562  0.00  0.00     0.035 H 
ATOM     38  H16 C1L d   1       3.500  11.886  47.478  0.00  0.00     0.035 H 
ENDBRANCH   9  35
BRANCH   8  39
ATOM     39  O15 C1L d   1       5.111  10.947  39.632  0.00  0.00    -0.356 OA
BRANCH  39  40
ATOM     40  C16 C1L d   1       6.293  10.199  39.939  0.00  0.00     0.010 C 
ATOM     41  H17 C1L d   1       6.497   9.486  39.127  0.00  0.00     0.066 H 
ATOM     42  H18 C1L d   1       6.145   9.650  40.881  0.00  0.00     0.066 H 
ATOM     43  H19 C1L d   1       7.145  10.887  40.045  0.00  0.00     0.066 H 
ENDBRANCH  39  40
ENDBRANCH   8  39
BRANCH   5  44
ATOM     44  C17 C1L d   1       3.451  15.581  40.361  0.00  0.00    -0.049 C 
ATOM     45  H11 C1L d   1       3.510  15.539  39.263  0.00  0.00     0.033 H 
ATOM     46  H12 C1L d   1       4.122  16.369  40.734  0.00  0.00     0.033 H 
ATOM     47  H13 C1L d   1       2.418  15.806  40.664  0.00  0.00     0.033 H 
ENDBRANCH   5  44
TORSDOF 6
