REMARK  11 active torsions:
REMARK  status: ('A' for Active; 'I' for Inactive)
REMARK    1  A    between atoms: C1_3  and  C2_4 
REMARK    2  A    between atoms: C2_4  and  C3_5 
REMARK    3  A    between atoms: C3_5  and  C4_6 
REMARK    4  A    between atoms: C4_6  and  C5_7 
REMARK    5  A    between atoms: C5_7  and  C6_8 
REMARK    6  A    between atoms: C6_8  and  C7_9 
REMARK    7  A    between atoms: C7_9  and  C8_10 
REMARK    8  A    between atoms: C8_10  and  C9_11 
REMARK    9  A    between atoms: C9_11  and  C10_12 
REMARK   10  A    between atoms: C10_12  and  C11_13 
REMARK   11  A    between atoms: C11_13  and  C12_14 
ROOT
ATOM      1  C7  DAO d   1     -35.969 -24.439 -41.588  0.00  0.00    -0.065 C 
ATOM      2  H11 DAO d   1     -35.938 -23.842 -40.664  0.00  0.00     0.033 H 
ATOM      3  H12 DAO d   1     -35.280 -25.292 -41.497  0.00  0.00     0.033 H 
ENDROOT
BRANCH   1   4
ATOM      4  C6  DAO d   1     -35.533 -23.569 -42.759  0.00  0.00    -0.065 C 
ATOM      5  H9  DAO d   1     -34.643 -24.011 -43.231  0.00  0.00     0.033 H 
ATOM      6  H10 DAO d   1     -36.348 -23.511 -43.495  0.00  0.00     0.033 H 
BRANCH   4   7
ATOM      7  C5  DAO d   1     -35.200 -22.168 -42.261  0.00  0.00    -0.065 C 
ATOM      8  H7  DAO d   1     -34.831 -22.243 -41.228  0.00  0.00     0.033 H 
ATOM      9  H8  DAO d   1     -34.412 -21.747 -42.903  0.00  0.00     0.033 H 
BRANCH   7  10
ATOM     10  C4  DAO d   1     -36.398 -21.220 -42.280  0.00  0.00    -0.065 C 
ATOM     11  H5  DAO d   1     -36.315 -20.547 -43.146  0.00  0.00     0.033 H 
ATOM     12  H6  DAO d   1     -37.325 -21.807 -42.359  0.00  0.00     0.033 H 
BRANCH  10  13
ATOM     13  C3  DAO d   1     -36.434 -20.392 -41.001  0.00  0.00    -0.056 C 
ATOM     14  H3  DAO d   1     -37.467 -20.313 -40.632  0.00  0.00     0.033 H 
ATOM     15  H4  DAO d   1     -35.804 -20.861 -40.230  0.00  0.00     0.033 H 
BRANCH  13  16
ATOM     16  C2  DAO d   1     -35.904 -19.032 -41.341  0.00  0.00     0.016 C 
ATOM     17  H1  DAO d   1     -35.846 -18.959 -42.437  0.00  0.00     0.049 H 
ATOM     18  H2  DAO d   1     -36.620 -18.288 -40.961  0.00  0.00     0.049 H 
BRANCH  16  19
ATOM     19  C1  DAO d   1     -34.528 -18.687 -40.776  0.00  0.00     0.172 C 
ATOM     20  O1  DAO d   1     -33.827 -19.543 -40.173  0.00  0.00    -0.648 OA
ATOM     21  O2  DAO d   1     -34.135 -17.508 -40.948  0.00  0.00    -0.648 OA
ENDBRANCH  16  19
ENDBRANCH  13  16
ENDBRANCH  10  13
ENDBRANCH   7  10
ENDBRANCH   4   7
ENDBRANCH   1   4
BRANCH   1  22
ATOM     22  C8  DAO d   1     -37.387 -24.962 -41.797  0.00  0.00    -0.065 C 
ATOM     23  H13 DAO d   1     -37.466 -25.956 -41.332  0.00  0.00     0.033 H 
ATOM     24  H14 DAO d   1     -37.573 -25.047 -42.878  0.00  0.00     0.033 H 
BRANCH  22  25
ATOM     25  C9  DAO d   1     -38.455 -24.055 -41.190  0.00  0.00    -0.065 C 
ATOM     26  H15 DAO d   1     -38.218 -23.009 -41.433  0.00  0.00     0.033 H 
ATOM     27  H16 DAO d   1     -38.458 -24.186 -40.098  0.00  0.00     0.033 H 
BRANCH  25  28
ATOM     28  C10 DAO d   1     -39.849 -24.392 -41.738  0.00  0.00    -0.065 C 
ATOM     29  H17 DAO d   1     -40.157 -25.351 -41.295  0.00  0.00     0.033 H 
ATOM     30  H18 DAO d   1     -39.759 -24.504 -42.829  0.00  0.00     0.033 H 
BRANCH  28  31
ATOM     31  C11 DAO d   1     -40.967 -23.374 -41.466  0.00  0.00    -0.069 C 
ATOM     32  H19 DAO d   1     -41.900 -23.934 -41.301  0.00  0.00     0.032 H 
ATOM     33  H20 DAO d   1     -41.072 -22.742 -42.360  0.00  0.00     0.032 H 
BRANCH  31  34
ATOM     34  C12 DAO d   1     -40.755 -22.457 -40.269  0.00  0.00    -0.077 C 
ATOM     35  H21 DAO d   1     -41.613 -21.776 -40.173  0.00  0.00     0.027 H 
ATOM     36  H22 DAO d   1     -39.836 -21.871 -40.414  0.00  0.00     0.027 H 
ATOM     37  H23 DAO d   1     -40.663 -23.062 -39.355  0.00  0.00     0.027 H 
ENDBRANCH  31  34
ENDBRANCH  28  31
ENDBRANCH  25  28
ENDBRANCH  22  25
ENDBRANCH   1  22
TORSDOF 11
