REMARK  7 active torsions:
REMARK  status: ('A' for Active; 'I' for Inactive)
REMARK    1  A    between atoms: P1_1  and  O2_5 
REMARK    2  A    between atoms: O2_5  and  C1_6 
REMARK    3  A    between atoms: C1_6  and  C2_7 
REMARK    4  A    between atoms: C2_7  and  N1_8 
REMARK    5  A    between atoms: N1_8  and  C3_9 
REMARK    6  A    between atoms: N1_8  and  C4_10 
REMARK    7  A    between atoms: N1_8  and  C5_11 
ROOT
ATOM      1  N1   PC d   1      18.011  14.411  18.637  0.00  0.00    -0.077 N 
ENDROOT
BRANCH   1   2
ATOM      2  C2   PC d   1      17.635  13.254  17.763  0.00  0.00     0.104 C 
ATOM      3  H3   PC d   1      17.438  13.652  16.756  0.00  0.00     0.079 H 
ATOM      4  H4   PC d   1      18.499  12.574  17.726  0.00  0.00     0.079 H 
BRANCH   2   5
ATOM      5  C1   PC d   1      16.412  12.422  18.177  0.00  0.00     0.055 C 
ATOM      6  H1   PC d   1      15.584  13.113  18.395  0.00  0.00     0.077 H 
ATOM      7  H2   PC d   1      16.136  11.774  17.332  0.00  0.00     0.077 H 
BRANCH   5   8
ATOM      8  O2   PC d   1      16.617  11.600  19.320  0.00  0.00    -0.281 OA
BRANCH   8   9
ATOM      9  P1   PC d   1      15.472  10.673  19.869  0.00  0.00     0.422 P 
ATOM     10  O1   PC d   1      16.003  10.098  21.177  0.00  0.00    -0.617 OA
ATOM     11  O3   PC d   1      15.198   9.601  18.847  0.00  0.00    -0.617 OA
ATOM     12  O4   PC d   1      14.274  11.563  20.104  0.00  0.00    -0.617 OA
ENDBRANCH   8   9
ENDBRANCH   5   8
ENDBRANCH   2   5
ENDBRANCH   1   2
BRANCH   1  13
ATOM     13  C3   PC d   1      16.792  15.304  18.798  0.00  0.00     0.067 C 
ATOM     14  H5   PC d   1      17.048  16.162  19.438  0.00  0.00     0.068 H 
ATOM     15  H6   PC d   1      15.976  14.731  19.262  0.00  0.00     0.068 H 
ATOM     16  H7   PC d   1      16.470  15.666  17.811  0.00  0.00     0.068 H 
ENDBRANCH   1  13
BRANCH   1  17
ATOM     17  C4   PC d   1      19.169  15.054  18.035  0.00  0.00     0.067 C 
ATOM     18  H8   PC d   1      19.994  14.330  17.962  0.00  0.00     0.068 H 
ATOM     19  H9   PC d   1      19.482  15.904  18.659  0.00  0.00     0.068 H 
ATOM     20  H10  PC d   1      18.907  15.414  17.029  0.00  0.00     0.068 H 
ENDBRANCH   1  17
BRANCH   1  21
ATOM     21  C5   PC d   1      18.374  13.970  19.924  0.00  0.00     0.067 C 
ATOM     22  H11  PC d   1      17.512  13.479  20.400  0.00  0.00     0.068 H 
ATOM     23  H12  PC d   1      18.687  14.832  20.532  0.00  0.00     0.068 H 
ATOM     24  H13  PC d   1      19.206  13.255  19.845  0.00  0.00     0.068 H 
ENDBRANCH   1  21
TORSDOF 7
