REMARK  7 active torsions:
REMARK  status: ('A' for Active; 'I' for Inactive)
REMARK    1  A    between atoms: P1_1  and  O2_5 
REMARK    2  A    between atoms: O2_5  and  C1_6 
REMARK    3  A    between atoms: C1_6  and  C2_7 
REMARK    4  A    between atoms: C2_7  and  N1_8 
REMARK    5  A    between atoms: N1_8  and  C3_9 
REMARK    6  A    between atoms: N1_8  and  C4_10 
REMARK    7  A    between atoms: N1_8  and  C5_11 
ROOT
ATOM      1  N1   PC d   1      17.784  14.294  18.731  0.00  0.00    -0.077 N 
ENDROOT
BRANCH   1   2
ATOM      2  C2   PC d   1      17.471  13.142  17.831  0.00  0.00     0.104 C 
ATOM      3  H3   PC d   1      17.252  13.548  16.832  0.00  0.00     0.079 H 
ATOM      4  H4   PC d   1      18.366  12.505  17.780  0.00  0.00     0.079 H 
BRANCH   2   5
ATOM      5  C1   PC d   1      16.291  12.256  18.243  0.00  0.00     0.055 C 
ATOM      6  H1   PC d   1      15.451  12.907  18.526  0.00  0.00     0.077 H 
ATOM      7  H2   PC d   1      16.002  11.639  17.379  0.00  0.00     0.077 H 
BRANCH   5   8
ATOM      8  O2   PC d   1      16.580  11.385  19.345  0.00  0.00    -0.281 OA
BRANCH   8   9
ATOM      9  P1   PC d   1      15.428  10.478  19.934  0.00  0.00     0.422 P 
ATOM     10  O1   PC d   1      16.036   9.889  21.194  0.00  0.00    -0.617 OA
ATOM     11  O3   PC d   1      15.138   9.383  18.921  0.00  0.00    -0.617 OA
ATOM     12  O4   PC d   1      14.215  11.345  20.200  0.00  0.00    -0.617 OA
ENDBRANCH   8   9
ENDBRANCH   5   8
ENDBRANCH   2   5
ENDBRANCH   1   2
BRANCH   1  13
ATOM     13  C3   PC d   1      16.547  15.168  18.842  0.00  0.00     0.067 C 
ATOM     14  H5   PC d   1      16.760  16.022  19.502  0.00  0.00     0.068 H 
ATOM     15  H6   PC d   1      15.718  14.579  19.261  0.00  0.00     0.068 H 
ATOM     16  H7   PC d   1      16.267  15.536  17.844  0.00  0.00     0.068 H 
ENDBRANCH   1  13
BRANCH   1  17
ATOM     17  C4   PC d   1      18.923  14.987  18.147  0.00  0.00     0.067 C 
ATOM     18  H8   PC d   1      19.782  14.302  18.095  0.00  0.00     0.068 H 
ATOM     19  H9   PC d   1      19.183  15.855  18.771  0.00  0.00     0.068 H 
ATOM     20  H10  PC d   1      18.665  15.328  17.134  0.00  0.00     0.068 H 
ENDBRANCH   1  17
BRANCH   1  21
ATOM     21  C5   PC d   1      18.175  13.864  20.033  0.00  0.00     0.067 C 
ATOM     22  H11  PC d   1      17.338  13.333  20.511  0.00  0.00     0.068 H 
ATOM     23  H12  PC d   1      18.449  14.739  20.641  0.00  0.00     0.068 H 
ATOM     24  H13  PC d   1      19.039  13.188  19.952  0.00  0.00     0.068 H 
ENDBRANCH   1  21
TORSDOF 7
