REMARK  7 active torsions:
REMARK  status: ('A' for Active; 'I' for Inactive)
REMARK    1  A    between atoms: P1_1  and  O2_5 
REMARK    2  A    between atoms: O2_5  and  C1_6 
REMARK    3  A    between atoms: C1_6  and  C2_7 
REMARK    4  A    between atoms: C2_7  and  N1_8 
REMARK    5  A    between atoms: N1_8  and  C3_9 
REMARK    6  A    between atoms: N1_8  and  C4_10 
REMARK    7  A    between atoms: N1_8  and  C5_11 
ROOT
ATOM      1  N1   PC d   1      17.695  14.702  18.712  0.00  0.00    -0.077 N 
ENDROOT
BRANCH   1   2
ATOM      2  C2   PC d   1      17.408  13.530  17.842  0.00  0.00     0.104 C 
ATOM      3  H3   PC d   1      17.174  13.918  16.840  0.00  0.00     0.079 H 
ATOM      4  H4   PC d   1      18.326  12.926  17.796  0.00  0.00     0.079 H 
BRANCH   2   5
ATOM      5  C1   PC d   1      16.264  12.589  18.244  0.00  0.00     0.055 C 
ATOM      6  H1   PC d   1      15.376  13.197  18.470  0.00  0.00     0.077 H 
ATOM      7  H2   PC d   1      16.046  11.923  17.396  0.00  0.00     0.077 H 
BRANCH   5   8
ATOM      8  O2   PC d   1      16.560  11.793  19.373  0.00  0.00    -0.281 OA
BRANCH   8   9
ATOM      9  P1   PC d   1      15.494  10.808  20.014  0.00  0.00     0.422 P 
ATOM     10  O1   PC d   1      14.254  11.626  20.323  0.00  0.00    -0.617 OA
ATOM     11  O3   PC d   1      16.156  10.251  21.251  0.00  0.00    -0.617 OA
ATOM     12  O4   PC d   1      15.220   9.712  19.000  0.00  0.00    -0.617 OA
ENDBRANCH   8   9
ENDBRANCH   5   8
ENDBRANCH   2   5
ENDBRANCH   1   2
BRANCH   1  13
ATOM     13  C3   PC d   1      18.828  15.436  18.021  0.00  0.00     0.067 C 
ATOM     14  H5   PC d   1      19.101  16.325  18.609  0.00  0.00     0.068 H 
ATOM     15  H6   PC d   1      18.505  15.746  17.016  0.00  0.00     0.068 H 
ATOM     16  H7   PC d   1      19.699  14.770  17.937  0.00  0.00     0.068 H 
ENDBRANCH   1  13
BRANCH   1  17
ATOM     17  C4   PC d   1      17.953  14.285  20.082  0.00  0.00     0.067 C 
ATOM     18  H8   PC d   1      17.069  13.766  20.480  0.00  0.00     0.068 H 
ATOM     19  H9   PC d   1      18.168  15.169  20.700  0.00  0.00     0.068 H 
ATOM     20  H10  PC d   1      18.817  13.604  20.102  0.00  0.00     0.068 H 
ENDBRANCH   1  17
BRANCH   1  21
ATOM     21  C5   PC d   1      16.588  15.567  18.747  0.00  0.00     0.067 C 
ATOM     22  H11  PC d   1      16.357  15.908  17.727  0.00  0.00     0.068 H 
ATOM     23  H12  PC d   1      16.821  16.436  19.380  0.00  0.00     0.068 H 
ATOM     24  H13  PC d   1      15.719  15.034  19.161  0.00  0.00     0.068 H 
ENDBRANCH   1  21
TORSDOF 7
