REMARK  3 active torsions:
REMARK  status: ('A' for Active; 'I' for Inactive)
REMARK    1  A    between atoms: C1_1  and  C2_2 
REMARK    2  A    between atoms: C2_2  and  C3_3 
REMARK    3  A    between atoms: C3_3  and  C4_4 
ROOT
ATOM      1  C2  BUA d   1     -35.644 -24.918 -43.536  0.00  0.00    -0.059 C 
ATOM      2  H4  BUA d   1     -35.478 -25.650 -42.732  0.00  0.00     0.033 H 
ATOM      3  H5  BUA d   1     -36.715 -24.883 -43.785  0.00  0.00     0.033 H 
ENDROOT
BRANCH   1   4
ATOM      4  C1  BUA d   1     -34.858 -25.328 -44.758  0.00  0.00    -0.076 C 
ATOM      5  H1  BUA d   1     -35.191 -26.322 -45.091  0.00  0.00     0.027 H 
ATOM      6  H2  BUA d   1     -33.787 -25.364 -44.510  0.00  0.00     0.027 H 
ATOM      7  H3  BUA d   1     -35.024 -24.597 -45.563  0.00  0.00     0.027 H 
ENDBRANCH   1   4
BRANCH   1   8
ATOM      8  C3  BUA d   1     -35.184 -23.534 -43.068  0.00  0.00     0.015 C 
ATOM      9  H6  BUA d   1     -34.965 -22.912 -43.949  0.00  0.00     0.049 H 
ATOM     10  H7  BUA d   1     -34.273 -23.645 -42.462  0.00  0.00     0.049 H 
BRANCH   8  11
ATOM     11  C4  BUA d   1     -36.248 -22.854 -42.237  0.00  0.00     0.172 C 
ATOM     12  O1  BUA d   1     -36.567 -21.691 -42.495  0.00  0.00    -0.648 OA
ATOM     13  O2  BUA d   1     -36.781 -23.466 -41.310  0.00  0.00    -0.648 OA
ENDBRANCH   8  11
ENDBRANCH   1   8
TORSDOF 3
