REMARK  6 active torsions:
REMARK  status: ('A' for Active; 'I' for Inactive)
REMARK    1  A    between atoms: C07_7  and  N03_3 
REMARK    2  A    between atoms: N03_3  and  C09_9 
REMARK    3  A    between atoms: C06_6  and  N04_4 
REMARK    4  A    between atoms: N04_4  and  C16_16 
REMARK    5  A    between atoms: C14_14  and  C15_15 
REMARK    6  A    between atoms: C19_19  and  C22_22 
ROOT
ATOM      1  N01 0C0 d   1       3.324  31.813   8.772  0.00  0.00    -0.075 NA
ATOM      2  N02 0C0 d   1       3.992  31.091   6.646  0.00  0.00    -0.045 NA
ATOM      3  C05 0C0 d   1       3.855  30.715   9.334  0.00  0.00     0.025 A 
ATOM      4  C06 0C0 d   1       3.394  31.983   7.448  0.00  0.00     0.728 A 
ATOM      5  C07 0C0 d   1       4.540  29.973   7.167  0.00  0.00     0.148 A 
ATOM      6  C08 0C0 d   1       4.481  29.757   8.543  0.00  0.00    -0.021 A 
ATOM      7  H3  0C0 d   1       3.796  30.575  10.407  0.00  0.00     0.115 H 
ATOM      8  H4  0C0 d   1       4.912  28.866   8.985  0.00  0.00     0.091 H 
ENDROOT
BRANCH   5   9
ATOM      9  N03 0C0 d   1       5.185  28.991   6.333  0.00  0.00    -0.340 N 
ATOM     10  H1  0C0 d   1       5.571  28.142   6.771  0.00  0.00     0.167 HD
BRANCH   9  11
ATOM     11  C09 0C0 d   1       5.308  29.156   4.911  0.00  0.00     0.044 A 
ATOM     12  C10 0C0 d   1       4.169  29.297   4.132  0.00  0.00    -0.056 A 
ATOM     13  C11 0C0 d   1       4.283  29.451   2.758  0.00  0.00    -0.081 A 
ATOM     14  H5  0C0 d   1       3.190  29.287   4.597  0.00  0.00     0.086 H 
ATOM     15  C12 0C0 d   1       5.527  29.462   2.149  0.00  0.00    -0.082 A 
ATOM     16  H6  0C0 d   1       3.389  29.564   2.155  0.00  0.00     0.083 H 
ATOM     17  C13 0C0 d   1       6.665  29.317   2.926  0.00  0.00    -0.070 A 
ATOM     18  H7  0C0 d   1       5.609  29.583   1.075  0.00  0.00     0.083 H 
ATOM     19  C14 0C0 d   1       6.560  29.163   4.302  0.00  0.00     0.001 A 
ATOM     20  H8  0C0 d   1       7.642  29.324   2.457  0.00  0.00     0.084 H 
BRANCH  19  21
ATOM     21  C15 0C0 d   1       7.810  29.015   5.107  0.00  0.00    -0.024 A 
ATOM     22  C23 0C0 d   1       8.186  27.776   5.606  0.00  0.00    -0.072 A 
ATOM     23  C24 0C0 d   1       9.352  27.656   6.346  0.00  0.00    -0.082 A 
ATOM     24  H13 0C0 d   1       7.570  26.904   5.418  0.00  0.00     0.084 H 
ATOM     25  C25 0C0 d   1      10.140  28.772   6.584  0.00  0.00    -0.083 A 
ATOM     26  H14 0C0 d   1       9.648  26.690   6.739  0.00  0.00     0.083 H 
ATOM     27  C26 0C0 d   1       9.768  30.010   6.086  0.00  0.00    -0.082 A 
ATOM     28  H15 0C0 d   1      11.052  28.675   7.163  0.00  0.00     0.083 H 
ATOM     29  C27 0C0 d   1       8.603  30.129   5.345  0.00  0.00    -0.072 A 
ATOM     30  H16 0C0 d   1      10.385  30.881   6.275  0.00  0.00     0.083 H 
ATOM     31  H17 0C0 d   1       8.310  31.095   4.950  0.00  0.00     0.084 H 
ENDBRANCH  19  21
ENDBRANCH   9  11
ENDBRANCH   5   9
BRANCH   4  32
ATOM     32  N04 0C0 d   1       2.810  33.187   6.925  0.00  0.00    -0.188 N 
ATOM     33  H2  0C0 d   1       2.699  33.972   7.582  0.00  0.00     0.184 HD
BRANCH  32  34
ATOM     34  C16 0C0 d   1       2.367  33.404   5.579  0.00  0.00     0.049 A 
ATOM     35  C17 0C0 d   1       1.321  34.293   5.368  0.00  0.00    -0.056 A 
ATOM     36  C18 0C0 d   1       0.866  34.549   4.084  0.00  0.00    -0.064 A 
ATOM     37  H9  0C0 d   1       0.858  34.790   6.213  0.00  0.00     0.087 H 
ATOM     38  C19 0C0 d   1       1.461  33.914   3.003  0.00  0.00     0.041 A 
ATOM     39  H10 0C0 d   1       0.048  35.243   3.925  0.00  0.00     0.085 H 
ATOM     40  C20 0C0 d   1       2.513  33.028   3.209  0.00  0.00    -0.064 A 
ATOM     41  C21 0C0 d   1       2.969  32.776   4.497  0.00  0.00    -0.056 A 
ATOM     42  H11 0C0 d   1       2.978  32.533   2.364  0.00  0.00     0.085 H 
ATOM     43  H12 0C0 d   1       3.793  32.090   4.657  0.00  0.00     0.087 H 
BRANCH  38  44
ATOM     44  C22 0C0 d   1       0.965  34.190   1.622  0.00  0.00     0.209 C 
ATOM     45  O28 0C0 d   1       1.671  33.869   0.629  0.00  0.00    -0.644 OA
ATOM     46  O29 0C0 d   1      -0.157  34.743   1.450  0.00  0.00    -0.644 OA
ENDBRANCH  38  44
ENDBRANCH  32  34
ENDBRANCH   4  32
TORSDOF 6
