REMARK  6 active torsions:
REMARK  status: ('A' for Active; 'I' for Inactive)
REMARK    1  A    between atoms: C07_7  and  N03_3 
REMARK    2  A    between atoms: N03_3  and  C09_9 
REMARK    3  A    between atoms: C06_6  and  N04_4 
REMARK    4  A    between atoms: N04_4  and  C16_16 
REMARK    5  A    between atoms: C14_14  and  C15_15 
REMARK    6  A    between atoms: C19_19  and  C22_22 
ROOT
ATOM      1  N01 0C3 d   1       3.985  31.804   9.184  0.00  0.00    -0.075 NA
ATOM      2  N02 0C3 d   1       4.706  31.023   7.096  0.00  0.00    -0.045 NA
ATOM      3  C05 0C3 d   1       4.511  30.734   9.824  0.00  0.00     0.025 A 
ATOM      4  C06 0C3 d   1       4.078  31.939   7.848  0.00  0.00     0.728 A 
ATOM      5  C07 0C3 d   1       5.239  29.935   7.690  0.00  0.00     0.148 A 
ATOM      6  C08 0C3 d   1       5.157  29.754   9.068  0.00  0.00    -0.021 A 
ATOM      7  H3  0C3 d   1       4.432  30.640  10.901  0.00  0.00     0.115 H 
ATOM      8  H4  0C3 d   1       5.583  28.877   9.541  0.00  0.00     0.091 H 
ENDROOT
BRANCH   5   9
ATOM      9  N03 0C3 d   1       5.902  28.950   6.908  0.00  0.00    -0.340 N 
ATOM     10  H1  0C3 d   1       6.113  28.029   7.318  0.00  0.00     0.167 HD
BRANCH   9  11
ATOM     11  C09 0C3 d   1       6.277  29.226   5.562  0.00  0.00     0.048 A 
ATOM     12  C10 0C3 d   1       5.280  29.212   4.585  0.00  0.00    -0.056 A 
ATOM     13  C11 0C3 d   1       5.601  29.461   3.258  0.00  0.00    -0.081 A 
ATOM     14  H5  0C3 d   1       4.253  29.006   4.864  0.00  0.00     0.086 H 
ATOM     15  C12 0C3 d   1       6.922  29.726   2.922  0.00  0.00    -0.082 A 
ATOM     16  H6  0C3 d   1       4.831  29.449   2.495  0.00  0.00     0.083 H 
ATOM     17  C13 0C3 d   1       7.922  29.739   3.897  0.00  0.00    -0.066 A 
ATOM     18  H7  0C3 d   1       7.181  29.926   1.888  0.00  0.00     0.083 H 
ATOM     19  C14 0C3 d   1       7.614  29.487   5.231  0.00  0.00     0.074 A 
ATOM     20  H8  0C3 d   1       8.947  29.947   3.612  0.00  0.00     0.084 H 
BRANCH  19  21
ATOM     21  C15 0C3 d   1       8.730  29.506   6.252  0.00  0.00     0.419 C 
ATOM     22  F25 0C3 d   1       8.280  29.367   7.507  0.00  0.00    -0.166 F 
ATOM     23  F26 0C3 d   1       9.386  30.663   6.162  0.00  0.00    -0.166 F 
ATOM     24  F27 0C3 d   1       9.577  28.496   6.001  0.00  0.00    -0.166 F 
ENDBRANCH  19  21
ENDBRANCH   9  11
ENDBRANCH   5   9
BRANCH   4  25
ATOM     25  N04 0C3 d   1       3.493  33.110   7.258  0.00  0.00    -0.188 N 
ATOM     26  H2  0C3 d   1       3.341  33.915   7.882  0.00  0.00     0.184 HD
BRANCH  25  27
ATOM     27  C16 0C3 d   1       3.097  33.274   5.884  0.00  0.00     0.049 A 
ATOM     28  C17 0C3 d   1       3.762  32.638   4.845  0.00  0.00    -0.056 A 
ATOM     29  C18 0C3 d   1       3.372  32.822   3.520  0.00  0.00    -0.064 A 
ATOM     30  H9  0C3 d   1       4.599  31.987   5.068  0.00  0.00     0.087 H 
ATOM     31  C19 0C3 d   1       2.317  33.679   3.252  0.00  0.00     0.041 A 
ATOM     32  H10 0C3 d   1       3.883  32.305   2.716  0.00  0.00     0.085 H 
ATOM     33  C20 0C3 d   1       1.650  34.335   4.286  0.00  0.00    -0.064 A 
ATOM     34  C21 0C3 d   1       2.045  34.133   5.599  0.00  0.00    -0.056 A 
ATOM     35  H11 0C3 d   1       0.825  35.001   4.063  0.00  0.00     0.085 H 
ATOM     36  H12 0C3 d   1       1.532  34.646   6.404  0.00  0.00     0.087 H 
BRANCH  31  37
ATOM     37  C22 0C3 d   1       1.871  33.876   1.845  0.00  0.00     0.209 C 
ATOM     38  O23 0C3 d   1       0.650  34.143   1.615  0.00  0.00    -0.644 OA
ATOM     39  O24 0C3 d   1       2.697  33.749   0.907  0.00  0.00    -0.644 OA
ENDBRANCH  31  37
ENDBRANCH  25  27
ENDBRANCH   4  25
TORSDOF 6
