REMARK  7 active torsions:
REMARK  status: ('A' for Active; 'I' for Inactive)
REMARK    1  A    between atoms: C07_7  and  N03_3 
REMARK    2  A    between atoms: N03_3  and  C09_9 
REMARK    3  A    between atoms: C06_6  and  N04_4 
REMARK    4  A    between atoms: N04_4  and  C16_16 
REMARK    5  A    between atoms: C14_14  and  O25_25 
REMARK    6  A    between atoms: O25_25  and  C15_15 
REMARK    7  A    between atoms: C19_19  and  C22_22 
ROOT
ATOM      1  N01 0C8 d   1       3.847  31.808   9.156  0.00  0.00    -0.075 NA
ATOM      2  N02 0C8 d   1       4.502  30.952   7.058  0.00  0.00    -0.045 NA
ATOM      3  C05 0C8 d   1       4.405  30.760   9.800  0.00  0.00     0.025 A 
ATOM      4  C06 0C8 d   1       3.897  31.890   7.813  0.00  0.00     0.728 A 
ATOM      5  C07 0C8 d   1       5.073  29.873   7.658  0.00  0.00     0.148 A 
ATOM      6  C08 0C8 d   1       5.029  29.755   9.054  0.00  0.00    -0.021 A 
ATOM      7  H3  0C8 d   1       4.370  30.699  10.882  0.00  0.00     0.115 H 
ATOM      8  H4  0C8 d   1       5.472  28.898   9.548  0.00  0.00     0.091 H 
ENDROOT
BRANCH   5   9
ATOM      9  N03 0C8 d   1       5.704  28.843   6.871  0.00  0.00    -0.338 N 
ATOM     10  H1  0C8 d   1       5.997  27.969   7.330  0.00  0.00     0.167 HD
BRANCH   9  11
ATOM     11  C09 0C8 d   1       5.935  29.005   5.460  0.00  0.00     0.067 A 
ATOM     12  C10 0C8 d   1       4.894  29.362   4.608  0.00  0.00    -0.054 A 
ATOM     13  C11 0C8 d   1       5.118  29.519   3.246  0.00  0.00    -0.081 A 
ATOM     14  H5  0C8 d   1       3.900  29.519   5.011  0.00  0.00     0.087 H 
ATOM     15  C12 0C8 d   1       6.387  29.306   2.728  0.00  0.00    -0.080 A 
ATOM     16  H6  0C8 d   1       4.304  29.807   2.591  0.00  0.00     0.083 H 
ATOM     17  C13 0C8 d   1       7.425  28.934   3.574  0.00  0.00    -0.048 A 
ATOM     18  H7  0C8 d   1       6.569  29.429   1.666  0.00  0.00     0.083 H 
ATOM     19  C14 0C8 d   1       7.209  28.792   4.945  0.00  0.00     0.105 A 
ATOM     20  H8  0C8 d   1       8.412  28.752   3.165  0.00  0.00     0.087 H 
BRANCH  19  21
ATOM     21  O25 0C8 d   1       8.248  28.395   5.779  0.00  0.00    -0.253 OA
BRANCH  21  22
ATOM     22  C15 0C8 d   1       9.331  29.199   6.080  0.00  0.00     0.530 C 
ATOM     23  F26 0C8 d   1       8.950  30.461   6.333  0.00  0.00    -0.144 F 
ATOM     24  F27 0C8 d   1      10.149  29.193   5.033  0.00  0.00    -0.144 F 
ATOM     25  F28 0C8 d   1       9.979  28.674   7.129  0.00  0.00    -0.144 F 
ENDBRANCH  21  22
ENDBRANCH  19  21
ENDBRANCH   9  11
ENDBRANCH   5   9
BRANCH   4  26
ATOM     26  N04 0C8 d   1       3.300  33.048   7.223  0.00  0.00    -0.188 N 
ATOM     27  H2  0C8 d   1       3.107  33.837   7.856  0.00  0.00     0.184 HD
BRANCH  26  28
ATOM     28  C16 0C8 d   1       2.939  33.233   5.844  0.00  0.00     0.049 A 
ATOM     29  C17 0C8 d   1       1.860  34.066   5.569  0.00  0.00    -0.056 A 
ATOM     30  C18 0C8 d   1       1.477  34.325   4.263  0.00  0.00    -0.064 A 
ATOM     31  H9  0C8 d   1       1.311  34.519   6.387  0.00  0.00     0.087 H 
ATOM     32  C19 0C8 d   1       2.184  33.728   3.217  0.00  0.00     0.041 A 
ATOM     33  H10 0C8 d   1       0.640  34.982   4.056  0.00  0.00     0.085 H 
ATOM     34  C20 0C8 d   1       3.262  32.882   3.468  0.00  0.00    -0.064 A 
ATOM     35  C21 0C8 d   1       3.647  32.657   4.794  0.00  0.00    -0.056 A 
ATOM     36  H11 0C8 d   1       3.793  32.407   2.651  0.00  0.00     0.085 H 
ATOM     37  H12 0C8 d   1       4.505  32.028   5.005  0.00  0.00     0.087 H 
BRANCH  32  38
ATOM     38  C22 0C8 d   1       1.723  34.008   1.833  0.00  0.00     0.209 C 
ATOM     39  O23 0C8 d   1       2.550  34.033   0.868  0.00  0.00    -0.644 OA
ATOM     40  O24 0C8 d   1       0.482  34.234   1.672  0.00  0.00    -0.644 OA
ENDBRANCH  32  38
ENDBRANCH  26  28
ENDBRANCH   4  26
TORSDOF 7
