REMARK  16 active torsions:
REMARK  status: ('A' for Active; 'I' for Inactive)
REMARK    1  A    between atoms: O1'_10  and  C1'_1 
REMARK    2  A    between atoms: C2'_2  and  N2'_9 
REMARK    3  A    between atoms: C3'_3  and  O3'_11 
REMARK    4  A    between atoms: C4'_4  and  O4'_12 
REMARK    5  A    between atoms: C5'_5  and  C6'_6 
REMARK    6  A    between atoms: C6'_6  and  O6'_14 
REMARK    7  A    between atoms: C7'_7  and  C8'_8 
REMARK       I    between atoms: N2'_9  and  C7'_7 
REMARK    8  A    between atoms: PB_37  and  O1'_10 
REMARK    9  A    between atoms: C1B_24  and  N1_16 
REMARK   10  A    between atoms: C2B_25  and  O2'_26 
REMARK   11  A    between atoms: C3B_27  and  O3B_30 
REMARK   12  A    between atoms: C5B_31  and  C4B_28 
REMARK   13  A    between atoms: O5B_32  and  C5B_31 
REMARK   14  A    between atoms: PA_33  and  O5B_32 
REMARK   15  A    between atoms: O3A_36  and  PA_33 
REMARK   16  A    between atoms: O3A_36  and  PB_37 
ROOT
ATOM      1  O3A UD1 d   1      84.362   2.961 126.113  0.00  0.00    -0.180 OA
ENDROOT
BRANCH   1   2
ATOM      2  PA  UD1 d   1      84.660   3.662 127.482  0.00  0.00     0.417 P 
ATOM      3  O1A UD1 d   1      85.573   2.909 128.325  0.00  0.00    -0.624 OA
ATOM      4  O2A UD1 d   1      85.038   5.047 127.137  0.00  0.00    -0.624 OA
BRANCH   2   5
ATOM      5  O5B UD1 d   1      83.168   3.636 128.075  0.00  0.00    -0.287 OA
BRANCH   5   6
ATOM      6  C5B UD1 d   1      82.906   3.137 129.398  0.00  0.00     0.058 C 
ATOM      7  H24 UD1 d   1      82.779   2.046 129.339  0.00  0.00     0.079 H 
ATOM      8  H25 UD1 d   1      83.771   3.372 130.036  0.00  0.00     0.079 H 
BRANCH   6   9
ATOM      9  C4B UD1 d   1      81.627   3.748 130.056  0.00  0.00     0.089 C 
ATOM     10  C3B UD1 d   1      80.387   3.664 129.107  0.00  0.00     0.091 C 
ATOM     11  C2B UD1 d   1      80.404   5.065 128.459  0.00  0.00     0.105 C 
ATOM     12  H21 UD1 d   1      80.473   2.867 128.354  0.00  0.00     0.091 H 
ATOM     13  C1B UD1 d   1      80.921   5.907 129.649  0.00  0.00     0.141 C 
ATOM     14  H19 UD1 d   1      81.065   5.112 127.581  0.00  0.00     0.093 H 
ATOM     15  O4B UD1 d   1      81.864   5.129 130.329  0.00  0.00    -0.353 OA
ATOM     16  H18 UD1 d   1      80.088   6.157 130.322  0.00  0.00     0.123 H 
ATOM     17  H22 UD1 d   1      81.410   3.210 130.991  0.00  0.00     0.090 H 
BRANCH  10  18
ATOM     18  O3B UD1 d   1      79.233   3.443 129.957  0.00  0.00    -0.390 OA
ATOM     19  H23 UD1 d   1      79.147   4.167 130.566  0.00  0.00     0.210 HD
ENDBRANCH  10  18
BRANCH  11  20
ATOM     20  O2' UD1 d   1      79.105   5.497 128.127  0.00  0.00    -0.388 OA
ATOM     21  H20 UD1 d   1      78.533   5.381 128.876  0.00  0.00     0.210 HD
ENDBRANCH  11  20
BRANCH  13  22
ATOM     22  N1  UD1 d   1      81.550   7.178 129.142  0.00  0.00    -0.280 N 
ATOM     23  C2  UD1 d   1      80.922   8.459 129.498  0.00  0.00     0.331 A 
ATOM     24  N3  UD1 d   1      81.576   9.610 128.970  0.00  0.00    -0.275 N 
ATOM     25  O2  UD1 d   1      79.908   8.583 130.193  0.00  0.00    -0.246 OA
ATOM     26  C4  UD1 d   1      82.781   9.612 128.132  0.00  0.00     0.250 A 
ATOM     27  H15 UD1 d   1      81.176  10.500 129.191  0.00  0.00     0.173 HD
ATOM     28  C5  UD1 d   1      83.382   8.289 127.798  0.00  0.00    -0.002 A 
ATOM     29  O4  UD1 d   1      83.239  10.678 127.743  0.00  0.00    -0.268 OA
ATOM     30  C6  UD1 d   1      82.761   7.162 128.299  0.00  0.00    -0.008 A 
ATOM     31  H16 UD1 d   1      84.277   8.214 127.182  0.00  0.00     0.094 H 
ATOM     32  H17 UD1 d   1      83.195   6.194 128.055  0.00  0.00     0.112 H 
ENDBRANCH  13  22
ENDBRANCH   6   9
ENDBRANCH   5   6
ENDBRANCH   2   5
ENDBRANCH   1   2
BRANCH   1  33
ATOM     33  PB  UD1 d   1      84.733   3.249 124.591  0.00  0.00     0.420 P 
ATOM     34  O1B UD1 d   1      85.992   3.943 124.620  0.00  0.00    -0.624 OA
ATOM     35  O2B UD1 d   1      83.649   4.003 124.009  0.00  0.00    -0.624 OA
BRANCH  33  36
ATOM     36  O1' UD1 d   1      85.043   1.914 123.778  0.00  0.00    -0.256 OA
BRANCH  36  37
ATOM     37  C1' UD1 d   1      86.070   1.000 124.108  0.00  0.00     0.165 C 
ATOM     38  C2' UD1 d   1      85.974  -0.070 122.949  0.00  0.00     0.087 C 
ATOM     39  C3' UD1 d   1      84.635  -0.875 123.044  0.00  0.00     0.086 C 
ATOM     40  H2  UD1 d   1      86.814  -0.775 123.032  0.00  0.00     0.084 H 
ATOM     41  C4' UD1 d   1      84.628  -1.596 124.409  0.00  0.00     0.089 C 
ATOM     42  H3  UD1 d   1      83.770  -0.200 122.964  0.00  0.00     0.090 H 
ATOM     43  C5' UD1 d   1      84.686  -0.483 125.584  0.00  0.00     0.089 C 
ATOM     44  H4  UD1 d   1      85.500  -2.263 124.474  0.00  0.00     0.091 H 
ATOM     45  O5' UD1 d   1      85.942   0.341 125.396  0.00  0.00    -0.348 OA
ATOM     46  H5  UD1 d   1      83.803   0.167 125.499  0.00  0.00     0.090 H 
ATOM     47  H1  UD1 d   1      87.041   1.516 124.082  0.00  0.00     0.133 H 
BRANCH  38  48
ATOM     48  N2' UD1 d   1      86.074   0.673 121.643  0.00  0.00    -0.349 N 
ATOM     49  C7' UD1 d   1      87.229   1.076 121.078  0.00  0.00     0.214 C 
ATOM     50  O7' UD1 d   1      88.307   0.850 121.611  0.00  0.00    -0.274 OA
ATOM     51  H11 UD1 d   1      85.223   0.882 121.161  0.00  0.00     0.163 HD
BRANCH  49  52
ATOM     52  C8' UD1 d   1      87.137   1.814 119.757  0.00  0.00    -0.003 C 
ATOM     53  H8  UD1 d   1      88.148   2.081 119.415  0.00  0.00     0.040 H 
ATOM     54  H9  UD1 d   1      86.541   2.729 119.889  0.00  0.00     0.040 H 
ATOM     55  H10 UD1 d   1      86.655   1.168 119.009  0.00  0.00     0.040 H 
ENDBRANCH  49  52
ENDBRANCH  38  48
BRANCH  39  56
ATOM     56  O3' UD1 d   1      84.609  -1.832 121.986  0.00  0.00    -0.391 OA
ATOM     57  H12 UD1 d   1      85.374  -2.392 122.048  0.00  0.00     0.210 HD
ENDBRANCH  39  56
BRANCH  41  58
ATOM     58  O4' UD1 d   1      83.463  -2.332 124.589  0.00  0.00    -0.390 OA
ATOM     59  H13 UD1 d   1      83.401  -2.995 123.912  0.00  0.00     0.210 HD
ENDBRANCH  41  58
BRANCH  43  60
ATOM     60  C6' UD1 d   1      84.708  -1.103 126.992  0.00  0.00     0.043 C 
ATOM     61  H6  UD1 d   1      83.790  -1.686 127.159  0.00  0.00     0.078 H 
ATOM     62  H7  UD1 d   1      84.781  -0.309 127.750  0.00  0.00     0.078 H 
BRANCH  60  63
ATOM     63  O6' UD1 d   1      85.845  -1.956 127.074  0.00  0.00    -0.398 OA
ATOM     64  H14 UD1 d   1      85.881  -2.352 127.937  0.00  0.00     0.209 HD
ENDBRANCH  60  63
ENDBRANCH  43  60
ENDBRANCH  36  37
ENDBRANCH  33  36
ENDBRANCH   1  33
TORSDOF 16
