REMARK  30 active torsions:
REMARK  status: ('A' for Active; 'I' for Inactive)
REMARK    1  A    between atoms: CA_2  and  C_3 
REMARK       I    between atoms: C_3  and  N_8 
REMARK    2  A    between atoms: N_8  and  CA_9 
REMARK    3  A    between atoms: CA_9  and  C_10 
REMARK    4  A    between atoms: CA_9  and  CB_12 
REMARK       I    between atoms: C_10  and  N_15 
REMARK    5  A    between atoms: CB_12  and  OG1_13 
REMARK    6  A    between atoms: CB_12  and  CG2_14 
REMARK    7  A    between atoms: N_15  and  CA_16 
REMARK    8  A    between atoms: CA_16  and  C_17 
REMARK    9  A    between atoms: CA_16  and  CB_19 
REMARK       I    between atoms: C_17  and  N_22 
REMARK   10  A    between atoms: CB_19  and  CG1_20 
REMARK   11  A    between atoms: CB_19  and  CG2_21 
REMARK   12  A    between atoms: N_22  and  CA_23 
REMARK   13  A    between atoms: CA_23  and  C_24 
REMARK   14  A    between atoms: CA_23  and  CB_26 
REMARK       I    between atoms: C_24  and  N_31 
REMARK   15  A    between atoms: CB_26  and  CG_27 
REMARK   16  A    between atoms: CG_27  and  CD_28 
REMARK   17  A    between atoms: N_31  and  CA_32 
REMARK   18  A    between atoms: CA_32  and  C_33 
REMARK   19  A    between atoms: CA_32  and  CB_35 
REMARK       I    between atoms: C_33  and  N_40 
REMARK   20  A    between atoms: CB_35  and  CG_36 
REMARK   21  A    between atoms: CG_36  and  CD_37 
REMARK   22  A    between atoms: N_40  and  CA_41 
REMARK   23  A    between atoms: CA_41  and  C_42 
REMARK   24  A    between atoms: CA_41  and  CB_44 
REMARK       I    between atoms: C_42  and  N_47 
REMARK   25  A    between atoms: CB_44  and  CG1_45 
REMARK   26  A    between atoms: CB_44  and  CG2_46 
REMARK   27  A    between atoms: N_47  and  CA_48 
REMARK   28  A    between atoms: CA_48  and  C_49 
REMARK   29  A    between atoms: CA_48  and  CB_51 
REMARK   30  A    between atoms: CB_51  and  CG_52 
ROOT
ATOM      1  CA  GLU d   1       8.150 -22.459  15.085  0.00  0.00     0.090 C 
ATOM      2  H27 GLU d   1       8.957 -21.832  14.678  0.00  0.00     0.087 H 
ENDROOT
BRANCH   1   3
ATOM      3  N   GLU d   1       7.512 -21.707  16.178  0.00  0.00    -0.346 N 
ATOM      4  C   VAL d   1       7.585 -20.376  16.365  0.00  0.00     0.241 C 
ATOM      5  O   VAL d   1       8.115 -19.610  15.573  0.00  0.00    -0.271 OA
ATOM      6  H26 GLU d   1       6.977 -22.232  16.840  0.00  0.00     0.163 HD
BRANCH   4   7
ATOM      7  CA  VAL d   1       6.795 -19.785  17.590  0.00  0.00     0.092 C 
ATOM      8  H18 VAL d   1       6.219 -18.913  17.247  0.00  0.00     0.088 H 
BRANCH   7   9
ATOM      9  N   VAL d   1       5.848 -20.770  18.082  0.00  0.00    -0.346 N 
ATOM     10  C   THR d   1       4.758 -21.072  17.380  0.00  0.00     0.243 C 
ATOM     11  O   THR d   1       4.583 -20.726  16.218  0.00  0.00    -0.271 OA
ATOM     12  H17 VAL d   1       6.016 -21.226  18.956  0.00  0.00     0.163 HD
BRANCH  10  13
ATOM     13  CA  THR d   1       3.763 -22.005  18.018  0.00  0.00     0.113 C 
ATOM     14  H11 THR d   1       3.264 -22.542  17.198  0.00  0.00     0.091 H 
BRANCH  13  15
ATOM     15  N   THR d   1       4.346 -22.999  18.897  0.00  0.00    -0.344 N 
ATOM     16  C   PRO d   1       5.240 -23.858  18.458  0.00  0.00     0.249 C 
ATOM     17  O   PRO d   1       5.768 -23.755  17.361  0.00  0.00    -0.271 OA
ATOM     18  H10 THR d   1       4.063 -23.032  19.856  0.00  0.00     0.163 HD
BRANCH  16  19
ATOM     19  CA  PRO d   1       5.561 -25.024  19.388  0.00  0.00     0.178 C 
ATOM     20  N   PRO d   1       6.418 -25.909  18.664  0.00  0.00    -0.062 N 
ATOM     21  CD  PRO d   1       7.496 -26.439  19.496  0.00  0.00     0.083 C 
ATOM     22  H1  PRO d   1       6.823 -25.407  17.889  0.00  0.00     0.278 HD
ATOM     23  H2  PRO d   1       5.869 -26.679  18.315  0.00  0.00     0.278 HD
ATOM     24  CG  PRO d   1       7.163 -25.920  20.876  0.00  0.00    -0.040 C 
ATOM     25  H8  PRO d   1       8.474 -26.063  19.160  0.00  0.00     0.075 H 
ATOM     26  H9  PRO d   1       7.501 -27.539  19.480  0.00  0.00     0.075 H 
ATOM     27  CB  PRO d   1       6.420 -24.633  20.590  0.00  0.00    -0.028 C 
ATOM     28  H6  PRO d   1       6.525 -26.631  21.422  0.00  0.00     0.035 H 
ATOM     29  H7  PRO d   1       8.077 -25.727  21.456  0.00  0.00     0.035 H 
ATOM     30  H4  PRO d   1       5.797 -24.332  21.445  0.00  0.00     0.036 H 
ATOM     31  H5  PRO d   1       7.114 -23.818  20.337  0.00  0.00     0.036 H 
ATOM     32  H3  PRO d   1       4.632 -25.515  19.713  0.00  0.00     0.099 H 
ENDBRANCH  16  19
ENDBRANCH  13  15
BRANCH  13  33
ATOM     33  CB  THR d   1       2.675 -21.236  18.821  0.00  0.00     0.060 C 
ATOM     34  H12 THR d   1       3.125 -20.941  19.780  0.00  0.00     0.086 H 
BRANCH  33  35
ATOM     35  OG1 THR d   1       1.636 -22.171  19.110  0.00  0.00    -0.393 OA
ATOM     36  H13 THR d   1       1.990 -22.888  19.623  0.00  0.00     0.210 HD
ENDBRANCH  33  35
BRANCH  33  37
ATOM     37  CG2 THR d   1       2.184 -19.907  18.154  0.00  0.00    -0.050 C 
ATOM     38  H14 THR d   1       1.420 -19.437  18.791  0.00  0.00     0.031 H 
ATOM     39  H15 THR d   1       1.752 -20.130  17.167  0.00  0.00     0.031 H 
ATOM     40  H16 THR d   1       3.035 -19.220  18.035  0.00  0.00     0.031 H 
ENDBRANCH  33  37
ENDBRANCH  13  33
ENDBRANCH  10  13
ENDBRANCH   7   9
BRANCH   7  41
ATOM     41  CB  VAL d   1       7.808 -19.289  18.664  0.00  0.00    -0.033 C 
ATOM     42  H19 VAL d   1       8.473 -18.561  18.177  0.00  0.00     0.042 H 
BRANCH  41  43
ATOM     43  CG1 VAL d   1       7.148 -18.612  19.759  0.00  0.00    -0.071 C 
ATOM     44  H20 VAL d   1       7.899 -18.280  20.491  0.00  0.00     0.028 H 
ATOM     45  H21 VAL d   1       6.442 -19.302  20.245  0.00  0.00     0.028 H 
ATOM     46  H22 VAL d   1       6.601 -17.739  19.374  0.00  0.00     0.028 H 
ENDBRANCH  41  43
BRANCH  41  47
ATOM     47  CG2 VAL d   1       8.677 -20.433  19.185  0.00  0.00    -0.071 C 
ATOM     48  H23 VAL d   1       9.169 -20.934  18.339  0.00  0.00     0.028 H 
ATOM     49  H24 VAL d   1       8.047 -21.156  19.723  0.00  0.00     0.028 H 
ATOM     50  H25 VAL d   1       9.440 -20.032  19.868  0.00  0.00     0.028 H 
ENDBRANCH  41  47
ENDBRANCH   7  41
ENDBRANCH   4   7
ENDBRANCH   1   3
BRANCH   1  51
ATOM     51  C   GLU d   1       7.201 -22.822  13.925  0.00  0.00     0.241 C 
ATOM     52  O   GLU d   1       7.602 -23.486  12.949  0.00  0.00    -0.271 OA
ATOM     53  N   GLU d   1       5.948 -22.419  14.042  0.00  0.00    -0.346 N 
ATOM     54  H32 GLU d   1       5.718 -21.808  14.799  0.00  0.00     0.163 HD
BRANCH  53  55
ATOM     55  CA  GLU d   1       4.901 -22.807  13.147  0.00  0.00     0.090 C 
ATOM     56  H33 GLU d   1       5.308 -23.538  12.433  0.00  0.00     0.087 H 
BRANCH  55  57
ATOM     57  C   GLU d   1       4.353 -21.632  12.368  0.00  0.00     0.241 C 
ATOM     58  O   GLU d   1       4.286 -20.540  12.907  0.00  0.00    -0.271 OA
ATOM     59  N   VAL d   1       4.097 -21.834  11.072  0.00  0.00    -0.346 N 
ATOM     60  H38 VAL d   1       4.404 -22.685  10.646  0.00  0.00     0.163 HD
BRANCH  59  61
ATOM     61  CA  VAL d   1       3.382 -20.851  10.254  0.00  0.00     0.092 C 
ATOM     62  H39 VAL d   1       2.973 -20.079  10.923  0.00  0.00     0.088 H 
BRANCH  61  63
ATOM     63  C   VAL d   1       2.231 -21.577   9.550  0.00  0.00     0.241 C 
ATOM     64  O   VAL d   1       2.242 -22.815   9.448  0.00  0.00    -0.271 OA
ATOM     65  N   ASP d   1       1.240 -20.806   9.104  0.00  0.00    -0.344 N 
ATOM     66  H47 ASP d   1       1.307 -19.814   9.215  0.00  0.00     0.163 HD
BRANCH  65  67
ATOM     67  CA  ASP d   1       0.047 -21.377   8.450  0.00  0.00     0.105 C 
ATOM     68  H48 ASP d   1       0.014 -22.456   8.663  0.00  0.00     0.090 H 
BRANCH  67  69
ATOM     69  C   ASP d   1       0.061 -21.192   6.924  0.00  0.00     0.197 C 
ATOM     70  O   ASP d   1       0.521 -20.152   6.410  0.00  0.00    -0.646 OA
ATOM     71  OXT ASP d   1      -0.357 -22.117   6.167  0.00  0.00    -0.646 OA
ENDBRANCH  67  69
BRANCH  67  72
ATOM     72  CB  ASP d   1      -1.182 -20.715   9.051  0.00  0.00     0.044 C 
ATOM     73  H49 ASP d   1      -2.048 -20.921   8.405  0.00  0.00     0.053 H 
ATOM     74  H50 ASP d   1      -1.012 -19.629   9.101  0.00  0.00     0.053 H 
BRANCH  72  75
ATOM     75  CG  ASP d   1      -1.481 -21.231  10.454  0.00  0.00     0.175 C 
ATOM     76  OD1 ASP d   1      -2.253 -22.202  10.603  0.00  0.00    -0.648 OA
ATOM     77  OD2 ASP d   1      -0.897 -20.705  11.415  0.00  0.00    -0.648 OA
ENDBRANCH  72  75
ENDBRANCH  67  72
ENDBRANCH  65  67
ENDBRANCH  61  63
BRANCH  61  78
ATOM     78  CB  VAL d   1       4.245 -20.154   9.198  0.00  0.00    -0.033 C 
ATOM     79  H40 VAL d   1       3.570 -19.610   8.521  0.00  0.00     0.042 H 
BRANCH  78  80
ATOM     80  CG1 VAL d   1       5.206 -19.094   9.865  0.00  0.00    -0.071 C 
ATOM     81  H41 VAL d   1       5.813 -18.609   9.087  0.00  0.00     0.028 H 
ATOM     82  H42 VAL d   1       5.867 -19.600  10.584  0.00  0.00     0.028 H 
ATOM     83  H43 VAL d   1       4.607 -18.335  10.389  0.00  0.00     0.028 H 
ENDBRANCH  78  80
BRANCH  78  84
ATOM     84  CG2 VAL d   1       5.029 -21.182   8.347  0.00  0.00    -0.071 C 
ATOM     85  H44 VAL d   1       4.326 -21.901   7.901  0.00  0.00     0.028 H 
ATOM     86  H45 VAL d   1       5.745 -21.718   8.987  0.00  0.00     0.028 H 
ATOM     87  H46 VAL d   1       5.573 -20.657   7.548  0.00  0.00     0.028 H 
ENDBRANCH  78  84
ENDBRANCH  61  78
ENDBRANCH  59  61
ENDBRANCH  55  57
BRANCH  55  88
ATOM     88  CB  GLU d   1       3.775 -23.458  13.931  0.00  0.00    -0.029 C 
ATOM     89  H34 GLU d   1       2.995 -23.777  13.225  0.00  0.00     0.037 H 
ATOM     90  H35 GLU d   1       3.358 -22.716  14.627  0.00  0.00     0.037 H 
BRANCH  88  91
ATOM     91  CG  GLU d   1       4.224 -24.650  14.717  0.00  0.00     0.018 C 
ATOM     92  H36 GLU d   1       3.543 -24.785  15.570  0.00  0.00     0.049 H 
ATOM     93  H37 GLU d   1       5.243 -24.463  15.087  0.00  0.00     0.049 H 
BRANCH  91  94
ATOM     94  CD  GLU d   1       4.233 -25.905  13.913  0.00  0.00     0.172 C 
ATOM     95  OE1 GLU d   1       4.359 -26.989  14.551  0.00  0.00    -0.648 OA
ATOM     96  OE2 GLU d   1       4.135 -25.823  12.658  0.00  0.00    -0.648 OA
ENDBRANCH  91  94
ENDBRANCH  88  91
ENDBRANCH  55  88
ENDBRANCH  53  55
ENDBRANCH   1  51
BRANCH   1  97
ATOM     97  CB  GLU d   1       8.773 -23.787  15.637  0.00  0.00    -0.029 C 
ATOM     98  H28 GLU d   1       9.458 -24.190  14.876  0.00  0.00     0.037 H 
ATOM     99  H29 GLU d   1       7.958 -24.504  15.814  0.00  0.00     0.037 H 
BRANCH  97 100
ATOM    100  CG  GLU d   1       9.537 -23.618  16.916  0.00  0.00     0.018 C 
ATOM    101  H30 GLU d   1       9.800 -24.615  17.298  0.00  0.00     0.049 H 
ATOM    102  H31 GLU d   1       8.889 -23.106  17.643  0.00  0.00     0.049 H 
BRANCH 100 103
ATOM    103  CD  GLU d   1      10.845 -22.792  16.757  0.00  0.00     0.172 C 
ATOM    104  OE1 GLU d   1      11.508 -22.583  17.802  0.00  0.00    -0.648 OA
ATOM    105  OE2 GLU d   1      11.229 -22.348  15.620  0.00  0.00    -0.648 OA
ENDBRANCH 100 103
ENDBRANCH  97 100
ENDBRANCH   1  97
TORSDOF 30
