REMARK WARNING: 32 MAX_TORS EXCEEDED!!!
REMARK  33 active torsions:
REMARK  status: ('A' for Active; 'I' for Inactive)
REMARK    1  A    between atoms: CA_2  and  C_3 
REMARK       I    between atoms: C_3  and  N_8 
REMARK    2  A    between atoms: N_8  and  CA_9 
REMARK    3  A    between atoms: CA_9  and  C_10 
REMARK    4  A    between atoms: CA_9  and  CB_12 
REMARK       I    between atoms: C_10  and  N_18 
REMARK    5  A    between atoms: CB_12  and  CG_13 
REMARK    6  A    between atoms: N_18  and  CA_19 
REMARK    7  A    between atoms: CA_19  and  C_20 
REMARK    8  A    between atoms: CA_19  and  CB_22 
REMARK       I    between atoms: C_20  and  N_26 
REMARK    9  A    between atoms: CB_22  and  CG_23 
REMARK   10  A    between atoms: CG_23  and  CD1_24 
REMARK   11  A    between atoms: CG_23  and  CD2_25 
REMARK   12  A    between atoms: N_26  and  CA_27 
REMARK   13  A    between atoms: CA_27  and  C_28 
REMARK   14  A    between atoms: CA_27  and  CB_30 
REMARK       I    between atoms: C_28  and  N_32 
REMARK   15  A    between atoms: CB_30  and  OG_31 
REMARK   16  A    between atoms: N_32  and  C1_33 
REMARK   17  A    between atoms: C1_33  and  C2_34 
REMARK   18  A    between atoms: C1_33  and  C9_41 
REMARK   19  A    between atoms: C2_34  and  C3_35 
REMARK   20  A    between atoms: C9_41  and  N2_42 
REMARK   21  A    between atoms: N2_42  and  C10_43 
REMARK   22  A    between atoms: C10_43  and  C11_44 
REMARK   23  A    between atoms: C10_43  and  C_48 
REMARK   24  A    between atoms: C11_44  and  C12_45 
REMARK   25  A    between atoms: C12_45  and  SD_46 
REMARK   26  A    between atoms: SD_46  and  C13_47 
REMARK       I    between atoms: C_48  and  N_50 
REMARK   27  A    between atoms: N_50  and  CA_51 
REMARK   28  A    between atoms: CA_51  and  C_52 
REMARK   29  A    between atoms: CA_51  and  CB_54 
REMARK       I    between atoms: C_52  and  N_55 
REMARK   30  A    between atoms: N_55  and  CA_56 
REMARK   31  A    between atoms: CA_56  and  C_57 
REMARK   32  A    between atoms: CA_56  and  CB_59 
REMARK   33  A    between atoms: CB_59  and  CG_60 
ROOT
ATOM      1  C   SER d   1       3.237  32.026  15.723  0.00  0.00     0.242 C 
ATOM      2  O   SER d   1       2.624  33.101  15.895  0.00  0.00    -0.271 OA
ATOM      3  N   13E d   1       4.419  31.997  15.100  0.00  0.00    -0.353 N 
ATOM      4  H33 13E d   1       4.838  31.112  14.898  0.00  0.00     0.163 HD
ENDROOT
BRANCH   3   5
ATOM      5  C1  13E d   1       5.117  33.214  14.705  0.00  0.00     0.039 C 
ATOM      6  H34 13E d   1       4.681  34.053  15.267  0.00  0.00     0.075 H 
BRANCH   5   7
ATOM      7  C2  13E d   1       6.585  33.101  15.045  0.00  0.00    -0.021 C 
ATOM      8  H35 13E d   1       7.060  34.051  14.758  0.00  0.00     0.043 H 
ATOM      9  H36 13E d   1       6.999  32.285  14.435  0.00  0.00     0.043 H 
BRANCH   7  10
ATOM     10  C3  13E d   1       6.969  32.822  16.496  0.00  0.00    -0.056 A 
ATOM     11  C4  13E d   1       8.150  32.109  16.733  0.00  0.00    -0.077 A 
ATOM     12  C6  13E d   1       8.553  31.848  18.041  0.00  0.00    -0.082 A 
ATOM     13  H37 13E d   1       8.750  31.760  15.900  0.00  0.00     0.084 H 
ATOM     14  C8  13E d   1       7.784  32.287  19.117  0.00  0.00    -0.083 A 
ATOM     15  H39 13E d   1       9.470  31.300  18.223  0.00  0.00     0.083 H 
ATOM     16  C7  13E d   1       6.606  32.987  18.881  0.00  0.00    -0.082 A 
ATOM     17  H41 13E d   1       8.103  32.084  20.133  0.00  0.00     0.083 H 
ATOM     18  C5  13E d   1       6.197  33.261  17.580  0.00  0.00    -0.077 A 
ATOM     19  H40 13E d   1       6.002  33.322  19.717  0.00  0.00     0.083 H 
ATOM     20  H38 13E d   1       5.281  33.814  17.405  0.00  0.00     0.084 H 
ENDBRANCH   7  10
ENDBRANCH   5   7
BRANCH   5  21
ATOM     21  C9  13E d   1       5.007  33.524  13.213  0.00  0.00     0.101 C 
ATOM     22  H42 13E d   1       5.371  32.655  12.645  0.00  0.00     0.079 H 
ATOM     23  H43 13E d   1       5.636  34.398  12.988  0.00  0.00     0.079 H 
BRANCH  21  24
ATOM     24  N2  13E d   1       3.655  33.810  12.803  0.00  0.00    -0.060 N 
ATOM     25  H44 13E d   1       3.112  33.993  13.632  0.00  0.00     0.278 HD
ATOM     26  H45 13E d   1       3.293  32.993  12.337  0.00  0.00     0.278 HD
BRANCH  24  27
ATOM     27  C10 13E d   1       3.495  34.954  11.897  0.00  0.00     0.178 C 
ATOM     28  H46 13E d   1       4.412  35.045  11.296  0.00  0.00     0.099 H 
BRANCH  27  29
ATOM     29  C11 13E d   1       2.306  34.675  10.949  0.00  0.00    -0.022 C 
ATOM     30  H47 13E d   1       2.656  33.953  10.196  0.00  0.00     0.037 H 
ATOM     31  H48 13E d   1       2.055  35.626  10.457  0.00  0.00     0.037 H 
BRANCH  29  32
ATOM     32  C12 13E d   1       1.002  34.115  11.539  0.00  0.00    -0.021 C 
ATOM     33  H49 13E d   1       1.238  33.660  12.513  0.00  0.00     0.049 H 
ATOM     34  H50 13E d   1       0.625  33.341  10.855  0.00  0.00     0.049 H 
BRANCH  32  35
ATOM     35  SD  13E d   1      -0.316  35.325  11.793  0.00  0.00    -0.173 SA
BRANCH  35  36
ATOM     36  C13 13E d   1      -1.163  34.532  13.122  0.00  0.00    -0.035 C 
ATOM     37  H51 13E d   1      -2.026  35.143  13.423  0.00  0.00     0.041 H 
ATOM     38  H52 13E d   1      -0.479  34.417  13.976  0.00  0.00     0.041 H 
ATOM     39  H53 13E d   1      -1.511  33.541  12.796  0.00  0.00     0.041 H 
ENDBRANCH  35  36
ENDBRANCH  32  35
ENDBRANCH  29  32
ENDBRANCH  27  29
BRANCH  27  40
ATOM     40  C   13E d   1       3.280  36.302  12.644  0.00  0.00     0.249 C 
ATOM     41  O   13E d   1       2.928  36.293  13.835  0.00  0.00    -0.271 OA
ATOM     42  N   ALA d   1       3.569  37.454  12.040  0.00  0.00    -0.346 N 
ATOM     43  H54 ALA d   1       4.019  37.452  11.147  0.00  0.00     0.163 HD
BRANCH  42  44
ATOM     44  CA  ALA d   1       3.229  38.716  12.682  0.00  0.00     0.086 C 
ATOM     45  H55 ALA d   1       3.139  38.642  13.776  0.00  0.00     0.086 H 
BRANCH  44  46
ATOM     46  C   ALA d   1       1.891  38.914  11.972  0.00  0.00     0.240 C 
ATOM     47  O   ALA d   1       1.829  39.031  10.739  0.00  0.00    -0.271 OA
ATOM     48  N   HIS d   1       0.844  38.747  12.775  0.00  0.00    -0.344 N 
ATOM     49  H59 HIS d   1       1.007  38.570  13.745  0.00  0.00     0.163 HD
BRANCH  48  50
ATOM     50  CA  HIS d   1      -0.530  38.812  12.298  0.00  0.00     0.101 C 
ATOM     51  H60 HIS d   1      -0.653  38.125  11.448  0.00  0.00     0.090 H 
BRANCH  50  52
ATOM     52  C   HIS d   1      -0.863  40.225  11.831  0.00  0.00     0.197 C 
ATOM     53  O   HIS d   1      -1.607  40.332  10.847  0.00  0.00    -0.646 OA
ATOM     54  OXT HIS d   1      -0.448  41.162  12.521  0.00  0.00    -0.646 OA
ENDBRANCH  50  52
BRANCH  50  55
ATOM     55  CB  HIS d   1      -1.457  38.354  13.458  0.00  0.00     0.003 C 
ATOM     56  H61 HIS d   1      -1.205  38.967  14.336  0.00  0.00     0.046 H 
ATOM     57  H62 HIS d   1      -1.220  37.300  13.666  0.00  0.00     0.046 H 
BRANCH  55  58
ATOM     58  CG  HIS d   1      -2.976  38.446  13.263  0.00  0.00     0.030 A 
ATOM     59  ND1 HIS d   1      -3.682  39.357  12.593  0.00  0.00    -0.353 N 
ATOM     60  CE1 HIS d   1      -4.959  39.084  12.746  0.00  0.00     0.063 A 
ATOM     61  H63 HIS d   1      -3.294  40.141  12.049  0.00  0.00     0.166 HD
ATOM     62  NE2 HIS d   1      -5.082  38.002  13.508  0.00  0.00    -0.254 NA
ATOM     63  H65 HIS d   1      -5.783  39.653  12.318  0.00  0.00     0.143 H 
ATOM     64  CD2 HIS d   1      -3.892  37.576  13.843  0.00  0.00     0.025 A 
ATOM     65  H64 HIS d   1      -3.663  36.707  14.458  0.00  0.00     0.117 H 
ENDBRANCH  55  58
ENDBRANCH  50  55
ENDBRANCH  48  50
ENDBRANCH  44  46
BRANCH  44  66
ATOM     66  CB  ALA d   1       4.215  39.805  12.300  0.00  0.00    -0.049 C 
ATOM     67  H56 ALA d   1       3.934  40.745  12.798  0.00  0.00     0.030 H 
ATOM     68  H57 ALA d   1       4.198  39.949  11.210  0.00  0.00     0.030 H 
ATOM     69  H58 ALA d   1       5.227  39.511  12.616  0.00  0.00     0.030 H 
ENDBRANCH  44  66
ENDBRANCH  42  44
ENDBRANCH  27  40
ENDBRANCH  24  27
ENDBRANCH  21  24
ENDBRANCH   5  21
ENDBRANCH   3   5
BRANCH   1  70
ATOM     70  CA  SER d   1       2.686  30.663  16.178  0.00  0.00     0.109 C 
ATOM     71  H29 SER d   1       2.739  29.956  15.337  0.00  0.00     0.090 H 
BRANCH  70  72
ATOM     72  N   SER d   1       3.490  30.128  17.289  0.00  0.00    -0.344 N 
ATOM     73  C   LEU d   1       3.936  28.869  17.371  0.00  0.00     0.241 C 
ATOM     74  O   LEU d   1       3.588  28.027  16.527  0.00  0.00    -0.271 OA
ATOM     75  H28 SER d   1       3.720  30.751  18.037  0.00  0.00     0.163 HD
BRANCH  73  76
ATOM     76  CA  LEU d   1       4.739  28.475  18.613  0.00  0.00     0.089 C 
ATOM     77  H18 LEU d   1       4.475  29.195  19.401  0.00  0.00     0.087 H 
BRANCH  76  78
ATOM     78  N   LEU d   1       4.417  27.132  19.072  0.00  0.00    -0.346 N 
ATOM     79  C   HIS d   1       3.754  26.968  20.214  0.00  0.00     0.241 C 
ATOM     80  O   HIS d   1       3.338  27.945  20.845  0.00  0.00    -0.271 OA
ATOM     81  H17 LEU d   1       4.692  26.337  18.532  0.00  0.00     0.163 HD
BRANCH  79  82
ATOM     82  CA  HIS d   1       3.489  25.607  20.831  0.00  0.00     0.094 C 
ATOM     83  H11 HIS d   1       3.814  24.793  20.166  0.00  0.00     0.088 H 
BRANCH  82  84
ATOM     84  N   HIS d   1       4.244  25.567  22.093  0.00  0.00    -0.346 N 
ATOM     85  C   PRO d   1       4.232  24.562  22.999  0.00  0.00     0.249 C 
ATOM     86  O   PRO d   1       3.625  23.490  22.821  0.00  0.00    -0.271 OA
ATOM     87  H10 HIS d   1       4.821  26.357  22.301  0.00  0.00     0.163 HD
BRANCH  85  88
ATOM     88  CA  PRO d   1       5.007  24.711  24.317  0.00  0.00     0.178 C 
ATOM     89  N   PRO d   1       4.600  23.590  25.156  0.00  0.00    -0.062 N 
ATOM     90  CD  PRO d   1       5.780  23.122  25.882  0.00  0.00     0.083 C 
ATOM     91  H1  PRO d   1       4.234  22.847  24.581  0.00  0.00     0.278 HD
ATOM     92  H2  PRO d   1       3.893  23.890  25.809  0.00  0.00     0.278 HD
ATOM     93  CG  PRO d   1       6.904  24.116  25.572  0.00  0.00    -0.040 C 
ATOM     94  H8  PRO d   1       6.060  22.114  25.543  0.00  0.00     0.075 H 
ATOM     95  H9  PRO d   1       5.578  23.102  26.963  0.00  0.00     0.075 H 
ATOM     96  CB  PRO d   1       6.519  24.585  24.172  0.00  0.00    -0.028 C 
ATOM     97  H6  PRO d   1       6.910  24.951  26.288  0.00  0.00     0.035 H 
ATOM     98  H7  PRO d   1       7.888  23.624  25.574  0.00  0.00     0.035 H 
ATOM     99  H4  PRO d   1       6.984  25.551  23.927  0.00  0.00     0.036 H 
ATOM    100  H5  PRO d   1       6.792  23.843  23.407  0.00  0.00     0.036 H 
ATOM    101  H3  PRO d   1       4.758  25.674  24.785  0.00  0.00     0.099 H 
ENDBRANCH  85  88
ENDBRANCH  82  84
BRANCH  82 102
ATOM    102  CB  HIS d   1       1.988  25.533  21.061  0.00  0.00     0.002 C 
ATOM    103  H12 HIS d   1       1.534  26.480  20.735  0.00  0.00     0.046 H 
ATOM    104  H13 HIS d   1       1.802  25.388  22.135  0.00  0.00     0.046 H 
BRANCH 102 105
ATOM    105  CG  HIS d   1       1.347  24.405  20.304  0.00  0.00     0.030 A 
ATOM    106  ND1 HIS d   1       0.044  24.235  20.144  0.00  0.00    -0.353 N 
ATOM    107  CE1 HIS d   1      -0.086  23.118  19.489  0.00  0.00     0.063 A 
ATOM    108  H14 HIS d   1      -0.710  24.857  20.470  0.00  0.00     0.166 HD
ATOM    109  NE2 HIS d   1       1.096  22.598  19.229  0.00  0.00    -0.254 NA
ATOM    110  H16 HIS d   1      -1.037  22.676  19.197  0.00  0.00     0.143 H 
ATOM    111  CD2 HIS d   1       2.027  23.363  19.714  0.00  0.00     0.025 A 
ATOM    112  H15 HIS d   1       3.105  23.214  19.665  0.00  0.00     0.117 H 
ENDBRANCH 102 105
ENDBRANCH  82 102
ENDBRANCH  79  82
ENDBRANCH  76  78
BRANCH  76 113
ATOM    113  CB  LEU d   1       6.292  28.474  18.456  0.00  0.00    -0.035 C 
ATOM    114  H19 LEU d   1       6.573  29.406  17.943  0.00  0.00     0.037 H 
ATOM    115  H20 LEU d   1       6.560  27.613  17.826  0.00  0.00     0.037 H 
BRANCH 113 116
ATOM    116  CG  LEU d   1       7.156  28.381  19.784  0.00  0.00    -0.059 C 
ATOM    117  H21 LEU d   1       6.720  29.044  20.545  0.00  0.00     0.038 H 
BRANCH 116 118
ATOM    118  CD1 LEU d   1       7.265  26.950  20.303  0.00  0.00    -0.073 C 
ATOM    119  H22 LEU d   1       7.871  26.938  21.221  0.00  0.00     0.028 H 
ATOM    120  H23 LEU d   1       7.743  26.319  19.540  0.00  0.00     0.028 H 
ATOM    121  H24 LEU d   1       6.259  26.562  20.522  0.00  0.00     0.028 H 
ENDBRANCH 116 118
BRANCH 116 122
ATOM    122  CD2 LEU d   1       8.613  28.728  19.523  0.00  0.00    -0.073 C 
ATOM    123  H25 LEU d   1       8.682  29.756  19.137  0.00  0.00     0.028 H 
ATOM    124  H26 LEU d   1       9.029  28.029  18.782  0.00  0.00     0.028 H 
ATOM    125  H27 LEU d   1       9.182  28.650  20.461  0.00  0.00     0.028 H 
ENDBRANCH 116 122
ENDBRANCH 113 116
ENDBRANCH  76 113
ENDBRANCH  73  76
ENDBRANCH  70  72
BRANCH  70 126
ATOM    126  CB  SER d   1       1.191  30.840  16.595  0.00  0.00     0.044 C 
ATOM    127  H30 SER d   1       0.669  31.341  15.766  0.00  0.00     0.077 H 
ATOM    128  H31 SER d   1       1.166  31.484  17.486  0.00  0.00     0.077 H 
BRANCH 126 129
ATOM    129  OG  SER d   1       0.469  29.642  16.903  0.00  0.00    -0.398 OA
ATOM    130  H32 SER d   1      -0.423  29.864  17.142  0.00  0.00     0.209 HD
ENDBRANCH 126 129
ENDBRANCH  70 126
ENDBRANCH   1  70
TORSDOF 33
