REMARK  4 active torsions:
REMARK  status: ('A' for Active; 'I' for Inactive)
REMARK    1  A    between atoms: CAI_9  and  CAA_1 
REMARK    2  A    between atoms: CAJ_10  and  CAB_2 
REMARK    3  A    between atoms: CAK_11  and  NAC_3 
REMARK    4  A    between atoms: CAL_12  and  CAH_8 
ROOT
ATOM      1  CAF 14B d   1       8.525  -3.930  27.156  0.00  0.00    -0.069 A 
ATOM      2  CAG 14B d   1       7.131  -5.404  28.476  0.00  0.00    -0.059 A 
ATOM      3  CAI 14B d   1       7.860  -4.223  28.349  0.00  0.00    -0.060 A 
ATOM      4  CAJ 14B d   1       8.451  -4.795  26.076  0.00  0.00    -0.034 A 
ATOM      5  CAK 14B d   1       7.708  -5.975  26.184  0.00  0.00     0.049 A 
ATOM      6  CAL 14B d   1       7.052  -6.282  27.385  0.00  0.00     0.068 A 
ATOM      7  H9  14B d   1       9.104  -3.017  27.074  0.00  0.00     0.085 H 
ATOM      8  H10 14B d   1       6.630  -5.641  29.408  0.00  0.00     0.086 H 
ENDROOT
BRANCH   3   9
ATOM      9  CAA 14B d   1       7.958  -3.254  29.524  0.00  0.00    -0.051 C 
ATOM     10  H1  14B d   1       8.570  -2.387  29.234  0.00  0.00     0.033 H 
ATOM     11  H2  14B d   1       8.425  -3.762  30.381  0.00  0.00     0.033 H 
ATOM     12  H3  14B d   1       6.950  -2.914  29.804  0.00  0.00     0.033 H 
ENDBRANCH   3   9
BRANCH   4  13
ATOM     13  CAB 14B d   1       9.188  -4.431  24.785  0.00  0.00    -0.049 C 
ATOM     14  H4  14B d   1       9.705  -3.469  24.917  0.00  0.00     0.033 H 
ATOM     15  H5  14B d   1       8.464  -4.348  23.960  0.00  0.00     0.033 H 
ATOM     16  H6  14B d   1       9.924  -5.214  24.550  0.00  0.00     0.033 H 
ENDBRANCH   4  13
BRANCH   6  17
ATOM     17  CAH 14B d   1       6.202  -7.561  27.568  0.00  0.00     0.211 C 
ATOM     18  OAD 14B d   1       5.667  -7.709  28.707  0.00  0.00    -0.644 OA
ATOM     19  OAE 14B d   1       6.048  -8.346  26.593  0.00  0.00    -0.644 OA
ENDBRANCH   6  17
BRANCH   5  20
ATOM     20  NAC 14B d   1       7.641  -6.799  25.135  0.00  0.00    -0.398 N 
ATOM     21  H7  14B d   1       8.128  -6.559  24.260  0.00  0.00     0.156 HD
ATOM     22  H8  14B d   1       7.102  -7.674  25.201  0.00  0.00     0.156 HD
ENDBRANCH   5  20
TORSDOF 4
