REMARK  5 active torsions:
REMARK  status: ('A' for Active; 'I' for Inactive)
REMARK    1  A    between atoms: C1_1  and  O1_12 
REMARK    2  A    between atoms: C2_2  and  O2_7 
REMARK    3  A    between atoms: C3_3  and  O3_8 
REMARK    4  A    between atoms: C4_4  and  O4_9 
REMARK    5  A    between atoms: C5_5  and  C6_6 
ROOT
ATOM      1  C1  BDP d   1     -62.820  16.197   6.149  0.00  0.00     0.156 C 
ATOM      2  C2  BDP d   1     -64.220  15.649   5.910  0.00  0.00     0.110 C 
ATOM      3  C3  BDP d   1     -64.570  14.736   7.074  0.00  0.00     0.092 C 
ATOM      4  C4  BDP d   1     -63.523  13.630   7.162  0.00  0.00     0.097 C 
ATOM      5  C5  BDP d   1     -62.109  14.214   7.156  0.00  0.00     0.152 C 
ATOM      6  O5  BDP d   1     -61.936  15.102   6.066  0.00  0.00    -0.340 OA
ATOM      7  H1  BDP d   1     -62.757  16.671   7.139  0.00  0.00     0.133 H 
ATOM      8  H2  BDP d   1     -64.226  15.070   4.975  0.00  0.00     0.094 H 
ATOM      9  H3  BDP d   1     -64.559  15.314   8.010  0.00  0.00     0.091 H 
ATOM     10  H4  BDP d   1     -63.642  12.960   6.298  0.00  0.00     0.091 H 
ATOM     11  H5  BDP d   1     -61.949  14.766   8.094  0.00  0.00     0.104 H 
ENDROOT
BRANCH   5  12
ATOM     12  C6  BDP d   1     -61.085  13.086   7.059  0.00  0.00     0.206 C 
ATOM     13  O6A BDP d   1     -60.246  13.133   6.145  0.00  0.00    -0.646 OA
ATOM     14  O6B BDP d   1     -61.134  12.164   7.903  0.00  0.00    -0.646 OA
ENDBRANCH   5  12
BRANCH   4  15
ATOM     15  O4  BDP d   1     -63.690  12.891   8.354  0.00  0.00    -0.390 OA
ATOM     16  H8  BDP d   1     -64.564  12.520   8.375  0.00  0.00     0.210 HD
ENDBRANCH   4  15
BRANCH   3  17
ATOM     17  O3  BDP d   1     -65.866  14.215   6.874  0.00  0.00    -0.390 OA
ATOM     18  H7  BDP d   1     -66.093  13.646   7.600  0.00  0.00     0.210 HD
ENDBRANCH   3  17
BRANCH   1  19
ATOM     19  O1  BDP d   1     -62.494  17.128   5.150  0.00  0.00    -0.368 OA
ATOM     20  H9  BDP d   1     -61.601  17.427   5.277  0.00  0.00     0.212 HD
ENDBRANCH   1  19
BRANCH   2  21
ATOM     21  O2  BDP d   1     -65.171  16.681   5.809  0.00  0.00    -0.388 OA
ATOM     22  H6  BDP d   1     -64.946  17.247   5.080  0.00  0.00     0.210 HD
ENDBRANCH   2  21
TORSDOF 5
