REMARK  5 active torsions:
REMARK  status: ('A' for Active; 'I' for Inactive)
REMARK    1  A    between atoms: C15_5  and  C23_15 
REMARK    2  A    between atoms: N1_21  and  C7_7 
REMARK    3  A    between atoms: C16_8  and  O21_23 
REMARK    4  A    between atoms: C13_9  and  C19_16 
REMARK    5  A    between atoms: O21_23  and  C22_17 
ROOT
ATOM      1  C11 0CV d   1       4.729  12.146  42.002  0.00  0.00    -0.036 A 
ATOM      2  C20 0CV d   1       3.758  13.499  40.266  0.00  0.00    -0.043 A 
ATOM      3  C8  0CV d   1       4.357  13.043  43.015  0.00  0.00     0.024 A 
ATOM      4  C9  0CV d   1       4.317  13.679  45.313  0.00  0.00     0.065 A 
ATOM      5  C15 0CV d   1       3.349  14.458  41.216  0.00  0.00    -0.030 A 
ATOM      6  C10 0CV d   1       3.653  14.242  42.616  0.00  0.00     0.077 A 
ATOM      7  C7  0CV d   1       4.729  12.754  44.380  0.00  0.00     0.059 A 
ATOM      8  C16 0CV d   1       4.472  12.356  40.643  0.00  0.00     0.069 A 
ATOM      9  C13 0CV d   1       4.278  13.829  46.669  0.00  0.00     0.067 A 
ATOM     10  C12 0CV d   1       3.534  14.890  44.859  0.00  0.00     0.159 A 
ATOM     11  N18 0CV d   1       3.700  14.967  47.032  0.00  0.00    -0.177 NA
ATOM     12  N17 0CV d   1       3.221  15.629  45.914  0.00  0.00    -0.260 N 
ATOM     13  N14 0CV d   1       3.252  15.120  43.593  0.00  0.00    -0.228 NA
ATOM     14  H1  0CV d   1       5.246  11.237  42.289  0.00  0.00     0.089 H 
ATOM     15  H2  0CV d   1       3.514  13.651  39.221  0.00  0.00     0.088 H 
ATOM     16  H20 0CV d   1       2.716  16.527  45.904  0.00  0.00     0.191 HD
ENDROOT
BRANCH   7  17
ATOM     17  N1  0CV d   1       5.508  11.627  44.703  0.00  0.00    -0.376 N 
ATOM     18  C2  0CV d   1       4.848  10.381  45.018  0.00  0.00     0.018 C 
ATOM     19  C3  0CV d   1       5.747   9.422  45.788  0.00  0.00     0.096 C 
ATOM     20  H3  0CV d   1       3.959  10.598  45.628  0.00  0.00     0.066 H 
ATOM     21  H4  0CV d   1       4.540   9.898  44.079  0.00  0.00     0.066 H 
ATOM     22  N4  0CV d   1       7.073   9.390  45.094  0.00  0.00    -0.072 N 
ATOM     23  H7  0CV d   1       5.303   8.416  45.795  0.00  0.00     0.078 H 
ATOM     24  H8  0CV d   1       5.873   9.775  46.822  0.00  0.00     0.078 H 
ATOM     25  C5  0CV d   1       7.769  10.699  45.211  0.00  0.00     0.096 C 
ATOM     26  H21 0CV d   1       6.929   9.179  44.119  0.00  0.00     0.277 HD
ATOM     27  H22 0CV d   1       7.646   8.674  45.512  0.00  0.00     0.277 HD
ATOM     28  C6  0CV d   1       6.972  11.740  44.461  0.00  0.00     0.018 C 
ATOM     29  H9  0CV d   1       7.846  10.984  46.271  0.00  0.00     0.078 H 
ATOM     30  H10 0CV d   1       8.777  10.622  44.778  0.00  0.00     0.078 H 
ATOM     31  H5  0CV d   1       7.161  11.619  43.384  0.00  0.00     0.066 H 
ATOM     32  H6  0CV d   1       7.306  12.738  44.782  0.00  0.00     0.066 H 
ENDBRANCH   7  17
BRANCH   9  33
ATOM     33  C19 0CV d   1       4.890  13.005  47.730  0.00  0.00    -0.033 C 
ATOM     34  H14 0CV d   1       4.644  13.432  48.714  0.00  0.00     0.035 H 
ATOM     35  H15 0CV d   1       5.982  12.990  47.599  0.00  0.00     0.035 H 
ATOM     36  H16 0CV d   1       4.500  11.979  47.668  0.00  0.00     0.035 H 
ENDBRANCH   9  33
BRANCH   8  37
ATOM     37  O21 0CV d   1       4.817  11.523  39.612  0.00  0.00    -0.356 OA
BRANCH  37  38
ATOM     38  C22 0CV d   1       5.855  10.567  39.787  0.00  0.00     0.010 C 
ATOM     39  H17 0CV d   1       5.987   9.995  38.857  0.00  0.00     0.066 H 
ATOM     40  H18 0CV d   1       5.588   9.881  40.605  0.00  0.00     0.066 H 
ATOM     41  H19 0CV d   1       6.793  11.085  40.035  0.00  0.00     0.066 H 
ENDBRANCH  37  38
ENDBRANCH   8  37
BRANCH   5  42
ATOM     42  C23 0CV d   1       2.614  15.667  40.711  0.00  0.00    -0.049 C 
ATOM     43  H11 0CV d   1       2.506  15.601  39.618  0.00  0.00     0.033 H 
ATOM     44  H12 0CV d   1       3.179  16.574  40.969  0.00  0.00     0.033 H 
ATOM     45  H13 0CV d   1       1.618  15.711  41.175  0.00  0.00     0.033 H 
ENDBRANCH   5  42
TORSDOF 5
