REMARK  10 active torsions:
REMARK  status: ('A' for Active; 'I' for Inactive)
REMARK    1  A    between atoms: N_1  and  CM_2 
REMARK    2  A    between atoms: N_1  and  CA_3 
REMARK    3  A    between atoms: CA_3  and  CB_4 
REMARK    4  A    between atoms: CA_3  and  C_5 
REMARK       I    between atoms: C_5  and  N_7 
REMARK    5  A    between atoms: N_7  and  CA_8 
REMARK    6  A    between atoms: CA_8  and  C_9 
REMARK    7  A    between atoms: CA_8  and  C1_11 
REMARK       I    between atoms: C_9  and  N_17 
REMARK    8  A    between atoms: CA_18  and  C_19 
REMARK       I    between atoms: C_19  and  N25_24 
REMARK    9  A    between atoms: N25_24  and  C26_25 
REMARK   10  A    between atoms: C27_26  and  C31_30 
ROOT
ATOM      1  CA  CHG d   1     -12.914  -6.775  -3.204  0.00  0.00     0.093 C 
ATOM      2  H11 CHG d   1     -12.324  -7.421  -2.538  0.00  0.00     0.088 H 
ENDROOT
BRANCH   1   3
ATOM      3  N   CHG d   1     -13.114  -5.459  -2.596  0.00  0.00    -0.346 N 
ATOM      4  C   MAA d   1     -12.760  -5.116  -1.348  0.00  0.00     0.248 C 
ATOM      5  O   MAA d   1     -12.192  -5.882  -0.594  0.00  0.00    -0.271 OA
ATOM      6  H10 CHG d   1     -13.551  -4.756  -3.158  0.00  0.00     0.163 HD
BRANCH   4   7
ATOM      7  CA  MAA d   1     -13.132  -3.733  -0.886  0.00  0.00     0.174 C 
ATOM      8  H6  MAA d   1     -14.167  -3.524  -1.193  0.00  0.00     0.098 H 
BRANCH   7   9
ATOM      9  N   MAA d   1     -13.059  -3.692   0.595  0.00  0.00    -0.067 N 
ATOM     10  H1  MAA d   1     -12.201  -4.134   0.886  0.00  0.00     0.277 HD
ATOM     11  H2  MAA d   1     -13.057  -2.728   0.889  0.00  0.00     0.277 HD
BRANCH   9  12
ATOM     12  CM  MAA d   1     -14.198  -4.387   1.255  0.00  0.00     0.066 C 
ATOM     13  H3  MAA d   1     -14.085  -4.321   2.347  0.00  0.00     0.067 H 
ATOM     14  H4  MAA d   1     -14.208  -5.444   0.951  0.00  0.00     0.067 H 
ATOM     15  H5  MAA d   1     -15.143  -3.910   0.955  0.00  0.00     0.067 H 
ENDBRANCH   9  12
ENDBRANCH   7   9
BRANCH   7  16
ATOM     16  CB  MAA d   1     -12.223  -2.683  -1.526  0.00  0.00    -0.041 C 
ATOM     17  H7  MAA d   1     -12.305  -2.745  -2.621  0.00  0.00     0.030 H 
ATOM     18  H8  MAA d   1     -11.181  -2.868  -1.226  0.00  0.00     0.030 H 
ATOM     19  H9  MAA d   1     -12.529  -1.681  -1.192  0.00  0.00     0.030 H 
ENDBRANCH   7  16
ENDBRANCH   4   7
ENDBRANCH   1   3
BRANCH   1  20
ATOM     20  C   CHG d   1     -12.231  -6.603  -4.520  0.00  0.00     0.243 C 
ATOM     21  O   CHG d   1     -12.638  -5.770  -5.302  0.00  0.00    -0.271 OA
ATOM     22  N   PRO d   1     -11.210  -7.401  -4.876  0.00  0.00    -0.337 N 
ATOM     23  CA  PRO d   1     -10.527  -7.267  -6.148  0.00  0.00     0.092 C 
ATOM     24  CD  PRO d   1     -10.570  -8.469  -4.088  0.00  0.00    -0.001 C 
ATOM     25  CB  PRO d   1      -9.275  -8.183  -6.123  0.00  0.00    -0.036 C 
ATOM     26  H23 PRO d   1     -10.233  -6.216  -6.288  0.00  0.00     0.087 H 
ATOM     27  CG  PRO d   1      -9.127  -8.607  -4.638  0.00  0.00    -0.048 C 
ATOM     28  H24 PRO d   1      -8.384  -7.632  -6.460  0.00  0.00     0.036 H 
ATOM     29  H25 PRO d   1      -9.426  -9.064  -6.765  0.00  0.00     0.036 H 
ATOM     30  H26 PRO d   1      -8.435  -7.939  -4.104  0.00  0.00     0.035 H 
ATOM     31  H27 PRO d   1      -8.771  -9.645  -4.557  0.00  0.00     0.035 H 
ATOM     32  H28 PRO d   1     -11.117  -9.415  -4.212  0.00  0.00     0.064 H 
ATOM     33  H29 PRO d   1     -10.547  -8.196  -3.023  0.00  0.00     0.064 H 
BRANCH  23  34
ATOM     34  C   PRO d   1     -11.346  -7.712  -7.316  0.00  0.00     0.245 C 
ATOM     35  O   PRO d   1     -12.232  -8.553  -7.190  0.00  0.00    -0.271 OA
ATOM     36  N25 0DQ d   1     -11.025  -7.118  -8.483  0.00  0.00    -0.316 N 
ATOM     37  H30 0DQ d   1     -10.351  -6.379  -8.479  0.00  0.00     0.169 HD
BRANCH  36  38
ATOM     38  C26 0DQ d   1     -11.593  -7.494  -9.684  0.00  0.00     0.128 A 
ATOM     39  C27 0DQ d   1     -11.987  -6.814 -10.829  0.00  0.00     0.125 A 
ATOM     40  N28 0DQ d   1     -12.435  -7.606 -11.806  0.00  0.00    -0.139 NA
ATOM     41  N29 0DQ d   1     -12.432  -8.875 -11.607  0.00  0.00    -0.108 NA
ATOM     42  S30 0DQ d   1     -11.804  -9.163 -10.039  0.00  0.00     0.055 SA
BRANCH  39  43
ATOM     43  C31 0DQ d   1     -11.966  -5.340 -11.008  0.00  0.00    -0.003 A 
ATOM     44  C32 0DQ d   1     -12.448  -4.481 -10.014  0.00  0.00    -0.071 A 
ATOM     45  C33 0DQ d   1     -12.421  -3.115 -10.234  0.00  0.00    -0.082 A 
ATOM     46  H31 0DQ d   1     -12.837  -4.880  -9.084  0.00  0.00     0.084 H 
ATOM     47  C34 0DQ d   1     -11.927  -2.599 -11.431  0.00  0.00    -0.083 A 
ATOM     48  H32 0DQ d   1     -12.787  -2.440  -9.469  0.00  0.00     0.083 H 
ATOM     49  C35 0DQ d   1     -11.449  -3.445 -12.420  0.00  0.00    -0.082 A 
ATOM     50  H33 0DQ d   1     -11.916  -1.527 -11.590  0.00  0.00     0.083 H 
ATOM     51  C36 0DQ d   1     -11.478  -4.818 -12.214  0.00  0.00    -0.071 A 
ATOM     52  H34 0DQ d   1     -11.056  -3.039 -13.345  0.00  0.00     0.083 H 
ATOM     53  H35 0DQ d   1     -11.122  -5.488 -12.988  0.00  0.00     0.084 H 
ENDBRANCH  39  43
ENDBRANCH  36  38
ENDBRANCH  23  34
ENDBRANCH   1  20
BRANCH   1  54
ATOM     54  C1  CHG d   1     -14.300  -7.402  -3.499  0.00  0.00    -0.026 C 
ATOM     55  C2  CHG d   1     -15.220  -7.358  -2.253  0.00  0.00    -0.059 C 
ATOM     56  C3  CHG d   1     -14.778  -8.365  -1.170  0.00  0.00    -0.065 C 
ATOM     57  H13 CHG d   1     -16.248  -7.598  -2.562  0.00  0.00     0.033 H 
ATOM     58  H14 CHG d   1     -15.192  -6.344  -1.827  0.00  0.00     0.033 H 
ATOM     59  C4  CHG d   1     -14.702  -9.787  -1.740  0.00  0.00    -0.065 C 
ATOM     60  H15 CHG d   1     -15.504  -8.347  -0.344  0.00  0.00     0.033 H 
ATOM     61  H16 CHG d   1     -13.786  -8.075  -0.793  0.00  0.00     0.033 H 
ATOM     62  C5  CHG d   1     -15.027  -9.815  -3.235  0.00  0.00    -0.065 C 
ATOM     63  H17 CHG d   1     -15.423 -10.424  -1.206  0.00  0.00     0.033 H 
ATOM     64  H18 CHG d   1     -13.685 -10.178  -1.589  0.00  0.00     0.033 H 
ATOM     65  C6  CHG d   1     -14.157  -8.839  -4.031  0.00  0.00    -0.059 C 
ATOM     66  H19 CHG d   1     -16.084  -9.543  -3.374  0.00  0.00     0.033 H 
ATOM     67  H20 CHG d   1     -14.858 -10.833  -3.616  0.00  0.00     0.033 H 
ATOM     68  H21 CHG d   1     -13.105  -9.148  -3.949  0.00  0.00     0.033 H 
ATOM     69  H22 CHG d   1     -14.465  -8.863  -5.087  0.00  0.00     0.033 H 
ATOM     70  H12 CHG d   1     -14.777  -6.800  -4.287  0.00  0.00     0.043 H 
ENDBRANCH   1  54
TORSDOF 10
