REMARK  10 active torsions:
REMARK  status: ('A' for Active; 'I' for Inactive)
REMARK    1  A    between atoms: N_1  and  CM_2 
REMARK    2  A    between atoms: N_1  and  CA_3 
REMARK    3  A    between atoms: CA_3  and  CB_4 
REMARK    4  A    between atoms: CA_3  and  C_5 
REMARK       I    between atoms: C_5  and  N_7 
REMARK    5  A    between atoms: N_7  and  CA_8 
REMARK    6  A    between atoms: CA_8  and  C_9 
REMARK    7  A    between atoms: CA_8  and  C1_11 
REMARK       I    between atoms: C_9  and  N_17 
REMARK    8  A    between atoms: CA_18  and  C_19 
REMARK       I    between atoms: C_19  and  N25_24 
REMARK    9  A    between atoms: N25_24  and  C26_25 
REMARK   10  A    between atoms: C27_26  and  C31_30 
ROOT
ATOM      1  CA  CHG d   1      81.976  61.574  13.084  0.00  0.00     0.093 C 
ATOM      2  H11 CHG d   1      82.575  62.276  12.486  0.00  0.00     0.088 H 
ENDROOT
BRANCH   1   3
ATOM      3  N   CHG d   1      82.821  61.039  14.164  0.00  0.00    -0.346 N 
ATOM      4  C   MAA d   1      84.168  61.126  14.112  0.00  0.00     0.248 C 
ATOM      5  O   MAA d   1      84.744  61.638  13.166  0.00  0.00    -0.271 OA
ATOM      6  H10 CHG d   1      82.389  60.602  14.953  0.00  0.00     0.163 HD
BRANCH   4   7
ATOM      7  CA  MAA d   1      84.981  60.564  15.249  0.00  0.00     0.174 C 
ATOM      8  H6  MAA d   1      84.526  59.626  15.600  0.00  0.00     0.098 H 
BRANCH   7   9
ATOM      9  N   MAA d   1      86.359  60.304  14.792  0.00  0.00    -0.067 N 
ATOM     10  H1  MAA d   1      86.686  61.109  14.280  0.00  0.00     0.277 HD
ATOM     11  H2  MAA d   1      86.944  60.159  15.600  0.00  0.00     0.277 HD
BRANCH   9  12
ATOM     12  CM  MAA d   1      86.457  59.117  13.918  0.00  0.00     0.066 C 
ATOM     13  H3  MAA d   1      87.503  58.974  13.610  0.00  0.00     0.067 H 
ATOM     14  H4  MAA d   1      85.829  59.265  13.027  0.00  0.00     0.067 H 
ATOM     15  H5  MAA d   1      86.111  58.228  14.466  0.00  0.00     0.067 H 
ENDBRANCH   9  12
ENDBRANCH   7   9
BRANCH   7  16
ATOM     16  CB  MAA d   1      85.012  61.583  16.393  0.00  0.00    -0.041 C 
ATOM     17  H7  MAA d   1      83.986  61.780  16.737  0.00  0.00     0.030 H 
ATOM     18  H8  MAA d   1      85.465  62.520  16.037  0.00  0.00     0.030 H 
ATOM     19  H9  MAA d   1      85.607  61.181  17.226  0.00  0.00     0.030 H 
ENDBRANCH   7  16
ENDBRANCH   4   7
ENDBRANCH   1   3
BRANCH   1  20
ATOM     20  C   CHG d   1      80.815  62.311  13.699  0.00  0.00     0.243 C 
ATOM     21  O   CHG d   1      80.374  61.971  14.788  0.00  0.00    -0.271 OA
ATOM     22  N   PRO d   1      80.237  63.338  13.043  0.00  0.00    -0.337 N 
ATOM     23  CA  PRO d   1      79.101  64.095  13.567  0.00  0.00     0.092 C 
ATOM     24  CD  PRO d   1      80.601  63.909  11.725  0.00  0.00    -0.001 C 
ATOM     25  CB  PRO d   1      78.779  65.218  12.560  0.00  0.00    -0.036 C 
ATOM     26  H23 PRO d   1      79.360  64.528  14.544  0.00  0.00     0.087 H 
ATOM     27  CG  PRO d   1      80.111  65.376  11.790  0.00  0.00    -0.048 C 
ATOM     28  H24 PRO d   1      78.507  66.150  13.078  0.00  0.00     0.036 H 
ATOM     29  H25 PRO d   1      77.963  64.923  11.884  0.00  0.00     0.036 H 
ATOM     30  H26 PRO d   1      80.820  66.013  12.339  0.00  0.00     0.035 H 
ATOM     31  H27 PRO d   1      79.948  65.791  10.784  0.00  0.00     0.035 H 
ATOM     32  H28 PRO d   1      80.096  63.366  10.913  0.00  0.00     0.064 H 
ATOM     33  H29 PRO d   1      81.689  63.869  11.571  0.00  0.00     0.064 H 
BRANCH  23  34
ATOM     34  C   PRO d   1      77.900  63.199  13.715  0.00  0.00     0.245 C 
ATOM     35  O   PRO d   1      77.680  62.353  12.867  0.00  0.00    -0.271 OA
ATOM     36  N25 0DQ d   1      77.090  63.329  14.791  0.00  0.00    -0.316 N 
ATOM     37  H30 0DQ d   1      77.311  64.006  15.493  0.00  0.00     0.169 HD
BRANCH  36  38
ATOM     38  C26 0DQ d   1      75.954  62.538  14.939  0.00  0.00     0.128 A 
ATOM     39  C27 0DQ d   1      75.141  62.345  16.047  0.00  0.00     0.125 A 
ATOM     40  N28 0DQ d   1      74.119  61.534  15.836  0.00  0.00    -0.139 NA
ATOM     41  N29 0DQ d   1      73.939  61.026  14.677  0.00  0.00    -0.108 NA
ATOM     42  S30 0DQ d   1      75.195  61.604  13.697  0.00  0.00     0.055 SA
BRANCH  39  43
ATOM     43  C31 0DQ d   1      75.356  62.931  17.395  0.00  0.00    -0.003 A 
ATOM     44  C32 0DQ d   1      74.292  63.558  18.062  0.00  0.00    -0.071 A 
ATOM     45  C33 0DQ d   1      74.480  64.088  19.331  0.00  0.00    -0.082 A 
ATOM     46  H31 0DQ d   1      73.321  63.629  17.585  0.00  0.00     0.084 H 
ATOM     47  C34 0DQ d   1      75.722  63.988  19.946  0.00  0.00    -0.083 A 
ATOM     48  H32 0DQ d   1      73.659  64.579  19.841  0.00  0.00     0.083 H 
ATOM     49  C35 0DQ d   1      76.774  63.360  19.295  0.00  0.00    -0.082 A 
ATOM     50  H33 0DQ d   1      75.869  64.402  20.937  0.00  0.00     0.083 H 
ATOM     51  C36 0DQ d   1      76.599  62.829  18.025  0.00  0.00    -0.071 A 
ATOM     52  H34 0DQ d   1      77.740  63.284  19.782  0.00  0.00     0.083 H 
ATOM     53  H35 0DQ d   1      77.424  62.337  17.523  0.00  0.00     0.084 H 
ENDBRANCH  39  43
ENDBRANCH  36  38
ENDBRANCH  23  34
ENDBRANCH   1  20
BRANCH   1  54
ATOM     54  C1  CHG d   1      81.436  60.468  12.147  0.00  0.00    -0.026 C 
ATOM     55  C2  CHG d   1      80.565  59.442  12.900  0.00  0.00    -0.059 C 
ATOM     56  C3  CHG d   1      80.025  58.383  11.925  0.00  0.00    -0.065 C 
ATOM     57  H13 CHG d   1      79.720  59.962  13.375  0.00  0.00     0.033 H 
ATOM     58  H14 CHG d   1      81.172  58.948  13.672  0.00  0.00     0.033 H 
ATOM     59  C4  CHG d   1      81.189  57.678  11.214  0.00  0.00    -0.065 C 
ATOM     60  H15 CHG d   1      79.383  58.871  11.177  0.00  0.00     0.033 H 
ATOM     61  H16 CHG d   1      79.437  57.640  12.484  0.00  0.00     0.033 H 
ATOM     62  C5  CHG d   1      82.037  58.702  10.445  0.00  0.00    -0.065 C 
ATOM     63  H17 CHG d   1      80.788  56.935  10.509  0.00  0.00     0.033 H 
ATOM     64  H18 CHG d   1      81.819  57.172  11.961  0.00  0.00     0.033 H 
ATOM     65  C6  CHG d   1      82.592  59.757  11.414  0.00  0.00    -0.059 C 
ATOM     66  H19 CHG d   1      81.412  59.197   9.687  0.00  0.00     0.033 H 
ATOM     67  H20 CHG d   1      82.873  58.185   9.951  0.00  0.00     0.033 H 
ATOM     68  H21 CHG d   1      83.243  59.266  12.152  0.00  0.00     0.033 H 
ATOM     69  H22 CHG d   1      83.174  60.499  10.848  0.00  0.00     0.033 H 
ATOM     70  H12 CHG d   1      80.802  60.953  11.390  0.00  0.00     0.043 H 
ENDBRANCH   1  54
TORSDOF 10
