REMARK  0 active torsions:
REMARK  status: ('A' for Active; 'I' for Inactive)
ROOT
ATOM      1  CAK 0CU d   1       8.555  -0.993   9.021  0.00  0.00     0.130 A 
ATOM      2  NAG 0CU d   1       9.534  -1.419   8.254  0.00  0.00    -0.128 NA
ATOM      3  NAE 0CU d   1      10.612  -1.090   8.757  0.00  0.00    -0.067 NA
ATOM      4  NAF 0CU d   1      10.470  -0.467   9.815  0.00  0.00    -0.258 N 
ATOM      5  CAJ 0CU d   1       9.183  -0.348  10.064  0.00  0.00     0.085 A 
ATOM      6  CAD 0CU d   1       8.456   0.250  11.066  0.00  0.00    -0.032 A 
ATOM      7  CAH 0CU d   1       7.094   0.133  10.972  0.00  0.00     0.038 A 
ATOM      8 CLA  0CU d   1       6.148   0.841  12.170  0.00  0.00    -0.084 Cl
ATOM      9  CAC 0CU d   1       6.424  -0.497   9.936  0.00  0.00    -0.038 A 
ATOM     10  CAI 0CU d   1       7.175  -1.079   8.942  0.00  0.00     0.068 A 
ATOM     11 CLB  0CU d   1       6.391  -1.897   7.630  0.00  0.00    -0.082 Cl
ATOM     12  H1  0CU d   1      11.232  -0.102  10.404  0.00  0.00     0.191 HD
ATOM     13  H2  0CU d   1       8.932   0.782  11.882  0.00  0.00     0.089 H 
ATOM     14  H3  0CU d   1       5.341  -0.530   9.910  0.00  0.00     0.088 H 
ENDROOT
TORSDOF 0
