REMARK  2 active torsions:
REMARK  status: ('A' for Active; 'I' for Inactive)
REMARK    1  A    between atoms: C1_1  and  C_7 
REMARK       I    between atoms: C_7  and  N_9 
REMARK    2  A    between atoms: N_9  and  O2_10 
ROOT
ATOM      1  C1  BHO d   1      51.776 -52.383  17.634  0.00  0.00     0.034 A 
ATOM      2  C2  BHO d   1      50.459 -52.388  18.110  0.00  0.00    -0.068 A 
ATOM      3  C3  BHO d   1      49.708 -51.210  18.095  0.00  0.00    -0.082 A 
ATOM      4  C4  BHO d   1      50.247 -50.030  17.614  0.00  0.00    -0.083 A 
ATOM      5  C5  BHO d   1      51.553 -50.024  17.141  0.00  0.00    -0.082 A 
ATOM      6  C6  BHO d   1      52.308 -51.192  17.152  0.00  0.00    -0.068 A 
ATOM      7  H1  BHO d   1      50.023 -53.305  18.490  0.00  0.00     0.085 H 
ATOM      8  H2  BHO d   1      48.689 -51.221  18.465  0.00  0.00     0.083 H 
ATOM      9  H3  BHO d   1      49.657 -49.121  17.606  0.00  0.00     0.083 H 
ATOM     10  H4  BHO d   1      51.986 -49.105  16.762  0.00  0.00     0.083 H 
ATOM     11  H5  BHO d   1      53.326 -51.174  16.779  0.00  0.00     0.085 H 
ENDROOT
BRANCH   1  12
ATOM     12  C   BHO d   1      52.580 -53.661  17.654  0.00  0.00     0.275 C 
ATOM     13  O1  BHO d   1      53.759 -53.757  17.364  0.00  0.00    -0.265 OA
ATOM     14  N   BHO d   1      51.740 -54.690  18.057  0.00  0.00    -0.233 N 
ATOM     15  H6  BHO d   1      50.810 -54.371  18.241  0.00  0.00     0.197 HD
BRANCH  14  16
ATOM     16  O2  BHO d   1      51.874 -56.012  18.260  0.00  0.00    -0.287 OA
ATOM     17  H7  BHO d   1      51.042 -56.374  18.541  0.00  0.00     0.244 HD
ENDBRANCH  14  16
ENDBRANCH   1  12
TORSDOF 2
