REMARK  2 active torsions:
REMARK  status: ('A' for Active; 'I' for Inactive)
REMARK    1  A    between atoms: N02_2  and  N03_3 
REMARK    2  A    between atoms: N03_3  and  C05_5 
ROOT
ATOM      1  C05 CFI d   1     -21.585 -22.462  17.160  0.00  0.00     0.088 A 
ATOM      2  C06 CFI d   1     -22.638 -21.689  16.678  0.00  0.00    -0.053 A 
ATOM      3  C07 CFI d   1     -23.925 -22.233  16.546  0.00  0.00    -0.081 A 
ATOM      4  C08 CFI d   1     -24.199 -23.550  16.894  0.00  0.00    -0.083 A 
ATOM      5  C09 CFI d   1     -23.156 -24.324  17.373  0.00  0.00    -0.081 A 
ATOM      6  C10 CFI d   1     -21.877 -23.783  17.499  0.00  0.00    -0.053 A 
ATOM      7  H1  CFI d   1     -22.462 -20.656  16.402  0.00  0.00     0.087 H 
ATOM      8  H2  CFI d   1     -24.725 -21.610  16.163  0.00  0.00     0.083 H 
ATOM      9  H3  CFI d   1     -25.198 -23.959  16.794  0.00  0.00     0.083 H 
ATOM     10  H4  CFI d   1     -23.334 -25.356  17.652  0.00  0.00     0.083 H 
ATOM     11  H5  CFI d   1     -21.079 -24.413  17.875  0.00  0.00     0.087 H 
ENDROOT
BRANCH   1  12
ATOM     12  N03 CFI d   1     -20.236 -21.925  17.334  0.00  0.00    -0.080 N 
ATOM     13  O04 CFI d   1     -19.972 -20.658  17.268  0.00  0.00    -0.059 OA
BRANCH  12  14
ATOM     14  N02 CFI d   1     -19.187 -22.741  17.593  0.00  0.00     0.018 NA
ATOM     15  O01 CFI d   1     -18.086 -22.267  17.820  0.00  0.00    -0.039 OA
ENDBRANCH  12  14
ENDBRANCH   1  12
TORSDOF 2
