REMARK  30 active torsions:
REMARK  status: ('A' for Active; 'I' for Inactive)
REMARK    1  A    between atoms: N_1  and  CA_2 
REMARK    2  A    between atoms: CA_2  and  C_3 
REMARK    3  A    between atoms: CA_2  and  CB_5 
REMARK       I    between atoms: C_3  and  N_10 
REMARK    4  A    between atoms: CB_5  and  CG_6 
REMARK    5  A    between atoms: CG_6  and  CD_7 
REMARK    6  A    between atoms: CA_11  and  C_12 
REMARK       I    between atoms: C_12  and  N_17 
REMARK    7  A    between atoms: N_17  and  CA_18 
REMARK    8  A    between atoms: CA_18  and  C_19 
REMARK    9  A    between atoms: CA_18  and  CB_21 
REMARK       I    between atoms: C_19  and  N_26 
REMARK   10  A    between atoms: CB_21  and  CG_22 
REMARK   11  A    between atoms: CG_22  and  CD_23 
REMARK       I    between atoms: CD_23  and  NE2_25 
REMARK   12  A    between atoms: N_26  and  CA_27 
REMARK   13  A    between atoms: CA_27  and  C_28 
REMARK   14  A    between atoms: CA_27  and  CB_30 
REMARK       I    between atoms: C_28  and  N_31 
REMARK   15  A    between atoms: CA_32  and  C_33 
REMARK       I    between atoms: C_33  and  N_38 
REMARK   16  A    between atoms: N_38  and  CA_39 
REMARK   17  A    between atoms: CA_39  and  C_40 
REMARK   18  A    between atoms: CA_39  and  CB_42 
REMARK       I    between atoms: C_40  and  N_52 
REMARK   19  A    between atoms: CB_42  and  CG_43 
REMARK   20  A    between atoms: N_52  and  CA_53 
REMARK   21  A    between atoms: CA_53  and  C_54 
REMARK   22  A    between atoms: CA_53  and  CB_56 
REMARK       I    between atoms: C_54  and  N_60 
REMARK   23  A    between atoms: CB_56  and  CG_57 
REMARK   24  A    between atoms: CG_57  and  SD_58 
REMARK   25  A    between atoms: SD_58  and  CE_59 
REMARK   26  A    between atoms: N_60  and  CA_61 
REMARK   27  A    between atoms: CA_61  and  C_62 
REMARK   28  A    between atoms: CA_61  and  CB_64 
REMARK   29  A    between atoms: CB_64  and  CG_65 
REMARK   30  A    between atoms: CG_65  and  CD_66 
ROOT
ATOM      1  N   PRO d   1      30.441 -14.718  33.314  0.00  0.00    -0.337 N 
ATOM      2  CA  PRO d   1      31.667 -14.603  34.116  0.00  0.00     0.091 C 
ATOM      3  CB  PRO d   1      32.769 -14.929  33.103  0.00  0.00    -0.036 C 
ATOM      4  CG  PRO d   1      32.096 -15.922  32.167  0.00  0.00    -0.048 C 
ATOM      5  CD  PRO d   1      30.711 -15.326  32.001  0.00  0.00    -0.001 C 
ATOM      6  H29 PRO d   1      31.655 -15.342  34.931  0.00  0.00     0.087 H 
ATOM      7  H30 PRO d   1      33.640 -15.382  33.599  0.00  0.00     0.036 H 
ATOM      8  H31 PRO d   1      33.085 -14.026  32.560  0.00  0.00     0.036 H 
ATOM      9  H32 PRO d   1      32.047 -16.924  32.618  0.00  0.00     0.035 H 
ATOM     10  H33 PRO d   1      32.623 -15.980  31.203  0.00  0.00     0.035 H 
ATOM     11  H34 PRO d   1      30.703 -14.566  31.206  0.00  0.00     0.064 H 
ATOM     12  H35 PRO d   1      29.972 -16.107  31.770  0.00  0.00     0.064 H 
ATOM     13  C   ALA d   1      29.198 -14.379  33.709  0.00  0.00     0.243 C 
ATOM     14  O   ALA d   1      28.968 -13.839  34.794  0.00  0.00    -0.271 OA
ENDROOT
BRANCH   2  15
ATOM     15  C   PRO d   1      31.889 -13.221  34.718  0.00  0.00     0.241 C 
ATOM     16  O   PRO d   1      32.206 -13.120  35.902  0.00  0.00    -0.271 OA
ATOM     17  N   TRP d   1      31.721 -12.175  33.917  0.00  0.00    -0.346 N 
ATOM     18  H36 TRP d   1      31.403 -12.319  32.980  0.00  0.00     0.163 HD
BRANCH  17  19
ATOM     19  CA  TRP d   1      31.993 -10.820  34.383  0.00  0.00     0.093 C 
ATOM     20  H37 TRP d   1      33.046 -10.765  34.697  0.00  0.00     0.088 H 
BRANCH  19  21
ATOM     21  C   TRP d   1      31.108 -10.482  35.590  0.00  0.00     0.241 C 
ATOM     22  O   TRP d   1      31.456  -9.636  36.414  0.00  0.00    -0.271 OA
ATOM     23  N   MET d   1      29.969 -11.157  35.702  0.00  0.00    -0.346 N 
ATOM     24  H46 MET d   1      29.675 -11.758  34.958  0.00  0.00     0.163 HD
BRANCH  23  25
ATOM     25  CA  MET d   1      29.140 -11.032  36.899  0.00  0.00     0.090 C 
ATOM     26  H47 MET d   1      29.046  -9.964  37.143  0.00  0.00     0.087 H 
BRANCH  25  27
ATOM     27  C   MET d   1      29.825 -11.730  38.078  0.00  0.00     0.241 C 
ATOM     28  O   MET d   1      29.178 -12.110  39.057  0.00  0.00    -0.271 OA
ATOM     29  N   GLU d   1      31.144 -11.887  37.965  0.00  0.00    -0.345 N 
ATOM     30  H55 GLU d   1      31.581 -11.616  37.107  0.00  0.00     0.163 HD
BRANCH  29  31
ATOM     31  CA  GLU d   1      31.984 -12.432  39.023  0.00  0.00     0.097 C 
ATOM     32  H56 GLU d   1      31.589 -12.111  39.998  0.00  0.00     0.089 H 
BRANCH  31  33
ATOM     33  C   GLU d   1      33.408 -11.902  38.855  0.00  0.00     0.196 C 
ATOM     34  O   GLU d   1      33.736 -11.243  37.832  0.00  0.00    -0.646 OA
ATOM     35  O   GLU d   1      34.265 -12.127  39.751  0.00  0.00    -0.646 OA
ENDBRANCH  31  33
BRANCH  31  36
ATOM     36  CB  GLU d   1      31.993 -13.961  38.969  0.00  0.00    -0.028 C 
ATOM     37  H57 GLU d   1      32.575 -14.334  39.825  0.00  0.00     0.037 H 
ATOM     38  H58 GLU d   1      32.478 -14.271  38.032  0.00  0.00     0.037 H 
BRANCH  36  39
ATOM     39  CG  GLU d   1      30.598 -14.593  39.022  0.00  0.00     0.018 C 
ATOM     40  H59 GLU d   1      29.896 -13.935  38.489  0.00  0.00     0.049 H 
ATOM     41  H60 GLU d   1      30.293 -14.678  40.075  0.00  0.00     0.049 H 
BRANCH  39  42
ATOM     42  CD  GLU d   1      30.539 -15.970  38.391  0.00  0.00     0.172 C 
ATOM     43  OE1 GLU d   1      31.582 -16.457  37.906  0.00  0.00    -0.648 OA
ATOM     44  OE2 GLU d   1      29.437 -16.561  38.372  0.00  0.00    -0.648 OA
ENDBRANCH  39  42
ENDBRANCH  36  39
ENDBRANCH  31  36
ENDBRANCH  29  31
ENDBRANCH  25  27
BRANCH  25  45
ATOM     45  CB  MET d   1      27.728 -11.582  36.647  0.00  0.00    -0.030 C 
ATOM     46  H48 MET d   1      27.152 -11.513  37.582  0.00  0.00     0.037 H 
ATOM     47  H49 MET d   1      27.811 -12.636  36.344  0.00  0.00     0.037 H 
BRANCH  45  48
ATOM     48  CG  MET d   1      26.975 -10.814  35.549  0.00  0.00    -0.021 C 
ATOM     49  H50 MET d   1      27.525 -10.947  34.605  0.00  0.00     0.049 H 
ATOM     50  H51 MET d   1      26.971  -9.749  35.824  0.00  0.00     0.049 H 
BRANCH  48  51
ATOM     51  SD  MET d   1      25.263 -11.322  35.271  0.00  0.00    -0.173 SA
BRANCH  51  52
ATOM     52  CE  MET d   1      24.421 -10.547  36.650  0.00  0.00    -0.035 C 
ATOM     53  H52 MET d   1      23.347 -10.780  36.602  0.00  0.00     0.041 H 
ATOM     54  H53 MET d   1      24.562  -9.457  36.600  0.00  0.00     0.041 H 
ATOM     55  H54 MET d   1      24.837 -10.928  37.594  0.00  0.00     0.041 H 
ENDBRANCH  51  52
ENDBRANCH  48  51
ENDBRANCH  45  48
ENDBRANCH  25  45
ENDBRANCH  23  25
ENDBRANCH  19  21
BRANCH  19  56
ATOM     56  CB  TRP d   1      31.771  -9.810  33.257  0.00  0.00    -0.012 C 
ATOM     57  H38 TRP d   1      32.278 -10.175  32.352  0.00  0.00     0.044 H 
ATOM     58  H39 TRP d   1      32.208  -8.846  33.558  0.00  0.00     0.044 H 
BRANCH  56  59
ATOM     59  CG  TRP d   1      30.333  -9.603  32.945  0.00  0.00    -0.028 A 
ATOM     60  CD1 TRP d   1      29.509  -8.651  33.470  0.00  0.00    -0.015 A 
ATOM     61  NE1 TRP d   1      28.245  -8.781  32.952  0.00  0.00    -0.365 N 
ATOM     62  H40 TRP d   1      29.811  -7.897  34.195  0.00  0.00     0.112 H 
ATOM     63  CE2 TRP d   1      28.233  -9.830  32.071  0.00  0.00     0.042 A 
ATOM     64  H41 TRP d   1      27.437  -8.187  33.187  0.00  0.00     0.165 HD
ATOM     65  CD2 TRP d   1      29.533 -10.373  32.042  0.00  0.00    -0.002 A 
ATOM     66  CZ2 TRP d   1      27.193 -10.343  31.302  0.00  0.00    -0.056 A 
ATOM     67  CE3 TRP d   1      29.790 -11.469  31.210  0.00  0.00    -0.070 A 
ATOM     68  CZ3 TRP d   1      28.752 -11.981  30.447  0.00  0.00    -0.082 A 
ATOM     69  H42 TRP d   1      30.780 -11.908  31.163  0.00  0.00     0.084 H 
ATOM     70  CH2 TRP d   1      27.469 -11.416  30.500  0.00  0.00    -0.081 A 
ATOM     71  H44 TRP d   1      28.934 -12.831  29.799  0.00  0.00     0.083 H 
ATOM     72  H45 TRP d   1      26.678 -11.839  29.891  0.00  0.00     0.083 H 
ATOM     73  H43 TRP d   1      26.201  -9.908  31.337  0.00  0.00     0.086 H 
ENDBRANCH  56  59
ENDBRANCH  19  56
ENDBRANCH  17  19
ENDBRANCH   2  15
BRANCH  13  74
ATOM     74  CA  ALA d   1      28.053 -14.745  32.751  0.00  0.00     0.086 C 
ATOM     75  H25 ALA d   1      28.384 -14.569  31.717  0.00  0.00     0.086 H 
BRANCH  74  76
ATOM     76  N   ALA d   1      27.767 -16.170  32.926  0.00  0.00    -0.346 N 
ATOM     77  C   GLN d   1      27.733 -17.026  31.903  0.00  0.00     0.241 C 
ATOM     78  O   GLN d   1      27.808 -16.679  30.726  0.00  0.00    -0.271 OA
ATOM     79  H24 ALA d   1      27.590 -16.515  33.848  0.00  0.00     0.163 HD
BRANCH  77  80
ATOM     80  CA  GLN d   1      27.585 -18.503  32.246  0.00  0.00     0.090 C 
ATOM     81  H17 GLN d   1      27.792 -19.080  31.333  0.00  0.00     0.087 H 
BRANCH  80  82
ATOM     82  N   GLN d   1      28.584 -18.910  33.254  0.00  0.00    -0.346 N 
ATOM     83  C   PRO d   1      28.382 -18.877  34.576  0.00  0.00     0.241 C 
ATOM     84  O   PRO d   1      27.296 -18.632  35.101  0.00  0.00    -0.271 OA
ATOM     85  H16 GLN d   1      29.472 -19.232  32.926  0.00  0.00     0.163 HD
BRANCH  83  86
ATOM     86  CA  PRO d   1      29.602 -19.141  35.475  0.00  0.00     0.091 C 
ATOM     87  N   PRO d   1      30.167 -20.499  35.378  0.00  0.00    -0.337 N 
ATOM     88  C   GLU d   1      29.445 -21.637  35.341  0.00  0.00     0.251 C 
ATOM     89  CD  PRO d   1      31.574 -20.422  34.968  0.00  0.00    -0.001 C 
ATOM     90  O   GLU d   1      28.223 -21.645  35.461  0.00  0.00    -0.271 OA
ATOM     91  CG  PRO d   1      31.575 -19.164  34.220  0.00  0.00    -0.048 C 
ATOM     92  H14 PRO d   1      31.857 -21.272  34.330  0.00  0.00     0.064 H 
ATOM     93  H15 PRO d   1      32.247 -20.376  35.837  0.00  0.00     0.064 H 
ATOM     94  CB  PRO d   1      30.763 -18.266  34.973  0.00  0.00    -0.036 C 
ATOM     95  H12 PRO d   1      32.599 -18.772  34.131  0.00  0.00     0.035 H 
ATOM     96  H13 PRO d   1      31.151 -19.314  33.216  0.00  0.00     0.035 H 
ATOM     97  H10 PRO d   1      31.327 -17.844  35.818  0.00  0.00     0.036 H 
ATOM     98  H11 PRO d   1      30.390 -17.450  34.337  0.00  0.00     0.036 H 
ATOM     99  H9  PRO d   1      29.339 -18.911  36.518  0.00  0.00     0.087 H 
BRANCH  88 100
ATOM    100  CA  GLU d   1      30.183 -22.974  35.128  0.00  0.00     0.176 C 
ATOM    101  H4  GLU d   1      29.738 -23.448  34.241  0.00  0.00     0.099 H 
BRANCH 100 102
ATOM    102  N   GLU d   1      31.619 -22.874  34.881  0.00  0.00    -0.066 N 
ATOM    103  H1  GLU d   1      32.004 -23.797  34.756  0.00  0.00     0.275 HD
ATOM    104  H2  GLU d   1      32.065 -22.428  35.667  0.00  0.00     0.275 HD
ATOM    105  H3  GLU d   1      31.780 -22.328  34.049  0.00  0.00     0.275 HD
ENDBRANCH 100 102
BRANCH 100 106
ATOM    106  CB  GLU d   1      29.935 -23.882  36.327  0.00  0.00    -0.021 C 
ATOM    107  H5  GLU d   1      28.891 -24.228  36.297  0.00  0.00     0.037 H 
ATOM    108  H6  GLU d   1      30.103 -23.303  37.247  0.00  0.00     0.037 H 
BRANCH 106 109
ATOM    109  CG  GLU d   1      30.847 -25.094  36.343  0.00  0.00     0.018 C 
ATOM    110  H7  GLU d   1      31.885 -24.750  36.459  0.00  0.00     0.049 H 
ATOM    111  H8  GLU d   1      30.741 -25.625  35.385  0.00  0.00     0.049 H 
BRANCH 109 112
ATOM    112  CD  GLU d   1      30.531 -26.058  37.465  0.00  0.00     0.172 C 
ATOM    113  OE1 GLU d   1      29.850 -25.651  38.430  0.00  0.00    -0.648 OA
ATOM    114  OE2 GLU d   1      30.972 -27.223  37.381  0.00  0.00    -0.648 OA
ENDBRANCH 109 112
ENDBRANCH 106 109
ENDBRANCH 100 106
ENDBRANCH  88 100
ENDBRANCH  83  86
ENDBRANCH  80  82
BRANCH  80 115
ATOM    115  CB  GLN d   1      26.139 -18.818  32.664  0.00  0.00    -0.030 C 
ATOM    116  H18 GLN d   1      25.459 -18.406  31.904  0.00  0.00     0.037 H 
ATOM    117  H19 GLN d   1      25.943 -18.335  33.633  0.00  0.00     0.037 H 
BRANCH 115 118
ATOM    118  CG  GLN d   1      25.862 -20.311  32.803  0.00  0.00     0.011 C 
ATOM    119  H20 GLN d   1      24.774 -20.469  32.837  0.00  0.00     0.047 H 
ATOM    120  H21 GLN d   1      26.315 -20.671  33.739  0.00  0.00     0.047 H 
BRANCH 118 121
ATOM    121  CD  GLN d   1      26.435 -21.102  31.646  0.00  0.00     0.215 C 
ATOM    122  OE1 GLN d   1      25.931 -21.035  30.523  0.00  0.00    -0.274 OA
ATOM    123  NE2 GLN d   1      27.500 -21.849  31.908  0.00  0.00    -0.370 N 
ATOM    124  H22 GLN d   1      27.920 -22.393  31.182  0.00  0.00     0.159 HD
ATOM    125  H23 GLN d   1      27.882 -21.868  32.832  0.00  0.00     0.159 HD
ENDBRANCH 118 121
ENDBRANCH 115 118
ENDBRANCH  80 115
ENDBRANCH  77  80
ENDBRANCH  74  76
BRANCH  74 126
ATOM    126  CB  ALA d   1      26.779 -13.883  33.007  0.00  0.00    -0.049 C 
ATOM    127  H26 ALA d   1      27.022 -12.819  32.869  0.00  0.00     0.030 H 
ATOM    128  H27 ALA d   1      26.425 -14.048  34.035  0.00  0.00     0.030 H 
ATOM    129  H28 ALA d   1      25.991 -14.174  32.297  0.00  0.00     0.030 H 
ENDBRANCH  74 126
ENDBRANCH  13  74
TORSDOF 30
