REMARK  0 active torsions:
REMARK  status: ('A' for Active; 'I' for Inactive)
ROOT
ATOM      1  CAK 0CU d   1      21.148   0.297   7.173  0.00  0.00     0.104 A 
ATOM      2  NAG 0CU d   1      20.275  -0.672   6.855  0.00  0.00    -0.256 N 
ATOM      3  NAE 0CU d   1      19.865  -0.437   5.697  0.00  0.00    -0.067 NA
ATOM      4  NAF 0CU d   1      20.372   0.602   5.192  0.00  0.00    -0.130 NA
ATOM      5  CAJ 0CU d   1      21.200   1.148   6.071  0.00  0.00     0.112 A 
ATOM      6  CAD 0CU d   1      21.995   2.276   6.066  0.00  0.00    -0.030 A 
ATOM      7  CAH 0CU d   1      22.746   2.502   7.205  0.00  0.00     0.038 A 
ATOM      8 CLA  0CU d   1      23.734   3.894   7.252  0.00  0.00    -0.084 Cl
ATOM      9  CAC 0CU d   1      22.726   1.661   8.315  0.00  0.00    -0.038 A 
ATOM     10  CAI 0CU d   1      21.892   0.555   8.317  0.00  0.00     0.066 A 
ATOM     11 CLB  0CU d   1      21.818  -0.564   9.656  0.00  0.00    -0.082 Cl
ATOM     12  H1  0CU d   1      19.995  -1.462   7.453  0.00  0.00     0.191 HD
ATOM     13  H2  0CU d   1      22.029   2.948   5.216  0.00  0.00     0.089 H 
ATOM     14  H3  0CU d   1      23.358   1.870   9.171  0.00  0.00     0.088 H 
ENDROOT
TORSDOF 0
