REMARK  0 active torsions:
REMARK  status: ('A' for Active; 'I' for Inactive)
ROOT
ATOM      1  NAF 0CT d   1      -0.443  34.500 -17.624  0.00  0.00    -0.258 N 
ATOM      2  CAH 0CT d   1      -1.192  35.320 -16.865  0.00  0.00     0.082 A 
ATOM      3  CAC 0CT d   1      -2.375  35.978 -17.089  0.00  0.00    -0.053 A 
ATOM      4  CAA 0CT d   1      -2.998  36.829 -16.217  0.00  0.00    -0.081 A 
ATOM      5  CAB 0CT d   1      -2.318  37.010 -15.009  0.00  0.00    -0.081 A 
ATOM      6  CAD 0CT d   1      -1.081  36.329 -14.706  0.00  0.00    -0.051 A 
ATOM      7  CAI 0CT d   1      -0.518  35.496 -15.670  0.00  0.00     0.108 A 
ATOM      8  NAG 0CT d   1       0.578  34.751 -15.796  0.00  0.00    -0.130 NA
ATOM      9  NAE 0CT d   1       0.581  34.230 -16.949  0.00  0.00    -0.067 NA
ATOM     10  H1  0CT d   1      -0.665  34.161 -18.571  0.00  0.00     0.191 HD
ATOM     11  H2  0CT d   1      -2.860  35.808 -18.043  0.00  0.00     0.087 H 
ATOM     12  H3  0CT d   1      -3.937  37.320 -16.443  0.00  0.00     0.083 H 
ATOM     13  H4  0CT d   1      -2.735  37.687 -14.272  0.00  0.00     0.083 H 
ATOM     14  H5  0CT d   1      -0.599  36.464 -13.745  0.00  0.00     0.087 H 
ENDROOT
TORSDOF 0
