REMARK  13 active torsions:
REMARK  status: ('A' for Active; 'I' for Inactive)
REMARK    1  A    between atoms: C1_1  and  C2_4 
REMARK    2  A    between atoms: C2_4  and  C3_5 
REMARK    3  A    between atoms: C3_5  and  C4_6 
REMARK    4  A    between atoms: C4_6  and  C5_7 
REMARK    5  A    between atoms: C5_7  and  C6_8 
REMARK    6  A    between atoms: C6_8  and  C7_9 
REMARK    7  A    between atoms: C7_9  and  C8_10 
REMARK    8  A    between atoms: C8_10  and  C9_11 
REMARK    9  A    between atoms: C9_11  and  C10_12 
REMARK   10  A    between atoms: C10_12  and  C11_13 
REMARK   11  A    between atoms: C11_13  and  C12_14 
REMARK   12  A    between atoms: C12_14  and  C13_15 
REMARK   13  A    between atoms: C13_15  and  C14_16 
ROOT
ATOM      1  C8  MYR d   1       5.832  -0.359   4.852  0.00  0.00    -0.065 C 
ATOM      2  H13 MYR d   1       5.016  -0.655   4.176  0.00  0.00     0.033 H 
ATOM      3  H14 MYR d   1       6.406  -1.250   5.146  0.00  0.00     0.033 H 
ENDROOT
BRANCH   1   4
ATOM      4  C7  MYR d   1       5.228   0.282   6.110  0.00  0.00    -0.065 C 
ATOM      5  H11 MYR d   1       5.955   0.212   6.933  0.00  0.00     0.033 H 
ATOM      6  H12 MYR d   1       5.008   1.340   5.904  0.00  0.00     0.033 H 
BRANCH   4   7
ATOM      7  C6  MYR d   1       3.936  -0.427   6.522  0.00  0.00    -0.065 C 
ATOM      8  H9  MYR d   1       3.211  -0.358   5.697  0.00  0.00     0.033 H 
ATOM      9  H10 MYR d   1       4.158  -1.484   6.728  0.00  0.00     0.033 H 
BRANCH   7  10
ATOM     10  C5  MYR d   1       3.332   0.205   7.767  0.00  0.00    -0.065 C 
ATOM     11  H7  MYR d   1       4.139   0.684   8.341  0.00  0.00     0.033 H 
ATOM     12  H8  MYR d   1       2.604   0.967   7.452  0.00  0.00     0.033 H 
BRANCH  10  13
ATOM     13  C4  MYR d   1       2.626  -0.790   8.670  0.00  0.00    -0.065 C 
ATOM     14  H5  MYR d   1       2.208  -1.595   8.047  0.00  0.00     0.033 H 
ATOM     15  H6  MYR d   1       3.362  -1.213   9.370  0.00  0.00     0.033 H 
BRANCH  13  16
ATOM     16  C3  MYR d   1       1.499  -0.163   9.472  0.00  0.00    -0.056 C 
ATOM     17  H3  MYR d   1       1.740   0.895   9.653  0.00  0.00     0.033 H 
ATOM     18  H4  MYR d   1       0.569  -0.233   8.889  0.00  0.00     0.033 H 
BRANCH  16  19
ATOM     19  C2  MYR d   1       1.289  -0.850  10.808  0.00  0.00     0.016 C 
ATOM     20  H1  MYR d   1       1.052  -1.907  10.616  0.00  0.00     0.049 H 
ATOM     21  H2  MYR d   1       2.227  -0.782  11.379  0.00  0.00     0.049 H 
BRANCH  19  22
ATOM     22  C1  MYR d   1       0.177  -0.264  11.655  0.00  0.00     0.172 C 
ATOM     23  O1  MYR d   1      -0.924  -0.824  11.644  0.00  0.00    -0.648 OA
ATOM     24  O2  MYR d   1       0.373   0.756  12.339  0.00  0.00    -0.648 OA
ENDBRANCH  19  22
ENDBRANCH  16  19
ENDBRANCH  13  16
ENDBRANCH  10  13
ENDBRANCH   7  10
ENDBRANCH   4   7
ENDBRANCH   1   4
BRANCH   1  25
ATOM     25  C9  MYR d   1       6.750   0.598   4.124  0.00  0.00    -0.065 C 
ATOM     26  H15 MYR d   1       7.557   0.892   4.812  0.00  0.00     0.033 H 
ATOM     27  H16 MYR d   1       6.167   1.487   3.842  0.00  0.00     0.033 H 
BRANCH  25  28
ATOM     28  C10 MYR d   1       7.377   0.029   2.876  0.00  0.00    -0.065 C 
ATOM     29  H17 MYR d   1       6.809   0.388   2.005  0.00  0.00     0.033 H 
ATOM     30  H18 MYR d   1       7.318  -1.068   2.925  0.00  0.00     0.033 H 
BRANCH  28  31
ATOM     31  C11 MYR d   1       8.833   0.427   2.701  0.00  0.00    -0.065 C 
ATOM     32  H19 MYR d   1       9.456  -0.478   2.655  0.00  0.00     0.033 H 
ATOM     33  H20 MYR d   1       9.148   1.046   3.554  0.00  0.00     0.033 H 
BRANCH  31  34
ATOM     34  C12 MYR d   1       8.998   1.225   1.406  0.00  0.00    -0.065 C 
ATOM     35  H21 MYR d   1       9.711   2.045   1.573  0.00  0.00     0.033 H 
ATOM     36  H22 MYR d   1       8.024   1.641   1.109  0.00  0.00     0.033 H 
BRANCH  34  37
ATOM     37  C13 MYR d   1       9.520   0.323   0.294  0.00  0.00    -0.069 C 
ATOM     38  H23 MYR d   1       8.799   0.329  -0.537  0.00  0.00     0.032 H 
ATOM     39  H24 MYR d   1       9.622  -0.700   0.684  0.00  0.00     0.032 H 
BRANCH  37  40
ATOM     40  C14 MYR d   1      10.876   0.789  -0.227  0.00  0.00    -0.077 C 
ATOM     41  H25 MYR d   1      11.214   0.112  -1.025  0.00  0.00     0.027 H 
ATOM     42  H26 MYR d   1      11.607   0.781   0.595  0.00  0.00     0.027 H 
ATOM     43  H27 MYR d   1      10.784   1.810  -0.626  0.00  0.00     0.027 H 
ENDBRANCH  37  40
ENDBRANCH  34  37
ENDBRANCH  31  34
ENDBRANCH  28  31
ENDBRANCH  25  28
ENDBRANCH   1  25
TORSDOF 13
