REMARK  17 active torsions:
REMARK  status: ('A' for Active; 'I' for Inactive)
REMARK    1  A    between atoms: C1_1  and  C2_4 
REMARK    2  A    between atoms: C2_4  and  C3_5 
REMARK    3  A    between atoms: C3_5  and  C4_6 
REMARK    4  A    between atoms: C4_6  and  C5_7 
REMARK    5  A    between atoms: C5_7  and  C6_8 
REMARK    6  A    between atoms: C6_8  and  C7_9 
REMARK    7  A    between atoms: C7_9  and  C8_10 
REMARK    8  A    between atoms: C8_10  and  C9_11 
REMARK    9  A    between atoms: C9_11  and  C10_12 
REMARK   10  A    between atoms: C10_12  and  C11_13 
REMARK   11  A    between atoms: C11_13  and  C12_14 
REMARK   12  A    between atoms: C12_14  and  C13_15 
REMARK   13  A    between atoms: C13_15  and  C14_16 
REMARK   14  A    between atoms: C14_16  and  C15_17 
REMARK   15  A    between atoms: C15_17  and  C16_18 
REMARK   16  A    between atoms: C16_18  and  C17_19 
REMARK   17  A    between atoms: C17_19  and  C18_20 
ROOT
ATOM      1  C10 STE d   1       7.193   0.332   2.954  0.00  0.00    -0.065 C 
ATOM      2  H17 STE d   1       6.736   1.249   2.554  0.00  0.00     0.033 H 
ATOM      3  H18 STE d   1       6.762  -0.544   2.446  0.00  0.00     0.033 H 
ENDROOT
BRANCH   1   4
ATOM      4  C9  STE d   1       6.868   0.239   4.427  0.00  0.00    -0.065 C 
ATOM      5  H15 STE d   1       7.484  -0.559   4.867  0.00  0.00     0.033 H 
ATOM      6  H16 STE d   1       7.121   1.200   4.898  0.00  0.00     0.033 H 
BRANCH   4   7
ATOM      7  C8  STE d   1       5.415  -0.066   4.720  0.00  0.00    -0.065 C 
ATOM      8  H13 STE d   1       4.791   0.728   4.283  0.00  0.00     0.033 H 
ATOM      9  H14 STE d   1       5.156  -1.031   4.260  0.00  0.00     0.033 H 
BRANCH   7  10
ATOM     10  C7  STE d   1       5.132  -0.145   6.224  0.00  0.00    -0.065 C 
ATOM     11  H11 STE d   1       5.150  -1.199   6.539  0.00  0.00     0.033 H 
ATOM     12  H12 STE d   1       5.910   0.413   6.766  0.00  0.00     0.033 H 
BRANCH  10  13
ATOM     13  C6  STE d   1       3.760   0.454   6.557  0.00  0.00    -0.065 C 
ATOM     14  H9  STE d   1       3.741   1.507   6.240  0.00  0.00     0.033 H 
ATOM     15  H10 STE d   1       2.983  -0.106   6.016  0.00  0.00     0.033 H 
BRANCH  13  16
ATOM     16  C5  STE d   1       3.478   0.380   8.048  0.00  0.00    -0.065 C 
ATOM     17  H7  STE d   1       4.435   0.452   8.585  0.00  0.00     0.033 H 
ATOM     18  H8  STE d   1       2.839   1.232   8.322  0.00  0.00     0.033 H 
BRANCH  16  19
ATOM     19  C4  STE d   1       2.780  -0.901   8.481  0.00  0.00    -0.065 C 
ATOM     20  H5  STE d   1       2.600  -1.522   7.591  0.00  0.00     0.033 H 
ATOM     21  H6  STE d   1       3.437  -1.441   9.179  0.00  0.00     0.033 H 
BRANCH  19  22
ATOM     22  C3  STE d   1       1.452  -0.640   9.167  0.00  0.00    -0.056 C 
ATOM     23  H3  STE d   1       1.008   0.271   8.739  0.00  0.00     0.033 H 
ATOM     24  H4  STE d   1       0.786  -1.495   8.980  0.00  0.00     0.033 H 
BRANCH  22  25
ATOM     25  C2  STE d   1       1.592  -0.453  10.665  0.00  0.00     0.016 C 
ATOM     26  H1  STE d   1       2.041  -1.365  11.084  0.00  0.00     0.049 H 
ATOM     27  H2  STE d   1       2.263   0.401  10.843  0.00  0.00     0.049 H 
BRANCH  25  28
ATOM     28  C1  STE d   1       0.288  -0.190  11.394  0.00  0.00     0.172 C 
ATOM     29  O1  STE d   1      -0.498  -1.134  11.547  0.00  0.00    -0.648 OA
ATOM     30  O2  STE d   1       0.024   0.944  11.821  0.00  0.00    -0.648 OA
ENDBRANCH  25  28
ENDBRANCH  22  25
ENDBRANCH  19  22
ENDBRANCH  16  19
ENDBRANCH  13  16
ENDBRANCH  10  13
ENDBRANCH   7  10
ENDBRANCH   4   7
ENDBRANCH   1   4
BRANCH   1  31
ATOM     31  C11 STE d   1       8.678   0.371   2.664  0.00  0.00    -0.065 C 
ATOM     32  H19 STE d   1       9.061  -0.655   2.566  0.00  0.00     0.033 H 
ATOM     33  H20 STE d   1       9.201   0.881   3.487  0.00  0.00     0.033 H 
BRANCH  31  34
ATOM     34  C12 STE d   1       8.913   1.128   1.365  0.00  0.00    -0.065 C 
ATOM     35  H21 STE d   1       9.523   2.021   1.568  0.00  0.00     0.033 H 
ATOM     36  H22 STE d   1       7.945   1.434   0.941  0.00  0.00     0.033 H 
BRANCH  34  37
ATOM     37  C13 STE d   1       9.638   0.238   0.374  0.00  0.00    -0.065 C 
ATOM     38  H23 STE d   1       9.098   0.253  -0.584  0.00  0.00     0.033 H 
ATOM     39  H24 STE d   1       9.662  -0.790   0.765  0.00  0.00     0.033 H 
BRANCH  37  40
ATOM     40  C14 STE d   1      11.058   0.715   0.148  0.00  0.00    -0.065 C 
ATOM     41  H25 STE d   1      11.707   0.285   0.925  0.00  0.00     0.033 H 
ATOM     42  H26 STE d   1      11.081   1.813   0.217  0.00  0.00     0.033 H 
BRANCH  40  43
ATOM     43  C15 STE d   1      11.580   0.295  -1.220  0.00  0.00    -0.065 C 
ATOM     44  H27 STE d   1      10.730   0.124  -1.896  0.00  0.00     0.033 H 
ATOM     45  H28 STE d   1      12.160  -0.634  -1.118  0.00  0.00     0.033 H 
BRANCH  43  46
ATOM     46  C16 STE d   1      12.475   1.387  -1.802  0.00  0.00    -0.065 C 
ATOM     47  H29 STE d   1      13.440   1.346  -1.276  0.00  0.00     0.033 H 
ATOM     48  H30 STE d   1      11.992   2.356  -1.607  0.00  0.00     0.033 H 
BRANCH  46  49
ATOM     49  C17 STE d   1      12.761   1.298  -3.326  0.00  0.00    -0.069 C 
ATOM     50  H31 STE d   1      12.761   2.334  -3.694  0.00  0.00     0.032 H 
ATOM     51  H32 STE d   1      11.910   0.754  -3.762  0.00  0.00     0.032 H 
BRANCH  49  52
ATOM     52  C18 STE d   1      14.009   0.651  -3.902  0.00  0.00    -0.077 C 
ATOM     53  H33 STE d   1      13.981   0.713  -5.000  0.00  0.00     0.027 H 
ATOM     54  H34 STE d   1      14.050  -0.405  -3.595  0.00  0.00     0.027 H 
ATOM     55  H35 STE d   1      14.900   1.176  -3.528  0.00  0.00     0.027 H 
ENDBRANCH  49  52
ENDBRANCH  46  49
ENDBRANCH  43  46
ENDBRANCH  40  43
ENDBRANCH  37  40
ENDBRANCH  34  37
ENDBRANCH  31  34
ENDBRANCH   1  31
TORSDOF 17
