REMARK  15 active torsions:
REMARK  status: ('A' for Active; 'I' for Inactive)
REMARK    1  A    between atoms: C1_1  and  C2_4 
REMARK    2  A    between atoms: C2_4  and  C3_5 
REMARK    3  A    between atoms: C3_5  and  C4_6 
REMARK    4  A    between atoms: C4_6  and  C5_7 
REMARK    5  A    between atoms: C5_7  and  C6_8 
REMARK    6  A    between atoms: C6_8  and  C7_9 
REMARK    7  A    between atoms: C7_9  and  C8_10 
REMARK    8  A    between atoms: C8_10  and  C9_11 
REMARK    9  A    between atoms: C9_11  and  CA_12 
REMARK   10  A    between atoms: CA_12  and  CB_13 
REMARK   11  A    between atoms: CB_13  and  CC_14 
REMARK   12  A    between atoms: CC_14  and  CD_15 
REMARK   13  A    between atoms: CD_15  and  CE_16 
REMARK   14  A    between atoms: CE_16  and  CF_17 
REMARK   15  A    between atoms: CF_17  and  CG_18 
ROOT
ATOM      1  C9  PLM d   1       7.281   0.488   4.139  0.00  0.00    -0.065 C 
ATOM      2  H15 PLM d   1       8.002   0.094   4.870  0.00  0.00     0.033 H 
ATOM      3  H16 PLM d   1       7.285   1.587   4.176  0.00  0.00     0.033 H 
ENDROOT
BRANCH   1   4
ATOM      4  C8  PLM d   1       5.896   0.005   4.531  0.00  0.00    -0.065 C 
ATOM      5  H13 PLM d   1       5.168   0.395   3.805  0.00  0.00     0.033 H 
ATOM      6  H14 PLM d   1       5.886  -1.095   4.506  0.00  0.00     0.033 H 
BRANCH   4   7
ATOM      7  C7  PLM d   1       5.487   0.471   5.941  0.00  0.00    -0.065 C 
ATOM      8  H11 PLM d   1       6.263   0.168   6.659  0.00  0.00     0.033 H 
ATOM      9  H12 PLM d   1       5.393   1.567   5.944  0.00  0.00     0.033 H 
BRANCH   7  10
ATOM     10  C6  PLM d   1       4.144  -0.149   6.362  0.00  0.00    -0.065 C 
ATOM     11  H9  PLM d   1       3.371   0.151   5.640  0.00  0.00     0.033 H 
ATOM     12  H10 PLM d   1       4.241  -1.245   6.361  0.00  0.00     0.033 H 
BRANCH  10  13
ATOM     13  C5  PLM d   1       3.724   0.308   7.754  0.00  0.00    -0.065 C 
ATOM     14  H7  PLM d   1       4.615   0.674   8.284  0.00  0.00     0.033 H 
ATOM     15  H8  PLM d   1       2.998   1.128   7.647  0.00  0.00     0.033 H 
BRANCH  13  16
ATOM     16  C4  PLM d   1       3.083  -0.801   8.593  0.00  0.00    -0.065 C 
ATOM     17  H5  PLM d   1       2.952  -1.689   7.957  0.00  0.00     0.033 H 
ATOM     18  H6  PLM d   1       3.759  -1.043   9.427  0.00  0.00     0.033 H 
BRANCH  16  19
ATOM     19  C3  PLM d   1       1.725  -0.412   9.167  0.00  0.00    -0.056 C 
ATOM     20  H3  PLM d   1       1.437   0.567   8.757  0.00  0.00     0.033 H 
ATOM     21  H4  PLM d   1       0.986  -1.168   8.864  0.00  0.00     0.033 H 
BRANCH  19  22
ATOM     22  C2  PLM d   1       1.732  -0.320  10.684  0.00  0.00     0.016 C 
ATOM     23  H1  PLM d   1       2.374  -1.125  11.070  0.00  0.00     0.049 H 
ATOM     24  H2  PLM d   1       2.158   0.655  10.963  0.00  0.00     0.049 H 
BRANCH  22  25
ATOM     25  C1  PLM d   1       0.371  -0.445  11.350  0.00  0.00     0.172 C 
ATOM     26  O1  PLM d   1      -0.445  -1.276  10.913  0.00  0.00    -0.648 OA
ATOM     27  O2  PLM d   1       0.089   0.268  12.310  0.00  0.00    -0.648 OA
ENDBRANCH  22  25
ENDBRANCH  19  22
ENDBRANCH  16  19
ENDBRANCH  13  16
ENDBRANCH  10  13
ENDBRANCH   7  10
ENDBRANCH   4   7
ENDBRANCH   1   4
BRANCH   1  28
ATOM     28  CA  PLM d   1       7.728   0.059   2.754  0.00  0.00    -0.065 C 
ATOM     29  H17 PLM d   1       6.915   0.273   2.045  0.00  0.00     0.033 H 
ATOM     30  H18 PLM d   1       7.923  -1.023   2.772  0.00  0.00     0.033 H 
BRANCH  28  31
ATOM     31  CB  PLM d   1       8.986   0.766   2.269  0.00  0.00    -0.065 C 
ATOM     32  H19 PLM d   1       9.858   0.373   2.813  0.00  0.00     0.033 H 
ATOM     33  H20 PLM d   1       8.893   1.846   2.457  0.00  0.00     0.033 H 
BRANCH  31  34
ATOM     34  CC  PLM d   1       9.175   0.527   0.766  0.00  0.00    -0.065 C 
ATOM     35  H21 PLM d   1       8.859   1.423   0.212  0.00  0.00     0.033 H 
ATOM     36  H22 PLM d   1       8.562  -0.332   0.454  0.00  0.00     0.033 H 
BRANCH  34  37
ATOM     37  CD  PLM d   1      10.641   0.237   0.462  0.00  0.00    -0.065 C 
ATOM     38  H23 PLM d   1      10.753  -0.838   0.256  0.00  0.00     0.033 H 
ATOM     39  H24 PLM d   1      11.244   0.507   1.341  0.00  0.00     0.033 H 
BRANCH  37  40
ATOM     40  CE  PLM d   1      11.153   1.026  -0.748  0.00  0.00    -0.065 C 
ATOM     41  H25 PLM d   1      11.509   2.010  -0.408  0.00  0.00     0.033 H 
ATOM     42  H26 PLM d   1      10.326   1.161  -1.461  0.00  0.00     0.033 H 
BRANCH  40  43
ATOM     43  CF  PLM d   1      12.306   0.297  -1.455  0.00  0.00    -0.069 C 
ATOM     44  H27 PLM d   1      11.942  -0.672  -1.828  0.00  0.00     0.032 H 
ATOM     45  H28 PLM d   1      13.119   0.130  -0.734  0.00  0.00     0.032 H 
BRANCH  43  46
ATOM     46  CG  PLM d   1      12.846   1.113  -2.634  0.00  0.00    -0.077 C 
ATOM     47  H29 PLM d   1      13.668   0.562  -3.115  0.00  0.00     0.027 H 
ATOM     48  H30 PLM d   1      13.218   2.082  -2.270  0.00  0.00     0.027 H 
ATOM     49  H31 PLM d   1      12.040   1.280  -3.364  0.00  0.00     0.027 H 
ENDBRANCH  43  46
ENDBRANCH  40  43
ENDBRANCH  37  40
ENDBRANCH  34  37
ENDBRANCH  31  34
ENDBRANCH  28  31
ENDBRANCH   1  28
TORSDOF 15
