REMARK  19 active torsions:
REMARK  status: ('A' for Active; 'I' for Inactive)
REMARK    1  A    between atoms: C1_1  and  C13_7 
REMARK    2  A    between atoms: C2_2  and  O28_22 
REMARK    3  A    between atoms: C3_3  and  O29_23 
REMARK    4  A    between atoms: C4_4  and  O30_24 
REMARK    5  A    between atoms: C6_6  and  C19_13 
REMARK    6  A    between atoms: C13_7  and  C14_8 
REMARK    7  A    between atoms: C14_8  and  O16_10 
REMARK    8  A    between atoms: O16_10  and  C17_11 
REMARK    9  A    between atoms: C17_11  and  C18_12 
REMARK   10  A    between atoms: C19_13  and  C20_14 
REMARK   11  A    between atoms: C20_14  and  C21_15 
REMARK   12  A    between atoms: C21_15  and  C22_16 
REMARK   13  A    between atoms: C22_16  and  C23_17 
REMARK   14  A    between atoms: C23_17  and  C24_18 
REMARK   15  A    between atoms: C24_18  and  C25_19 
REMARK   16  A    between atoms: C25_19  and  C26_20 
REMARK   17  A    between atoms: O28_22  and  C31_25 
REMARK   18  A    between atoms: O29_23  and  C32_26 
REMARK   19  A    between atoms: O30_24  and  C33_27 
ROOT
ATOM      1  C1  TMY d   1     -11.127  24.278   5.558  0.00  0.00    -0.003 A 
ATOM      2  C2  TMY d   1     -11.036  25.405   4.723  0.00  0.00     0.111 A 
ATOM      3  C3  TMY d   1     -11.189  26.703   5.297  0.00  0.00     0.135 A 
ATOM      4  C4  TMY d   1     -11.417  26.855   6.659  0.00  0.00     0.105 A 
ATOM      5  C5  TMY d   1     -11.501  25.763   7.494  0.00  0.00    -0.034 A 
ATOM      6  C6  TMY d   1     -11.366  24.477   7.010  0.00  0.00     0.022 A 
ATOM      7  H1  TMY d   1     -11.677  25.916   8.553  0.00  0.00     0.089 H 
ENDROOT
BRANCH   6   8
ATOM      8  C19 TMY d   1     -11.501  23.356   8.010  0.00  0.00     0.160 C 
ATOM      9  O27 TMY d   1     -10.529  22.706   8.329  0.00  0.00    -0.292 OA
BRANCH   8  10
ATOM     10  C20 TMY d   1     -12.857  23.106   8.635  0.00  0.00    -0.005 C 
ATOM     11  H9  TMY d   1     -13.615  23.320   7.867  0.00  0.00     0.044 H 
ATOM     12  H10 TMY d   1     -12.968  23.815   9.469  0.00  0.00     0.044 H 
BRANCH  10  13
ATOM     13  C21 TMY d   1     -13.150  21.706   9.186  0.00  0.00    -0.059 C 
ATOM     14  H11 TMY d   1     -12.885  21.663  10.253  0.00  0.00     0.033 H 
ATOM     15  H12 TMY d   1     -12.564  20.958   8.632  0.00  0.00     0.033 H 
BRANCH  13  16
ATOM     16  C22 TMY d   1     -14.646  21.427   9.011  0.00  0.00    -0.065 C 
ATOM     17  H13 TMY d   1     -14.872  20.442   9.445  0.00  0.00     0.033 H 
ATOM     18  H14 TMY d   1     -14.877  21.416   7.936  0.00  0.00     0.033 H 
BRANCH  16  19
ATOM     19  C23 TMY d   1     -15.538  22.477   9.692  0.00  0.00    -0.065 C 
ATOM     20  H15 TMY d   1     -14.892  23.217  10.188  0.00  0.00     0.033 H 
ATOM     21  H16 TMY d   1     -16.161  21.972  10.444  0.00  0.00     0.033 H 
BRANCH  19  22
ATOM     22  C24 TMY d   1     -16.459  23.213   8.709  0.00  0.00    -0.065 C 
ATOM     23  H17 TMY d   1     -17.169  22.490   8.281  0.00  0.00     0.033 H 
ATOM     24  H18 TMY d   1     -15.845  23.643   7.904  0.00  0.00     0.033 H 
BRANCH  22  25
ATOM     25  C25 TMY d   1     -17.247  24.337   9.379  0.00  0.00    -0.069 C 
ATOM     26  H19 TMY d   1     -16.636  24.780  10.179  0.00  0.00     0.032 H 
ATOM     27  H20 TMY d   1     -18.172  23.924   9.809  0.00  0.00     0.032 H 
BRANCH  25  28
ATOM     28  C26 TMY d   1     -17.602  25.410   8.372  0.00  0.00    -0.077 C 
ATOM     29  H21 TMY d   1     -18.168  26.209   8.872  0.00  0.00     0.027 H 
ATOM     30  H22 TMY d   1     -18.216  24.972   7.571  0.00  0.00     0.027 H 
ATOM     31  H23 TMY d   1     -16.680  25.828   7.941  0.00  0.00     0.027 H 
ENDBRANCH  25  28
ENDBRANCH  22  25
ENDBRANCH  19  22
ENDBRANCH  16  19
ENDBRANCH  13  16
ENDBRANCH  10  13
ENDBRANCH   8  10
ENDBRANCH   6   8
BRANCH   1  32
ATOM     32  C13 TMY d   1     -11.006  22.870   5.143  0.00  0.00     0.023 C 
ATOM     33  H2  TMY d   1     -10.215  22.422   5.762  0.00  0.00     0.048 H 
ATOM     34  H3  TMY d   1     -10.689  22.874   4.090  0.00  0.00     0.048 H 
BRANCH  32  35
ATOM     35  C14 TMY d   1     -12.077  22.055   5.226  0.00  0.00     0.261 C 
ATOM     36  O15 TMY d   1     -13.248  22.566   5.622  0.00  0.00    -0.191 OA
BRANCH  35  37
ATOM     37  O16 TMY d   1     -11.992  20.635   4.882  0.00  0.00    -0.349 OA
BRANCH  37  38
ATOM     38  C17 TMY d   1     -11.335  19.721   5.770  0.00  0.00     0.020 C 
ATOM     39  H4  TMY d   1     -10.256  19.933   5.742  0.00  0.00     0.073 H 
ATOM     40  H5  TMY d   1     -11.518  18.699   5.406  0.00  0.00     0.073 H 
BRANCH  38  41
ATOM     41  C18 TMY d   1     -11.794  19.796   7.220  0.00  0.00    -0.056 C 
ATOM     42  H6  TMY d   1     -11.236  19.062   7.820  0.00  0.00     0.030 H 
ATOM     43  H7  TMY d   1     -12.870  19.573   7.276  0.00  0.00     0.030 H 
ATOM     44  H8  TMY d   1     -11.608  20.807   7.612  0.00  0.00     0.030 H 
ENDBRANCH  38  41
ENDBRANCH  37  38
ENDBRANCH  35  37
ENDBRANCH  32  35
ENDBRANCH   1  32
BRANCH   2  45
ATOM     45  O28 TMY d   1     -10.804  25.286   3.379  0.00  0.00    -0.352 OA
BRANCH  45  46
ATOM     46  C31 TMY d   1     -11.669  24.432   2.623  0.00  0.00     0.011 C 
ATOM     47  H24 TMY d   1     -11.360  24.439   1.567  0.00  0.00     0.067 H 
ATOM     48  H25 TMY d   1     -12.704  24.794   2.704  0.00  0.00     0.067 H 
ATOM     49  H26 TMY d   1     -11.607  23.407   3.016  0.00  0.00     0.067 H 
ENDBRANCH  45  46
ENDBRANCH   2  45
BRANCH   4  50
ATOM     50  O30 TMY d   1     -11.564  28.073   7.219  0.00  0.00    -0.353 OA
BRANCH  50  51
ATOM     51  C33 TMY d   1     -11.096  28.304   8.553  0.00  0.00     0.010 C 
ATOM     52  H30 TMY d   1     -11.300  29.347   8.838  0.00  0.00     0.066 H 
ATOM     53  H31 TMY d   1     -10.013  28.117   8.599  0.00  0.00     0.066 H 
ATOM     54  H32 TMY d   1     -11.615  27.626   9.246  0.00  0.00     0.066 H 
ENDBRANCH  50  51
ENDBRANCH   4  50
BRANCH   3  55
ATOM     55  O29 TMY d   1     -11.079  27.845   4.554  0.00  0.00    -0.351 OA
BRANCH  55  56
ATOM     56  C32 TMY d   1      -9.883  28.546   4.745  0.00  0.00     0.011 C 
ATOM     57  H27 TMY d   1      -9.880  29.445   4.112  0.00  0.00     0.067 H 
ATOM     58  H28 TMY d   1      -9.033  27.903   4.472  0.00  0.00     0.067 H 
ATOM     59  H29 TMY d   1      -9.795  28.841   5.801  0.00  0.00     0.067 H 
ENDBRANCH  55  56
ENDBRANCH   3  55
TORSDOF 19
