REMARK  8 active torsions:
REMARK  status: ('A' for Active; 'I' for Inactive)
REMARK    1  A    between atoms: CAA_1  and  CBE_2 
REMARK    2  A    between atoms: CBE_2  and  CAB_3 
REMARK    3  A    between atoms: CBE_2  and  NBF_4 
REMARK    4  A    between atoms: C6_10  and  NAC_11 
REMARK    5  A    between atoms: CAZ_13  and  CAY_14 
REMARK    6  A    between atoms: CAW_23  and  OAT_24 
REMARK    7  A    between atoms: OAT_24  and  CAP_25 
REMARK    8  A    between atoms: CAP_25  and  CAV_26 
ROOT
ATOM      1  CAY I76 d   1      13.123  15.023  63.877  0.00  0.00    -0.004 A 
ATOM      2  CAO I76 d   1      12.627  14.367  65.003  0.00  0.00    -0.060 A 
ATOM      3  CAI I76 d   1      12.215  15.775  63.103  0.00  0.00    -0.070 A 
ATOM      4  CAK I76 d   1      10.855  15.813  63.426  0.00  0.00    -0.071 A 
ATOM      5  CBA I76 d   1      10.364  15.128  64.522  0.00  0.00    -0.023 A 
ATOM      6  CAN I76 d   1       9.016  15.170  64.833  0.00  0.00    -0.040 A 
ATOM      7  CBB I76 d   1      11.266  14.412  65.327  0.00  0.00    -0.025 A 
ATOM      8  CAJ I76 d   1      10.791  13.728  66.427  0.00  0.00    -0.070 A 
ATOM      9  CAH I76 d   1       9.442  13.765  66.738  0.00  0.00    -0.050 A 
ATOM     10  CAW I76 d   1       8.544  14.489  65.943  0.00  0.00     0.070 A 
ATOM     11  H11 I76 d   1      13.307  13.812  65.639  0.00  0.00     0.086 H 
ATOM     12  H12 I76 d   1      12.576  16.331  62.246  0.00  0.00     0.084 H 
ATOM     13  H13 I76 d   1      10.175  16.388  62.808  0.00  0.00     0.084 H 
ATOM     14  H14 I76 d   1       8.332  15.734  64.210  0.00  0.00     0.089 H 
ATOM     15  H15 I76 d   1      11.475  13.161  67.049  0.00  0.00     0.085 H 
ATOM     16  H16 I76 d   1       9.077  13.228  67.606  0.00  0.00     0.087 H 
ENDROOT
BRANCH   1  17
ATOM     17  CAZ I76 d   1      14.486  15.010  63.505  0.00  0.00     0.105 A 
ATOM     18  NAS I76 d   1      15.247  16.071  63.193  0.00  0.00    -0.169 NA
ATOM     19  NBF I76 d   1      16.395  15.705  62.879  0.00  0.00    -0.247 N 
ATOM     20  C4  I76 d   1      16.524  14.388  62.905  0.00  0.00     0.164 A 
ATOM     21  N3  I76 d   1      17.570  13.581  62.650  0.00  0.00    -0.222 NA
ATOM     22  C5  I76 d   1      15.295  13.870  63.307  0.00  0.00     0.088 A 
ATOM     23  C2  I76 d   1      17.431  12.271  62.775  0.00  0.00     0.091 A 
ATOM     24  N1  I76 d   1      16.280  11.715  63.141  0.00  0.00    -0.224 NA
ATOM     25  H8  I76 d   1      18.282  11.631  62.573  0.00  0.00     0.146 H 
ATOM     26  C6  I76 d   1      15.195  12.477  63.418  0.00  0.00     0.139 A 
BRANCH  19  27
ATOM     27  CBE I76 d   1      17.516  16.588  62.477  0.00  0.00     0.029 C 
ATOM     28  H4  I76 d   1      18.460  16.052  62.655  0.00  0.00     0.074 H 
BRANCH  27  29
ATOM     29  CAA I76 d   1      17.533  17.872  63.304  0.00  0.00    -0.056 C 
ATOM     30  H1  I76 d   1      18.374  18.504  62.983  0.00  0.00     0.030 H 
ATOM     31  H2  I76 d   1      17.649  17.621  64.369  0.00  0.00     0.030 H 
ATOM     32  H3  I76 d   1      16.588  18.416  63.156  0.00  0.00     0.030 H 
ENDBRANCH  27  29
BRANCH  27  33
ATOM     33  CAB I76 d   1      17.414  16.915  60.969  0.00  0.00    -0.056 C 
ATOM     34  H5  I76 d   1      17.403  15.979  60.391  0.00  0.00     0.030 H 
ATOM     35  H6  I76 d   1      18.279  17.523  60.666  0.00  0.00     0.030 H 
ATOM     36  H7  I76 d   1      16.487  17.475  60.777  0.00  0.00     0.030 H 
ENDBRANCH  27  33
ENDBRANCH  19  27
BRANCH  26  37
ATOM     37  NAC I76 d   1      14.069  11.845  63.777  0.00  0.00    -0.383 N 
ATOM     38  H9  I76 d   1      13.221  12.388  63.996  0.00  0.00     0.157 HD
ATOM     39  H10 I76 d   1      14.051  10.817  63.834  0.00  0.00     0.157 HD
ENDBRANCH  26  37
ENDBRANCH   1  17
BRANCH  10  40
ATOM     40  OAT I76 d   1       7.230  14.470  66.322  0.00  0.00    -0.347 OA
BRANCH  40  41
ATOM     41  CAP I76 d   1       6.145  14.877  65.439  0.00  0.00     0.050 C 
ATOM     42  H17 I76 d   1       6.026  14.102  64.668  0.00  0.00     0.082 H 
ATOM     43  H18 I76 d   1       6.432  15.826  64.963  0.00  0.00     0.082 H 
BRANCH  41  44
ATOM     44  CAV I76 d   1       4.888  15.065  66.069  0.00  0.00    -0.033 A 
ATOM     45  CAM I76 d   1       3.824  15.687  65.408  0.00  0.00    -0.054 A 
ATOM     46  CAU I76 d   1       2.629  15.880  66.093  0.00  0.00     0.034 A 
ATOM     47  H19 I76 d   1       3.929  16.013  64.379  0.00  0.00     0.087 H 
ATOM     48 CLD  I76 d   1       1.321  16.641  65.272  0.00  0.00    -0.084 Cl
ATOM     49  CAF I76 d   1       2.461  15.482  67.410  0.00  0.00    -0.062 A 
ATOM     50  CAE I76 d   1       3.526  14.871  68.074  0.00  0.00    -0.081 A 
ATOM     51  H20 I76 d   1       1.516  15.643  67.917  0.00  0.00     0.086 H 
ATOM     52  CAG I76 d   1       4.712  14.680  67.398  0.00  0.00    -0.075 A 
ATOM     53  H21 I76 d   1       3.422  14.552  69.105  0.00  0.00     0.083 H 
ATOM     54  H22 I76 d   1       5.540  14.213  67.919  0.00  0.00     0.084 H 
ENDBRANCH  41  44
ENDBRANCH  40  41
ENDBRANCH  10  40
TORSDOF 8
