REMARK  7 active torsions:
REMARK  status: ('A' for Active; 'I' for Inactive)
REMARK    1  A    between atoms: CAY_6  and  CAL_7 
REMARK    2  A    between atoms: CAL_7  and  NAZ_8 
REMARK    3  A    between atoms: C6_14  and  NAC_15 
REMARK    4  A    between atoms: CAV_17  and  CAS_18 
REMARK    5  A    between atoms: CAR_20  and  CAB_21 
REMARK    6  A    between atoms: CAU_22  and  OAQ_23 
REMARK    7  A    between atoms: OAQ_23  and  CAA_24 
ROOT
ATOM      1  NAZ C88 d   1      26.068  15.171  30.845  0.00  0.00    -0.250 N 
ATOM      2  NAO C88 d   1      24.890  15.396  31.145  0.00  0.00    -0.169 NA
ATOM      3  C4  C88 d   1      26.331  13.859  30.849  0.00  0.00     0.163 A 
ATOM      4  N3  C88 d   1      27.444  13.132  30.617  0.00  0.00    -0.222 NA
ATOM      5  C2  C88 d   1      27.404  11.808  30.671  0.00  0.00     0.091 A 
ATOM      6  N1  C88 d   1      26.283  11.154  30.969  0.00  0.00    -0.224 NA
ATOM      7  C6  C88 d   1      25.143  11.816  31.234  0.00  0.00     0.139 A 
ATOM      8  C5  C88 d   1      25.140  13.214  31.181  0.00  0.00     0.088 A 
ATOM      9  CAV C88 d   1      24.219  14.255  31.345  0.00  0.00     0.105 A 
ATOM     10  H14 C88 d   1      28.307  11.243  30.467  0.00  0.00     0.146 H 
ENDROOT
BRANCH   1  11
ATOM     11  CAL C88 d   1      27.048  16.267  30.613  0.00  0.00     0.022 C 
ATOM     12  H12 C88 d   1      26.532  17.216  30.823  0.00  0.00     0.068 H 
ATOM     13  H13 C88 d   1      27.869  16.129  31.332  0.00  0.00     0.068 H 
BRANCH  11  14
ATOM     14  CAY C88 d   1      27.681  16.391  29.217  0.00  0.00    -0.034 C 
ATOM     15  CAJ C88 d   1      28.817  17.432  29.305  0.00  0.00    -0.038 C 
ATOM     16  CAH C88 d   1      29.339  17.846  27.922  0.00  0.00     0.082 C 
ATOM     17  H1  C88 d   1      28.438  18.326  29.822  0.00  0.00     0.036 H 
ATOM     18  H2  C88 d   1      29.648  17.000  29.882  0.00  0.00     0.036 H 
ATOM     19  NAP C88 d   1      28.227  18.428  27.163  0.00  0.00    -0.075 N 
ATOM     20  H3  C88 d   1      29.729  16.964  27.393  0.00  0.00     0.075 H 
ATOM     21  H4  C88 d   1      30.141  18.590  28.035  0.00  0.00     0.075 H 
ATOM     22  CAI C88 d   1      27.220  17.386  26.892  0.00  0.00     0.082 C 
ATOM     23  H5  C88 d   1      28.572  18.797  26.291  0.00  0.00     0.277 HD
ATOM     24  H6  C88 d   1      27.806  19.171  27.699  0.00  0.00     0.277 HD
ATOM     25  CAK C88 d   1      26.614  16.870  28.215  0.00  0.00    -0.038 C 
ATOM     26  H7  C88 d   1      27.697  16.549  26.361  0.00  0.00     0.075 H 
ATOM     27  H8  C88 d   1      26.420  17.808  26.267  0.00  0.00     0.075 H 
ATOM     28  H9  C88 d   1      25.942  16.029  27.989  0.00  0.00     0.036 H 
ATOM     29  H10 C88 d   1      26.038  17.685  28.678  0.00  0.00     0.036 H 
ATOM     30  H11 C88 d   1      28.084  15.419  28.896  0.00  0.00     0.042 H 
ENDBRANCH  11  14
ENDBRANCH   1  11
BRANCH   9  31
ATOM     31  CAS C88 d   1      22.877  14.198  31.733  0.00  0.00    -0.004 A 
ATOM     32  CAG C88 d   1      22.512  13.463  32.874  0.00  0.00    -0.062 A 
ATOM     33  CAR C88 d   1      21.189  13.451  33.325  0.00  0.00    -0.028 A 
ATOM     34  H17 C88 d   1      23.266  12.899  33.411  0.00  0.00     0.085 H 
ATOM     35  CAU C88 d   1      20.224  14.200  32.657  0.00  0.00     0.074 A 
ATOM     36  CAE C88 d   1      20.579  14.961  31.531  0.00  0.00    -0.049 A 
ATOM     37  CAD C88 d   1      21.904  14.970  31.089  0.00  0.00    -0.068 A 
ATOM     38  H24 C88 d   1      19.827  15.540  31.007  0.00  0.00     0.087 H 
ATOM     39  H25 C88 d   1      22.181  15.582  30.238  0.00  0.00     0.085 H 
BRANCH  33  40
ATOM     40  CAB C88 d   1      20.784  12.615  34.533  0.00  0.00    -0.049 C 
ATOM     41  H18 C88 d   1      21.667  12.094  34.931  0.00  0.00     0.033 H 
ATOM     42  H19 C88 d   1      20.028  11.876  34.230  0.00  0.00     0.033 H 
ATOM     43  H20 C88 d   1      20.365  13.272  35.309  0.00  0.00     0.033 H 
ENDBRANCH  33  40
BRANCH  35  44
ATOM     44  OAQ C88 d   1      18.957  14.146  33.118  0.00  0.00    -0.355 OA
BRANCH  44  45
ATOM     45  CAA C88 d   1      18.001  15.035  32.503  0.00  0.00     0.010 C 
ATOM     46  H21 C88 d   1      17.015  14.891  32.968  0.00  0.00     0.066 H 
ATOM     47  H22 C88 d   1      17.935  14.815  31.427  0.00  0.00     0.066 H 
ATOM     48  H23 C88 d   1      18.325  16.077  32.645  0.00  0.00     0.066 H 
ENDBRANCH  44  45
ENDBRANCH  35  44
ENDBRANCH   9  31
BRANCH   7  49
ATOM     49  NAC C88 d   1      24.047  11.118  31.528  0.00  0.00    -0.383 N 
ATOM     50  H15 C88 d   1      23.164  11.607  31.734  0.00  0.00     0.157 HD
ATOM     51  H16 C88 d   1      24.082  10.089  31.549  0.00  0.00     0.157 HD
ENDBRANCH   7  49
TORSDOF 7
