REMARK  13 active torsions:
REMARK  status: ('A' for Active; 'I' for Inactive)
REMARK    1  A    between atoms: CAB_1  and  CBB_2 
REMARK    2  A    between atoms: CBB_2  and  CAC_3 
REMARK    3  A    between atoms: CBB_2  and  CBC_4 
REMARK    4  A    between atoms: CBC_4  and  NBD_5 
REMARK    5  A    between atoms: CBC_4  and  CAO_8 
REMARK    6  A    between atoms: NBD_5  and  CAD_6 
REMARK    7  A    between atoms: NBD_5  and  CAE_7 
REMARK    8  A    between atoms: CAO_8  and  NBE_9 
REMARK    9  A    between atoms: C6_15  and  NAF_16 
REMARK   10  A    between atoms: CAW_18  and  CAU_19 
REMARK   11  A    between atoms: CAT_28  and  OAS_29 
REMARK   12  A    between atoms: OAS_29  and  CAN_30 
REMARK   13  A    between atoms: CAN_30  and  CAA_31 
ROOT
ATOM      1  NBE UW9 d   1      17.554  15.457  63.168  0.00  0.00    -0.249 N 
ATOM      2  NAR UW9 d   1      16.397  15.835  63.400  0.00  0.00    -0.169 NA
ATOM      3  C4  UW9 d   1      17.653  14.139  63.127  0.00  0.00     0.164 A 
ATOM      4  N3  UW9 d   1      18.693  13.318  62.903  0.00  0.00    -0.222 NA
ATOM      5  C2  UW9 d   1      18.500  12.015  62.943  0.00  0.00     0.091 A 
ATOM      6  N1  UW9 d   1      17.291  11.489  63.174  0.00  0.00    -0.224 NA
ATOM      7  C6  UW9 d   1      16.216  12.258  63.398  0.00  0.00     0.139 A 
ATOM      8  C5  UW9 d   1      16.375  13.647  63.383  0.00  0.00     0.088 A 
ATOM      9  CAW UW9 d   1      15.588  14.796  63.559  0.00  0.00     0.105 A 
ATOM     10  H18 UW9 d   1      19.343  11.352  62.785  0.00  0.00     0.146 H 
ENDROOT
BRANCH   1  11
ATOM     11  CAO UW9 d   1      18.704  16.358  62.947  0.00  0.00     0.046 C 
ATOM     12  H16 UW9 d   1      18.756  17.079  63.776  0.00  0.00     0.070 H 
ATOM     13  H17 UW9 d   1      19.626  15.759  62.923  0.00  0.00     0.070 H 
BRANCH  11  14
ATOM     14  CBC UW9 d   1      18.575  17.138  61.610  0.00  0.00     0.123 C 
ATOM     15  H8  UW9 d   1      17.633  16.808  61.147  0.00  0.00     0.087 H 
BRANCH  14  16
ATOM     16  CBB UW9 d   1      19.703  16.774  60.630  0.00  0.00    -0.032 C 
ATOM     17  H4  UW9 d   1      19.617  17.449  59.765  0.00  0.00     0.042 H 
BRANCH  16  18
ATOM     18  CAB UW9 d   1      21.111  16.965  61.217  0.00  0.00    -0.071 C 
ATOM     19  H1  UW9 d   1      21.863  16.687  60.464  0.00  0.00     0.028 H 
ATOM     20  H2  UW9 d   1      21.228  16.326  62.105  0.00  0.00     0.028 H 
ATOM     21  H3  UW9 d   1      21.250  18.018  61.502  0.00  0.00     0.028 H 
ENDBRANCH  16  18
BRANCH  16  22
ATOM     22  CAC UW9 d   1      19.511  15.340  60.129  0.00  0.00    -0.071 C 
ATOM     23  H5  UW9 d   1      18.498  15.229  59.715  0.00  0.00     0.028 H 
ATOM     24  H6  UW9 d   1      19.644  14.638  60.966  0.00  0.00     0.028 H 
ATOM     25  H7  UW9 d   1      20.253  15.122  59.347  0.00  0.00     0.028 H 
ENDBRANCH  16  22
ENDBRANCH  14  16
BRANCH  14  26
ATOM     26  NBD UW9 d   1      18.460  18.610  61.795  0.00  0.00    -0.073 N 
ATOM     27  H9  UW9 d   1      18.619  19.054  60.904  0.00  0.00     0.279 HD
BRANCH  26  28
ATOM     28  CAD UW9 d   1      19.437  19.139  62.762  0.00  0.00     0.066 C 
ATOM     29  H10 UW9 d   1      19.306  20.227  62.858  0.00  0.00     0.068 H 
ATOM     30  H11 UW9 d   1      20.456  18.922  62.409  0.00  0.00     0.068 H 
ATOM     31  H12 UW9 d   1      19.279  18.663  63.741  0.00  0.00     0.068 H 
ENDBRANCH  26  28
BRANCH  26  32
ATOM     32  CAE UW9 d   1      17.109  18.944  62.265  0.00  0.00     0.066 C 
ATOM     33  H13 UW9 d   1      16.366  18.555  61.553  0.00  0.00     0.068 H 
ATOM     34  H14 UW9 d   1      17.007  20.037  62.341  0.00  0.00     0.068 H 
ATOM     35  H15 UW9 d   1      16.942  18.490  63.253  0.00  0.00     0.068 H 
ENDBRANCH  26  32
ENDBRANCH  14  26
ENDBRANCH  11  14
ENDBRANCH   1  11
BRANCH   9  36
ATOM     36  CAU UW9 d   1      14.230  14.841  63.852  0.00  0.00    -0.004 A 
ATOM     37  CAM UW9 d   1      13.711  14.178  64.964  0.00  0.00    -0.060 A 
ATOM     38  CAY UW9 d   1      12.350  14.248  65.268  0.00  0.00    -0.025 A 
ATOM     39  H21 UW9 d   1      14.373  13.601  65.600  0.00  0.00     0.086 H 
ATOM     40  CAX UW9 d   1      11.487  14.970  64.439  0.00  0.00    -0.023 A 
ATOM     41  CAI UW9 d   1      11.838  13.580  66.364  0.00  0.00    -0.070 A 
ATOM     42  CAJ UW9 d   1      12.004  15.647  63.352  0.00  0.00    -0.071 A 
ATOM     43  CAL UW9 d   1      10.144  15.036  64.714  0.00  0.00    -0.040 A 
ATOM     44  CAH UW9 d   1      13.369  15.582  63.064  0.00  0.00    -0.070 A 
ATOM     45  H23 UW9 d   1      11.347  16.232  62.719  0.00  0.00     0.084 H 
ATOM     46  H22 UW9 d   1      13.760  16.121  62.209  0.00  0.00     0.084 H 
ATOM     47  CAT UW9 d   1       9.626  14.355  65.813  0.00  0.00     0.069 A 
ATOM     48  H24 UW9 d   1       9.487  15.617  64.077  0.00  0.00     0.089 H 
ATOM     49  CAG UW9 d   1      10.487  13.634  66.638  0.00  0.00    -0.050 A 
ATOM     50  H26 UW9 d   1      10.092  13.111  67.502  0.00  0.00     0.087 H 
ATOM     51  H25 UW9 d   1      12.499  13.013  67.009  0.00  0.00     0.085 H 
BRANCH  47  52
ATOM     52  OAS UW9 d   1       8.277  14.380  66.100  0.00  0.00    -0.351 OA
BRANCH  52  53
ATOM     53  CAN UW9 d   1       7.509  15.010  65.053  0.00  0.00     0.023 C 
ATOM     54  H27 UW9 d   1       7.865  14.681  64.066  0.00  0.00     0.074 H 
ATOM     55  H28 UW9 d   1       7.588  16.105  65.125  0.00  0.00     0.074 H 
BRANCH  53  56
ATOM     56  CAA UW9 d   1       6.044  14.559  65.276  0.00  0.00    -0.056 C 
ATOM     57  H29 UW9 d   1       5.401  15.008  64.505  0.00  0.00     0.030 H 
ATOM     58  H30 UW9 d   1       5.707  14.886  66.271  0.00  0.00     0.030 H 
ATOM     59  H31 UW9 d   1       5.984  13.463  65.211  0.00  0.00     0.030 H 
ENDBRANCH  53  56
ENDBRANCH  52  53
ENDBRANCH  47  52
ENDBRANCH   9  36
BRANCH   7  60
ATOM     60  NAF UW9 d   1      15.051  11.661  63.628  0.00  0.00    -0.383 N 
ATOM     61  H19 UW9 d   1      14.208  12.227  63.803  0.00  0.00     0.157 HD
ATOM     62  H20 UW9 d   1      14.991  10.633  63.631  0.00  0.00     0.157 HD
ENDBRANCH   7  60
TORSDOF 13
