REMARK  5 active torsions:
REMARK  status: ('A' for Active; 'I' for Inactive)
REMARK    1  A    between atoms: C3_3  and  N23_23 
REMARK    2  A    between atoms: N5_5  and  C21_21 
REMARK    3  A    between atoms: C6_6  and  C15_15 
REMARK    4  A    between atoms: C8_8  and  N24_24 
REMARK    5  A    between atoms: C21_21  and  C22_22 
ROOT
ATOM      1  C1   ET d   1     -31.384 -13.577  -0.969  0.00  0.00    -0.068 A 
ATOM      2  C2   ET d   1     -32.158 -14.700  -0.682  0.00  0.00    -0.057 A 
ATOM      3  C3   ET d   1     -33.287 -14.594   0.141  0.00  0.00     0.027 A 
ATOM      4  C4   ET d   1     -33.644 -13.361   0.686  0.00  0.00    -0.031 A 
ATOM      5  N5   ET d   1     -33.193 -10.976   0.945  0.00  0.00    -0.367 N 
ATOM      6  C6   ET d   1     -32.460  -9.868   0.700  0.00  0.00     0.064 A 
ATOM      7  C7   ET d   1     -30.550  -8.753  -0.405  0.00  0.00    -0.049 A 
ATOM      8  C8   ET d   1     -29.414  -8.796  -1.220  0.00  0.00     0.026 A 
ATOM      9  C9   ET d   1     -29.015 -10.020  -1.792  0.00  0.00    -0.057 A 
ATOM     10  C10  ET d   1     -29.757 -11.179  -1.544  0.00  0.00    -0.069 A 
ATOM     11  C11  ET d   1     -31.301  -9.934  -0.153  0.00  0.00    -0.018 A 
ATOM     12  C12  ET d   1     -30.911 -11.132  -0.717  0.00  0.00    -0.015 A 
ATOM     13  C13  ET d   1     -31.735 -12.319  -0.414  0.00  0.00     0.001 A 
ATOM     14  C14  ET d   1     -32.843 -12.209   0.399  0.00  0.00     0.044 A 
ATOM     15  H1   ET d   1     -30.517 -13.664  -1.614  0.00  0.00     0.085 H 
ATOM     16  H2   ET d   1     -31.884 -15.663  -1.099  0.00  0.00     0.086 H 
ATOM     17  H3   ET d   1     -34.519 -13.275   1.320  0.00  0.00     0.090 H 
ATOM     18  H4   ET d   1     -31.843 -10.061   1.590  0.00  0.00     0.088 H 
ATOM     19  H5   ET d   1     -30.860  -7.813   0.037  0.00  0.00     0.087 H 
ATOM     20  H6   ET d   1     -28.135 -10.063  -2.423  0.00  0.00     0.086 H 
ATOM     21  H7   ET d   1     -29.449 -12.120  -1.986  0.00  0.00     0.085 H 
ENDROOT
BRANCH   6  22
ATOM     22  C15  ET d   1     -32.879  -8.547   1.241  0.00  0.00    -0.031 A 
ATOM     23  C16  ET d   1     -34.007  -7.997   0.622  0.00  0.00    -0.074 A 
ATOM     24  C17  ET d   1     -34.497  -6.753   1.021  0.00  0.00    -0.082 A 
ATOM     25  H8   ET d   1     -34.504  -8.541  -0.173  0.00  0.00     0.084 H 
ATOM     26  C18  ET d   1     -33.843  -6.057   2.036  0.00  0.00    -0.083 A 
ATOM     27  H9   ET d   1     -35.377  -6.333   0.547  0.00  0.00     0.083 H 
ATOM     28  C19  ET d   1     -32.699  -6.614   2.618  0.00  0.00    -0.082 A 
ATOM     29  H10  ET d   1     -34.216  -5.096   2.370  0.00  0.00     0.083 H 
ATOM     30  C20  ET d   1     -32.204  -7.853   2.241  0.00  0.00    -0.074 A 
ATOM     31  H11  ET d   1     -32.181  -6.057   3.391  0.00  0.00     0.083 H 
ATOM     32  H12  ET d   1     -31.319  -8.268   2.710  0.00  0.00     0.084 H 
ENDBRANCH   6  22
BRANCH   5  33
ATOM     33  C21  ET d   1     -34.357 -10.885   1.788  0.00  0.00    -0.007 C 
ATOM     34  H13  ET d   1     -34.258  -9.959   2.373  0.00  0.00     0.063 H 
ATOM     35  H14  ET d   1     -34.331 -11.751   2.466  0.00  0.00     0.063 H 
BRANCH  33  36
ATOM     36  C22  ET d   1     -35.711 -10.862   1.163  0.00  0.00    -0.061 C 
ATOM     37  H15  ET d   1     -36.477 -10.790   1.950  0.00  0.00     0.029 H 
ATOM     38  H16  ET d   1     -35.864 -11.786   0.586  0.00  0.00     0.029 H 
ATOM     39  H17  ET d   1     -35.791  -9.993   0.493  0.00  0.00     0.029 H 
ENDBRANCH  33  36
ENDBRANCH   5  33
BRANCH   8  40
ATOM     40  N24  ET d   1     -28.664  -7.592  -1.458  0.00  0.00    -0.399 N 
ATOM     41  H20  ET d   1     -28.967  -6.704  -1.033  0.00  0.00     0.156 HD
ATOM     42  H21  ET d   1     -27.824  -7.618  -2.053  0.00  0.00     0.156 HD
ENDBRANCH   8  40
BRANCH   3  43
ATOM     43  N23  ET d   1     -34.065 -15.767   0.414  0.00  0.00    -0.399 N 
ATOM     44  H18  ET d   1     -33.792 -16.672   0.006  0.00  0.00     0.156 HD
ATOM     45  H19  ET d   1     -34.897 -15.704   1.018  0.00  0.00     0.156 HD
ENDBRANCH   3  43
TORSDOF 5
