REMARK  10 active torsions:
REMARK  status: ('A' for Active; 'I' for Inactive)
REMARK    1  A    between atoms: CAB_1  and  OAR_2 
REMARK    2  A    between atoms: OAR_2  and  CAX_3 
REMARK    3  A    between atoms: CAW_5  and  OAQ_6 
REMARK    4  A    between atoms: OAQ_6  and  CAA_7 
REMARK    5  A    between atoms: CAT_10  and  CAO_11 
REMARK    6  A    between atoms: CAO_11  and  CAN_12 
REMARK    7  A    between atoms: CAN_12  and  NAP_13 
REMARK       I    between atoms: NAP_13  and  CAS_14 
REMARK    8  A    between atoms: CAS_14  and  CAU_16 
REMARK    9  A    between atoms: CAV_21  and  SAY_22 
REMARK   10  A    between atoms: SAY_22  and  NAC_25 
ROOT
ATOM      1  CAN D7A d   1      19.103   8.901  13.109  0.00  0.00    -0.001 C 
ATOM      2  H12 D7A d   1      19.992   8.723  12.486  0.00  0.00     0.064 H 
ATOM      3  H13 D7A d   1      18.329   9.401  12.509  0.00  0.00     0.064 H 
ENDROOT
BRANCH   1   4
ATOM      4  CAO D7A d   1      19.480   9.787  14.285  0.00  0.00    -0.026 C 
ATOM      5  H10 D7A d   1      18.639   9.793  14.993  0.00  0.00     0.042 H 
ATOM      6  H11 D7A d   1      20.366   9.353  14.772  0.00  0.00     0.042 H 
BRANCH   4   7
ATOM      7  CAT D7A d   1      19.777  11.124  13.942  0.00  0.00    -0.054 A 
ATOM      8  CAM D7A d   1      20.668  11.888  14.678  0.00  0.00    -0.042 A 
ATOM      9  CAX D7A d   1      20.848  13.233  14.374  0.00  0.00     0.102 A 
ATOM     10  H4  D7A d   1      21.225  11.437  15.491  0.00  0.00     0.088 H 
ATOM     11  CAW D7A d   1      20.152  13.875  13.347  0.00  0.00     0.101 A 
ATOM     12  CAL D7A d   1      19.277  13.110  12.600  0.00  0.00    -0.048 A 
ATOM     13  CAG D7A d   1      19.112  11.771  12.898  0.00  0.00    -0.074 A 
ATOM     14  H8  D7A d   1      18.722  13.558  11.784  0.00  0.00     0.087 H 
ATOM     15  H9  D7A d   1      18.429  11.191  12.288  0.00  0.00     0.084 H 
BRANCH   9  16
ATOM     16  OAR D7A d   1      21.692  14.042  15.016  0.00  0.00    -0.353 OA
BRANCH  16  17
ATOM     17  CAB D7A d   1      23.050  13.590  14.990  0.00  0.00     0.010 C 
ATOM     18  H1  D7A d   1      23.684  14.303  15.536  0.00  0.00     0.066 H 
ATOM     19  H2  D7A d   1      23.393  13.518  13.947  0.00  0.00     0.066 H 
ATOM     20  H3  D7A d   1      23.116  12.601  15.467  0.00  0.00     0.066 H 
ENDBRANCH  16  17
ENDBRANCH   9  16
BRANCH  11  21
ATOM     21  OAQ D7A d   1      20.376  15.181  13.246  0.00  0.00    -0.353 OA
BRANCH  21  22
ATOM     22  CAA D7A d   1      20.321  15.780  11.958  0.00  0.00     0.010 C 
ATOM     23  H5  D7A d   1      20.527  16.857  12.045  0.00  0.00     0.066 H 
ATOM     24  H6  D7A d   1      19.320  15.632  11.527  0.00  0.00     0.066 H 
ATOM     25  H7  D7A d   1      21.073  15.314  11.305  0.00  0.00     0.066 H 
ENDBRANCH  21  22
ENDBRANCH  11  21
ENDBRANCH   4   7
ENDBRANCH   1   4
BRANCH   1  26
ATOM     26  NAP D7A d   1      18.578   7.596  13.608  0.00  0.00    -0.357 N 
ATOM     27  CAS D7A d   1      17.283   7.457  13.896  0.00  0.00     0.251 C 
ATOM     28  OAD D7A d   1      16.499   8.417  13.674  0.00  0.00    -0.268 OA
ATOM     29  H14 D7A d   1      19.200   6.822  13.727  0.00  0.00     0.162 HD
BRANCH  27  30
ATOM     30  CAU D7A d   1      16.784   6.269  14.500  0.00  0.00     0.032 A 
ATOM     31  CAI D7A d   1      15.448   6.174  14.823  0.00  0.00    -0.066 A 
ATOM     32  CAK D7A d   1      14.959   5.050  15.488  0.00  0.00    -0.059 A 
ATOM     33  H15 D7A d   1      14.772   6.979  14.558  0.00  0.00     0.085 H 
ATOM     34  CAV D7A d   1      15.771   3.994  15.827  0.00  0.00     0.079 A 
ATOM     35  H16 D7A d   1      13.907   5.008  15.745  0.00  0.00     0.085 H 
ATOM     36  CAJ D7A d   1      17.124   4.042  15.480  0.00  0.00    -0.059 A 
ATOM     37  CAH D7A d   1      17.622   5.191  14.807  0.00  0.00    -0.066 A 
ATOM     38  H18 D7A d   1      17.784   3.216  15.720  0.00  0.00     0.085 H 
ATOM     39  H17 D7A d   1      18.668   5.233  14.527  0.00  0.00     0.085 H 
BRANCH  34  40
ATOM     40  SAY D7A d   1      15.159   2.604  16.734  0.00  0.00     0.256 S 
ATOM     41  OAE D7A d   1      15.731   2.749  18.086  0.00  0.00    -0.201 OA
ATOM     42  OAF D7A d   1      13.711   2.677  16.638  0.00  0.00    -0.201 OA
BRANCH  40  43
ATOM     43  NAC D7A d   1      15.689   1.254  16.046  0.00  0.00    -0.324 N 
ATOM     44  H19 D7A d   1      15.438   0.365  16.430  0.00  0.00     0.169 HD
ATOM     45  H20 D7A d   1      16.270   1.302  15.233  0.00  0.00     0.169 HD
ENDBRANCH  40  43
ENDBRANCH  34  40
ENDBRANCH  27  30
ENDBRANCH   1  26
TORSDOF 10
