REMARK  9 active torsions:
REMARK  status: ('A' for Active; 'I' for Inactive)
REMARK    1  A    between atoms: C1_1  and  S1_12 
REMARK    2  A    between atoms: C2_2  and  O2_3 
REMARK    3  A    between atoms: C3_4  and  O3_5 
REMARK    4  A    between atoms: C4_6  and  O4_7 
REMARK    5  A    between atoms: C5_8  and  C6_10 
REMARK    6  A    between atoms: C6_10  and  O6_11 
REMARK    7  A    between atoms: S1_12  and  C1'_13 
REMARK    8  A    between atoms: C1'_13  and  C2'_14 
REMARK    9  A    between atoms: C1'_13  and  C3'_15 
ROOT
ATOM      1  C1  IPT d   1     -14.700 -27.538 -26.277  0.00  0.00     0.110 C 
ATOM      2  C2  IPT d   1     -13.387 -27.371 -25.497  0.00  0.00     0.096 C 
ATOM      3  C3  IPT d   1     -12.156 -27.263 -26.407  0.00  0.00     0.090 C 
ATOM      4  C4  IPT d   1     -12.174 -28.317 -27.513  0.00  0.00     0.089 C 
ATOM      5  C5  IPT d   1     -13.546 -28.310 -28.197  0.00  0.00     0.087 C 
ATOM      6  O5  IPT d   1     -14.544 -28.594 -27.219  0.00  0.00    -0.363 OA
ATOM      7  H1  IPT d   1     -14.940 -26.601 -26.801  0.00  0.00     0.104 H 
ATOM      8  H2  IPT d   1     -13.260 -28.247 -24.844  0.00  0.00     0.092 H 
ATOM      9  H4  IPT d   1     -12.170 -26.271 -26.883  0.00  0.00     0.091 H 
ATOM     10  H6  IPT d   1     -11.401 -28.078 -28.258  0.00  0.00     0.091 H 
ATOM     11  H8  IPT d   1     -13.711 -27.302 -28.605  0.00  0.00     0.090 H 
ENDROOT
BRANCH   1  12
ATOM     12  S1  IPT d   1     -16.016 -27.953 -25.172  0.00  0.00    -0.131 SA
BRANCH  12  13
ATOM     13  C1' IPT d   1     -17.596 -28.297 -25.916  0.00  0.00    -0.014 C 
ATOM     14  H12 IPT d   1     -17.879 -29.318 -25.621  0.00  0.00     0.055 H 
BRANCH  13  15
ATOM     15  C2' IPT d   1     -18.638 -27.341 -25.354  0.00  0.00    -0.065 C 
ATOM     16  H13 IPT d   1     -19.615 -27.552 -25.813  0.00  0.00     0.028 H 
ATOM     17  H14 IPT d   1     -18.344 -26.305 -25.578  0.00  0.00     0.028 H 
ATOM     18  H15 IPT d   1     -18.708 -27.474 -24.264  0.00  0.00     0.028 H 
ENDBRANCH  13  15
BRANCH  13  19
ATOM     19  C3' IPT d   1     -17.595 -28.258 -27.444  0.00  0.00    -0.065 C 
ATOM     20  H16 IPT d   1     -18.606 -28.481 -27.817  0.00  0.00     0.028 H 
ATOM     21  H17 IPT d   1     -16.888 -29.008 -27.829  0.00  0.00     0.028 H 
ATOM     22  H18 IPT d   1     -17.290 -27.258 -27.785  0.00  0.00     0.028 H 
ENDBRANCH  13  19
ENDBRANCH  12  13
ENDBRANCH   1  12
BRANCH   2  23
ATOM     23  O2  IPT d   1     -13.464 -26.197 -24.696  0.00  0.00    -0.389 OA
ATOM     24  H3  IPT d   1     -12.653 -26.091 -24.212  0.00  0.00     0.210 HD
ENDBRANCH   2  23
BRANCH   3  25
ATOM     25  O3  IPT d   1     -10.952 -27.373 -25.627  0.00  0.00    -0.390 OA
ATOM     26  H5  IPT d   1     -10.939 -28.213 -25.183  0.00  0.00     0.210 HD
ENDBRANCH   3  25
BRANCH   5  27
ATOM     27  C6  IPT d   1     -13.724 -29.310 -29.332  0.00  0.00     0.043 C 
ATOM     28  H9  IPT d   1     -14.658 -29.081 -29.866  0.00  0.00     0.078 H 
ATOM     29  H10 IPT d   1     -13.783 -30.323 -28.909  0.00  0.00     0.078 H 
BRANCH  27  30
ATOM     30  O6  IPT d   1     -12.634 -29.257 -30.258  0.00  0.00    -0.398 OA
ATOM     31  H11 IPT d   1     -12.580 -28.385 -30.632  0.00  0.00     0.209 HD
ENDBRANCH  27  30
ENDBRANCH   5  27
BRANCH   4  32
ATOM     32  O4  IPT d   1     -11.892 -29.599 -26.941  0.00  0.00    -0.390 OA
ATOM     33  H7  IPT d   1     -11.902 -30.259 -27.625  0.00  0.00     0.210 HD
ENDBRANCH   4  32
TORSDOF 9
