REMARK  5 active torsions:
REMARK  status: ('A' for Active; 'I' for Inactive)
REMARK    1  A    between atoms: C2_2  and  O2_8 
REMARK    2  A    between atoms: C3_3  and  O3_9 
REMARK    3  A    between atoms: C4_4  and  O4_10 
REMARK    4  A    between atoms: C5_5  and  C6_6 
REMARK    5  A    between atoms: C6_6  and  O6_12 
ROOT
ATOM      1  C1  149 d   1     -11.271 -26.976 -25.678  0.00  0.00     0.291 C 
ATOM      2  C2  149 d   1     -10.311 -28.018 -25.171  0.00  0.00     0.146 C 
ATOM      3  C3  149 d   1      -9.588 -28.657 -26.342  0.00  0.00     0.096 C 
ATOM      4  C4  149 d   1     -10.584 -29.070 -27.430  0.00  0.00     0.090 C 
ATOM      5  C5  149 d   1     -11.261 -27.841 -28.029  0.00  0.00     0.095 C 
ATOM      6  O1  149 d   1     -11.640 -26.074 -24.951  0.00  0.00    -0.262 OA
ATOM      7  O5  149 d   1     -11.823 -26.990 -27.027  0.00  0.00    -0.309 OA
ATOM      8  H1  149 d   1     -10.879 -28.787 -24.627  0.00  0.00     0.103 H 
ATOM      9  H2  149 d   1      -8.888 -27.926 -26.774  0.00  0.00     0.091 H 
ATOM     10  H3  149 d   1     -10.033 -29.600 -28.221  0.00  0.00     0.091 H 
ATOM     11  H4  149 d   1     -10.509 -27.278 -28.602  0.00  0.00     0.091 H 
ENDROOT
BRANCH   5  12
ATOM     12  C6  149 d   1     -12.408 -28.236 -28.950  0.00  0.00     0.044 C 
ATOM     13  H5  149 d   1     -13.007 -27.344 -29.187  0.00  0.00     0.078 H 
ATOM     14  H6  149 d   1     -13.041 -28.979 -28.443  0.00  0.00     0.078 H 
BRANCH  12  15
ATOM     15  O6  149 d   1     -11.901 -28.799 -30.163  0.00  0.00    -0.398 OA
ATOM     16  H10 149 d   1     -11.355 -28.159 -30.604  0.00  0.00     0.209 HD
ENDBRANCH  12  15
ENDBRANCH   5  12
BRANCH   4  17
ATOM     17  O4  149 d   1     -11.606 -29.933 -26.920  0.00  0.00    -0.390 OA
ATOM     18  H9  149 d   1     -12.185 -30.189 -27.628  0.00  0.00     0.210 HD
ENDBRANCH   4  17
BRANCH   3  19
ATOM     19  O3  149 d   1      -8.841 -29.775 -25.849  0.00  0.00    -0.390 OA
ATOM     20  H8  149 d   1      -8.236 -29.480 -25.178  0.00  0.00     0.210 HD
ENDBRANCH   3  19
BRANCH   2  21
ATOM     21  O2  149 d   1      -9.331 -27.454 -24.293  0.00  0.00    -0.383 OA
ATOM     22  H7  149 d   1      -8.826 -26.800 -24.762  0.00  0.00     0.210 HD
ENDBRANCH   2  21
TORSDOF 5
