REMARK  6 active torsions:
REMARK  status: ('A' for Active; 'I' for Inactive)
REMARK    1  A    between atoms: CAL_2  and  CAN_4 
REMARK    2  A    between atoms: CAN_4  and  OAK_7 
REMARK    3  A    between atoms: CAG_5  and  CAA_6 
REMARK    4  A    between atoms: OAK_7  and  CAP_8 
REMARK    5  A    between atoms: CAO_12  and  OAF_13 
REMARK    6  A    between atoms: CAQ_14  and  CAM_15 
ROOT
ATOM      1  CAP 0GA d   1      -3.743   0.594  30.685  0.00  0.00     0.079 C 
ATOM      2  CAI 0GA d   1      -2.531   0.319  31.216  0.00  0.00    -0.072 C 
ATOM      3  CAH 0GA d   1      -1.433  -0.190  30.398  0.00  0.00    -0.046 C 
ATOM      4  CAJ 0GA d   1      -1.758  -0.704  29.153  0.00  0.00    -0.047 C 
ATOM      5  CAO 0GA d   1      -4.124   0.073  29.345  0.00  0.00     0.094 C 
ATOM      6  CAQ 0GA d   1      -2.929  -0.088  28.431  0.00  0.00     0.061 C 
ATOM      7  H5  0GA d   1      -2.369   0.481  32.281  0.00  0.00     0.080 H 
ATOM      8  H6  0GA d   1      -0.939  -0.991  30.968  0.00  0.00     0.038 H 
ATOM      9  H7  0GA d   1      -0.726   0.638  30.240  0.00  0.00     0.038 H 
ATOM     10  H8  0GA d   1      -1.978  -1.774  29.285  0.00  0.00     0.034 H 
ATOM     11  H9  0GA d   1      -0.875  -0.588  28.508  0.00  0.00     0.034 H 
ATOM     12  H10 0GA d   1      -4.516  -0.940  29.518  0.00  0.00     0.095 H 
ATOM     13  H12 0GA d   1      -2.582   0.940  28.250  0.00  0.00     0.061 H 
ENDROOT
BRANCH   1  14
ATOM     14  OAK 0GA d   1      -4.817   1.329  31.339  0.00  0.00    -0.306 OA
BRANCH  14  15
ATOM     15  CAN 0GA d   1      -4.642   1.625  32.766  0.00  0.00     0.147 C 
ATOM     16  CAG 0GA d   1      -4.680   2.933  33.105  0.00  0.00    -0.067 C 
ATOM     17  H1  0GA d   1      -4.583   3.257  34.140  0.00  0.00     0.080 H 
BRANCH  15  18
ATOM     18  CAL 0GA d   1      -4.418   0.516  33.732  0.00  0.00     0.234 C 
ATOM     19  OAD 0GA d   1      -4.526  -0.668  33.357  0.00  0.00    -0.642 OA
ATOM     20  OAB 0GA d   1      -3.934   0.758  34.851  0.00  0.00    -0.642 OA
ENDBRANCH  15  18
BRANCH  16  21
ATOM     21  CAA 0GA d   1      -4.863   3.919  31.984  0.00  0.00    -0.057 C 
ATOM     22  H2  0GA d   1      -4.877   4.940  32.392  0.00  0.00     0.032 H 
ATOM     23  H3  0GA d   1      -5.814   3.717  31.470  0.00  0.00     0.032 H 
ATOM     24  H4  0GA d   1      -4.032   3.821  31.270  0.00  0.00     0.032 H 
ENDBRANCH  16  21
ENDBRANCH  14  15
ENDBRANCH   1  14
BRANCH   5  25
ATOM     25  OAF 0GA d   1      -5.173   0.792  28.723  0.00  0.00    -0.388 OA
ATOM     26  H11 0GA d   1      -5.362   0.405  27.876  0.00  0.00     0.210 HD
ENDBRANCH   5  25
BRANCH   6  27
ATOM     27  CAM 0GA d   1      -3.343  -0.547  27.028  0.00  0.00     0.179 C 
ATOM     28  OAC 0GA d   1      -4.498  -0.204  26.591  0.00  0.00    -0.648 OA
ATOM     29  OAE 0GA d   1      -2.491  -1.191  26.389  0.00  0.00    -0.648 OA
ENDBRANCH   6  27
TORSDOF 6
