REMARK  15 active torsions:
REMARK  status: ('A' for Active; 'I' for Inactive)
REMARK    1  A    between atoms: O39_1  and  C40_2 
REMARK    2  A    between atoms: C2_3  and  O39_1 
REMARK    3  A    between atoms: S8_9  and  C5_6 
REMARK    4  A    between atoms: N11_12  and  S8_9 
REMARK    5  A    between atoms: N11_12  and  C12_13 
REMARK    6  A    between atoms: C16_20  and  N11_12 
REMARK    7  A    between atoms: C12_13  and  C13_14 
REMARK    8  A    between atoms: C17_21  and  C16_20 
REMARK    9  A    between atoms: C17_21  and  O18_22 
REMARK   10  A    between atoms: C19_23  and  C17_21 
REMARK   11  A    between atoms: C19_23  and  N20_24 
REMARK   12  A    between atoms: C32_36  and  C19_23 
REMARK       I    between atoms: N20_24  and  C21_25 
REMARK   13  A    between atoms: C21_25  and  O23_27 
REMARK   14  A    between atoms: O23_27  and  C25_29 
REMARK   15  A    between atoms: C38_42  and  C32_36 
ROOT
ATOM      1  C17 031 d   1     -13.814 -18.835  17.938  0.00  0.00     0.071 C 
ATOM      2  H18 031 d   1     -13.455 -19.255  18.889  0.00  0.00     0.088 H 
ENDROOT
BRANCH   1   3
ATOM      3  C16 031 d   1     -12.686 -17.988  17.376  0.00  0.00     0.031 C 
ATOM      4  H16 031 d   1     -12.933 -17.712  16.340  0.00  0.00     0.069 H 
ATOM      5  H17 031 d   1     -12.590 -17.077  17.985  0.00  0.00     0.069 H 
BRANCH   3   6
ATOM      6  N11 031 d   1     -11.412 -18.691  17.382  0.00  0.00    -0.302 N 
BRANCH   6   7
ATOM      7  S8  031 d   1     -10.702 -18.953  15.923  0.00  0.00     0.261 S 
ATOM      8  O9  031 d   1     -11.784 -19.080  14.943  0.00  0.00    -0.200 OA
ATOM      9  O10 031 d   1      -9.779 -20.087  16.105  0.00  0.00    -0.200 OA
BRANCH   7  10
ATOM     10  C5  031 d   1      -9.697 -17.576  15.500  0.00  0.00     0.079 A 
ATOM     11  C4  031 d   1      -8.351 -17.575  15.820  0.00  0.00    -0.058 A 
ATOM     12  C3  031 d   1      -7.583 -16.424  15.618  0.00  0.00    -0.049 A 
ATOM     13  H5  031 d   1      -7.891 -18.468  16.228  0.00  0.00     0.086 H 
ATOM     14  C2  031 d   1      -8.164 -15.295  15.074  0.00  0.00     0.068 A 
ATOM     15  H4  031 d   1      -6.533 -16.418  15.888  0.00  0.00     0.087 H 
ATOM     16  C7  031 d   1      -9.498 -15.350  14.645  0.00  0.00    -0.049 A 
ATOM     17  C6  031 d   1     -10.265 -16.462  14.923  0.00  0.00    -0.058 A 
ATOM     18  H7  031 d   1      -9.926 -14.519  14.095  0.00  0.00     0.087 H 
ATOM     19  H6  031 d   1     -11.323 -16.459  14.686  0.00  0.00     0.086 H 
BRANCH  14  20
ATOM     20  O39 031 d   1      -7.483 -14.143  14.848  0.00  0.00    -0.356 OA
BRANCH  20  21
ATOM     21  C40 031 d   1      -6.117 -14.183  15.161  0.00  0.00     0.010 C 
ATOM     22  H1  031 d   1      -5.662 -13.206  14.942  0.00  0.00     0.066 H 
ATOM     23  H2  031 d   1      -5.625 -14.960  14.557  0.00  0.00     0.066 H 
ATOM     24  H3  031 d   1      -5.992 -14.415  16.229  0.00  0.00     0.066 H 
ENDBRANCH  20  21
ENDBRANCH  14  20
ENDBRANCH   7  10
ENDBRANCH   6   7
BRANCH   6  25
ATOM     25  C12 031 d   1     -10.503 -18.383  18.478  0.00  0.00     0.024 C 
ATOM     26  H8  031 d   1     -10.403 -17.289  18.538  0.00  0.00     0.068 H 
ATOM     27  H9  031 d   1      -9.525 -18.828  18.242  0.00  0.00     0.068 H 
BRANCH  25  28
ATOM     28  C13 031 d   1     -10.927 -18.887  19.838  0.00  0.00     0.028 C 
ATOM     29  C14 031 d   1     -11.248 -20.377  19.953  0.00  0.00    -0.037 C 
ATOM     30  C47 031 d   1      -9.957 -20.982  20.522  0.00  0.00     0.011 C 
ATOM     31  H11 031 d   1     -11.481 -20.806  18.967  0.00  0.00     0.036 H 
ATOM     32  H12 031 d   1     -12.094 -20.545  20.635  0.00  0.00     0.036 H 
ATOM     33  C45 031 d   1      -9.267 -19.808  21.165  0.00  0.00     0.218 C 
ATOM     34  H14 031 d   1      -9.338 -21.410  19.720  0.00  0.00     0.047 H 
ATOM     35  H15 031 d   1     -10.183 -21.760  21.266  0.00  0.00     0.047 H 
ATOM     36  N15 031 d   1      -9.859 -18.677  20.845  0.00  0.00    -0.355 N 
ATOM     37  O46 031 d   1      -8.306 -19.958  21.931  0.00  0.00    -0.274 OA
ATOM     38  H13 031 d   1      -9.619 -17.787  21.233  0.00  0.00     0.162 HD
ATOM     39  H10 031 d   1     -11.822 -18.316  20.127  0.00  0.00     0.075 H 
ENDBRANCH  25  28
ENDBRANCH   6  25
ENDBRANCH   3   6
ENDBRANCH   1   3
BRANCH   1  40
ATOM     40  O18 031 d   1     -15.002 -18.060  18.211  0.00  0.00    -0.392 OA
ATOM     41  H19 031 d   1     -14.798 -17.383  18.846  0.00  0.00     0.210 HD
ENDBRANCH   1  40
BRANCH   1  42
ATOM     42  C19 031 d   1     -14.213 -19.995  17.039  0.00  0.00     0.044 C 
ATOM     43  H20 031 d   1     -13.294 -20.524  16.746  0.00  0.00     0.077 H 
BRANCH  42  44
ATOM     44  N20 031 d   1     -15.050 -20.914  17.771  0.00  0.00    -0.329 N 
ATOM     45  C21 031 d   1     -14.669 -22.110  18.221  0.00  0.00     0.361 C 
ATOM     46  O22 031 d   1     -13.497 -22.541  18.110  0.00  0.00    -0.238 OA
ATOM     47  H21 031 d   1     -15.991 -20.631  17.956  0.00  0.00     0.165 HD
BRANCH  45  48
ATOM     48  O23 031 d   1     -15.640 -22.776  18.855  0.00  0.00    -0.299 OA
BRANCH  48  49
ATOM     49  C25 031 d   1     -15.342 -24.160  19.136  0.00  0.00     0.052 C 
ATOM     50  C24 031 d   1     -15.413 -25.017  17.864  0.00  0.00    -0.034 C 
ATOM     51  C31 031 d   1     -16.839 -25.522  17.733  0.00  0.00    -0.025 C 
ATOM     52  H22 031 d   1     -14.720 -25.867  17.945  0.00  0.00     0.037 H 
ATOM     53  H23 031 d   1     -15.148 -24.409  16.986  0.00  0.00     0.037 H 
ATOM     54  C27 031 d   1     -17.598 -25.038  18.969  0.00  0.00     0.044 C 
ATOM     55  C30 031 d   1     -17.605 -24.936  16.578  0.00  0.00    -0.039 C 
ATOM     56  H32 031 d   1     -16.835 -26.620  17.664  0.00  0.00     0.044 H 
ATOM     57  C26 031 d   1     -16.516 -24.661  19.972  0.00  0.00    -0.016 C 
ATOM     58  O28 031 d   1     -18.369 -23.909  18.546  0.00  0.00    -0.385 OA
ATOM     59  H27 031 d   1     -18.254 -25.819  19.381  0.00  0.00     0.084 H 
ATOM     60  H25 031 d   1     -16.875 -23.868  20.645  0.00  0.00     0.040 H 
ATOM     61  H26 031 d   1     -16.219 -25.539  20.565  0.00  0.00     0.040 H 
ATOM     62  C29 031 d   1     -18.202 -23.665  17.142  0.00  0.00     0.021 C 
ATOM     63  H28 031 d   1     -17.523 -22.816  16.978  0.00  0.00     0.074 H 
ATOM     64  H29 031 d   1     -19.173 -23.454  16.670  0.00  0.00     0.074 H 
ATOM     65  H30 031 d   1     -16.933 -24.712  15.736  0.00  0.00     0.036 H 
ATOM     66  H31 031 d   1     -18.395 -25.624  16.244  0.00  0.00     0.036 H 
ATOM     67  H24 031 d   1     -14.373 -24.267  19.646  0.00  0.00     0.084 H 
ENDBRANCH  48  49
ENDBRANCH  45  48
ENDBRANCH  42  44
BRANCH  42  68
ATOM     68  C32 031 d   1     -14.921 -19.541  15.750  0.00  0.00    -0.020 C 
ATOM     69  H33 031 d   1     -14.256 -18.875  15.181  0.00  0.00     0.043 H 
ATOM     70  H34 031 d   1     -15.845 -19.003  16.009  0.00  0.00     0.043 H 
BRANCH  68  71
ATOM     71  C38 031 d   1     -15.266 -20.767  14.899  0.00  0.00    -0.056 A 
ATOM     72  C33 031 d   1     -16.554 -21.224  14.760  0.00  0.00    -0.077 A 
ATOM     73  C34 031 d   1     -16.909 -22.302  13.977  0.00  0.00    -0.082 A 
ATOM     74  H35 031 d   1     -17.339 -20.706  15.299  0.00  0.00     0.084 H 
ATOM     75  C35 031 d   1     -15.879 -23.036  13.366  0.00  0.00    -0.083 A 
ATOM     76  H36 031 d   1     -17.949 -22.574  13.838  0.00  0.00     0.083 H 
ATOM     77  C36 031 d   1     -14.572 -22.572  13.451  0.00  0.00    -0.082 A 
ATOM     78  H37 031 d   1     -16.101 -23.954  12.834  0.00  0.00     0.083 H 
ATOM     79  C37 031 d   1     -14.230 -21.453  14.222  0.00  0.00    -0.077 A 
ATOM     80  H38 031 d   1     -13.793 -23.091  12.904  0.00  0.00     0.083 H 
ATOM     81  H39 031 d   1     -13.200 -21.122  14.298  0.00  0.00     0.084 H 
ENDBRANCH  68  71
ENDBRANCH  42  68
ENDBRANCH   1  42
TORSDOF 15
