REMARK  15 active torsions:
REMARK  status: ('A' for Active; 'I' for Inactive)
REMARK    1  A    between atoms: O39_1  and  C40_2 
REMARK    2  A    between atoms: C2_3  and  O39_1 
REMARK    3  A    between atoms: S8_9  and  C5_6 
REMARK    4  A    between atoms: N11_12  and  S8_9 
REMARK    5  A    between atoms: N11_12  and  C12_13 
REMARK    6  A    between atoms: C16_20  and  N11_12 
REMARK    7  A    between atoms: C12_13  and  C13_14 
REMARK    8  A    between atoms: C17_21  and  C16_20 
REMARK    9  A    between atoms: C17_21  and  O18_22 
REMARK   10  A    between atoms: C19_23  and  C17_21 
REMARK   11  A    between atoms: C19_23  and  N20_24 
REMARK   12  A    between atoms: C32_36  and  C19_23 
REMARK       I    between atoms: N20_24  and  C21_25 
REMARK   13  A    between atoms: C21_25  and  O23_27 
REMARK   14  A    between atoms: O23_27  and  C25_29 
REMARK   15  A    between atoms: C38_42  and  C32_36 
ROOT
ATOM      1  C17 031 d   1      13.671  18.882  18.013  0.00  0.00     0.071 C 
ATOM      2  H18 031 d   1      13.273  19.324  18.939  0.00  0.00     0.088 H 
ENDROOT
BRANCH   1   3
ATOM      3  C16 031 d   1      12.616  17.941  17.367  0.00  0.00     0.031 C 
ATOM      4  H16 031 d   1      12.926  17.699  16.340  0.00  0.00     0.069 H 
ATOM      5  H17 031 d   1      12.546  17.015  17.956  0.00  0.00     0.069 H 
BRANCH   3   6
ATOM      6  N11 031 d   1      11.320  18.587  17.336  0.00  0.00    -0.302 N 
BRANCH   6   7
ATOM      7  S8  031 d   1      10.624  18.960  15.891  0.00  0.00     0.261 S 
ATOM      8  O9  031 d   1      11.735  19.063  14.876  0.00  0.00    -0.200 OA
ATOM      9  O10 031 d   1       9.741  20.100  16.082  0.00  0.00    -0.200 OA
BRANCH   7  10
ATOM     10  C5  031 d   1       9.622  17.573  15.434  0.00  0.00     0.079 C 
ATOM     11  C4  031 d   1       8.258  17.618  15.682  0.00  0.00    -0.058 C 
ATOM     12  C3  031 d   1       7.445  16.490  15.550  0.00  0.00    -0.049 C 
ATOM     13  H5  031 d   1       7.810  18.556  15.987  0.00  0.00     0.086 H 
ATOM     14  C2  031 d   1       8.021  15.354  14.989  0.00  0.00     0.068 C 
ATOM     15  H4  031 d   1       6.410  16.499  15.871  0.00  0.00     0.087 H 
ATOM     16  C7  031 d   1       9.347  15.355  14.585  0.00  0.00    -0.049 C 
ATOM     17  C6  031 d   1      10.167  16.449  14.869  0.00  0.00    -0.058 C 
ATOM     18  H7  031 d   1       9.749  14.504  14.047  0.00  0.00     0.087 H 
ATOM     19  H6  031 d   1      11.227  16.410  14.644  0.00  0.00     0.086 H 
BRANCH  14  20
ATOM     20  O39 031 d   1       7.365  14.199  14.743  0.00  0.00    -0.356 OA
BRANCH  20  21
ATOM     21  C40 031 d   1       6.001  14.234  15.157  0.00  0.00     0.010 C 
ATOM     22  H1  031 d   1       5.524  13.269  14.931  0.00  0.00     0.066 H 
ATOM     23  H2  031 d   1       5.475  15.037  14.620  0.00  0.00     0.066 H 
ATOM     24  H3  031 d   1       5.951  14.422  16.240  0.00  0.00     0.066 H 
ENDBRANCH  20  21
ENDBRANCH  14  20
ENDBRANCH   7  10
ENDBRANCH   6   7
BRANCH   6  25
ATOM     25  C12 031 d   1      10.426  18.180  18.372  0.00  0.00     0.024 C 
ATOM     26  H8  031 d   1      10.243  17.101  18.265  0.00  0.00     0.068 H 
ATOM     27  H9  031 d   1       9.480  18.727  18.246  0.00  0.00     0.068 H 
BRANCH  25  28
ATOM     28  C13 031 d   1      10.949  18.442  19.799  0.00  0.00     0.028 C 
ATOM     29  C14 031 d   1      10.940  19.918  20.194  0.00  0.00    -0.037 C 
ATOM     30  C47 031 d   1       9.533  20.087  20.771  0.00  0.00     0.011 C 
ATOM     31  H11 031 d   1      11.093  20.567  19.319  0.00  0.00     0.036 H 
ATOM     32  H12 031 d   1      11.710  20.134  20.950  0.00  0.00     0.036 H 
ATOM     33  C45 031 d   1       9.124  18.678  21.147  0.00  0.00     0.218 C 
ATOM     34  H14 031 d   1       8.849  20.506  20.018  0.00  0.00     0.047 H 
ATOM     35  H15 031 d   1       9.548  20.740  21.656  0.00  0.00     0.047 H 
ATOM     36  N15 031 d   1       9.971  17.794  20.679  0.00  0.00    -0.355 N 
ATOM     37  O46 031 d   1       8.141  18.347  21.807  0.00  0.00    -0.274 OA
ATOM     38  H13 031 d   1       9.953  16.817  20.892  0.00  0.00     0.162 HD
ATOM     39  H10 031 d   1      11.958  18.021  19.921  0.00  0.00     0.075 H 
ENDBRANCH  25  28
ENDBRANCH   6  25
ENDBRANCH   3   6
ENDBRANCH   1   3
BRANCH   1  40
ATOM     40  O18 031 d   1      14.769  18.029  18.312  0.00  0.00    -0.392 OA
ATOM     41  H19 031 d   1      15.089  17.634  17.510  0.00  0.00     0.210 HD
ENDBRANCH   1  40
BRANCH   1  42
ATOM     42  C19 031 d   1      14.056  20.008  17.058  0.00  0.00     0.044 C 
ATOM     43  H20 031 d   1      13.125  20.504  16.747  0.00  0.00     0.077 H 
BRANCH  42  44
ATOM     44  N20 031 d   1      14.878  20.960  17.776  0.00  0.00    -0.329 N 
ATOM     45  C21 031 d   1      14.448  22.116  18.290  0.00  0.00     0.361 C 
ATOM     46  O22 031 d   1      13.346  22.597  18.200  0.00  0.00    -0.238 OA
ATOM     47  H21 031 d   1      15.845  20.734  17.897  0.00  0.00     0.165 HD
BRANCH  45  48
ATOM     48  O23 031 d   1      15.460  22.779  18.933  0.00  0.00    -0.299 OA
BRANCH  48  49
ATOM     49  C25 031 d   1      15.155  24.128  19.294  0.00  0.00     0.052 C 
ATOM     50  C24 031 d   1      15.176  25.040  18.072  0.00  0.00    -0.034 C 
ATOM     51  C31 031 d   1      16.619  25.504  17.975  0.00  0.00    -0.025 C 
ATOM     52  H22 031 d   1      14.500  25.896  18.213  0.00  0.00     0.037 H 
ATOM     53  H23 031 d   1      14.883  24.487  17.168  0.00  0.00     0.037 H 
ATOM     54  C27 031 d   1      17.379  25.069  19.201  0.00  0.00     0.044 C 
ATOM     55  C30 031 d   1      17.416  24.924  16.818  0.00  0.00    -0.039 C 
ATOM     56  H32 031 d   1      16.619  26.601  17.897  0.00  0.00     0.044 H 
ATOM     57  C26 031 d   1      16.316  24.626  20.184  0.00  0.00    -0.016 C 
ATOM     58  O28 031 d   1      18.209  23.975  18.789  0.00  0.00    -0.385 OA
ATOM     59  H27 031 d   1      17.988  25.883  19.621  0.00  0.00     0.084 H 
ATOM     60  H25 031 d   1      16.692  23.814  20.824  0.00  0.00     0.040 H 
ATOM     61  H26 031 d   1      15.991  25.468  20.812  0.00  0.00     0.040 H 
ATOM     62  C29 031 d   1      18.110  23.678  17.433  0.00  0.00     0.021 C 
ATOM     63  H28 031 d   1      17.502  22.775  17.275  0.00  0.00     0.074 H 
ATOM     64  H29 031 d   1      19.107  23.530  16.992  0.00  0.00     0.074 H 
ATOM     65  H30 031 d   1      16.751  24.634  15.991  0.00  0.00     0.036 H 
ATOM     66  H31 031 d   1      18.160  25.647  16.454  0.00  0.00     0.036 H 
ATOM     67  H24 031 d   1      14.186  24.183  19.812  0.00  0.00     0.084 H 
ENDBRANCH  48  49
ENDBRANCH  45  48
ENDBRANCH  42  44
BRANCH  42  68
ATOM     68  C32 031 d   1      14.806  19.594  15.777  0.00  0.00    -0.020 C 
ATOM     69  H33 031 d   1      14.172  18.894  15.213  0.00  0.00     0.043 H 
ATOM     70  H34 031 d   1      15.740  19.090  16.068  0.00  0.00     0.043 H 
BRANCH  68  71
ATOM     71  C38 031 d   1      15.152  20.762  14.873  0.00  0.00    -0.056 A 
ATOM     72  C33 031 d   1      16.478  21.212  14.792  0.00  0.00    -0.077 A 
ATOM     73  C34 031 d   1      16.770  22.353  14.035  0.00  0.00    -0.082 A 
ATOM     74  H35 031 d   1      17.269  20.682  15.310  0.00  0.00     0.084 H 
ATOM     75  C35 031 d   1      15.749  23.022  13.347  0.00  0.00    -0.083 A 
ATOM     76  H36 031 d   1      17.789  22.720  13.981  0.00  0.00     0.083 H 
ATOM     77  C36 031 d   1      14.450  22.518  13.359  0.00  0.00    -0.082 A 
ATOM     78  H37 031 d   1      15.970  23.934  12.804  0.00  0.00     0.083 H 
ATOM     79  C37 031 d   1      14.161  21.400  14.140  0.00  0.00    -0.077 A 
ATOM     80  H38 031 d   1      13.673  22.990  12.768  0.00  0.00     0.083 H 
ATOM     81  H39 031 d   1      13.145  21.023  14.175  0.00  0.00     0.084 H 
ENDBRANCH  68  71
ENDBRANCH  42  68
ENDBRANCH   1  42
TORSDOF 15
