REMARK  15 active torsions:
REMARK  status: ('A' for Active; 'I' for Inactive)
REMARK    1  A    between atoms: O39_1  and  C40_2 
REMARK    2  A    between atoms: C2_3  and  O39_1 
REMARK    3  A    between atoms: S8_9  and  C5_6 
REMARK    4  A    between atoms: N11_12  and  S8_9 
REMARK    5  A    between atoms: N11_12  and  C12_13 
REMARK    6  A    between atoms: C16_20  and  N11_12 
REMARK    7  A    between atoms: C12_13  and  C13_14 
REMARK    8  A    between atoms: C17_21  and  C16_20 
REMARK    9  A    between atoms: C17_21  and  O18_22 
REMARK   10  A    between atoms: C19_23  and  C17_21 
REMARK   11  A    between atoms: C19_23  and  N20_24 
REMARK   12  A    between atoms: C32_36  and  C19_23 
REMARK       I    between atoms: N20_24  and  C21_25 
REMARK   13  A    between atoms: C21_25  and  O23_27 
REMARK   14  A    between atoms: O23_27  and  C25_29 
REMARK   15  A    between atoms: C38_42  and  C32_36 
ROOT
ATOM      1  C17 031 d   1      15.361  24.345  17.744  0.00  0.00     0.071 C 
ATOM      2  H18 031 d   1      15.720  23.873  18.670  0.00  0.00     0.088 H 
ENDROOT
BRANCH   1   3
ATOM      3  C16 031 d   1      16.490  25.244  17.252  0.00  0.00     0.031 C 
ATOM      4  H16 031 d   1      16.238  25.636  16.256  0.00  0.00     0.069 H 
ATOM      5  H17 031 d   1      16.623  26.081  17.953  0.00  0.00     0.069 H 
BRANCH   3   6
ATOM      6  N11 031 d   1      17.718  24.480  17.174  0.00  0.00    -0.302 N 
BRANCH   6   7
ATOM      7  S8  031 d   1      18.397  24.264  15.711  0.00  0.00     0.261 S 
ATOM      8  O9  031 d   1      17.361  24.092  14.669  0.00  0.00    -0.200 OA
ATOM      9  O10 031 d   1      19.332  23.116  15.928  0.00  0.00    -0.200 OA
BRANCH   7  10
ATOM     10  C5  031 d   1      19.424  25.639  15.327  0.00  0.00     0.079 A 
ATOM     11  C4  031 d   1      20.777  25.631  15.643  0.00  0.00    -0.058 A 
ATOM     12  C3  031 d   1      21.552  26.756  15.394  0.00  0.00    -0.049 A 
ATOM     13  H5  031 d   1      21.227  24.748  16.083  0.00  0.00     0.086 H 
ATOM     14  C2  031 d   1      20.974  27.887  14.806  0.00  0.00     0.068 A 
ATOM     15  H4  031 d   1      22.604  26.758  15.655  0.00  0.00     0.087 H 
ATOM     16  C7  031 d   1      19.635  27.876  14.450  0.00  0.00    -0.049 A 
ATOM     17  C6  031 d   1      18.870  26.759  14.740  0.00  0.00    -0.058 A 
ATOM     18  H7  031 d   1      19.192  28.730  13.951  0.00  0.00     0.087 H 
ATOM     19  H6  031 d   1      17.813  26.764  14.501  0.00  0.00     0.086 H 
BRANCH  14  20
ATOM     20  O39 031 d   1      21.707  29.021  14.601  0.00  0.00    -0.356 OA
BRANCH  20  21
ATOM     21  C40 031 d   1      23.098  28.712  14.752  0.00  0.00     0.010 C 
ATOM     22  H1  031 d   1      23.695  29.621  14.588  0.00  0.00     0.066 H 
ATOM     23  H2  031 d   1      23.386  27.947  14.016  0.00  0.00     0.066 H 
ATOM     24  H3  031 d   1      23.281  28.331  15.768  0.00  0.00     0.066 H 
ENDBRANCH  20  21
ENDBRANCH  14  20
ENDBRANCH   7  10
ENDBRANCH   6   7
BRANCH   6  25
ATOM     25  C12 031 d   1      18.679  24.831  18.207  0.00  0.00     0.024 C 
ATOM     26  H8  031 d   1      18.907  25.905  18.146  0.00  0.00     0.068 H 
ATOM     27  H9  031 d   1      19.602  24.251  18.061  0.00  0.00     0.068 H 
BRANCH  25  28
ATOM     28  C13 031 d   1      18.088  24.512  19.582  0.00  0.00     0.028 C 
ATOM     29  C14 031 d   1      18.065  23.023  19.854  0.00  0.00    -0.037 C 
ATOM     30  C47 031 d   1      19.392  22.781  20.596  0.00  0.00     0.011 C 
ATOM     31  H11 031 d   1      18.028  22.451  18.915  0.00  0.00     0.036 H 
ATOM     32  H12 031 d   1      17.205  22.750  20.484  0.00  0.00     0.036 H 
ATOM     33  C45 031 d   1      19.776  24.165  21.094  0.00  0.00     0.218 C 
ATOM     34  H14 031 d   1      20.157  22.382  19.914  0.00  0.00     0.047 H 
ATOM     35  H15 031 d   1      19.252  22.085  21.436  0.00  0.00     0.047 H 
ATOM     36  N15 031 d   1      19.013  25.090  20.569  0.00  0.00    -0.355 N 
ATOM     37  O46 031 d   1      20.663  24.415  21.886  0.00  0.00    -0.274 OA
ATOM     38  H13 031 d   1      19.053  26.060  20.807  0.00  0.00     0.162 HD
ATOM     39  H10 031 d   1      17.078  24.936  19.675  0.00  0.00     0.075 H 
ENDBRANCH  25  28
ENDBRANCH   6  25
ENDBRANCH   3   6
ENDBRANCH   1   3
BRANCH   1  40
ATOM     40  O18 031 d   1      14.185  25.062  18.066  0.00  0.00    -0.392 OA
ATOM     41  H19 031 d   1      13.874  25.521  17.294  0.00  0.00     0.210 HD
ENDBRANCH   1  40
BRANCH   1  42
ATOM     42  C19 031 d   1      15.011  23.228  16.777  0.00  0.00     0.044 C 
ATOM     43  H20 031 d   1      15.945  22.700  16.536  0.00  0.00     0.077 H 
BRANCH  42  44
ATOM     44  N20 031 d   1      14.115  22.280  17.451  0.00  0.00    -0.329 N 
ATOM     45  C21 031 d   1      14.439  21.099  17.962  0.00  0.00     0.361 C 
ATOM     46  O22 031 d   1      15.587  20.617  17.974  0.00  0.00    -0.238 OA
ATOM     47  H21 031 d   1      13.157  22.554  17.534  0.00  0.00     0.165 HD
BRANCH  45  48
ATOM     48  O23 031 d   1      13.390  20.424  18.529  0.00  0.00    -0.299 OA
BRANCH  48  49
ATOM     49  C25 031 d   1      13.710  19.049  18.825  0.00  0.00     0.052 C 
ATOM     50  C24 031 d   1      13.697  18.205  17.539  0.00  0.00    -0.034 C 
ATOM     51  C31 031 d   1      12.257  17.785  17.336  0.00  0.00    -0.025 C 
ATOM     52  H22 031 d   1      14.341  17.321  17.654  0.00  0.00     0.037 H 
ATOM     53  H23 031 d   1      14.046  18.803  16.684  0.00  0.00     0.037 H 
ATOM     54  C27 031 d   1      11.484  18.212  18.563  0.00  0.00     0.044 C 
ATOM     55  C30 031 d   1      11.525  18.455  16.174  0.00  0.00    -0.039 C 
ATOM     56  H32 031 d   1      12.222  16.693  17.207  0.00  0.00     0.044 H 
ATOM     57  C26 031 d   1      12.523  18.519  19.626  0.00  0.00    -0.016 C 
ATOM     58  O28 031 d   1      10.683  19.332  18.204  0.00  0.00    -0.385 OA
ATOM     59  H27 031 d   1      10.831  17.399  18.913  0.00  0.00     0.084 H 
ATOM     60  H25 031 d   1      12.153  19.279  20.329  0.00  0.00     0.040 H 
ATOM     61  H26 031 d   1      12.798  17.610  20.181  0.00  0.00     0.040 H 
ATOM     62  C29 031 d   1      10.679  19.545  16.797  0.00  0.00     0.021 C 
ATOM     63  H28 031 d   1      11.106  20.532  16.564  0.00  0.00     0.074 H 
ATOM     64  H29 031 d   1       9.650  19.490  16.411  0.00  0.00     0.074 H 
ATOM     65  H30 031 d   1      12.246  18.887  15.465  0.00  0.00     0.036 H 
ATOM     66  H31 031 d   1      10.888  17.727  15.651  0.00  0.00     0.036 H 
ATOM     67  H24 031 d   1      14.665  18.962  19.364  0.00  0.00     0.084 H 
ENDBRANCH  48  49
ENDBRANCH  45  48
ENDBRANCH  42  44
BRANCH  42  68
ATOM     68  C32 031 d   1      14.412  23.700  15.450  0.00  0.00    -0.020 C 
ATOM     69  H33 031 d   1      15.150  24.324  14.925  0.00  0.00     0.043 H 
ATOM     70  H34 031 d   1      13.509  24.294  15.655  0.00  0.00     0.043 H 
BRANCH  68  71
ATOM     71  C38 031 d   1      14.037  22.509  14.558  0.00  0.00    -0.056 C 
ATOM     72  C33 031 d   1      12.716  22.181  14.277  0.00  0.00    -0.077 C 
ATOM     73  C34 031 d   1      12.352  21.039  13.558  0.00  0.00    -0.082 C 
ATOM     74  H35 031 d   1      11.932  22.841  14.632  0.00  0.00     0.084 H 
ATOM     75  C35 031 d   1      13.352  20.313  12.931  0.00  0.00    -0.083 C 
ATOM     76  H36 031 d   1      11.315  20.730  13.493  0.00  0.00     0.083 H 
ATOM     77  C36 031 d   1      14.689  20.635  13.170  0.00  0.00    -0.082 C 
ATOM     78  H37 031 d   1      13.098  19.501  12.260  0.00  0.00     0.083 H 
ATOM     79  C37 031 d   1      15.028  21.732  13.977  0.00  0.00    -0.077 C 
ATOM     80  H38 031 d   1      15.473  20.032  12.728  0.00  0.00     0.083 H 
ATOM     81  H39 031 d   1      16.071  21.974  14.147  0.00  0.00     0.084 H 
ENDBRANCH  68  71
ENDBRANCH  42  68
ENDBRANCH   1  42
TORSDOF 15
