REMARK  15 active torsions:
REMARK  status: ('A' for Active; 'I' for Inactive)
REMARK    1  A    between atoms: O39_1  and  C40_2 
REMARK    2  A    between atoms: C2_3  and  O39_1 
REMARK    3  A    between atoms: S8_9  and  C5_6 
REMARK    4  A    between atoms: N11_12  and  S8_9 
REMARK    5  A    between atoms: N11_12  and  C12_13 
REMARK    6  A    between atoms: C16_20  and  N11_12 
REMARK    7  A    between atoms: C12_13  and  C13_14 
REMARK    8  A    between atoms: C17_21  and  C16_20 
REMARK    9  A    between atoms: C17_21  and  O18_22 
REMARK   10  A    between atoms: C19_23  and  C17_21 
REMARK   11  A    between atoms: C19_23  and  N20_24 
REMARK   12  A    between atoms: C32_36  and  C19_23 
REMARK       I    between atoms: N20_24  and  C21_25 
REMARK   13  A    between atoms: C21_25  and  O23_27 
REMARK   14  A    between atoms: O23_27  and  C25_29 
REMARK   15  A    between atoms: C38_42  and  C32_36 
ROOT
ATOM      1  C17 031 d   1      13.909  18.961  17.941  0.00  0.00     0.071 C 
ATOM      2  H18 031 d   1      13.486  19.401  18.856  0.00  0.00     0.088 H 
ENDROOT
BRANCH   1   3
ATOM      3  C16 031 d   1      12.820  18.074  17.330  0.00  0.00     0.031 C 
ATOM      4  H16 031 d   1      13.104  17.829  16.296  0.00  0.00     0.069 H 
ATOM      5  H17 031 d   1      12.748  17.148  17.919  0.00  0.00     0.069 H 
BRANCH   3   6
ATOM      6  N11 031 d   1      11.522  18.717  17.315  0.00  0.00    -0.302 N 
BRANCH   6   7
ATOM      7  S8  031 d   1      10.873  19.106  15.852  0.00  0.00     0.261 S 
ATOM      8  O9  031 d   1      11.947  19.309  14.865  0.00  0.00    -0.200 OA
ATOM      9  O10 031 d   1       9.965  20.281  16.051  0.00  0.00    -0.200 OA
BRANCH   7  10
ATOM     10  C5  031 d   1       9.851  17.755  15.346  0.00  0.00     0.079 C 
ATOM     11  C4  031 d   1       8.481  17.721  15.541  0.00  0.00    -0.058 C 
ATOM     12  C3  031 d   1       7.737  16.572  15.243  0.00  0.00    -0.049 C 
ATOM     13  H5  031 d   1       7.976  18.597  15.931  0.00  0.00     0.086 H 
ATOM     14  C2  031 d   1       8.380  15.448  14.728  0.00  0.00     0.068 C 
ATOM     15  H4  031 d   1       6.666  16.557  15.412  0.00  0.00     0.087 H 
ATOM     16  C7  031 d   1       9.722  15.560  14.370  0.00  0.00    -0.049 C 
ATOM     17  C6  031 d   1      10.439  16.669  14.749  0.00  0.00    -0.058 C 
ATOM     18  H7  031 d   1      10.199  14.775  13.794  0.00  0.00     0.087 H 
ATOM     19  H6  031 d   1      11.508  16.686  14.570  0.00  0.00     0.086 H 
BRANCH  14  20
ATOM     20  O39 031 d   1       7.793  14.259  14.424  0.00  0.00    -0.356 OA
BRANCH  20  21
ATOM     21  C40 031 d   1       6.408  14.127  14.663  0.00  0.00     0.010 C 
ATOM     22  H1  031 d   1       6.080  13.119  14.370  0.00  0.00     0.066 H 
ATOM     23  H2  031 d   1       5.861  14.877  14.072  0.00  0.00     0.066 H 
ATOM     24  H3  031 d   1       6.204  14.283  15.733  0.00  0.00     0.066 H 
ENDBRANCH  20  21
ENDBRANCH  14  20
ENDBRANCH   7  10
ENDBRANCH   6   7
BRANCH   6  25
ATOM     25  C12 031 d   1      10.606  18.310  18.325  0.00  0.00     0.024 C 
ATOM     26  H8  031 d   1      10.462  17.222  18.253  0.00  0.00     0.068 H 
ATOM     27  H9  031 d   1       9.646  18.819  18.156  0.00  0.00     0.068 H 
BRANCH  25  28
ATOM     28  C13 031 d   1      11.099  18.647  19.735  0.00  0.00     0.028 C 
ATOM     29  C14 031 d   1      11.045  20.131  20.025  0.00  0.00    -0.037 C 
ATOM     30  C47 031 d   1       9.701  20.300  20.763  0.00  0.00     0.011 C 
ATOM     31  H11 031 d   1      11.059  20.715  19.093  0.00  0.00     0.036 H 
ATOM     32  H12 031 d   1      11.886  20.439  20.663  0.00  0.00     0.036 H 
ATOM     33  C45 031 d   1       9.312  18.895  21.141  0.00  0.00     0.218 C 
ATOM     34  H14 031 d   1       8.946  20.750  20.102  0.00  0.00     0.047 H 
ATOM     35  H15 031 d   1       9.823  20.926  21.659  0.00  0.00     0.047 H 
ATOM     36  N15 031 d   1      10.103  18.031  20.614  0.00  0.00    -0.355 N 
ATOM     37  O46 031 d   1       8.409  18.486  21.859  0.00  0.00    -0.274 OA
ATOM     38  H13 031 d   1      10.045  17.047  20.785  0.00  0.00     0.162 HD
ATOM     39  H10 031 d   1      12.112  18.253  19.906  0.00  0.00     0.075 H 
ENDBRANCH  25  28
ENDBRANCH   6  25
ENDBRANCH   3   6
ENDBRANCH   1   3
BRANCH   1  40
ATOM     40  O18 031 d   1      15.007  18.158  18.325  0.00  0.00    -0.392 OA
ATOM     41  H19 031 d   1      15.353  17.710  17.562  0.00  0.00     0.210 HD
ENDBRANCH   1  40
BRANCH   1  42
ATOM     42  C19 031 d   1      14.345  20.130  17.062  0.00  0.00     0.044 C 
ATOM     43  H20 031 d   1      13.421  20.641  16.754  0.00  0.00     0.077 H 
BRANCH  42  44
ATOM     44  N20 031 d   1      15.131  21.083  17.807  0.00  0.00    -0.329 N 
ATOM     45  C21 031 d   1      14.768  22.271  18.292  0.00  0.00     0.361 C 
ATOM     46  O22 031 d   1      13.648  22.734  18.189  0.00  0.00    -0.238 OA
ATOM     47  H21 031 d   1      16.078  20.816  17.984  0.00  0.00     0.165 HD
BRANCH  45  48
ATOM     48  O23 031 d   1      15.788  22.938  18.932  0.00  0.00    -0.299 OA
BRANCH  48  49
ATOM     49  C25 031 d   1      15.492  24.273  19.332  0.00  0.00     0.052 C 
ATOM     50  C24 031 d   1      15.527  25.187  18.116  0.00  0.00    -0.034 C 
ATOM     51  C31 031 d   1      16.961  25.700  17.990  0.00  0.00    -0.025 C 
ATOM     52  H22 031 d   1      14.834  26.030  18.256  0.00  0.00     0.037 H 
ATOM     53  H23 031 d   1      15.245  24.626  17.213  0.00  0.00     0.037 H 
ATOM     54  C27 031 d   1      17.720  25.204  19.186  0.00  0.00     0.044 C 
ATOM     55  C30 031 d   1      17.703  25.102  16.779  0.00  0.00    -0.039 C 
ATOM     56  H32 031 d   1      16.963  26.799  17.937  0.00  0.00     0.044 H 
ATOM     57  C26 031 d   1      16.649  24.818  20.183  0.00  0.00    -0.016 C 
ATOM     58  O28 031 d   1      18.480  24.071  18.755  0.00  0.00    -0.385 OA
ATOM     59  H27 031 d   1      18.383  25.977  19.602  0.00  0.00     0.084 H 
ATOM     60  H25 031 d   1      17.021  24.044  20.870  0.00  0.00     0.040 H 
ATOM     61  H26 031 d   1      16.324  25.696  20.761  0.00  0.00     0.040 H 
ATOM     62  C29 031 d   1      18.539  23.952  17.354  0.00  0.00     0.021 C 
ATOM     63  H28 031 d   1      18.122  22.985  17.038  0.00  0.00     0.074 H 
ATOM     64  H29 031 d   1      19.581  24.032  17.010  0.00  0.00     0.074 H 
ATOM     65  H30 031 d   1      16.987  24.725  16.035  0.00  0.00     0.036 H 
ATOM     66  H31 031 d   1      18.353  25.857  16.313  0.00  0.00     0.036 H 
ATOM     67  H24 031 d   1      14.528  24.319  19.860  0.00  0.00     0.084 H 
ENDBRANCH  48  49
ENDBRANCH  45  48
ENDBRANCH  42  44
BRANCH  42  68
ATOM     68  C32 031 d   1      15.079  19.746  15.770  0.00  0.00    -0.020 C 
ATOM     69  H33 031 d   1      14.446  19.052  15.198  0.00  0.00     0.043 H 
ATOM     70  H34 031 d   1      16.023  19.247  16.036  0.00  0.00     0.043 H 
BRANCH  68  71
ATOM     71  C38 031 d   1      15.394  20.948  14.897  0.00  0.00    -0.056 A 
ATOM     72  C33 031 d   1      16.715  21.379  14.770  0.00  0.00    -0.077 A 
ATOM     73  C34 031 d   1      16.976  22.550  14.056  0.00  0.00    -0.082 A 
ATOM     74  H35 031 d   1      17.525  20.814  15.218  0.00  0.00     0.084 H 
ATOM     75  C35 031 d   1      15.974  23.212  13.352  0.00  0.00    -0.083 A 
ATOM     76  H36 031 d   1      17.982  22.953  14.050  0.00  0.00     0.083 H 
ATOM     77  C36 031 d   1      14.680  22.710  13.436  0.00  0.00    -0.082 A 
ATOM     78  H37 031 d   1      16.195  24.091  12.757  0.00  0.00     0.083 H 
ATOM     79  C37 031 d   1      14.386  21.591  14.208  0.00  0.00    -0.077 A 
ATOM     80  H38 031 d   1      13.884  23.201  12.888  0.00  0.00     0.083 H 
ATOM     81  H39 031 d   1      13.367  21.225  14.268  0.00  0.00     0.084 H 
ENDBRANCH  68  71
ENDBRANCH  42  68
ENDBRANCH   1  42
TORSDOF 15
