REMARK  2 active torsions:
REMARK  status: ('A' for Active; 'I' for Inactive)
REMARK    1  A    between atoms: C3_3  and  C4_4 
REMARK    2  A    between atoms: C26_26  and  N27_27 
ROOT
ATOM      1  C1  VHA d   1      10.671   0.666  15.062  0.00  0.00    -0.038 A 
ATOM      2  C2  VHA d   1       9.753   0.780  14.009  0.00  0.00     0.002 A 
ATOM      3  C3  VHA d   1       9.042  -0.348  13.571  0.00  0.00    -0.049 A 
ATOM      4  C5  VHA d   1       9.263  -1.588  14.205  0.00  0.00    -0.074 A 
ATOM      5  C6  VHA d   1      10.175  -1.674  15.254  0.00  0.00    -0.050 A 
ATOM      6  C7  VHA d   1      10.910  -0.561  15.683  0.00  0.00     0.069 A 
ATOM      7  O8  VHA d   1      11.855  -0.673  16.698  0.00  0.00    -0.351 OA
ATOM      8  C9  VHA d   1      12.647   0.523  17.011  0.00  0.00     0.026 C 
ATOM      9  C10 VHA d   1      13.899   0.344  17.911  0.00  0.00    -0.043 C 
ATOM     10  C11 VHA d   1      14.644   1.667  18.174  0.00  0.00    -0.043 C 
ATOM     11  C12 VHA d   1      15.328   2.206  16.910  0.00  0.00     0.026 C 
ATOM     12  O13 VHA d   1      14.264   3.001  16.294  0.00  0.00    -0.351 OA
ATOM     13  C14 VHA d   1      14.435   3.404  15.012  0.00  0.00     0.070 A 
ATOM     14  C15 VHA d   1      13.310   3.963  14.408  0.00  0.00    -0.034 A 
ATOM     15  C16 VHA d   1      15.646   3.353  14.303  0.00  0.00    -0.051 A 
ATOM     16  C17 VHA d   1      15.712   3.806  12.986  0.00  0.00    -0.079 A 
ATOM     17  C18 VHA d   1      14.575   4.376  12.386  0.00  0.00    -0.066 A 
ATOM     18  C19 VHA d   1      13.386   4.408  13.089  0.00  0.00     0.009 A 
ATOM     19  S20 VHA d   1      11.991   5.109  12.269  0.00  0.00    -0.070 SA
ATOM     20  C21 VHA d   1      10.616   4.091  12.671  0.00  0.00     0.119 A 
ATOM     21  N22 VHA d   1       9.438   4.664  12.532  0.00  0.00    -0.056 NA
ATOM     22  C23 VHA d   1      10.755   2.779  13.123  0.00  0.00    -0.018 A 
ATOM     23  C24 VHA d   1       9.618   2.069  13.486  0.00  0.00     0.089 A 
ATOM     24  N25 VHA d   1       8.422   2.689  13.381  0.00  0.00    -0.062 NA
ATOM     25  C26 VHA d   1       8.335   3.935  12.865  0.00  0.00     0.721 A 
ATOM     26  H1  VHA d   1      11.205   1.547  15.400  0.00  0.00     0.089 H 
ATOM     27  H5  VHA d   1       8.725  -2.470  13.877  0.00  0.00     0.084 H 
ATOM     28  H6  VHA d   1      10.320  -2.626  15.751  0.00  0.00     0.087 H 
ATOM     29  H7  VHA d   1      11.979   1.237  17.515  0.00  0.00     0.075 H 
ATOM     30  H8  VHA d   1      12.987   0.951  16.056  0.00  0.00     0.075 H 
ATOM     31  H9  VHA d   1      14.589  -0.355  17.416  0.00  0.00     0.036 H 
ATOM     32  H10 VHA d   1      13.580  -0.077  18.876  0.00  0.00     0.036 H 
ATOM     33  H11 VHA d   1      15.409   1.496  18.946  0.00  0.00     0.036 H 
ATOM     34  H12 VHA d   1      13.922   2.415  18.533  0.00  0.00     0.036 H 
ATOM     35  H13 VHA d   1      15.646   1.386  16.249  0.00  0.00     0.075 H 
ATOM     36  H14 VHA d   1      16.197   2.831  17.163  0.00  0.00     0.075 H 
ATOM     37  H15 VHA d   1      12.382   4.051  14.961  0.00  0.00     0.089 H 
ATOM     38  H16 VHA d   1      16.535   2.959  14.782  0.00  0.00     0.087 H 
ATOM     39  H17 VHA d   1      16.636   3.719  12.427  0.00  0.00     0.083 H 
ATOM     40  H18 VHA d   1      14.631   4.785  11.384  0.00  0.00     0.085 H 
ATOM     41  H19 VHA d   1      11.735   2.321  13.190  0.00  0.00     0.091 H 
ENDROOT
BRANCH   3  42
ATOM     42  C4  VHA d   1       8.017  -0.313  12.437  0.00  0.00    -0.050 C 
ATOM     43  H2  VHA d   1       7.602  -1.321  12.287  0.00  0.00     0.033 H 
ATOM     44  H3  VHA d   1       8.506   0.024  11.511  0.00  0.00     0.033 H 
ATOM     45  H4  VHA d   1       7.206   0.383  12.697  0.00  0.00     0.033 H 
ENDBRANCH   3  42
BRANCH  25  46
ATOM     46  N27 VHA d   1       7.138   4.509  12.796  0.00  0.00    -0.231 N 
ATOM     47  H20 VHA d   1       7.044   5.458  12.407  0.00  0.00     0.174 HD
ATOM     48  H21 VHA d   1       6.305   4.005  13.132  0.00  0.00     0.174 HD
ENDBRANCH  25  46
TORSDOF 2
