REMARK  3 active torsions:
REMARK  status: ('A' for Active; 'I' for Inactive)
REMARK    1  A    between atoms: C1_1  and  C2_2 
REMARK    2  A    between atoms: C4_4  and  C5_5 
REMARK    3  A    between atoms: C29_28  and  N30_29 
ROOT
ATOM      1  C2  VHC d   1      10.354  -1.624  14.867  0.00  0.00    -0.046 A 
ATOM      2  C3  VHC d   1       9.456  -1.400  13.825  0.00  0.00    -0.070 A 
ATOM      3  C4  VHC d   1       9.231  -0.103  13.332  0.00  0.00    -0.049 A 
ATOM      4  C6  VHC d   1       9.951   0.978  13.867  0.00  0.00     0.000 A 
ATOM      5  C7  VHC d   1      10.867   0.744  14.910  0.00  0.00    -0.054 A 
ATOM      6  C8  VHC d   1      11.066  -0.552  15.439  0.00  0.00     0.038 A 
ATOM      7  C9  VHC d   1      12.014  -0.708  16.632  0.00  0.00     0.252 C 
ATOM      8  O10 VHC d   1      11.703  -1.430  17.596  0.00  0.00    -0.268 OA
ATOM      9  N11 VHC d   1      13.077   0.087  16.608  0.00  0.00    -0.357 N 
ATOM     10  C13 VHC d   1      14.107   0.096  17.673  0.00  0.00    -0.003 C 
ATOM     11  C14 VHC d   1      14.659   1.501  17.962  0.00  0.00    -0.030 C 
ATOM     12  C15 VHC d   1      15.481   2.047  16.782  0.00  0.00     0.028 C 
ATOM     13  O16 VHC d   1      14.428   2.516  15.924  0.00  0.00    -0.351 OA
ATOM     14  C17 VHC d   1      14.691   3.136  14.745  0.00  0.00     0.070 A 
ATOM     15  C18 VHC d   1      13.601   3.791  14.178  0.00  0.00    -0.034 A 
ATOM     16  C19 VHC d   1      15.911   3.088  14.045  0.00  0.00    -0.051 A 
ATOM     17  C20 VHC d   1      15.995   3.709  12.801  0.00  0.00    -0.079 A 
ATOM     18  C21 VHC d   1      14.920   4.406  12.257  0.00  0.00    -0.066 A 
ATOM     19  C22 VHC d   1      13.698   4.396  12.933  0.00  0.00     0.009 A 
ATOM     20  S23 VHC d   1      12.332   5.291  12.221  0.00  0.00    -0.070 SA
ATOM     21  C24 VHC d   1      10.941   4.311  12.662  0.00  0.00     0.119 A 
ATOM     22  N25 VHC d   1       9.771   4.951  12.644  0.00  0.00    -0.056 NA
ATOM     23  C26 VHC d   1      11.026   2.948  12.978  0.00  0.00    -0.018 A 
ATOM     24  C27 VHC d   1       9.865   2.307  13.405  0.00  0.00     0.089 A 
ATOM     25  N28 VHC d   1       8.701   2.990  13.412  0.00  0.00    -0.062 NA
ATOM     26  C29 VHC d   1       8.639   4.289  13.015  0.00  0.00     0.721 A 
ATOM     27  H4  VHC d   1       8.924  -2.237  13.389  0.00  0.00     0.085 H 
ATOM     28  H8  VHC d   1      11.432   1.575  15.316  0.00  0.00     0.086 H 
ATOM     29  H9  VHC d   1      13.188   0.710  15.834  0.00  0.00     0.162 HD
ATOM     30  H10 VHC d   1      14.940  -0.551  17.360  0.00  0.00     0.064 H 
ATOM     31  H11 VHC d   1      13.660  -0.302  18.596  0.00  0.00     0.064 H 
ATOM     32  H12 VHC d   1      15.303   1.454  18.853  0.00  0.00     0.038 H 
ATOM     33  H13 VHC d   1      13.817   2.182  18.154  0.00  0.00     0.038 H 
ATOM     34  H14 VHC d   1      16.075   1.256  16.301  0.00  0.00     0.075 H 
ATOM     35  H15 VHC d   1      16.145   2.866  17.094  0.00  0.00     0.075 H 
ATOM     36  H16 VHC d   1      12.662   3.829  14.718  0.00  0.00     0.089 H 
ATOM     37  H17 VHC d   1      16.769   2.577  14.466  0.00  0.00     0.087 H 
ATOM     38  H18 VHC d   1      16.922   3.648  12.242  0.00  0.00     0.083 H 
ATOM     39  H19 VHC d   1      15.030   4.947  11.324  0.00  0.00     0.085 H 
ATOM     40  H20 VHC d   1      11.964   2.411  12.893  0.00  0.00     0.091 H 
ENDROOT
BRANCH   1  41
ATOM     41  C1  VHC d   1      10.551  -3.084  15.317  0.00  0.00    -0.050 C 
ATOM     42  H1  VHC d   1       9.891  -3.740  14.731  0.00  0.00     0.033 H 
ATOM     43  H2  VHC d   1      10.304  -3.175  16.385  0.00  0.00     0.033 H 
ATOM     44  H3  VHC d   1      11.598  -3.379  15.156  0.00  0.00     0.033 H 
ENDBRANCH   1  41
BRANCH   3  45
ATOM     45  C5  VHC d   1       8.235   0.067  12.179  0.00  0.00    -0.050 C 
ATOM     46  H5  VHC d   1       7.794  -0.909  11.929  0.00  0.00     0.033 H 
ATOM     47  H6  VHC d   1       8.758   0.469  11.299  0.00  0.00     0.033 H 
ATOM     48  H7  VHC d   1       7.439   0.763  12.482  0.00  0.00     0.033 H 
ENDBRANCH   3  45
BRANCH  26  49
ATOM     49  N30 VHC d   1       7.443   4.895  12.967  0.00  0.00    -0.231 N 
ATOM     50  H21 VHC d   1       7.376   5.879  12.669  0.00  0.00     0.174 HD
ATOM     51  H22 VHC d   1       6.592   4.377  13.228  0.00  0.00     0.174 HD
ENDBRANCH  26  49
TORSDOF 3
