REMARK  3 active torsions:
REMARK  status: ('A' for Active; 'I' for Inactive)
REMARK    1  A    between atoms: C2_2  and  C11_11 
REMARK    2  A    between atoms: C4_4  and  C8_8 
REMARK    3  A    between atoms: C16_16  and  N18_18 
ROOT
ATOM      1  C1  VHE d   1     -11.718  -5.310 -10.661  0.00  0.00     0.000 A 
ATOM      2  C2  VHE d   1     -10.644  -6.010 -11.230  0.00  0.00    -0.049 A 
ATOM      3  C3  VHE d   1      -9.340  -5.739 -10.706  0.00  0.00    -0.070 A 
ATOM      4  C4  VHE d   1      -9.106  -4.811  -9.666  0.00  0.00    -0.046 A 
ATOM      5  C5  VHE d   1     -10.199  -4.110  -9.147  0.00  0.00     0.038 A 
ATOM      6  C6  VHE d   1     -11.493  -4.368  -9.611  0.00  0.00    -0.054 A 
ATOM      7  C7  VHE d   1     -10.127  -3.139  -8.069  0.00  0.00     0.252 C 
ATOM      8  O9  VHE d   1      -9.543  -3.382  -6.973  0.00  0.00    -0.268 OA
ATOM      9  N10 VHE d   1     -10.775  -1.945  -8.318  0.00  0.00    -0.357 N 
ATOM     10  C12 VHE d   1     -13.102  -5.409 -11.131  0.00  0.00     0.089 A 
ATOM     11  C13 VHE d   1     -13.784  -4.218 -11.485  0.00  0.00    -0.019 A 
ATOM     12  C14 VHE d   1     -15.084  -4.384 -11.949  0.00  0.00     0.114 A 
ATOM     13  N15 VHE d   1     -15.703  -5.552 -12.055  0.00  0.00    -0.056 NA
ATOM     14  C16 VHE d   1     -14.966  -6.666 -11.698  0.00  0.00     0.721 A 
ATOM     15  N17 VHE d   1     -13.689  -6.595 -11.256  0.00  0.00    -0.062 NA
ATOM     16  C19 VHE d   1     -10.830  -0.871  -7.269  0.00  0.00    -0.003 C 
ATOM     17  C20 VHE d   1     -11.979   0.101  -7.652  0.00  0.00    -0.035 C 
ATOM     18  C21 VHE d   1     -13.350  -0.411  -7.221  0.00  0.00    -0.003 C 
ATOM     19  N22 VHE d   1     -14.044  -1.339  -8.165  0.00  0.00    -0.361 N 
ATOM     20  C23 VHE d   1     -14.891  -0.860  -9.153  0.00  0.00     0.218 C 
ATOM     21  C24 VHE d   1     -15.570  -1.879 -10.013  0.00  0.00     0.017 C 
ATOM     22  O25 VHE d   1     -15.091   0.372  -9.317  0.00  0.00    -0.274 OA
ATOM     23  C26 VHE d   1     -15.354  -1.612 -11.532  0.00  0.00    -0.009 C 
ATOM     24  S27 VHE d   1     -16.099  -3.034 -12.450  0.00  0.00    -0.109 SA
ATOM     25  H1  VHE d   1      -8.493  -6.270 -11.126  0.00  0.00     0.085 H 
ATOM     26  H2  VHE d   1     -12.335  -3.847  -9.169  0.00  0.00     0.086 H 
ATOM     27  H6  VHE d   1     -11.212  -1.794  -9.205  0.00  0.00     0.162 HD
ATOM     28  H10 VHE d   1     -13.322  -3.241 -11.399  0.00  0.00     0.091 H 
ATOM     29  H13 VHE d   1      -9.874  -0.328  -7.238  0.00  0.00     0.064 H 
ATOM     30  H14 VHE d   1     -11.030  -1.318  -6.284  0.00  0.00     0.064 H 
ATOM     31  H15 VHE d   1     -11.980   0.233  -8.744  0.00  0.00     0.037 H 
ATOM     32  H16 VHE d   1     -11.797   1.071  -7.166  0.00  0.00     0.037 H 
ATOM     33  H17 VHE d   1     -14.001   0.463  -7.073  0.00  0.00     0.064 H 
ATOM     34  H18 VHE d   1     -13.223  -0.940  -6.265  0.00  0.00     0.064 H 
ATOM     35  H19 VHE d   1     -13.895  -2.324  -8.082  0.00  0.00     0.162 HD
ATOM     36  H20 VHE d   1     -16.649  -1.858  -9.801  0.00  0.00     0.048 H 
ATOM     37  H21 VHE d   1     -15.167  -2.873  -9.768  0.00  0.00     0.048 H 
ATOM     38  H22 VHE d   1     -14.279  -1.543 -11.753  0.00  0.00     0.050 H 
ATOM     39  H23 VHE d   1     -15.849  -0.674 -11.824  0.00  0.00     0.050 H 
ENDROOT
BRANCH   2  40
ATOM     40  C11 VHE d   1     -10.796  -7.017 -12.392  0.00  0.00    -0.050 C 
ATOM     41  H7  VHE d   1     -11.858  -7.103 -12.666  0.00  0.00     0.033 H 
ATOM     42  H8  VHE d   1     -10.418  -8.001 -12.076  0.00  0.00     0.033 H 
ATOM     43  H9  VHE d   1     -10.220  -6.664 -13.260  0.00  0.00     0.033 H 
ENDBRANCH   2  40
BRANCH   4  44
ATOM     44  C8  VHE d   1      -7.670  -4.579  -9.197  0.00  0.00    -0.050 C 
ATOM     45  H3  VHE d   1      -6.992  -5.245  -9.750  0.00  0.00     0.033 H 
ATOM     46  H4  VHE d   1      -7.597  -4.793  -8.120  0.00  0.00     0.033 H 
ATOM     47  H5  VHE d   1      -7.388  -3.532  -9.383  0.00  0.00     0.033 H 
ENDBRANCH   4  44
BRANCH  14  48
ATOM     48  N18 VHE d   1     -15.544  -7.948 -11.756  0.00  0.00    -0.231 N 
ATOM     49  H11 VHE d   1     -16.514  -8.061 -12.085  0.00  0.00     0.174 HD
ATOM     50  H12 VHE d   1     -14.998  -8.773 -11.470  0.00  0.00     0.174 HD
ENDBRANCH  14  48
TORSDOF 3
