REMARK  7 active torsions:
REMARK  status: ('A' for Active; 'I' for Inactive)
REMARK    1  A    between atoms: C1_15  and  C2_10 
REMARK    2  A    between atoms: C17_11  and  C21_17 
REMARK    3  A    between atoms: O14_22  and  C15_12 
REMARK    4  A    between atoms: C13_18  and  C9_13 
REMARK    5  A    between atoms: C10_14  and  C12_16 
REMARK    6  A    between atoms: C21_17  and  O22_21 
REMARK    7  A    between atoms: C13_18  and  O14_22 
ROOT
ATOM      1  C9  BPK d   1     -29.535  26.310  15.556  0.00  0.00     0.090 A 
ATOM      2  C10 BPK d   1     -29.911  26.042  14.257  0.00  0.00     0.078 A 
ATOM      3  C1  BPK d   1     -27.899  26.734  14.299  0.00  0.00     0.180 A 
ATOM      4  N8  BPK d   1     -28.239  26.755  15.570  0.00  0.00    -0.224 NA
ATOM      5  O11 BPK d   1     -28.864  26.311  13.438  0.00  0.00    -0.294 OA
ENDROOT
BRANCH   1   6
ATOM      6  C13 BPK d   1     -30.310  26.183  16.801  0.00  0.00     0.068 C 
ATOM      7  H15 BPK d   1     -30.305  25.130  17.120  0.00  0.00     0.085 H 
ATOM      8  H16 BPK d   1     -31.345  26.504  16.613  0.00  0.00     0.085 H 
BRANCH   6   9
ATOM      9  O14 BPK d   1     -29.759  26.984  17.840  0.00  0.00    -0.345 OA
BRANCH   9  10
ATOM     10  C15 BPK d   1     -30.417  26.649  19.013  0.00  0.00     0.069 A 
ATOM     11  C20 BPK d   1     -30.531  27.616  19.987  0.00  0.00    -0.051 A 
ATOM     12  C19 BPK d   1     -31.176  27.320  21.167  0.00  0.00    -0.080 A 
ATOM     13  H8  BPK d   1     -30.116  28.604  19.826  0.00  0.00     0.087 H 
ATOM     14  C18 BPK d   1     -31.700  26.061  21.364  0.00  0.00    -0.075 A 
ATOM     15  H4  BPK d   1     -31.271  28.075  21.939  0.00  0.00     0.083 H 
ATOM     16  C17 BPK d   1     -31.584  25.092  20.389  0.00  0.00    -0.032 A 
ATOM     17  H7  BPK d   1     -32.208  25.830  22.293  0.00  0.00     0.084 H 
ATOM     18  C16 BPK d   1     -30.938  25.387  19.208  0.00  0.00    -0.043 A 
ATOM     19  H9  BPK d   1     -30.840  24.632  18.437  0.00  0.00     0.088 H 
BRANCH  16  20
ATOM     20  C21 BPK d   1     -32.151  23.734  20.598  0.00  0.00     0.041 C 
ATOM     21  H13 BPK d   1     -31.896  23.090  19.744  0.00  0.00     0.081 H 
ATOM     22  H14 BPK d   1     -33.245  23.799  20.694  0.00  0.00     0.081 H 
BRANCH  20  23
ATOM     23  O22 BPK d   1     -31.597  23.195  21.787  0.00  0.00    -0.396 OA
ATOM     24  H17 BPK d   1     -31.951  22.326  21.934  0.00  0.00     0.209 HD
ENDBRANCH  20  23
ENDBRANCH  16  20
ENDBRANCH   9  10
ENDBRANCH   6   9
ENDBRANCH   1   6
BRANCH   2  25
ATOM     25  C12 BPK d   1     -31.137  25.554  13.610  0.00  0.00    -0.029 C 
ATOM     26  H10 BPK d   1     -30.978  25.491  12.523  0.00  0.00     0.036 H 
ATOM     27  H11 BPK d   1     -31.964  26.248  13.820  0.00  0.00     0.036 H 
ATOM     28  H12 BPK d   1     -31.387  24.557  14.002  0.00  0.00     0.036 H 
ENDBRANCH   2  25
BRANCH   3  29
ATOM     29  C2  BPK d   1     -26.657  27.108  13.685  0.00  0.00     0.017 A 
ATOM     30  C3  BPK d   1     -26.656  27.969  12.611  0.00  0.00    -0.069 A 
ATOM     31  C4  BPK d   1     -25.472  28.348  12.021  0.00  0.00    -0.082 A 
ATOM     32  H5  BPK d   1     -27.595  28.351  12.227  0.00  0.00     0.085 H 
ATOM     33  C5  BPK d   1     -24.282  27.860  12.508  0.00  0.00    -0.083 A 
ATOM     34  H2  BPK d   1     -25.477  29.028  11.177  0.00  0.00     0.083 H 
ATOM     35  C6  BPK d   1     -24.282  26.995  13.580  0.00  0.00    -0.082 A 
ATOM     36  H1  BPK d   1     -23.346  28.156  12.049  0.00  0.00     0.083 H 
ATOM     37  C7  BPK d   1     -25.467  26.619  14.171  0.00  0.00    -0.069 A 
ATOM     38  H3  BPK d   1     -23.343  26.608  13.960  0.00  0.00     0.083 H 
ATOM     39  H6  BPK d   1     -25.462  25.940  15.016  0.00  0.00     0.085 H 
ENDBRANCH   3  29
TORSDOF 7
