REMARK  26 active torsions:
REMARK  status: ('A' for Active; 'I' for Inactive)
REMARK    1  A    between atoms: CAX_24  and  CAB_2 
REMARK    2  A    between atoms: CBG_33  and  CAC_3 
REMARK    3  A    between atoms: CBN_40  and  CAD_4 
REMARK    4  A    between atoms: CBO_41  and  CAE_5 
REMARK    5  A    between atoms: CBP_42  and  CAF_6 
REMARK    6  A    between atoms: CBQ_43  and  OAO_15 
REMARK    7  A    between atoms: CBU_47  and  OAP_16 
REMARK    8  A    between atoms: CBH_34  and  CAQ_17 
REMARK    9  A    between atoms: CAR_18  and  CBN_40 
REMARK   10  A    between atoms: CBO_41  and  CAX_24 
REMARK   11  A    between atoms: CAZ_26  and  CAY_25 
REMARK   12  A    between atoms: CAY_25  and  CBI_35 
REMARK   13  A    between atoms: CBV_48  and  CAZ_26 
REMARK   14  A    between atoms: CBA_27  and  CBM_39 
REMARK   15  A    between atoms: CBP_42  and  CBA_27 
REMARK   16  A    between atoms: CBN_40  and  CBB_28 
REMARK   17  A    between atoms: CBB_28  and  CBO_41 
REMARK   18  A    between atoms: OBC_29  and  CBG_33 
REMARK   19  A    between atoms: CBR_44  and  OBC_29 
REMARK   20  A    between atoms: OBD_30  and  CBH_34 
REMARK   21  A    between atoms: CBT_46  and  OBD_30 
REMARK   22  A    between atoms: CBI_35  and  CBR_44 
REMARK   23  A    between atoms: CBS_45  and  CBJ_36 
REMARK   24  A    between atoms: CBU_47  and  CBK_37 
REMARK   25  A    between atoms: CBW_49  and  CBL_38 
REMARK   26  A    between atoms: CBR_44  and  CBP_42 
ROOT
ATOM      1  OBE ZGA d   1      17.911  62.148  55.374  0.00  0.00    -0.333 OA
ATOM      2  OBF ZGA d   1      18.722  61.540  53.297  0.00  0.00    -0.324 OA
ATOM      3  CBQ ZGA d   1      16.984  60.298  53.998  0.00  0.00     0.118 C 
ATOM      4  CBS ZGA d   1      18.775  61.257  56.079  0.00  0.00     0.168 C 
ATOM      5  CBT ZGA d   1      18.240  59.421  53.998  0.00  0.00     0.121 C 
ATOM      6  CBU ZGA d   1      19.927  60.826  55.166  0.00  0.00     0.226 C 
ATOM      7  CBV ZGA d   1      17.533  61.724  54.058  0.00  0.00     0.196 C 
ATOM      8  CBW ZGA d   1      19.403  60.396  53.794  0.00  0.00     0.225 C 
ATOM      9  H40 ZGA d   1      16.397  60.142  53.081  0.00  0.00     0.095 H 
ATOM     10  H42 ZGA d   1      18.215  60.358  56.376  0.00  0.00     0.106 H 
ATOM     11  H43 ZGA d   1      18.347  58.887  54.953  0.00  0.00     0.094 H 
ENDROOT
BRANCH   7  12
ATOM     12  CAZ ZGA d   1      16.670  62.843  53.495  0.00  0.00    -0.007 C 
ATOM     13  H31 ZGA d   1      15.776  62.947  54.127  0.00  0.00     0.041 H 
ATOM     14  H32 ZGA d   1      17.249  63.778  53.522  0.00  0.00     0.041 H 
BRANCH  12  15
ATOM     15  CAY ZGA d   1      16.224  62.593  52.068  0.00  0.00    -0.038 C 
ATOM     16  H29 ZGA d   1      15.397  61.868  52.076  0.00  0.00     0.040 H 
ATOM     17  H30 ZGA d   1      17.069  62.179  51.499  0.00  0.00     0.040 H 
BRANCH  15  18
ATOM     18  CBI ZGA d   1      15.749  63.877  51.384  0.00  0.00    -0.059 C 
ATOM     19  CAA ZGA d   1      15.719  65.089  51.980  0.00  0.00    -0.117 C 
ATOM     20  H1  ZGA d   1      16.067  65.200  53.006  0.00  0.00     0.067 H 
ATOM     21  H2  ZGA d   1      15.347  65.955  51.435  0.00  0.00     0.067 H 
BRANCH  18  22
ATOM     22  CBR ZGA d   1      15.277  63.687  49.972  0.00  0.00     0.072 C 
ATOM     23  H41 ZGA d   1      14.672  62.769  49.942  0.00  0.00     0.092 H 
BRANCH  22  24
ATOM     24  OBC ZGA d   1      14.463  64.780  49.538  0.00  0.00    -0.311 OA
BRANCH  24  25
ATOM     25  CBG ZGA d   1      13.083  64.780  49.987  0.00  0.00     0.255 C 
ATOM     26  OAG ZGA d   1      12.762  63.863  50.718  0.00  0.00    -0.266 OA
BRANCH  25  27
ATOM     27  CAC ZGA d   1      12.135  65.855  49.526  0.00  0.00     0.004 C 
ATOM     28  H6  ZGA d   1      11.143  65.685  49.971  0.00  0.00     0.041 H 
ATOM     29  H7  ZGA d   1      12.055  65.828  48.429  0.00  0.00     0.041 H 
ATOM     30  H8  ZGA d   1      12.514  66.838  49.841  0.00  0.00     0.041 H 
ENDBRANCH  25  27
ENDBRANCH  24  25
ENDBRANCH  22  24
BRANCH  22  31
ATOM     31  CBP ZGA d   1      16.436  63.530  48.993  0.00  0.00    -0.024 C 
ATOM     32  H39 ZGA d   1      17.107  62.736  49.353  0.00  0.00     0.044 H 
BRANCH  31  33
ATOM     33  CAF ZGA d   1      17.252  64.811  48.805  0.00  0.00    -0.070 C 
ATOM     34  H15 ZGA d   1      18.067  64.625  48.090  0.00  0.00     0.028 H 
ATOM     35  H16 ZGA d   1      17.676  65.121  49.772  0.00  0.00     0.028 H 
ATOM     36  H17 ZGA d   1      16.600  65.608  48.419  0.00  0.00     0.028 H 
ENDBRANCH  31  33
BRANCH  31  37
ATOM     37  CBA ZGA d   1      15.819  63.127  47.659  0.00  0.00    -0.035 C 
ATOM     38  H33 ZGA d   1      15.035  62.380  47.853  0.00  0.00     0.040 H 
ATOM     39  H34 ZGA d   1      15.369  64.021  47.203  0.00  0.00     0.040 H 
BRANCH  37  40
ATOM     40  CBM ZGA d   1      16.806  62.535  46.671  0.00  0.00    -0.058 A 
ATOM     41  CAV ZGA d   1      17.224  63.336  45.605  0.00  0.00    -0.077 A 
ATOM     42  CAT ZGA d   1      18.101  62.835  44.649  0.00  0.00    -0.082 A 
ATOM     43  H25 ZGA d   1      16.862  64.355  45.523  0.00  0.00     0.084 H 
ATOM     44  CAS ZGA d   1      18.576  61.528  44.762  0.00  0.00    -0.083 A 
ATOM     45  H23 ZGA d   1      18.414  63.458  43.819  0.00  0.00     0.083 H 
ATOM     46  CAU ZGA d   1      18.138  60.725  45.813  0.00  0.00    -0.082 A 
ATOM     47  H22 ZGA d   1      19.282  61.140  44.036  0.00  0.00     0.083 H 
ATOM     48  CAW ZGA d   1      17.263  61.224  46.783  0.00  0.00    -0.077 A 
ATOM     49  H24 ZGA d   1      18.480  59.699  45.880  0.00  0.00     0.083 H 
ATOM     50  H26 ZGA d   1      16.945  60.600  47.610  0.00  0.00     0.084 H 
ENDBRANCH  37  40
ENDBRANCH  31  37
ENDBRANCH  22  31
ENDBRANCH  18  22
ENDBRANCH  15  18
ENDBRANCH  12  15
ENDBRANCH   7  12
BRANCH   3  51
ATOM     51  OAO ZGA d   1      16.170  60.023  55.136  0.00  0.00    -0.387 OA
ATOM     52  H18 ZGA d   1      16.665  60.198  55.928  0.00  0.00     0.210 HD
ENDBRANCH   3  51
BRANCH   4  53
ATOM     53  CBJ ZGA d   1      19.229  61.978  57.318  0.00  0.00     0.207 C 
ATOM     54  OAI ZGA d   1      18.792  63.129  57.537  0.00  0.00    -0.646 OA
ATOM     55  OAL ZGA d   1      20.028  61.414  58.096  0.00  0.00    -0.646 OA
ENDBRANCH   4  53
BRANCH   8  56
ATOM     56  CBL ZGA d   1      20.504  59.977  52.840  0.00  0.00     0.216 C 
ATOM     57  OAK ZGA d   1      21.247  59.050  53.218  0.00  0.00    -0.646 OA
ATOM     58  OAN ZGA d   1      20.693  60.537  51.729  0.00  0.00    -0.646 OA
ENDBRANCH   8  56
BRANCH   5  59
ATOM     59  OBD ZGA d   1      18.160  58.485  52.932  0.00  0.00    -0.306 OA
BRANCH  59  60
ATOM     60  CBH ZGA d   1      18.388  57.097  53.271  0.00  0.00     0.283 C 
ATOM     61  OAH ZGA d   1      18.732  56.747  54.397  0.00  0.00    -0.260 OA
BRANCH  60  62
ATOM     62  CAQ ZGA d   1      18.160  56.149  52.167  0.00  0.00    -0.014 C 
ATOM     63  CAR ZGA d   1      18.401  54.861  52.369  0.00  0.00    -0.094 C 
ATOM     64  H21 ZGA d   1      18.774  54.514  53.331  0.00  0.00     0.077 H 
ATOM     65  H20 ZGA d   1      17.800  56.500  51.201  0.00  0.00     0.092 H 
BRANCH  63  66
ATOM     66  CBN ZGA d   1      18.152  53.884  51.248  0.00  0.00    -0.041 C 
ATOM     67  H37 ZGA d   1      17.630  54.382  50.418  0.00  0.00     0.045 H 
BRANCH  66  68
ATOM     68  CAD ZGA d   1      19.535  53.430  50.788  0.00  0.00    -0.070 C 
ATOM     69  H9  ZGA d   1      20.110  54.301  50.440  0.00  0.00     0.028 H 
ATOM     70  H10 ZGA d   1      19.429  52.708  49.965  0.00  0.00     0.028 H 
ATOM     71  H11 ZGA d   1      20.063  52.954  51.627  0.00  0.00     0.028 H 
ENDBRANCH  66  68
BRANCH  66  72
ATOM     72  CBB ZGA d   1      17.289  52.725  51.748  0.00  0.00    -0.056 C 
ATOM     73  H35 ZGA d   1      17.901  52.132  52.444  0.00  0.00     0.034 H 
ATOM     74  H36 ZGA d   1      17.024  52.109  50.876  0.00  0.00     0.034 H 
BRANCH  72  75
ATOM     75  CBO ZGA d   1      15.987  53.086  52.471  0.00  0.00    -0.057 C 
ATOM     76  H38 ZGA d   1      16.252  53.762  53.297  0.00  0.00     0.039 H 
BRANCH  75  77
ATOM     77  CAE ZGA d   1      14.999  53.841  51.580  0.00  0.00    -0.073 C 
ATOM     78  H12 ZGA d   1      14.089  54.070  52.154  0.00  0.00     0.028 H 
ATOM     79  H13 ZGA d   1      14.738  53.218  50.712  0.00  0.00     0.028 H 
ATOM     80  H14 ZGA d   1      15.460  54.778  51.233  0.00  0.00     0.028 H 
ENDBRANCH  75  77
BRANCH  75  81
ATOM     81  CAX ZGA d   1      15.354  51.837  53.088  0.00  0.00    -0.065 C 
ATOM     82  H27 ZGA d   1      14.969  51.207  52.273  0.00  0.00     0.033 H 
ATOM     83  H28 ZGA d   1      16.135  51.290  53.637  0.00  0.00     0.033 H 
BRANCH  81  84
ATOM     84  CAB ZGA d   1      14.212  52.126  54.046  0.00  0.00    -0.076 C 
ATOM     85  H3  ZGA d   1      13.817  51.179  54.442  0.00  0.00     0.027 H 
ATOM     86  H4  ZGA d   1      13.413  52.663  53.513  0.00  0.00     0.027 H 
ATOM     87  H5  ZGA d   1      14.579  52.746  54.877  0.00  0.00     0.027 H 
ENDBRANCH  81  84
ENDBRANCH  75  81
ENDBRANCH  72  75
ENDBRANCH  66  72
ENDBRANCH  63  66
ENDBRANCH  60  62
ENDBRANCH  59  60
ENDBRANCH   5  59
BRANCH   6  88
ATOM     88  OAP ZGA d   1      20.752  61.963  54.902  0.00  0.00    -0.373 OA
ATOM     89  H19 ZGA d   1      20.237  62.633  54.468  0.00  0.00     0.211 HD
ENDBRANCH   6  88
BRANCH   6  90
ATOM     90  CBK ZGA d   1      20.811  59.811  55.853  0.00  0.00     0.216 C 
ATOM     91  OAJ ZGA d   1      20.341  58.727  56.260  0.00  0.00    -0.646 OA
ATOM     92  OAM ZGA d   1      22.016  60.104  56.002  0.00  0.00    -0.646 OA
ENDBRANCH   6  90
TORSDOF 26
