REMARK  26 active torsions:
REMARK  status: ('A' for Active; 'I' for Inactive)
REMARK    1  A    between atoms: CAX_24  and  CAB_2 
REMARK    2  A    between atoms: CBG_33  and  CAC_3 
REMARK    3  A    between atoms: CBN_40  and  CAD_4 
REMARK    4  A    between atoms: CBO_41  and  CAE_5 
REMARK    5  A    between atoms: CBP_42  and  CAF_6 
REMARK    6  A    between atoms: CBQ_43  and  OAO_15 
REMARK    7  A    between atoms: CBU_47  and  OAP_16 
REMARK    8  A    between atoms: CBH_34  and  CAQ_17 
REMARK    9  A    between atoms: CAR_18  and  CBN_40 
REMARK   10  A    between atoms: CBO_41  and  CAX_24 
REMARK   11  A    between atoms: CAZ_26  and  CAY_25 
REMARK   12  A    between atoms: CAY_25  and  CBI_35 
REMARK   13  A    between atoms: CBV_48  and  CAZ_26 
REMARK   14  A    between atoms: CBA_27  and  CBM_39 
REMARK   15  A    between atoms: CBP_42  and  CBA_27 
REMARK   16  A    between atoms: CBN_40  and  CBB_28 
REMARK   17  A    between atoms: CBB_28  and  CBO_41 
REMARK   18  A    between atoms: OBC_29  and  CBG_33 
REMARK   19  A    between atoms: CBR_44  and  OBC_29 
REMARK   20  A    between atoms: OBD_30  and  CBH_34 
REMARK   21  A    between atoms: CBT_46  and  OBD_30 
REMARK   22  A    between atoms: CBI_35  and  CBR_44 
REMARK   23  A    between atoms: CBS_45  and  CBJ_36 
REMARK   24  A    between atoms: CBU_47  and  CBK_37 
REMARK   25  A    between atoms: CBW_49  and  CBL_38 
REMARK   26  A    between atoms: CBR_44  and  CBP_42 
ROOT
ATOM      1  OBE ZGA d   1      23.275  -5.702   9.471  0.00  0.00    -0.333 OA
ATOM      2  OBF ZGA d   1      22.862  -7.721  10.403  0.00  0.00    -0.324 OA
ATOM      3  CBQ ZGA d   1      22.064  -7.527   8.275  0.00  0.00     0.118 C 
ATOM      4  CBS ZGA d   1      22.113  -5.091  10.054  0.00  0.00     0.168 C 
ATOM      5  CBT ZGA d   1      20.884  -7.645   9.224  0.00  0.00     0.121 C 
ATOM      6  CBU ZGA d   1      21.434  -6.007  11.089  0.00  0.00     0.226 C 
ATOM      7  CBV ZGA d   1      23.209  -7.099   9.176  0.00  0.00     0.196 C 
ATOM      8  CBW ZGA d   1      21.482  -7.464  10.621  0.00  0.00     0.225 C 
ATOM      9  H40 ZGA d   1      22.273  -8.514   7.838  0.00  0.00     0.095 H 
ATOM     10  H42 ZGA d   1      21.385  -4.881   9.257  0.00  0.00     0.106 H 
ATOM     11  H43 ZGA d   1      20.121  -6.878   9.024  0.00  0.00     0.094 H 
ENDROOT
BRANCH   7  12
ATOM     12  CAZ ZGA d   1      24.478  -7.598   8.503  0.00  0.00    -0.007 C 
ATOM     13  H31 ZGA d   1      24.214  -8.248   7.656  0.00  0.00     0.041 H 
ATOM     14  H32 ZGA d   1      25.063  -6.740   8.139  0.00  0.00     0.041 H 
BRANCH  12  15
ATOM     15  CAY ZGA d   1      25.295  -8.378   9.501  0.00  0.00    -0.038 C 
ATOM     16  H29 ZGA d   1      24.749  -9.287   9.795  0.00  0.00     0.040 H 
ATOM     17  H30 ZGA d   1      25.481  -7.758  10.390  0.00  0.00     0.040 H 
BRANCH  15  18
ATOM     18  CBI ZGA d   1      26.614  -8.761   8.863  0.00  0.00    -0.059 C 
ATOM     19  CAA ZGA d   1      27.577  -7.839   8.830  0.00  0.00    -0.117 C 
ATOM     20  H1  ZGA d   1      27.381  -6.834   9.200  0.00  0.00     0.067 H 
ATOM     21  H2  ZGA d   1      28.559  -8.091   8.433  0.00  0.00     0.067 H 
BRANCH  18  22
ATOM     22  CBR ZGA d   1      26.784 -10.174   8.377  0.00  0.00     0.072 C 
ATOM     23  H41 ZGA d   1      26.099 -10.359   7.536  0.00  0.00     0.092 H 
BRANCH  22  24
ATOM     24  OBC ZGA d   1      28.129 -10.433   7.990  0.00  0.00    -0.311 OA
BRANCH  24  25
ATOM     25  CBG ZGA d   1      28.437  -9.969   6.651  0.00  0.00     0.255 C 
ATOM     26  OAG ZGA d   1      27.575  -9.391   6.006  0.00  0.00    -0.266 OA
BRANCH  25  27
ATOM     27  CAC ZGA d   1      29.808 -10.248   6.133  0.00  0.00     0.004 C 
ATOM     28  H6  ZGA d   1      29.904  -9.844   5.114  0.00  0.00     0.041 H 
ATOM     29  H7  ZGA d   1      29.979 -11.335   6.115  0.00  0.00     0.041 H 
ATOM     30  H8  ZGA d   1      30.552  -9.771   6.788  0.00  0.00     0.041 H 
ENDBRANCH  25  27
ENDBRANCH  24  25
ENDBRANCH  22  24
BRANCH  22  31
ATOM     31  CBP ZGA d   1      26.511 -11.146   9.525  0.00  0.00    -0.024 C 
ATOM     32  H39 ZGA d   1      25.449 -11.058   9.796  0.00  0.00     0.044 H 
BRANCH  31  33
ATOM     33  CAF ZGA d   1      27.319 -10.781  10.777  0.00  0.00    -0.070 C 
ATOM     34  H15 ZGA d   1      27.097 -11.500  11.579  0.00  0.00     0.028 H 
ATOM     35  H16 ZGA d   1      27.046  -9.768  11.107  0.00  0.00     0.028 H 
ATOM     36  H17 ZGA d   1      28.393 -10.813  10.543  0.00  0.00     0.028 H 
ENDBRANCH  31  33
BRANCH  31  37
ATOM     37  CBA ZGA d   1      26.736 -12.575   9.023  0.00  0.00    -0.035 C 
ATOM     38  H33 ZGA d   1      26.268 -12.670   8.032  0.00  0.00     0.040 H 
ATOM     39  H34 ZGA d   1      27.820 -12.743   8.935  0.00  0.00     0.040 H 
BRANCH  37  40
ATOM     40  CBM ZGA d   1      26.158 -13.652   9.929  0.00  0.00    -0.058 A 
ATOM     41  CAV ZGA d   1      27.016 -14.499  10.632  0.00  0.00    -0.077 A 
ATOM     42  CAT ZGA d   1      26.509 -15.500  11.457  0.00  0.00    -0.082 A 
ATOM     43  H25 ZGA d   1      28.089 -14.376  10.535  0.00  0.00     0.084 H 
ATOM     44  CAS ZGA d   1      25.130 -15.675  11.577  0.00  0.00    -0.083 A 
ATOM     45  H23 ZGA d   1      27.186 -16.144  12.006  0.00  0.00     0.083 H 
ATOM     46  CAU ZGA d   1      24.269 -14.834  10.874  0.00  0.00    -0.082 A 
ATOM     47  H22 ZGA d   1      24.732 -16.458  12.212  0.00  0.00     0.083 H 
ATOM     48  CAW ZGA d   1      24.780 -13.835  10.036  0.00  0.00    -0.077 A 
ATOM     49  H24 ZGA d   1      23.197 -14.954  10.977  0.00  0.00     0.083 H 
ATOM     50  H26 ZGA d   1      24.104 -13.204   9.470  0.00  0.00     0.084 H 
ENDBRANCH  37  40
ENDBRANCH  31  37
ENDBRANCH  22  31
ENDBRANCH  18  22
ENDBRANCH  15  18
ENDBRANCH  12  15
ENDBRANCH   7  12
BRANCH   3  51
ATOM     51  OAO ZGA d   1      21.907  -6.597   7.200  0.00  0.00    -0.387 OA
ATOM     52  H18 ZGA d   1      21.762  -5.727   7.554  0.00  0.00     0.210 HD
ENDBRANCH   3  51
BRANCH   4  53
ATOM     53  CBJ ZGA d   1      22.550  -3.790  10.669  0.00  0.00     0.207 C 
ATOM     54  OAI ZGA d   1      21.691  -2.947  11.011  0.00  0.00    -0.646 OA
ATOM     55  OAL ZGA d   1      23.776  -3.608  10.837  0.00  0.00    -0.646 OA
ENDBRANCH   4  53
BRANCH   8  56
ATOM     56  CBL ZGA d   1      20.938  -8.436  11.638  0.00  0.00     0.216 C 
ATOM     57  OAK ZGA d   1      21.758  -9.191  12.195  0.00  0.00    -0.646 OA
ATOM     58  OAN ZGA d   1      19.719  -8.443  11.914  0.00  0.00    -0.646 OA
ENDBRANCH   8  56
BRANCH   5  59
ATOM     59  OBD ZGA d   1      20.334  -8.949   9.049  0.00  0.00    -0.306 OA
BRANCH  59  60
ATOM     60  CBH ZGA d   1      18.958  -8.941   8.571  0.00  0.00     0.283 C 
ATOM     61  OAH ZGA d   1      18.479  -7.919   8.093  0.00  0.00    -0.260 OA
BRANCH  60  62
ATOM     62  CAQ ZGA d   1      18.160 -10.170   8.726  0.00  0.00    -0.014 C 
ATOM     63  CAR ZGA d   1      16.954 -10.280   8.168  0.00  0.00    -0.094 C 
ATOM     64  H21 ZGA d   1      16.579  -9.457   7.562  0.00  0.00     0.077 H 
ATOM     65  H20 ZGA d   1      18.561 -11.001   9.305  0.00  0.00     0.092 H 
BRANCH  63  66
ATOM     66  CBN ZGA d   1      16.086 -11.509   8.347  0.00  0.00    -0.041 C 
ATOM     67  H37 ZGA d   1      15.174 -11.211   8.886  0.00  0.00     0.045 H 
BRANCH  66  68
ATOM     68  CAD ZGA d   1      15.645 -12.039   6.984  0.00  0.00    -0.070 C 
ATOM     69  H9  ZGA d   1      15.126 -11.242   6.431  0.00  0.00     0.028 H 
ATOM     70  H10 ZGA d   1      14.964 -12.891   7.125  0.00  0.00     0.028 H 
ATOM     71  H11 ZGA d   1      16.528 -12.365   6.414  0.00  0.00     0.028 H 
ENDBRANCH  66  68
BRANCH  66  72
ATOM     72  CBB ZGA d   1      16.825 -12.511   9.231  0.00  0.00    -0.056 C 
ATOM     73  H35 ZGA d   1      16.831 -12.126  10.261  0.00  0.00     0.034 H 
ATOM     74  H36 ZGA d   1      17.859 -12.599   8.866  0.00  0.00     0.034 H 
BRANCH  72  75
ATOM     75  CBO ZGA d   1      16.199 -13.897   9.240  0.00  0.00    -0.057 C 
ATOM     76  H38 ZGA d   1      15.256 -13.864   8.675  0.00  0.00     0.039 H 
BRANCH  75  77
ATOM     77  CAE ZGA d   1      17.145 -14.862   8.541  0.00  0.00    -0.073 C 
ATOM     78  H12 ZGA d   1      16.705 -15.870   8.540  0.00  0.00     0.028 H 
ATOM     79  H13 ZGA d   1      18.107 -14.883   9.073  0.00  0.00     0.028 H 
ATOM     80  H14 ZGA d   1      17.306 -14.531   7.505  0.00  0.00     0.028 H 
ENDBRANCH  75  77
BRANCH  75  81
ATOM     81  CAX ZGA d   1      15.881 -14.326  10.667  0.00  0.00    -0.065 C 
ATOM     82  H27 ZGA d   1      16.143 -13.510  11.357  0.00  0.00     0.033 H 
ATOM     83  H28 ZGA d   1      14.806 -14.543  10.748  0.00  0.00     0.033 H 
BRANCH  81  84
ATOM     84  CAB ZGA d   1      16.668 -15.563  11.037  0.00  0.00    -0.076 C 
ATOM     85  H3  ZGA d   1      16.425 -15.857  12.069  0.00  0.00     0.027 H 
ATOM     86  H4  ZGA d   1      17.744 -15.350  10.960  0.00  0.00     0.027 H 
ATOM     87  H5  ZGA d   1      16.407 -16.383  10.351  0.00  0.00     0.027 H 
ENDBRANCH  81  84
ENDBRANCH  75  81
ENDBRANCH  72  75
ENDBRANCH  66  72
ENDBRANCH  63  66
ENDBRANCH  60  62
ENDBRANCH  59  60
ENDBRANCH   5  59
BRANCH   6  88
ATOM     88  OAP ZGA d   1      22.113  -5.890  12.343  0.00  0.00    -0.373 OA
ATOM     89  H19 ZGA d   1      21.699  -6.460  12.980  0.00  0.00     0.211 HD
ENDBRANCH   6  88
BRANCH   6  90
ATOM     90  CBK ZGA d   1      20.008  -5.591  11.346  0.00  0.00     0.216 C 
ATOM     91  OAJ ZGA d   1      19.222  -5.498  10.380  0.00  0.00    -0.646 OA
ATOM     92  OAM ZGA d   1      19.655  -5.367  12.523  0.00  0.00    -0.646 OA
ENDBRANCH   6  90
TORSDOF 26
