REMARK  30 active torsions:
REMARK  status: ('A' for Active; 'I' for Inactive)
REMARK    1  A    between atoms: C73_2  and  C83_3 
REMARK       I    between atoms: C73_2  and  N23_4 
REMARK    2  A    between atoms: N23_4  and  C23_5 
REMARK    3  A    between atoms: C33_6  and  O33_7 
REMARK    4  A    between atoms: C43_8  and  O43_15 
REMARK    5  A    between atoms: C53_9  and  C63_10 
REMARK    6  A    between atoms: C63_10  and  O63_11 
REMARK    7  A    between atoms: C13_13  and  O13_14 
REMARK    8  A    between atoms: O43_15  and  C12_16 
REMARK    9  A    between atoms: C52_18  and  C62_19 
REMARK   10  A    between atoms: C62_19  and  O62_20 
REMARK   11  A    between atoms: C42_21  and  O42_29 
REMARK   12  A    between atoms: C32_22  and  O32_23 
REMARK   13  A    between atoms: C22_24  and  N22_25 
REMARK       I    between atoms: N22_25  and  C72_26 
REMARK   14  A    between atoms: C72_26  and  C82_27 
REMARK   15  A    between atoms: O42_29  and  C11_30 
REMARK   16  A    between atoms: C51_32  and  C61_33 
REMARK   17  A    between atoms: C61_33  and  O61_34 
REMARK   18  A    between atoms: C41_35  and  O41_43 
REMARK   19  A    between atoms: C31_36  and  O31_37 
REMARK   20  A    between atoms: C21_38  and  N21_39 
REMARK       I    between atoms: N21_39  and  C71_40 
REMARK   21  A    between atoms: C71_40  and  C81_41 
REMARK   22  A    between atoms: O41_43  and  C1_44 
REMARK   23  A    between atoms: C2_45  and  N2_46 
REMARK   24  A    between atoms: N2_46  and  C9_47 
REMARK   25  A    between atoms: N2_46  and  C8_48 
REMARK   26  A    between atoms: N2_46  and  C7_49 
REMARK   27  A    between atoms: C3_50  and  O3_51 
REMARK   28  A    between atoms: C4_52  and  O4_53 
REMARK   29  A    between atoms: C5_54  and  C6_56 
REMARK   30  A    between atoms: C6_56  and  O6_57 
ROOT
ATOM      1  C11 TCG d   1     -33.859  63.978  42.363  0.00  0.00     0.154 C 
ATOM      2  O51 TCG d   1     -35.225  63.553  42.373  0.00  0.00    -0.349 OA
ATOM      3  C51 TCG d   1     -35.486  62.468  41.482  0.00  0.00     0.089 C 
ATOM      4  C41 TCG d   1     -34.631  61.256  41.862  0.00  0.00     0.095 C 
ATOM      5  C31 TCG d   1     -33.157  61.645  41.972  0.00  0.00     0.087 C 
ATOM      6  C21 TCG d   1     -32.968  62.858  42.874  0.00  0.00     0.087 C 
ATOM      7  H28 TCG d   1     -33.566  64.288  41.349  0.00  0.00     0.132 H 
ATOM      8  H29 TCG d   1     -35.229  62.767  40.455  0.00  0.00     0.090 H 
ATOM      9  H33 TCG d   1     -34.992  60.839  42.814  0.00  0.00     0.091 H 
ATOM     10  H34 TCG d   1     -32.794  61.900  40.965  0.00  0.00     0.090 H 
ATOM     11  H36 TCG d   1     -33.181  62.615  43.925  0.00  0.00     0.084 H 
ENDROOT
BRANCH   1  12
ATOM     12  O42 TCG d   1     -33.680  65.030  43.293  0.00  0.00    -0.348 OA
BRANCH  12  13
ATOM     13  C42 TCG d   1     -34.090  66.292  42.817  0.00  0.00     0.095 C 
ATOM     14  C52 TCG d   1     -32.963  67.278  43.117  0.00  0.00     0.089 C 
ATOM     15  O52 TCG d   1     -33.400  68.627  42.979  0.00  0.00    -0.349 OA
ATOM     16  H16 TCG d   1     -32.626  67.114  44.151  0.00  0.00     0.090 H 
ATOM     17  C12 TCG d   1     -34.570  68.995  43.707  0.00  0.00     0.154 C 
ATOM     18  C22 TCG d   1     -35.754  68.056  43.483  0.00  0.00     0.087 C 
ATOM     19  H15 TCG d   1     -34.349  69.086  44.781  0.00  0.00     0.132 H 
ATOM     20  C32 TCG d   1     -35.356  66.599  43.599  0.00  0.00     0.087 C 
ATOM     21  H23 TCG d   1     -36.221  68.255  42.507  0.00  0.00     0.084 H 
ATOM     22  H21 TCG d   1     -35.192  66.350  44.658  0.00  0.00     0.090 H 
ATOM     23  H20 TCG d   1     -34.297  66.272  41.737  0.00  0.00     0.091 H 
BRANCH  14  24
ATOM     24  C62 TCG d   1     -31.784  67.072  42.169  0.00  0.00     0.043 C 
ATOM     25  H17 TCG d   1     -31.555  65.998  42.101  0.00  0.00     0.078 H 
ATOM     26  H18 TCG d   1     -30.907  67.611  42.556  0.00  0.00     0.078 H 
BRANCH  24  27
ATOM     27  O62 TCG d   1     -32.112  67.575  40.854  0.00  0.00    -0.398 OA
ATOM     28  H19 TCG d   1     -32.309  68.503  40.911  0.00  0.00     0.209 HD
ENDBRANCH  24  27
ENDBRANCH  14  24
BRANCH  17  29
ATOM     29  O43 TCG d   1     -34.955  70.223  43.129  0.00  0.00    -0.348 OA
BRANCH  29  30
ATOM     30  C43 TCG d   1     -35.340  71.141  44.134  0.00  0.00     0.095 C 
ATOM     31  C33 TCG d   1     -34.191  71.355  45.114  0.00  0.00     0.087 C 
ATOM     32  C23 TCG d   1     -33.025  72.144  44.524  0.00  0.00     0.086 C 
ATOM     33  H6  TCG d   1     -33.817  70.371  45.432  0.00  0.00     0.090 H 
ATOM     34  C13 TCG d   1     -33.511  73.072  43.399  0.00  0.00     0.151 C 
ATOM     35  H5  TCG d   1     -32.544  72.741  45.313  0.00  0.00     0.084 H 
ATOM     36  O53 TCG d   1     -34.868  73.465  43.678  0.00  0.00    -0.349 OA
ATOM     37  H13 TCG d   1     -33.463  72.548  42.433  0.00  0.00     0.132 H 
ATOM     38  C53 TCG d   1     -35.795  72.402  43.429  0.00  0.00     0.089 C 
ATOM     39  H9  TCG d   1     -35.845  72.221  42.345  0.00  0.00     0.090 H 
ATOM     40  H8  TCG d   1     -36.191  70.729  44.696  0.00  0.00     0.091 H 
BRANCH  31  41
ATOM     41  O33 TCG d   1     -34.700  72.060  46.252  0.00  0.00    -0.391 OA
ATOM     42  H7  TCG d   1     -34.998  72.921  45.983  0.00  0.00     0.210 HD
ENDBRANCH  31  41
BRANCH  32  43
ATOM     43  N23 TCG d   1     -32.068  71.189  43.959  0.00  0.00    -0.349 N 
ATOM     44  C73 TCG d   1     -30.760  71.353  44.184  0.00  0.00     0.214 C 
ATOM     45  O73 TCG d   1     -30.344  72.290  44.849  0.00  0.00    -0.274 OA
ATOM     46  H4  TCG d   1     -32.391  70.419  43.408  0.00  0.00     0.163 HD
BRANCH  44  47
ATOM     47  C83 TCG d   1     -29.815  70.343  43.587  0.00  0.00    -0.003 C 
ATOM     48  H1  TCG d   1     -30.389  69.588  43.030  0.00  0.00     0.040 H 
ATOM     49  H2  TCG d   1     -29.247  69.852  44.391  0.00  0.00     0.040 H 
ATOM     50  H3  TCG d   1     -29.119  70.851  42.904  0.00  0.00     0.040 H 
ENDBRANCH  44  47
ENDBRANCH  32  43
BRANCH  34  51
ATOM     51  O13 TCG d   1     -32.673  74.252  43.362  0.00  0.00    -0.369 OA
ATOM     52  H14 TCG d   1     -32.983  74.838  42.681  0.00  0.00     0.212 HD
ENDBRANCH  34  51
BRANCH  38  53
ATOM     53  C63 TCG d   1     -37.185  72.746  43.946  0.00  0.00     0.043 C 
ATOM     54  H10 TCG d   1     -37.156  72.828  45.043  0.00  0.00     0.078 H 
ATOM     55  H11 TCG d   1     -37.889  71.952  43.656  0.00  0.00     0.078 H 
BRANCH  53  56
ATOM     56  O63 TCG d   1     -37.628  74.018  43.377  0.00  0.00    -0.398 OA
ATOM     57  H12 TCG d   1     -37.021  74.704  43.628  0.00  0.00     0.209 HD
ENDBRANCH  53  56
ENDBRANCH  38  53
ENDBRANCH  29  30
ENDBRANCH  17  29
BRANCH  18  58
ATOM     58  N22 TCG d   1     -36.688  68.279  44.588  0.00  0.00    -0.349 N 
ATOM     59  C72 TCG d   1     -37.913  68.774  44.383  0.00  0.00     0.214 C 
ATOM     60  O72 TCG d   1     -38.321  69.079  43.266  0.00  0.00    -0.274 OA
ATOM     61  H24 TCG d   1     -36.403  68.055  45.520  0.00  0.00     0.163 HD
BRANCH  59  62
ATOM     62  C82 TCG d   1     -38.781  68.951  45.601  0.00  0.00    -0.003 C 
ATOM     63  H25 TCG d   1     -39.756  69.362  45.300  0.00  0.00     0.040 H 
ATOM     64  H26 TCG d   1     -38.292  69.643  46.303  0.00  0.00     0.040 H 
ATOM     65  H27 TCG d   1     -38.929  67.977  46.090  0.00  0.00     0.040 H 
ENDBRANCH  59  62
ENDBRANCH  18  58
BRANCH  20  66
ATOM     66  O32 TCG d   1     -36.433  65.816  43.075  0.00  0.00    -0.391 OA
ATOM     67  H22 TCG d   1     -36.222  64.894  43.158  0.00  0.00     0.210 HD
ENDBRANCH  20  66
ENDBRANCH  12  13
ENDBRANCH   1  12
BRANCH   6  68
ATOM     68  N21 TCG d   1     -31.595  63.327  42.687  0.00  0.00    -0.349 N 
ATOM     69  C71 TCG d   1     -30.777  63.766  43.660  0.00  0.00     0.214 C 
ATOM     70  O71 TCG d   1     -29.644  64.139  43.407  0.00  0.00    -0.274 OA
ATOM     71  H37 TCG d   1     -31.233  63.321  41.755  0.00  0.00     0.163 HD
BRANCH  69  72
ATOM     72  C81 TCG d   1     -31.280  63.788  45.073  0.00  0.00    -0.003 C 
ATOM     73  H38 TCG d   1     -30.491  64.171  45.737  0.00  0.00     0.040 H 
ATOM     74  H39 TCG d   1     -31.554  62.768  45.380  0.00  0.00     0.040 H 
ATOM     75  H40 TCG d   1     -32.163  64.441  45.138  0.00  0.00     0.040 H 
ENDBRANCH  69  72
ENDBRANCH   6  68
BRANCH   3  76
ATOM     76  C61 TCG d   1     -36.975  62.171  41.552  0.00  0.00     0.043 C 
ATOM     77  H30 TCG d   1     -37.270  62.014  42.600  0.00  0.00     0.078 H 
ATOM     78  H31 TCG d   1     -37.197  61.265  40.969  0.00  0.00     0.078 H 
BRANCH  76  79
ATOM     79  O61 TCG d   1     -37.705  63.284  41.008  0.00  0.00    -0.398 OA
ATOM     80  H32 TCG d   1     -38.636  63.102  41.050  0.00  0.00     0.209 HD
ENDBRANCH  76  79
ENDBRANCH   3  76
BRANCH   5  81
ATOM     81  O31 TCG d   1     -32.376  60.551  42.477  0.00  0.00    -0.391 OA
ATOM     82  H35 TCG d   1     -32.454  59.809  41.888  0.00  0.00     0.210 HD
ENDBRANCH   5  81
BRANCH   4  83
ATOM     83  O41 TCG d   1     -34.675  60.272  40.837  0.00  0.00    -0.348 OA
BRANCH  83  84
ATOM     84  C1  TCG d   1     -35.602  59.198  41.007  0.00  0.00     0.162 C 
ATOM     85  C2  TCG d   1     -35.344  58.193  39.863  0.00  0.00     0.178 C 
ATOM     86  C3  TCG d   1     -34.291  57.130  40.216  0.00  0.00     0.095 C 
ATOM     87  H42 TCG d   1     -34.913  58.778  39.037  0.00  0.00     0.097 H 
ATOM     88  C4  TCG d   1     -33.596  57.456  41.527  0.00  0.00     0.089 C 
ATOM     89  H52 TCG d   1     -34.796  56.158  40.319  0.00  0.00     0.090 H 
ATOM     90  C5  TCG d   1     -34.662  57.574  42.609  0.00  0.00     0.089 C 
ATOM     91  H54 TCG d   1     -33.053  58.408  41.438  0.00  0.00     0.091 H 
ATOM     92  O5  TCG d   1     -35.574  58.648  42.339  0.00  0.00    -0.349 OA
ATOM     93  H56 TCG d   1     -35.229  56.632  42.638  0.00  0.00     0.090 H 
ATOM     94  H41 TCG d   1     -36.615  59.601  40.864  0.00  0.00     0.132 H 
BRANCH  85  95
ATOM     95  N2  TCG d   1     -36.609  57.611  39.337  0.00  0.00    -0.067 N 
BRANCH  95  96
ATOM     96  C9  TCG d   1     -36.319  56.691  38.219  0.00  0.00     0.068 C 
ATOM     97  H43 TCG d   1     -37.260  56.268  37.839  0.00  0.00     0.068 H 
ATOM     98  H44 TCG d   1     -35.668  55.878  38.573  0.00  0.00     0.068 H 
ATOM     99  H45 TCG d   1     -35.813  57.242  37.413  0.00  0.00     0.068 H 
ENDBRANCH  95  96
BRANCH  95 100
ATOM    100  C8  TCG d   1     -37.406  56.885  40.345  0.00  0.00     0.068 C 
ATOM    101  H46 TCG d   1     -37.632  57.556  41.187  0.00  0.00     0.068 H 
ATOM    102  H47 TCG d   1     -36.835  56.019  40.710  0.00  0.00     0.068 H 
ATOM    103  H48 TCG d   1     -38.346  56.539  39.890  0.00  0.00     0.068 H 
ENDBRANCH  95 100
BRANCH  95 104
ATOM    104  C7  TCG d   1     -37.456  58.687  38.792  0.00  0.00     0.068 C 
ATOM    105  H49 TCG d   1     -36.891  59.250  38.035  0.00  0.00     0.068 H 
ATOM    106  H50 TCG d   1     -37.756  59.365  39.605  0.00  0.00     0.068 H 
ATOM    107  H51 TCG d   1     -38.353  58.249  38.330  0.00  0.00     0.068 H 
ENDBRANCH  95 104
ENDBRANCH  85  95
BRANCH  86 108
ATOM    108  O3  TCG d   1     -33.322  57.039  39.168  0.00  0.00    -0.391 OA
ATOM    109  H53 TCG d   1     -33.755  56.795  38.358  0.00  0.00     0.210 HD
ENDBRANCH  86 108
BRANCH  88 110
ATOM    110  O4  TCG d   1     -32.675  56.410  41.840  0.00  0.00    -0.390 OA
ATOM    111  H55 TCG d   1     -32.238  56.609  42.660  0.00  0.00     0.210 HD
ENDBRANCH  88 110
BRANCH  90 112
ATOM    112  C6  TCG d   1     -34.024  57.803  43.969  0.00  0.00     0.043 C 
ATOM    113  H57 TCG d   1     -33.383  58.696  43.929  0.00  0.00     0.078 H 
ATOM    114  H58 TCG d   1     -33.417  56.928  44.242  0.00  0.00     0.078 H 
BRANCH 112 115
ATOM    115  O6  TCG d   1     -35.058  57.997  44.951  0.00  0.00    -0.398 OA
ATOM    116  H59 TCG d   1     -34.662  58.140  45.802  0.00  0.00     0.209 HD
ENDBRANCH 112 115
ENDBRANCH  90 112
ENDBRANCH  83  84
ENDBRANCH   4  83
TORSDOF 30
