REMARK  5 active torsions:
REMARK  status: ('A' for Active; 'I' for Inactive)
REMARK    1  A    between atoms: C3_3  and  N23_23 
REMARK    2  A    between atoms: N5_5  and  C21_21 
REMARK    3  A    between atoms: C6_6  and  C15_15 
REMARK    4  A    between atoms: C8_8  and  N24_24 
REMARK    5  A    between atoms: C21_21  and  C22_22 
ROOT
ATOM      1  C1   ET d   1       5.104  15.537 -32.268  0.00  0.00    -0.068 A 
ATOM      2  C2   ET d   1       4.155  16.565 -32.374  0.00  0.00    -0.057 A 
ATOM      3  C3   ET d   1       3.132  16.438 -33.282  0.00  0.00     0.027 A 
ATOM      4  C4   ET d   1       2.968  15.314 -34.063  0.00  0.00    -0.031 A 
ATOM      5  N5   ET d   1       3.743  13.058 -34.649  0.00  0.00    -0.367 N 
ATOM      6  C6   ET d   1       4.724  12.170 -34.788  0.00  0.00     0.064 C 
ATOM      7  C7   ET d   1       6.672  11.070 -33.581  0.00  0.00    -0.049 A 
ATOM      8  C8   ET d   1       7.641  11.231 -32.590  0.00  0.00     0.026 A 
ATOM      9  C9   ET d   1       7.761  12.373 -31.830  0.00  0.00    -0.057 A 
ATOM     10  C10  ET d   1       6.910  13.465 -31.963  0.00  0.00    -0.069 A 
ATOM     11  C11  ET d   1       5.788  12.166 -33.710  0.00  0.00    -0.018 A 
ATOM     12  C12  ET d   1       5.927  13.328 -32.990  0.00  0.00    -0.015 A 
ATOM     13  C13  ET d   1       4.943  14.416 -33.087  0.00  0.00     0.001 A 
ATOM     14  C14  ET d   1       3.894  14.265 -33.997  0.00  0.00     0.044 A 
ATOM     15  H1   ET d   1       5.934  15.610 -31.574  0.00  0.00     0.085 H 
ATOM     16  H2   ET d   1       4.228  17.447 -31.748  0.00  0.00     0.086 H 
ATOM     17  H3   ET d   1       2.118  15.242 -34.732  0.00  0.00     0.090 H 
ATOM     18  H4   ET d   1       5.278  12.718 -35.565  0.00  0.00     0.088 H 
ATOM     19  H5   ET d   1       6.603  10.182 -34.198  0.00  0.00     0.087 H 
ATOM     20  H6   ET d   1       8.555  12.423 -31.094  0.00  0.00     0.086 H 
ATOM     21  H7   ET d   1       6.987  14.348 -31.338  0.00  0.00     0.085 H 
ENDROOT
BRANCH   6  22
ATOM     22  C15  ET d   1       4.611  10.923 -35.501  0.00  0.00    -0.031 A 
ATOM     23  C16  ET d   1       5.363  10.728 -36.701  0.00  0.00    -0.074 A 
ATOM     24  C17  ET d   1       5.257   9.518 -37.350  0.00  0.00    -0.082 A 
ATOM     25  H8   ET d   1       6.001  11.513 -37.090  0.00  0.00     0.084 H 
ATOM     26  C18  ET d   1       4.358   8.544 -36.875  0.00  0.00    -0.083 A 
ATOM     27  H9   ET d   1       5.864   9.316 -38.225  0.00  0.00     0.083 H 
ATOM     28  C19  ET d   1       3.658   8.772 -35.664  0.00  0.00    -0.082 A 
ATOM     29  H10  ET d   1       4.202   7.627 -37.431  0.00  0.00     0.083 H 
ATOM     30  C20  ET d   1       3.744   9.980 -35.035  0.00  0.00    -0.074 A 
ATOM     31  H11  ET d   1       3.051   7.983 -35.235  0.00  0.00     0.083 H 
ATOM     32  H12  ET d   1       3.126  10.189 -34.169  0.00  0.00     0.084 H 
ENDBRANCH   6  22
BRANCH   5  33
ATOM     33  C21  ET d   1       2.677  13.102 -35.717  0.00  0.00    -0.007 C 
ATOM     34  H13  ET d   1       2.926  12.408 -36.533  0.00  0.00     0.063 H 
ATOM     35  H14  ET d   1       2.581  14.121 -36.119  0.00  0.00     0.063 H 
BRANCH  33  36
ATOM     36  C22  ET d   1       1.394  12.682 -35.046  0.00  0.00    -0.061 C 
ATOM     37  H15  ET d   1       0.575  12.695 -35.780  0.00  0.00     0.029 H 
ATOM     38  H16  ET d   1       1.163  13.379 -34.227  0.00  0.00     0.029 H 
ATOM     39  H17  ET d   1       1.508  11.665 -34.641  0.00  0.00     0.029 H 
ENDBRANCH  33  36
ENDBRANCH   5  33
BRANCH   8  40
ATOM     40  N24  ET d   1       8.409  10.108 -32.358  0.00  0.00    -0.399 N 
ATOM     41  H20  ET d   1       8.290   9.272 -32.948  0.00  0.00     0.156 HD
ATOM     42  H21  ET d   1       9.101  10.106 -31.595  0.00  0.00     0.156 HD
ENDBRANCH   8  40
BRANCH   3  43
ATOM     43  N23  ET d   1       2.226  17.494 -33.465  0.00  0.00    -0.399 N 
ATOM     44  H18  ET d   1       2.314  18.352 -32.901  0.00  0.00     0.156 HD
ATOM     45  H19  ET d   1       1.473  17.412 -34.163  0.00  0.00     0.156 HD
ENDBRANCH   3  43
TORSDOF 5
