REMARK  12 active torsions:
REMARK  status: ('A' for Active; 'I' for Inactive)
REMARK    1  A    between atoms: C1_1  and  C2_2 
REMARK    2  A    between atoms: C1_1  and  C8_8 
REMARK    3  A    between atoms: C1_1  and  C14_14 
REMARK    4  A    between atoms: C5_5  and  N1_26 
REMARK    5  A    between atoms: C11_11  and  N2_27 
REMARK    6  A    between atoms: C17_17  and  N3_28 
REMARK    7  A    between atoms: N1_26  and  C20_20 
REMARK    8  A    between atoms: N1_26  and  C21_21 
REMARK    9  A    between atoms: N2_27  and  C22_22 
REMARK   10  A    between atoms: N2_27  and  C23_23 
REMARK   11  A    between atoms: N3_28  and  C24_24 
REMARK   12  A    between atoms: N3_28  and  C25_25 
ROOT
ATOM      1  C1  CVI d   1     -13.402   2.786 -18.672  0.00  0.00     0.022 C 
ATOM      2  H1  CVI d   1     -13.610   1.868 -18.103  0.00  0.00     0.062 H 
ENDROOT
BRANCH   1   3
ATOM      3  C2  CVI d   1     -12.686   3.393 -17.541  0.00  0.00    -0.045 A 
ATOM      4  C3  CVI d   1     -11.634   2.712 -16.975  0.00  0.00    -0.074 A 
ATOM      5  C4  CVI d   1     -10.979   3.265 -15.849  0.00  0.00    -0.057 A 
ATOM      6  H2  CVI d   1     -11.310   1.763 -17.386  0.00  0.00     0.084 H 
ATOM      7  C5  CVI d   1     -11.424   4.522 -15.372  0.00  0.00     0.029 A 
ATOM      8  H3  CVI d   1     -10.161   2.742 -15.366  0.00  0.00     0.086 H 
ATOM      9  C6  CVI d   1     -12.495   5.198 -15.995  0.00  0.00    -0.057 A 
ATOM     10  C7  CVI d   1     -13.125   4.612 -17.078  0.00  0.00    -0.074 A 
ATOM     11  H4  CVI d   1     -12.820   6.165 -15.629  0.00  0.00     0.086 H 
ATOM     12  H5  CVI d   1     -13.959   5.110 -17.559  0.00  0.00     0.084 H 
BRANCH   7  13
ATOM     13  N1  CVI d   1     -10.797   5.096 -14.254  0.00  0.00    -0.390 N 
BRANCH  13  14
ATOM     14  C20 CVI d   1      -9.471   4.631 -13.824  0.00  0.00    -0.019 C 
ATOM     15  H14 CVI d   1      -9.153   5.199 -12.938  0.00  0.00     0.056 H 
ATOM     16  H15 CVI d   1      -8.747   4.785 -14.637  0.00  0.00     0.056 H 
ATOM     17  H16 CVI d   1      -9.521   3.561 -13.575  0.00  0.00     0.056 H 
ENDBRANCH  13  14
BRANCH  13  18
ATOM     18  C21 CVI d   1     -11.391   6.179 -13.484  0.00  0.00    -0.019 C 
ATOM     19  H17 CVI d   1     -12.375   6.431 -13.905  0.00  0.00     0.056 H 
ATOM     20  H18 CVI d   1     -10.736   7.062 -13.527  0.00  0.00     0.056 H 
ATOM     21  H19 CVI d   1     -11.510   5.862 -12.437  0.00  0.00     0.056 H 
ENDBRANCH  13  18
ENDBRANCH   7  13
ENDBRANCH   1   3
BRANCH   1  22
ATOM     22  C8  CVI d   1     -14.873   3.070 -18.815  0.00  0.00    -0.045 A 
ATOM     23  C9  CVI d   1     -15.383   3.569 -20.021  0.00  0.00    -0.074 A 
ATOM     24  C10 CVI d   1     -16.779   3.838 -20.124  0.00  0.00    -0.057 A 
ATOM     25  H6  CVI d   1     -14.725   3.748 -20.864  0.00  0.00     0.084 H 
ATOM     26  C11 CVI d   1     -17.638   3.634 -19.046  0.00  0.00     0.029 A 
ATOM     27  H7  CVI d   1     -17.181   4.209 -21.060  0.00  0.00     0.086 H 
ATOM     28  C12 CVI d   1     -17.120   3.163 -17.847  0.00  0.00    -0.057 A 
ATOM     29  C13 CVI d   1     -15.741   2.878 -17.703  0.00  0.00    -0.074 A 
ATOM     30  H8  CVI d   1     -17.785   3.010 -17.005  0.00  0.00     0.086 H 
ATOM     31  H9  CVI d   1     -15.351   2.518 -16.758  0.00  0.00     0.084 H 
BRANCH  26  32
ATOM     32  N2  CVI d   1     -18.975   3.903 -19.120  0.00  0.00    -0.390 N 
BRANCH  32  33
ATOM     33  C22 CVI d   1     -19.519   4.636 -20.247  0.00  0.00    -0.019 C 
ATOM     34  H20 CVI d   1     -20.606   4.749 -20.121  0.00  0.00     0.056 H 
ATOM     35  H21 CVI d   1     -19.313   4.085 -21.177  0.00  0.00     0.056 H 
ATOM     36  H22 CVI d   1     -19.051   5.630 -20.298  0.00  0.00     0.056 H 
ENDBRANCH  32  33
BRANCH  32  37
ATOM     37  C23 CVI d   1     -19.755   3.446 -17.985  0.00  0.00    -0.019 C 
ATOM     38  H23 CVI d   1     -19.098   2.919 -17.277  0.00  0.00     0.056 H 
ATOM     39  H24 CVI d   1     -20.543   2.762 -18.333  0.00  0.00     0.056 H 
ATOM     40  H25 CVI d   1     -20.215   4.311 -17.484  0.00  0.00     0.056 H 
ENDBRANCH  32  37
ENDBRANCH  26  32
ENDBRANCH   1  22
BRANCH   1  41
ATOM     41  C14 CVI d   1     -12.631   2.031 -19.667  0.00  0.00    -0.045 A 
ATOM     42  C15 CVI d   1     -11.244   2.168 -19.796  0.00  0.00    -0.074 A 
ATOM     43  C16 CVI d   1     -10.613   1.416 -20.813  0.00  0.00    -0.057 A 
ATOM     44  H10 CVI d   1     -10.678   2.823 -19.144  0.00  0.00     0.084 H 
ATOM     45  C17 CVI d   1     -11.334   0.524 -21.634  0.00  0.00     0.029 A 
ATOM     46  H11 CVI d   1      -9.546   1.528 -20.966  0.00  0.00     0.086 H 
ATOM     47  C18 CVI d   1     -12.695   0.416 -21.457  0.00  0.00    -0.057 A 
ATOM     48  C19 CVI d   1     -13.333   1.171 -20.487  0.00  0.00    -0.074 A 
ATOM     49  H12 CVI d   1     -13.269  -0.262 -22.079  0.00  0.00     0.086 H 
ATOM     50  H13 CVI d   1     -14.407   1.085 -20.369  0.00  0.00     0.084 H 
BRANCH  45  51
ATOM     51  N3  CVI d   1     -10.685  -0.198 -22.684  0.00  0.00    -0.390 N 
BRANCH  51  52
ATOM     52  C24 CVI d   1      -9.233  -0.186 -22.733  0.00  0.00    -0.019 C 
ATOM     53  H26 CVI d   1      -8.890  -0.782 -23.591  0.00  0.00     0.056 H 
ATOM     54  H27 CVI d   1      -8.831  -0.616 -21.804  0.00  0.00     0.056 H 
ATOM     55  H28 CVI d   1      -8.878   0.850 -22.841  0.00  0.00     0.056 H 
ENDBRANCH  51  52
BRANCH  51  56
ATOM     56  C25 CVI d   1     -11.362  -0.856 -23.810  0.00  0.00    -0.019 C 
ATOM     57  H29 CVI d   1     -12.451  -0.803 -23.665  0.00  0.00     0.056 H 
ATOM     58  H30 CVI d   1     -11.050  -1.909 -23.861  0.00  0.00     0.056 H 
ATOM     59  H31 CVI d   1     -11.092  -0.348 -24.748  0.00  0.00     0.056 H 
ENDBRANCH  51  56
ENDBRANCH  45  51
ENDBRANCH   1  41
TORSDOF 12
