REMARK  4 active torsions:
REMARK  status: ('A' for Active; 'I' for Inactive)
REMARK    1  A    between atoms: C15_17  and  O3_22 
REMARK    2  A    between atoms: C18_21  and  O4_23 
REMARK    3  A    between atoms: O3_22  and  C19_24 
REMARK    4  A    between atoms: O4_23  and  C20_25 
ROOT
ATOM      1  C1  BER d   1       2.615  14.504 -34.361  0.00  0.00     0.026 A 
ATOM      2  C2  BER d   1       2.637  13.185 -34.919  0.00  0.00     0.000 A 
ATOM      3  N1  BER d   1       1.543  15.262 -34.503  0.00  0.00    -0.358 N 
ATOM      4  C3  BER d   1       3.878  14.857 -33.697  0.00  0.00    -0.005 C 
ATOM      5  C4  BER d   1       1.427  12.734 -35.594  0.00  0.00    -0.020 A 
ATOM      6  C5  BER d   1       3.767  12.433 -34.797  0.00  0.00    -0.035 A 
ATOM      7  C6  BER d   1       1.479  16.481 -33.978  0.00  0.00     0.009 C 
ATOM      8  C7  BER d   1       0.445  14.842 -35.122  0.00  0.00    -0.019 A 
ATOM      9  C8  BER d   1       3.756  16.143 -33.008  0.00  0.00    -0.066 C 
ATOM     10  C9  BER d   1       1.370  11.491 -36.143  0.00  0.00    -0.037 A 
ATOM     11  C10 BER d   1       0.360  13.593 -35.676  0.00  0.00    -0.057 A 
ATOM     12  C11 BER d   1       3.667  11.210 -35.358  0.00  0.00     0.105 A 
ATOM     13  C12 BER d   1       2.666  17.092 -33.326  0.00  0.00     0.015 C 
ATOM     14  C13 BER d   1       4.686  16.483 -32.148  0.00  0.00    -0.077 C 
ATOM     15  C14 BER d   1       2.493  10.741 -36.026  0.00  0.00     0.105 A 
ATOM     16  O1  BER d   1       4.559  10.243 -35.390  0.00  0.00    -0.323 OA
ATOM     17  C15 BER d   1       2.203  17.842 -32.120  0.00  0.00     0.092 C 
ATOM     18  C16 BER d   1       4.568  17.761 -31.482  0.00  0.00    -0.052 C 
ATOM     19  O2  BER d   1       2.708   9.502 -36.467  0.00  0.00    -0.323 OA
ATOM     20  C17 BER d   1       3.993   9.113 -36.033  0.00  0.00     0.115 A 
ATOM     21  C18 BER d   1       3.411  18.409 -31.488  0.00  0.00     0.075 C 
ATOM     22  H1  BER d   1       4.676  14.925 -34.451  0.00  0.00     0.049 H 
ATOM     23  H2  BER d   1       4.131  14.077 -32.964  0.00  0.00     0.049 H 
ATOM     24  H3  BER d   1       4.662  12.784 -34.296  0.00  0.00     0.089 H 
ATOM     25  H4  BER d   1       0.683  16.454 -33.219  0.00  0.00     0.066 H 
ATOM     26  H5  BER d   1       1.185  17.159 -34.793  0.00  0.00     0.066 H 
ATOM     27  H6  BER d   1      -0.408  15.507 -35.190  0.00  0.00     0.111 H 
ATOM     28  H7  BER d   1       0.481  11.123 -36.643  0.00  0.00     0.089 H 
ATOM     29  H8  BER d   1      -0.549  13.283 -36.179  0.00  0.00     0.086 H 
ATOM     30  H9  BER d   1       3.086  17.822 -34.034  0.00  0.00     0.054 H 
ATOM     31  H10 BER d   1       5.525  15.820 -31.941  0.00  0.00     0.084 H 
ATOM     32  H11 BER d   1       1.625  17.218 -31.422  0.00  0.00     0.095 H 
ATOM     33  H12 BER d   1       5.430  18.192 -30.975  0.00  0.00     0.087 H 
ATOM     34  H13 BER d   1       3.918   8.272 -35.328  0.00  0.00     0.118 H 
ATOM     35  H14 BER d   1       4.611   8.816 -36.893  0.00  0.00     0.118 H 
ENDROOT
BRANCH  17  36
ATOM     36  O3  BER d   1       1.447  18.904 -32.650  0.00  0.00    -0.383 OA
BRANCH  36  37
ATOM     37  C19 BER d   1       1.257  19.972 -31.765  0.00  0.00     0.005 C 
ATOM     38  H15 BER d   1       0.660  20.754 -32.257  0.00  0.00     0.066 H 
ATOM     39  H16 BER d   1       2.234  20.386 -31.474  0.00  0.00     0.066 H 
ATOM     40  H17 BER d   1       0.728  19.616 -30.869  0.00  0.00     0.066 H 
ENDBRANCH  36  37
ENDBRANCH  17  36
BRANCH  21  41
ATOM     41  O4  BER d   1       3.350  19.689 -30.863  0.00  0.00    -0.358 OA
BRANCH  41  42
ATOM     42  C20 BER d   1       4.490  19.996 -30.120  0.00  0.00     0.010 C 
ATOM     43  H18 BER d   1       4.376  20.992 -29.668  0.00  0.00     0.066 H 
ATOM     44  H19 BER d   1       5.370  19.992 -30.780  0.00  0.00     0.066 H 
ATOM     45  H20 BER d   1       4.623  19.246 -29.326  0.00  0.00     0.066 H 
ENDBRANCH  41  42
ENDBRANCH  21  41
TORSDOF 4
