REMARK  6 active torsions:
REMARK  status: ('A' for Active; 'I' for Inactive)
REMARK    1  A    between atoms: N1_1  and  C1'_9 
REMARK    2  A    between atoms: C2'_10  and  O2'_11 
REMARK    3  A    between atoms: C3'_12  and  O3'_14 
REMARK    4  A    between atoms: C4'_13  and  C5'_16 
REMARK    5  A    between atoms: C5'_16  and  O5'_17 
REMARK    6  A    between atoms: O5'_17  and  P_18 
ROOT
ATOM      1  C1' U5P d   1      18.024  39.899  35.971  0.00  0.00     0.141 C 
ATOM      2  C2' U5P d   1      18.614  39.902  37.370  0.00  0.00     0.105 C 
ATOM      3  C3' U5P d   1      19.743  38.895  37.221  0.00  0.00     0.091 C 
ATOM      4  C4' U5P d   1      19.156  37.886  36.272  0.00  0.00     0.089 C 
ATOM      5  O4' U5P d   1      18.260  38.616  35.418  0.00  0.00    -0.353 OA
ATOM      6  H4  U5P d   1      18.571  40.648  35.380  0.00  0.00     0.123 H 
ATOM      7  H5  U5P d   1      17.875  39.569  38.114  0.00  0.00     0.093 H 
ATOM      8  H7  U5P d   1      20.041  38.446  38.180  0.00  0.00     0.091 H 
ATOM      9  H8  U5P d   1      19.968  37.459  35.665  0.00  0.00     0.090 H 
ENDROOT
BRANCH   1  10
ATOM     10  N1  U5P d   1      16.613  40.220  35.865  0.00  0.00    -0.280 N 
ATOM     11  C2  U5P d   1      15.660  39.466  36.532  0.00  0.00     0.331 C 
ATOM     12  N3  U5P d   1      14.364  39.810  36.348  0.00  0.00    -0.275 N 
ATOM     13  O2  U5P d   1      15.970  38.516  37.228  0.00  0.00    -0.246 OA
ATOM     14  C4  U5P d   1      13.908  40.837  35.542  0.00  0.00     0.250 C 
ATOM     15  H1  U5P d   1      13.676  39.275  36.838  0.00  0.00     0.173 HD
ATOM     16  C5  U5P d   1      14.901  41.590  34.897  0.00  0.00    -0.002 C 
ATOM     17  O4  U5P d   1      12.673  41.002  35.475  0.00  0.00    -0.268 OA
ATOM     18  C6  U5P d   1      16.218  41.237  34.962  0.00  0.00    -0.008 C 
ATOM     19  H2  U5P d   1      14.615  42.476  34.332  0.00  0.00     0.094 H 
ATOM     20  H3  U5P d   1      16.954  41.730  34.329  0.00  0.00     0.112 H 
ENDBRANCH   1  10
BRANCH   2  21
ATOM     21  O2' U5P d   1      19.103  41.159  37.737  0.00  0.00    -0.388 OA
ATOM     22  H6  U5P d   1      18.395  41.792  37.714  0.00  0.00     0.210 HD
ENDBRANCH   2  21
BRANCH   3  23
ATOM     23  O3' U5P d   1      20.841  39.553  36.594  0.00  0.00    -0.390 OA
ATOM     24  H9  U5P d   1      21.211  40.190  37.194  0.00  0.00     0.210 HD
ENDBRANCH   3  23
BRANCH   4  25
ATOM     25  C5' U5P d   1      18.440  36.736  36.958  0.00  0.00     0.059 C 
ATOM     26  H10 U5P d   1      17.856  36.156  36.228  0.00  0.00     0.079 H 
ATOM     27  H11 U5P d   1      17.772  37.113  37.746  0.00  0.00     0.079 H 
BRANCH  25  28
ATOM     28  O5' U5P d   1      19.460  35.943  37.515  0.00  0.00    -0.280 OA
BRANCH  28  29
ATOM     29  P   U5P d   1      19.129  34.601  38.352  0.00  0.00     0.422 P 
ATOM     30  O1P U5P d   1      17.818  34.810  39.086  0.00  0.00    -0.617 OA
ATOM     31  O2P U5P d   1      20.327  34.495  39.257  0.00  0.00    -0.617 OA
ATOM     32  O3P U5P d   1      19.040  33.470  37.367  0.00  0.00    -0.617 OA
ENDBRANCH  28  29
ENDBRANCH  25  28
ENDBRANCH   4  25
TORSDOF 6
