REMARK  23 active torsions:
REMARK  status: ('A' for Active; 'I' for Inactive)
REMARK    1  A    between atoms: N4B_18  and  C1A_1 
REMARK    2  A    between atoms: C2A_2  and  O2A_8 
REMARK    3  A    between atoms: C3A_3  and  O3A_9 
REMARK    4  A    between atoms: C4A_4  and  O4A_10 
REMARK    5  A    between atoms: C5A_5  and  C6A_6 
REMARK    6  A    between atoms: C6A_6  and  O6A_11 
REMARK    7  A    between atoms: O4C_30  and  C1B_12 
REMARK    8  A    between atoms: C2B_13  and  O2B_19 
REMARK    9  A    between atoms: C3B_14  and  O3B_20 
REMARK   10  A    between atoms: C4B_15  and  N4B_18 
REMARK   11  A    between atoms: C5B_16  and  C6B_17 
REMARK   12  A    between atoms: O4D_42  and  C1C_22 
REMARK   13  A    between atoms: C2C_23  and  O2C_28 
REMARK   14  A    between atoms: C3C_24  and  O3C_29 
REMARK   15  A    between atoms: C4C_25  and  O4C_30 
REMARK   16  A    between atoms: C5C_26  and  C6C_27 
REMARK   17  A    between atoms: C6C_27  and  O6C_32 
REMARK   18  A    between atoms: C1D_33  and  O1D_39 
REMARK   19  A    between atoms: C2D_34  and  O2D_40 
REMARK   20  A    between atoms: C3D_35  and  O3D_41 
REMARK   21  A    between atoms: C4D_36  and  O4D_42 
REMARK   22  A    between atoms: C5D_37  and  C6D_38 
REMARK   23  A    between atoms: C6D_38  and  O6D_44 
ROOT
ATOM      1  C1B ACR d   1      -0.600  -1.888 -20.833  0.00  0.00     0.159 C 
ATOM      2  C2B ACR d   1       0.315  -2.863 -20.111  0.00  0.00     0.110 C 
ATOM      3  C3B ACR d   1       0.701  -4.053 -21.003  0.00  0.00     0.094 C 
ATOM      4  C4B ACR d   1      -0.563  -4.786 -21.408  0.00  0.00     0.154 C 
ATOM      5  C5B ACR d   1      -1.426  -3.765 -22.151  0.00  0.00     0.068 C 
ATOM      6  O5B ACR d   1      -1.728  -2.619 -21.312  0.00  0.00    -0.351 OA
ATOM      7  H12 ACR d   1      -0.938  -1.093 -20.152  0.00  0.00     0.133 H 
ATOM      8  H13 ACR d   1      -0.206  -3.248 -19.222  0.00  0.00     0.094 H 
ATOM      9  H14 ACR d   1       1.264  -3.734 -21.892  0.00  0.00     0.090 H 
ATOM     10  H15 ACR d   1      -1.091  -5.104 -20.497  0.00  0.00     0.092 H 
ATOM     11  H16 ACR d   1      -0.907  -3.442 -23.065  0.00  0.00     0.086 H 
ENDROOT
BRANCH   1  12
ATOM     12  O4C ACR d   1       0.166  -1.323 -21.894  0.00  0.00    -0.348 OA
BRANCH  12  13
ATOM     13  C4C ACR d   1      -0.491  -0.336 -22.699  0.00  0.00     0.096 C 
ATOM     14  C3C ACR d   1      -0.409   1.043 -22.057  0.00  0.00     0.092 C 
ATOM     15  C2C ACR d   1      -1.089   2.037 -22.988  0.00  0.00     0.110 C 
ATOM     16  H26 ACR d   1       0.633   1.321 -21.840  0.00  0.00     0.091 H 
ATOM     17  C1C ACR d   1      -0.352   2.077 -24.298  0.00  0.00     0.159 C 
ATOM     18  H25 ACR d   1      -2.134   1.738 -23.154  0.00  0.00     0.094 H 
ATOM     19  O5C ACR d   1      -0.233   0.740 -24.843  0.00  0.00    -0.348 OA
ATOM     20  H24 ACR d   1      -0.871   2.720 -25.024  0.00  0.00     0.133 H 
ATOM     21  C5C ACR d   1       0.318  -0.267 -23.977  0.00  0.00     0.089 C 
ATOM     22  H28 ACR d   1       1.359  -0.009 -23.732  0.00  0.00     0.090 H 
ATOM     23  H27 ACR d   1      -1.538  -0.615 -22.889  0.00  0.00     0.091 H 
BRANCH  14  24
ATOM     24  O3C ACR d   1      -1.222   1.058 -20.885  0.00  0.00    -0.390 OA
ATOM     25  H32 ACR d   1      -1.175   1.916 -20.480  0.00  0.00     0.210 HD
ENDBRANCH  14  24
BRANCH  15  26
ATOM     26  O2C ACR d   1      -1.041   3.342 -22.398  0.00  0.00    -0.388 OA
ATOM     27  H31 ACR d   1      -0.135   3.596 -22.266  0.00  0.00     0.210 HD
ENDBRANCH  15  26
BRANCH  17  28
ATOM     28  O4D ACR d   1       0.910   2.632 -23.950  0.00  0.00    -0.348 OA
BRANCH  28  29
ATOM     29  C4D ACR d   1       1.654   3.035 -25.111  0.00  0.00     0.096 C 
ATOM     30  C3D ACR d   1       1.392   4.479 -25.526  0.00  0.00     0.092 C 
ATOM     31  C2D ACR d   1       2.435   4.973 -26.539  0.00  0.00     0.110 C 
ATOM     32  H36 ACR d   1       1.407   5.126 -24.637  0.00  0.00     0.091 H 
ATOM     33  C1D ACR d   1       3.878   4.673 -26.126  0.00  0.00     0.156 C 
ATOM     34  H35 ACR d   1       2.251   4.463 -27.496  0.00  0.00     0.094 H 
ATOM     35  O5D ACR d   1       3.979   3.285 -25.795  0.00  0.00    -0.349 OA
ATOM     36  H34 ACR d   1       4.545   4.907 -26.968  0.00  0.00     0.133 H 
ATOM     37  C5D ACR d   1       3.109   2.861 -24.732  0.00  0.00     0.089 C 
ATOM     38  H38 ACR d   1       3.337   3.435 -23.822  0.00  0.00     0.090 H 
ATOM     39  H37 ACR d   1       1.401   2.377 -25.955  0.00  0.00     0.091 H 
BRANCH  30  40
ATOM     40  O3D ACR d   1       0.108   4.532 -26.158  0.00  0.00    -0.390 OA
ATOM     41  H43 ACR d   1      -0.076   5.425 -26.425  0.00  0.00     0.210 HD
ENDBRANCH  30  40
BRANCH  31  42
ATOM     42  O2D ACR d   1       2.239   6.384 -26.726  0.00  0.00    -0.388 OA
ATOM     43  H42 ACR d   1       1.362   6.540 -27.055  0.00  0.00     0.210 HD
ENDBRANCH  31  42
BRANCH  33  44
ATOM     44  O1D ACR d   1       4.295   5.427 -24.971  0.00  0.00    -0.369 OA
ATOM     45  H41 ACR d   1       5.192   5.202 -24.754  0.00  0.00     0.212 HD
ENDBRANCH  33  44
BRANCH  37  46
ATOM     46  C6D ACR d   1       3.286   1.379 -24.484  0.00  0.00     0.043 C 
ATOM     47  H39 ACR d   1       3.326   0.842 -25.443  0.00  0.00     0.078 H 
ATOM     48  H40 ACR d   1       2.446   0.997 -23.884  0.00  0.00     0.078 H 
BRANCH  46  49
ATOM     49  O6D ACR d   1       4.493   1.199 -23.785  0.00  0.00    -0.398 OA
ATOM     50  H44 ACR d   1       4.626   0.273 -23.618  0.00  0.00     0.209 HD
ENDBRANCH  46  49
ENDBRANCH  37  46
ENDBRANCH  28  29
ENDBRANCH  17  28
BRANCH  21  51
ATOM     51  C6C ACR d   1       0.288  -1.614 -24.699  0.00  0.00     0.043 C 
ATOM     52  H29 ACR d   1       0.631  -2.407 -24.018  0.00  0.00     0.078 H 
ATOM     53  H30 ACR d   1       0.945  -1.577 -25.580  0.00  0.00     0.078 H 
BRANCH  51  54
ATOM     54  O6C ACR d   1      -1.065  -1.883 -25.114  0.00  0.00    -0.398 OA
ATOM     55  H33 ACR d   1      -1.358  -1.195 -25.700  0.00  0.00     0.209 HD
ENDBRANCH  51  54
ENDBRANCH  21  51
ENDBRANCH  12  13
ENDBRANCH   1  12
BRANCH   2  56
ATOM     56  O2B ACR d   1       1.495  -2.152 -19.697  0.00  0.00    -0.388 OA
ATOM     57  H22 ACR d   1       2.061  -2.738 -19.208  0.00  0.00     0.210 HD
ENDBRANCH   2  56
BRANCH   3  58
ATOM     58  O3B ACR d   1       1.493  -4.870 -20.147  0.00  0.00    -0.391 OA
ATOM     59  H23 ACR d   1       2.281  -4.399 -19.901  0.00  0.00     0.210 HD
ENDBRANCH   3  58
BRANCH   5  60
ATOM     60  C6B ACR d   1      -2.764  -4.386 -22.488  0.00  0.00    -0.050 C 
ATOM     61  H17 ACR d   1      -3.385  -3.652 -23.022  0.00  0.00     0.031 H 
ATOM     62  H18 ACR d   1      -3.272  -4.689 -21.560  0.00  0.00     0.031 H 
ATOM     63  H19 ACR d   1      -2.608  -5.268 -23.126  0.00  0.00     0.031 H 
ENDBRANCH   5  60
BRANCH   4  64
ATOM     64  N4B ACR d   1      -0.310  -5.998 -22.222  0.00  0.00    -0.056 N 
ATOM     65  H20 ACR d   1      -1.011  -6.024 -22.945  0.00  0.00     0.278 HD
ATOM     66  H21 ACR d   1       0.601  -5.892 -22.641  0.00  0.00     0.278 HD
BRANCH  64  67
ATOM     67  C1A ACR d   1      -0.331  -7.321 -21.539  0.00  0.00     0.146 C 
ATOM     68  C2A ACR d   1       0.043  -8.560 -22.389  0.00  0.00     0.093 C 
ATOM     69  C3A ACR d   1      -1.112  -8.910 -23.330  0.00  0.00     0.091 C 
ATOM     70  H2  ACR d   1       0.217  -9.411 -21.714  0.00  0.00     0.090 H 
ATOM     71  C4A ACR d   1      -2.252  -9.463 -22.484  0.00  0.00     0.086 C 
ATOM     72  H3  ACR d   1      -1.423  -8.016 -23.890  0.00  0.00     0.091 H 
ATOM     73  C5A ACR d   1      -2.562  -8.516 -21.376  0.00  0.00    -0.027 C 
ATOM     74  H4  ACR d   1      -1.961 -10.436 -22.061  0.00  0.00     0.094 H 
ATOM     75  C7A ACR d   1      -1.697  -7.581 -20.919  0.00  0.00    -0.064 C 
ATOM     76  H7  ACR d   1      -1.994  -6.981 -20.060  0.00  0.00     0.080 H 
ATOM     77  H1  ACR d   1       0.407  -7.259 -20.726  0.00  0.00     0.095 H 
BRANCH  68  78
ATOM     78  O2A ACR d   1       1.248  -8.315 -23.133  0.00  0.00    -0.390 OA
ATOM     79  H8  ACR d   1       1.108  -7.590 -23.731  0.00  0.00     0.210 HD
ENDBRANCH  68  78
BRANCH  69  80
ATOM     80  O3A ACR d   1      -0.775  -9.981 -24.234  0.00  0.00    -0.390 OA
ATOM     81  H9  ACR d   1      -0.063  -9.705 -24.799  0.00  0.00     0.210 HD
ENDBRANCH  69  80
BRANCH  71  82
ATOM     82  O4A ACR d   1      -3.407  -9.630 -23.330  0.00  0.00    -0.388 OA
ATOM     83  H10 ACR d   1      -4.127  -9.976 -22.816  0.00  0.00     0.210 HD
ENDBRANCH  71  82
BRANCH  73  84
ATOM     84  C6A ACR d   1      -3.892  -8.669 -20.706  0.00  0.00     0.039 C 
ATOM     85  H5  ACR d   1      -4.669  -8.908 -21.447  0.00  0.00     0.081 H 
ATOM     86  H6  ACR d   1      -4.163  -7.744 -20.176  0.00  0.00     0.081 H 
BRANCH  84  87
ATOM     87  O6A ACR d   1      -3.738  -9.754 -19.773  0.00  0.00    -0.397 OA
ATOM     88  H11 ACR d   1      -3.058  -9.537 -19.146  0.00  0.00     0.209 HD
ENDBRANCH  84  87
ENDBRANCH  73  84
ENDBRANCH  64  67
ENDBRANCH   4  64
TORSDOF 23
