REMARK  5 active torsions:
REMARK  status: ('A' for Active; 'I' for Inactive)
REMARK    1  A    between atoms: C1_1  and  O1_7 
REMARK    2  A    between atoms: C2_2  and  O2_8 
REMARK    3  A    between atoms: C3_3  and  O3_9 
REMARK    4  A    between atoms: C4_4  and  O4_10 
REMARK    5  A    between atoms: C5_5  and  C6_6 
ROOT
ATOM      1  C1  NON d   1      25.430   2.710  28.903  0.00  0.00     0.156 C 
ATOM      2  C2  NON d   1      25.136   3.961  28.056  0.00  0.00     0.110 C 
ATOM      3  C3  NON d   1      25.262   5.263  28.881  0.00  0.00     0.092 C 
ATOM      4  C4  NON d   1      24.970   5.129  30.386  0.00  0.00     0.087 C 
ATOM      5  C5  NON d   1      24.104   3.919  30.596  0.00  0.00     0.065 C 
ATOM      6  O5  NON d   1      24.852   2.771  30.200  0.00  0.00    -0.351 OA
ATOM      7  H1  NON d   1      26.521   2.609  28.997  0.00  0.00     0.133 H 
ATOM      8  H2  NON d   1      24.093   3.900  27.711  0.00  0.00     0.094 H 
ATOM      9  H3  NON d   1      24.576   6.004  28.444  0.00  0.00     0.091 H 
ATOM     10  H4  NON d   1      25.924   4.995  30.918  0.00  0.00     0.091 H 
ATOM     11  H5  NON d   1      23.181   3.996  30.002  0.00  0.00     0.086 H 
ENDROOT
BRANCH   5  12
ATOM     12  C6  NON d   1      23.767   3.829  32.089  0.00  0.00    -0.050 C 
ATOM     13  H6  NON d   1      23.132   2.949  32.269  0.00  0.00     0.031 H 
ATOM     14  H7  NON d   1      23.230   4.738  32.399  0.00  0.00     0.031 H 
ATOM     15  H8  NON d   1      24.697   3.736  32.670  0.00  0.00     0.031 H 
ENDBRANCH   5  12
BRANCH   4  16
ATOM     16  O4  NON d   1      24.293   6.280  30.938  0.00  0.00    -0.390 OA
ATOM     17  H12 NON d   1      24.831   7.053  30.812  0.00  0.00     0.210 HD
ENDBRANCH   4  16
BRANCH   3  18
ATOM     18  O3  NON d   1      26.595   5.753  28.854  0.00  0.00    -0.390 OA
ATOM     19  H11 NON d   1      27.169   5.129  29.283  0.00  0.00     0.210 HD
ENDBRANCH   3  18
BRANCH   1  20
ATOM     20  O1  NON d   1      24.890   1.531  28.296  0.00  0.00    -0.369 OA
ATOM     21  H9  NON d   1      25.244   1.437  27.419  0.00  0.00     0.212 HD
ENDBRANCH   1  20
BRANCH   2  22
ATOM     22  O2  NON d   1      25.990   3.928  26.882  0.00  0.00    -0.388 OA
ATOM     23  H10 NON d   1      25.765   4.650  26.307  0.00  0.00     0.210 HD
ENDBRANCH   2  22
TORSDOF 5
