REMARK  13 active torsions:
REMARK  status: ('A' for Active; 'I' for Inactive)
REMARK    1  A    between atoms: C1_1  and  C2_4 
REMARK    2  A    between atoms: C2_4  and  C3_5 
REMARK    3  A    between atoms: C3_5  and  C4_6 
REMARK    4  A    between atoms: C4_6  and  C5_7 
REMARK    5  A    between atoms: C5_7  and  C6_8 
REMARK    6  A    between atoms: C6_8  and  C7_9 
REMARK    7  A    between atoms: C7_9  and  C8_10 
REMARK    8  A    between atoms: C8_10  and  C9_11 
REMARK    9  A    between atoms: C9_11  and  C10_12 
REMARK   10  A    between atoms: C10_12  and  C11_13 
REMARK   11  A    between atoms: C11_13  and  C12_14 
REMARK   12  A    between atoms: C12_14  and  C13_15 
REMARK   13  A    between atoms: C13_15  and  C14_16 
ROOT
ATOM      1  C8  MYR d   1     -11.866  11.884 -19.521  0.00  0.00    -0.065 C 
ATOM      2  H13 MYR d   1     -11.829  12.925 -19.875  0.00  0.00     0.033 H 
ATOM      3  H14 MYR d   1     -12.513  11.822 -18.634  0.00  0.00     0.033 H 
ENDROOT
BRANCH   1   4
ATOM      4  C7  MYR d   1     -10.480  11.401 -19.186  0.00  0.00    -0.065 C 
ATOM      5  H11 MYR d   1     -10.541  10.401 -18.732  0.00  0.00     0.033 H 
ATOM      6  H12 MYR d   1      -9.879  11.350 -20.106  0.00  0.00     0.033 H 
BRANCH   4   7
ATOM      7  C6  MYR d   1      -9.831  12.350 -18.217  0.00  0.00    -0.065 C 
ATOM      8  H9  MYR d   1      -9.774  13.346 -18.681  0.00  0.00     0.033 H 
ATOM      9  H10 MYR d   1     -10.448  12.404 -17.308  0.00  0.00     0.033 H 
BRANCH   7  10
ATOM     10  C5  MYR d   1      -8.444  11.914 -17.835  0.00  0.00    -0.065 C 
ATOM     11  H7  MYR d   1      -8.496  10.938 -17.331  0.00  0.00     0.033 H 
ATOM     12  H8  MYR d   1      -7.828  11.826 -18.742  0.00  0.00     0.033 H 
BRANCH  10  13
ATOM     13  C4  MYR d   1      -7.806  12.943 -16.886  0.00  0.00    -0.065 C 
ATOM     14  H5  MYR d   1      -8.198  13.934 -17.157  0.00  0.00     0.033 H 
ATOM     15  H6  MYR d   1      -8.121  12.692 -15.862  0.00  0.00     0.033 H 
BRANCH  13  16
ATOM     16  C3  MYR d   1      -6.268  13.031 -16.893  0.00  0.00    -0.056 C 
ATOM     17  H3  MYR d   1      -5.905  12.927 -15.860  0.00  0.00     0.033 H 
ATOM     18  H4  MYR d   1      -5.871  12.208 -17.506  0.00  0.00     0.033 H 
BRANCH  16  19
ATOM     19  C2  MYR d   1      -5.752  14.362 -17.464  0.00  0.00     0.016 C 
ATOM     20  H1  MYR d   1      -4.929  14.130 -18.156  0.00  0.00     0.049 H 
ATOM     21  H2  MYR d   1      -6.579  14.828 -18.021  0.00  0.00     0.049 H 
BRANCH  19  22
ATOM     22  C1  MYR d   1      -5.235  15.390 -16.461  0.00  0.00     0.172 C 
ATOM     23  O1  MYR d   1      -4.363  15.113 -15.597  0.00  0.00    -0.648 OA
ATOM     24  O2  MYR d   1      -5.676  16.580 -16.502  0.00  0.00    -0.648 OA
ENDBRANCH  19  22
ENDBRANCH  16  19
ENDBRANCH  13  16
ENDBRANCH  10  13
ENDBRANCH   7  10
ENDBRANCH   4   7
ENDBRANCH   1   4
BRANCH   1  25
ATOM     25  C9  MYR d   1     -12.394  10.982 -20.613  0.00  0.00    -0.065 C 
ATOM     26  H15 MYR d   1     -12.596   9.991 -20.182  0.00  0.00     0.033 H 
ATOM     27  H16 MYR d   1     -11.626  10.892 -21.395  0.00  0.00     0.033 H 
BRANCH  25  28
ATOM     28  C10 MYR d   1     -13.665  11.502 -21.243  0.00  0.00    -0.065 C 
ATOM     29  H17 MYR d   1     -13.505  12.452 -21.775  0.00  0.00     0.033 H 
ATOM     30  H18 MYR d   1     -14.472  11.626 -20.506  0.00  0.00     0.033 H 
BRANCH  28  31
ATOM     31  C11 MYR d   1     -13.930  10.369 -22.182  0.00  0.00    -0.065 C 
ATOM     32  H19 MYR d   1     -14.504   9.600 -21.644  0.00  0.00     0.033 H 
ATOM     33  H20 MYR d   1     -12.964   9.950 -22.501  0.00  0.00     0.033 H 
BRANCH  31  34
ATOM     34  C12 MYR d   1     -14.701  10.763 -23.406  0.00  0.00    -0.065 C 
ATOM     35  H21 MYR d   1     -14.399  11.765 -23.744  0.00  0.00     0.033 H 
ATOM     36  H22 MYR d   1     -15.781  10.756 -23.198  0.00  0.00     0.033 H 
BRANCH  34  37
ATOM     37  C13 MYR d   1     -14.361   9.733 -24.450  0.00  0.00    -0.069 C 
ATOM     38  H23 MYR d   1     -13.372   9.956 -24.877  0.00  0.00     0.032 H 
ATOM     39  H24 MYR d   1     -15.118   9.756 -25.248  0.00  0.00     0.032 H 
BRANCH  37  40
ATOM     40  C14 MYR d   1     -14.339   8.361 -23.815  0.00  0.00    -0.077 C 
ATOM     41  H25 MYR d   1     -14.091   7.608 -24.578  0.00  0.00     0.027 H 
ATOM     42  H26 MYR d   1     -15.328   8.138 -23.389  0.00  0.00     0.027 H 
ATOM     43  H27 MYR d   1     -13.582   8.338 -23.017  0.00  0.00     0.027 H 
ENDBRANCH  37  40
ENDBRANCH  34  37
ENDBRANCH  31  34
ENDBRANCH  28  31
ENDBRANCH  25  28
ENDBRANCH   1  25
TORSDOF 13
