REMARK  8 active torsions:
REMARK  status: ('A' for Active; 'I' for Inactive)
REMARK    1  A    between atoms: C1_1  and  C2_2 
REMARK    2  A    between atoms: C3_3  and  C4_4 
REMARK    3  A    between atoms: C3_3  and  C6_6 
REMARK    4  A    between atoms: C5_5  and  C7_7 
REMARK    5  A    between atoms: C7_7  and  O7_8 
REMARK    6  A    between atoms: C8_9  and  C13_17 
REMARK    7  A    between atoms: C12_15  and  C14_18 
REMARK    8  A    between atoms: C12_15  and  C15_19 
ROOT
ATOM      1  C7  A8S d   1      38.268 -46.341  -7.247  0.00  0.00     0.106 C 
ATOM      2  C8  A8S d   1      37.250 -47.104  -6.410  0.00  0.00    -0.042 C 
ATOM      3  C9  A8S d   1      36.597 -48.161  -6.932  0.00  0.00    -0.034 C 
ATOM      4  C10 A8S d   1      36.834 -48.624  -8.318  0.00  0.00     0.150 C 
ATOM      5  O10 A8S d   1      36.163 -49.545  -8.796  0.00  0.00    -0.293 OA
ATOM      6  C11 A8S d   1      37.896 -47.943  -9.176  0.00  0.00     0.004 C 
ATOM      7  C12 A8S d   1      38.945 -47.251  -8.295  0.00  0.00    -0.002 C 
ATOM      8  H   A8S d   1      35.873 -48.691  -6.315  0.00  0.00     0.089 H 
ATOM      9  H   A8S d   1      37.413 -47.193  -9.819  0.00  0.00     0.046 H 
ATOM     10  H   A8S d   1      38.393 -48.698  -9.803  0.00  0.00     0.046 H 
ENDROOT
BRANCH   1  11
ATOM     11  C5  A8S d   1      37.586 -45.154  -7.887  0.00  0.00    -0.065 C 
ATOM     12  C4  A8S d   1      37.740 -43.887  -7.405  0.00  0.00    -0.077 C 
ATOM     13  H   A8S d   1      38.340 -43.727  -6.511  0.00  0.00     0.084 H 
ATOM     14  H   A8S d   1      36.953 -45.315  -8.758  0.00  0.00     0.082 H 
BRANCH  12  15
ATOM     15  C3  A8S d   1      37.114 -42.733  -8.066  0.00  0.00    -0.056 C 
ATOM     16  C2  A8S d   1      37.383 -41.428  -7.786  0.00  0.00    -0.004 C 
ATOM     17  H   A8S d   1      36.836 -40.679  -8.356  0.00  0.00     0.094 H 
BRANCH  16  18
ATOM     18  C1  A8S d   1      38.356 -40.927  -6.773  0.00  0.00     0.199 C 
ATOM     19  O11 A8S d   1      38.872 -41.710  -5.971  0.00  0.00    -0.644 OA
ATOM     20  O12 A8S d   1      38.671 -39.716  -6.785  0.00  0.00    -0.644 OA
ENDBRANCH  16  18
BRANCH  15  21
ATOM     21  C6  A8S d   1      36.121 -42.967  -9.180  0.00  0.00    -0.051 C 
ATOM     22  H   A8S d   1      35.757 -41.999  -9.556  0.00  0.00     0.033 H 
ATOM     23  H   A8S d   1      35.273 -43.555  -8.798  0.00  0.00     0.033 H 
ATOM     24  H   A8S d   1      36.610 -43.517  -9.998  0.00  0.00     0.033 H 
ENDBRANCH  15  21
ENDBRANCH  12  15
ENDBRANCH   1  11
BRANCH   1  25
ATOM     25  O7  A8S d   1      39.277 -45.847  -6.368  0.00  0.00    -0.380 OA
ATOM     26  H   A8S d   1      39.905 -45.335  -6.864  0.00  0.00     0.211 HD
ENDBRANCH   1  25
BRANCH   2  27
ATOM     27  C13 A8S d   1      36.988 -46.639  -4.998  0.00  0.00    -0.051 C 
ATOM     28  H   A8S d   1      36.233 -47.290  -4.532  0.00  0.00     0.033 H 
ATOM     29  H   A8S d   1      36.618 -45.603  -5.016  0.00  0.00     0.033 H 
ATOM     30  H   A8S d   1      37.921 -46.685  -4.418  0.00  0.00     0.033 H 
ENDBRANCH   2  27
BRANCH   7  31
ATOM     31  C14 A8S d   1      39.828 -48.300  -7.639  0.00  0.00    -0.066 C 
ATOM     32  H   A8S d   1      40.580 -47.804  -7.008  0.00  0.00     0.028 H 
ATOM     33  H   A8S d   1      40.334 -48.891  -8.416  0.00  0.00     0.028 H 
ATOM     34  H   A8S d   1      39.209 -48.964  -7.018  0.00  0.00     0.028 H 
ENDBRANCH   7  31
BRANCH   7  35
ATOM     35  C15 A8S d   1      39.792 -46.394  -9.248  0.00  0.00    -0.066 C 
ATOM     36  H   A8S d   1      39.154 -45.635  -9.723  0.00  0.00     0.028 H 
ATOM     37  H   A8S d   1      40.236 -47.037 -10.023  0.00  0.00     0.028 H 
ATOM     38  H   A8S d   1      40.593 -45.897  -8.681  0.00  0.00     0.028 H 
ENDBRANCH   7  35
TORSDOF 8
