REMARK  16 active torsions:
REMARK  status: ('A' for Active; 'I' for Inactive)
REMARK    1  A    between atoms: PA_1  and  O5B_4 
REMARK    2  A    between atoms: PA_1  and  O3_23 
REMARK    3  A    between atoms: O5B_4  and  C5B_5 
REMARK    4  A    between atoms: C5B_5  and  C4B_6 
REMARK    5  A    between atoms: C3B_8  and  O3B_9 
REMARK    6  A    between atoms: C2B_10  and  O2B_11 
REMARK    7  A    between atoms: C1B_12  and  N9A_13 
REMARK    8  A    between atoms: C6A_17  and  N6A_18 
REMARK    9  A    between atoms: O3_23  and  PN_24 
REMARK   10  A    between atoms: PN_24  and  O5D_27 
REMARK   11  A    between atoms: O5D_27  and  C5D_28 
REMARK   12  A    between atoms: C5D_28  and  C4D_29 
REMARK   13  A    between atoms: C3D_31  and  O3D_32 
REMARK   14  A    between atoms: C2D_33  and  O2D_34 
REMARK   15  A    between atoms: C1D_35  and  N1N_36 
REMARK   16  A    between atoms: C3N_38  and  C7N_39 
REMARK       I    between atoms: C7N_39  and  N7N_41 
ROOT
ATOM      1  PN  8NA d   1       7.204  26.169  14.392  0.00  0.00     0.417 P 
ATOM      2  O1N 8NA d   1       8.043  27.378  14.671  0.00  0.00    -0.624 OA
ATOM      3  O2N 8NA d   1       7.165  25.698  12.952  0.00  0.00    -0.624 OA
ENDROOT
BRANCH   1   4
ATOM      4  O3  8NA d   1       5.702  26.430  14.937  0.00  0.00    -0.180 OA
BRANCH   4   5
ATOM      5  PA  8NA d   1       4.560  27.087  13.962  0.00  0.00     0.417 P 
ATOM      6  O1A 8NA d   1       3.390  27.453  14.848  0.00  0.00    -0.624 OA
ATOM      7  O2A 8NA d   1       5.265  28.146  13.131  0.00  0.00    -0.624 OA
BRANCH   5   8
ATOM      8  O5B 8NA d   1       4.114  25.839  13.043  0.00  0.00    -0.287 OA
BRANCH   8   9
ATOM      9  C5B 8NA d   1       3.471  24.660  13.529  0.00  0.00     0.058 C 
ATOM     10  H   8NA d   1       2.871  24.880  14.424  0.00  0.00     0.079 H 
ATOM     11  H   8NA d   1       4.208  23.878  13.764  0.00  0.00     0.079 H 
BRANCH   9  12
ATOM     12  C4B 8NA d   1       2.582  24.239  12.367  0.00  0.00     0.089 C 
ATOM     13  O4B 8NA d   1       2.022  22.948  12.524  0.00  0.00    -0.353 OA
ATOM     14  C1B 8NA d   1       0.672  22.962  12.097  0.00  0.00     0.139 C 
ATOM     15  C2B 8NA d   1       0.185  24.316  12.530  0.00  0.00     0.105 C 
ATOM     16  H   8NA d   1       0.565  22.839  11.009  0.00  0.00     0.122 H 
ATOM     17  C3B 8NA d   1       1.410  25.193  12.213  0.00  0.00     0.091 C 
ATOM     18  H   8NA d   1      -0.092  24.357  13.594  0.00  0.00     0.093 H 
ATOM     19  H   8NA d   1       1.469  26.063  12.883  0.00  0.00     0.091 H 
ATOM     20  H   8NA d   1       3.190  24.255  11.450  0.00  0.00     0.090 H 
BRANCH  14  21
ATOM     21  N9A 8NA d   1       0.061  21.839  12.802  0.00  0.00    -0.294 N 
ATOM     22  C8A 8NA d   1      -0.378  21.761  14.078  0.00  0.00     0.071 A 
ATOM     23  N7A 8NA d   1      -0.791  20.485  14.289  0.00  0.00    -0.236 NA
ATOM     24  H   8NA d   1      -0.397  22.573  14.804  0.00  0.00     0.144 H 
ATOM     25  C5A 8NA d   1      -0.623  19.804  13.126  0.00  0.00     0.149 A 
ATOM     26  C6A 8NA d   1      -0.876  18.507  12.705  0.00  0.00     0.155 A 
ATOM     27  C4A 8NA d   1      -0.110  20.679  12.182  0.00  0.00     0.167 A 
ATOM     28  N1A 8NA d   1      -0.589  18.159  11.445  0.00  0.00    -0.222 NA
ATOM     29  C2A 8NA d   1      -0.087  19.027  10.548  0.00  0.00     0.091 A 
ATOM     30  N3A 8NA d   1       0.135  20.285  10.905  0.00  0.00    -0.222 NA
ATOM     31  H   8NA d   1       0.135  18.700   9.539  0.00  0.00     0.146 H 
BRANCH  26  32
ATOM     32  N6A 8NA d   1      -1.415  17.596  13.543  0.00  0.00    -0.382 N 
ATOM     33  H   8NA d   1      -1.596  16.637  13.214  0.00  0.00     0.157 HD
ATOM     34  H   8NA d   1      -1.645  17.860  14.512  0.00  0.00     0.157 HD
ENDBRANCH  26  32
ENDBRANCH  14  21
BRANCH  15  35
ATOM     35  O2B 8NA d   1      -0.931  24.648  11.692  0.00  0.00    -0.388 OA
ATOM     36  H   8NA d   1      -0.693  24.515  10.782  0.00  0.00     0.210 HD
ENDBRANCH  15  35
BRANCH  17  37
ATOM     37  O3B 8NA d   1       1.451  25.589  10.835  0.00  0.00    -0.390 OA
ATOM     38  H   8NA d   1       0.740  26.194  10.659  0.00  0.00     0.210 HD
ENDBRANCH  17  37
ENDBRANCH   9  12
ENDBRANCH   8   9
ENDBRANCH   5   8
ENDBRANCH   4   5
ENDBRANCH   1   4
BRANCH   1  39
ATOM     39  O5D 8NA d   1       7.751  25.017  15.396  0.00  0.00    -0.287 OA
BRANCH  39  40
ATOM     40  C5D 8NA d   1       7.312  23.645  15.393  0.00  0.00     0.058 C 
ATOM     41  H   8NA d   1       7.625  23.166  14.454  0.00  0.00     0.079 H 
ATOM     42  H   8NA d   1       6.215  23.615  15.472  0.00  0.00     0.079 H 
BRANCH  40  43
ATOM     43  C4D 8NA d   1       7.927  22.881  16.582  0.00  0.00     0.089 C 
ATOM     44  O4D 8NA d   1       9.221  23.439  16.908  0.00  0.00    -0.353 OA
ATOM     45  C1D 8NA d   1       9.285  24.073  18.190  0.00  0.00     0.136 C 
ATOM     46  C2D 8NA d   1       7.818  24.080  18.640  0.00  0.00     0.105 C 
ATOM     47  H   8NA d   1       9.667  25.102  18.128  0.00  0.00     0.122 H 
ATOM     48  C3D 8NA d   1       7.142  22.961  17.875  0.00  0.00     0.091 C 
ATOM     49  H   8NA d   1       7.356  25.057  18.434  0.00  0.00     0.093 H 
ATOM     50  H   8NA d   1       6.072  23.148  17.705  0.00  0.00     0.091 H 
ATOM     51  H   8NA d   1       8.032  21.826  16.291  0.00  0.00     0.090 H 
BRANCH  45  52
ATOM     52  N1N 8NA d   1      10.220  23.239  19.014  0.00  0.00    -0.337 N 
ATOM     53  C2N 8NA d   1      10.769  23.759  20.169  0.00  0.00    -0.006 A 
ATOM     54  C3N 8NA d   1      11.623  23.085  20.967  0.00  0.00     0.028 A 
ATOM     55  H   8NA d   1      10.496  24.774  20.453  0.00  0.00     0.112 H 
ATOM     56  C4N 8NA d   1      12.076  21.683  20.600  0.00  0.00    -0.018 A 
ATOM     57  C5N 8NA d   1      11.457  21.228  19.287  0.00  0.00    -0.084 A 
ATOM     58  H   8NA d   1      11.774  20.989  21.398  0.00  0.00     0.046 H 
ATOM     59  H   8NA d   1      13.171  21.675  20.502  0.00  0.00     0.046 H 
ATOM     60  C6N 8NA d   1      10.602  21.983  18.578  0.00  0.00    -0.021 A 
ATOM     61  H   8NA d   1      11.720  20.243  18.904  0.00  0.00     0.079 H 
ATOM     62  H   8NA d   1      10.201  21.599  17.641  0.00  0.00     0.111 H 
BRANCH  54  63
ATOM     63  C7N 8NA d   1      12.117  23.754  22.178  0.00  0.00     0.247 C 
ATOM     64  O7N 8NA d   1      11.592  24.790  22.579  0.00  0.00    -0.268 OA
ATOM     65  N7N 8NA d   1      13.171  23.205  22.783  0.00  0.00    -0.366 N 
ATOM     66  H   8NA d   1      13.546  23.622  23.611  0.00  0.00     0.159 HD
ATOM     67  H   8NA d   1      13.587  22.376  22.409  0.00  0.00     0.159 HD
ENDBRANCH  54  63
ENDBRANCH  45  52
BRANCH  46  68
ATOM     68  O2D 8NA d   1       7.673  23.737  20.005  0.00  0.00    -0.388 OA
ATOM     69  H   8NA d   1       8.093  22.900  20.166  0.00  0.00     0.210 HD
ENDBRANCH  46  68
BRANCH  48  70
ATOM     70  O3D 8NA d   1       7.362  21.741  18.627  0.00  0.00    -0.390 OA
ATOM     71  H   8NA d   1       6.874  21.780  19.441  0.00  0.00     0.210 HD
ENDBRANCH  48  70
ENDBRANCH  40  43
ENDBRANCH  39  40
ENDBRANCH   1  39
TORSDOF 16
