REMARK  7 active torsions:
REMARK  status: ('A' for Active; 'I' for Inactive)
REMARK    1  A    between atoms: C14_2  and  C15_15 
REMARK    2  A    between atoms: C18_18  and  N19_19 
REMARK    3  A    between atoms: C23_21  and  S24_22 
REMARK    4  A    between atoms: S24_22  and  C25_23 
REMARK    5  A    between atoms: C25_23  and  C26_24 
REMARK    6  A    between atoms: C26_24  and  C27_25 
REMARK    7  A    between atoms: C27_25  and  C28_26 
REMARK       I    between atoms: C28_26  and  N30_28 
ROOT
ATOM      1  C15 WHA d   1     -27.597  21.913 -18.915  0.00  0.00     0.184 A 
ATOM      2  N16 WHA d   1     -28.215  20.717 -19.007  0.00  0.00    -0.201 NA
ATOM      3  N17 WHA d   1     -27.844  22.713 -17.847  0.00  0.00    -0.042 NA
ATOM      4  C18 WHA d   1     -28.685  22.322 -16.896  0.00  0.00     0.724 A 
ATOM      5  N22 WHA d   1     -29.272  21.119 -16.952  0.00  0.00    -0.036 NA
ATOM      6  C23 WHA d   1     -29.071  20.347 -18.036  0.00  0.00     0.208 A 
ENDROOT
BRANCH   1   7
ATOM      7  C14 WHA d   1     -26.714  22.311 -19.967  0.00  0.00     0.045 A 
ATOM      8  C8  WHA d   1     -27.130  22.402 -21.321  0.00  0.00    -0.009 A 
ATOM      9  C7  WHA d   1     -28.467  22.202 -21.723  0.00  0.00    -0.071 A 
ATOM     10  C9  WHA d   1     -26.175  22.769 -22.316  0.00  0.00    -0.008 A 
ATOM     11  C6  WHA d   1     -28.856  22.324 -23.065  0.00  0.00    -0.082 A 
ATOM     12  H   WHA d   1     -29.212  21.948 -20.977  0.00  0.00     0.084 H 
ATOM     13  C5  WHA d   1     -27.893  22.637 -24.038  0.00  0.00    -0.074 A 
ATOM     14  H   WHA d   1     -29.892  22.178 -23.349  0.00  0.00     0.083 H 
ATOM     15  C4  WHA d   1     -26.556  22.870 -23.675  0.00  0.00    -0.023 A 
ATOM     16  H   WHA d   1     -28.184  22.700 -25.080  0.00  0.00     0.084 H 
ATOM     17  C3  WHA d   1     -25.572  23.295 -24.642  0.00  0.00     0.044 C 
ATOM     18  O2  WHA d   1     -24.561  24.149 -24.112  0.00  0.00    -0.382 OA
ATOM     19  H   WHA d   1     -26.091  23.834 -25.448  0.00  0.00     0.081 H 
ATOM     20  H   WHA d   1     -25.085  22.399 -25.055  0.00  0.00     0.081 H 
ATOM     21  C1  WHA d   1     -23.916  23.462 -22.988  0.00  0.00     0.044 C 
ATOM     22  C10 WHA d   1     -24.848  23.095 -21.958  0.00  0.00    -0.021 A 
ATOM     23  H   WHA d   1     -23.430  22.550 -23.364  0.00  0.00     0.081 H 
ATOM     24  H   WHA d   1     -23.157  24.130 -22.555  0.00  0.00     0.081 H 
ATOM     25  C11 WHA d   1     -24.455  23.027 -20.633  0.00  0.00    -0.052 A 
ATOM     26  C12 WHA d   1     -25.367  22.601 -19.661  0.00  0.00     0.049 A 
ATOM     27  H   WHA d   1     -23.446  23.302 -20.349  0.00  0.00     0.087 H 
ATOM     28 CL1  WHA d   1     -24.754  22.413 -18.040  0.00  0.00    -0.083 Cl
ENDBRANCH   1   7
BRANCH   6  29
ATOM     29  S24 WHA d   1     -29.856  18.818 -18.059  0.00  0.00    -0.089 SA
BRANCH  29  30
ATOM     30  C25 WHA d   1     -29.637  18.300 -19.808  0.00  0.00    -0.015 C 
ATOM     31  H   WHA d   1     -29.836  17.221 -19.883  0.00  0.00     0.049 H 
ATOM     32  H   WHA d   1     -28.598  18.503 -20.108  0.00  0.00     0.049 H 
BRANCH  30  33
ATOM     33  C26 WHA d   1     -30.573  19.036 -20.762  0.00  0.00    -0.049 C 
ATOM     34  H   WHA d   1     -30.265  18.828 -21.797  0.00  0.00     0.034 H 
ATOM     35  H   WHA d   1     -30.503  20.117 -20.569  0.00  0.00     0.034 H 
BRANCH  33  36
ATOM     36  C27 WHA d   1     -32.029  18.588 -20.574  0.00  0.00     0.010 C 
ATOM     37  H   WHA d   1     -32.322  18.774 -19.530  0.00  0.00     0.047 H 
ATOM     38  H   WHA d   1     -32.096  17.511 -20.787  0.00  0.00     0.047 H 
BRANCH  36  39
ATOM     39  C28 WHA d   1     -32.983  19.317 -21.478  0.00  0.00     0.215 C 
ATOM     40  O29 WHA d   1     -33.508  18.734 -22.432  0.00  0.00    -0.274 OA
ATOM     41  N30 WHA d   1     -33.215  20.573 -21.137  0.00  0.00    -0.370 N 
ATOM     42  H   WHA d   1     -33.838  21.133 -21.684  0.00  0.00     0.159 HD
ATOM     43  H   WHA d   1     -32.768  20.963 -20.332  0.00  0.00     0.159 HD
ENDBRANCH  36  39
ENDBRANCH  33  36
ENDBRANCH  30  33
ENDBRANCH  29  30
ENDBRANCH   6  29
BRANCH   4  44
ATOM     44  N19 WHA d   1     -28.851  23.100 -15.857  0.00  0.00    -0.231 N 
ATOM     45  H   WHA d   1     -28.394  24.023 -15.826  0.00  0.00     0.174 HD
ATOM     46  H   WHA d   1     -29.439  22.790 -15.070  0.00  0.00     0.174 HD
ENDBRANCH   4  44
TORSDOF 7
