REMARK  7 active torsions:
REMARK  status: ('A' for Active; 'I' for Inactive)
REMARK    1  A    between atoms: C6_7  and  C7_8 
REMARK    2  A    between atoms: N1_9  and  C1'_10 
REMARK    3  A    between atoms: C2'_12  and  O2'_13 
REMARK    4  A    between atoms: C3'_14  and  O3'_15 
REMARK    5  A    between atoms: C4'_16  and  C5'_17 
REMARK    6  A    between atoms: C5'_17  and  O5'_18 
REMARK    7  A    between atoms: O5'_18  and  P_19 
ROOT
ATOM      1  C1' U6M d   1      17.978  40.011  35.851  0.00  0.00     0.141 C 
ATOM      2  O4' U6M d   1      18.208  38.674  35.337  0.00  0.00    -0.353 OA
ATOM      3  C2' U6M d   1      18.473  39.996  37.264  0.00  0.00     0.105 C 
ATOM      4  C3' U6M d   1      19.629  39.028  37.189  0.00  0.00     0.091 C 
ATOM      5  C4' U6M d   1      19.132  37.988  36.210  0.00  0.00     0.089 C 
ATOM      6  H6  U6M d   1      18.551  40.758  35.282  0.00  0.00     0.123 H 
ATOM      7  H7  U6M d   1      17.705  39.666  37.979  0.00  0.00     0.093 H 
ATOM      8  H9  U6M d   1      19.888  38.604  38.170  0.00  0.00     0.091 H 
ATOM      9  H11 U6M d   1      19.984  37.592  35.638  0.00  0.00     0.090 H 
ENDROOT
BRANCH   1  10
ATOM     10  N1  U6M d   1      16.530  40.266  35.655  0.00  0.00    -0.274 N 
ATOM     11  C2  U6M d   1      15.574  39.582  36.385  0.00  0.00     0.331 C 
ATOM     12  O2  U6M d   1      15.916  38.626  37.102  0.00  0.00    -0.246 OA
ATOM     13  N3  U6M d   1      14.258  39.887  36.297  0.00  0.00    -0.275 N 
ATOM     14  C4  U6M d   1      13.845  40.929  35.560  0.00  0.00     0.251 C 
ATOM     15  H1  U6M d   1      13.587  39.330  36.786  0.00  0.00     0.173 HD
ATOM     16  O4  U6M d   1      12.598  41.105  35.478  0.00  0.00    -0.268 OA
ATOM     17  C5  U6M d   1      14.716  41.501  34.645  0.00  0.00     0.004 C 
ATOM     18  C6  U6M d   1      16.058  41.129  34.598  0.00  0.00     0.020 C 
ATOM     19  H2  U6M d   1      14.345  42.254  33.951  0.00  0.00     0.095 H 
BRANCH  18  20
ATOM     20  C7  U6M d   1      16.799  41.286  33.289  0.00  0.00    -0.037 C 
ATOM     21  H3  U6M d   1      16.255  41.990  32.642  0.00  0.00     0.035 H 
ATOM     22  H4  U6M d   1      16.871  40.309  32.789  0.00  0.00     0.035 H 
ATOM     23  H5  U6M d   1      17.810  41.674  33.484  0.00  0.00     0.035 H 
ENDBRANCH  18  20
ENDBRANCH   1  10
BRANCH   3  24
ATOM     24  O2' U6M d   1      18.928  41.308  37.575  0.00  0.00    -0.388 OA
ATOM     25  H8  U6M d   1      18.209  41.922  37.482  0.00  0.00     0.210 HD
ENDBRANCH   3  24
BRANCH   5  26
ATOM     26  C5' U6M d   1      18.386  36.824  36.853  0.00  0.00     0.059 C 
ATOM     27  H12 U6M d   1      17.847  36.237  36.095  0.00  0.00     0.079 H 
ATOM     28  H13 U6M d   1      17.675  37.185  37.611  0.00  0.00     0.079 H 
BRANCH  26  29
ATOM     29  O5' U6M d   1      19.431  36.041  37.461  0.00  0.00    -0.280 OA
BRANCH  29  30
ATOM     30  P   U6M d   1      19.074  34.705  38.298  0.00  0.00     0.422 P 
ATOM     31  O3P U6M d   1      18.964  33.592  37.315  0.00  0.00    -0.617 OA
ATOM     32  O1P U6M d   1      17.781  34.892  39.007  0.00  0.00    -0.617 OA
ATOM     33  O2P U6M d   1      20.250  34.570  39.236  0.00  0.00    -0.617 OA
ENDBRANCH  29  30
ENDBRANCH  26  29
ENDBRANCH   5  26
BRANCH   4  34
ATOM     34  O3' U6M d   1      20.758  39.683  36.579  0.00  0.00    -0.390 OA
ATOM     35  H10 U6M d   1      21.487  39.076  36.531  0.00  0.00     0.210 HD
ENDBRANCH   4  34
TORSDOF 7
