REMARK  11 active torsions:
REMARK  status: ('A' for Active; 'I' for Inactive)
REMARK    1  A    between atoms: OAH_1  and  CAC_2 
REMARK    2  A    between atoms: CAK_8  and  NAZ_9 
REMARK    3  A    between atoms: NAZ_9  and  CBA_10 
REMARK    4  A    between atoms: NAZ_9  and  CBB_11 
REMARK    5  A    between atoms: CAG_16  and  OAI_17 
REMARK    6  A    between atoms: NAB_18  and  CAA_19 
REMARK    7  A    between atoms: CAA_19  and  CAW_20 
REMARK    8  A    between atoms: CAW_20  and  NAX_21 
REMARK    9  A    between atoms: NAX_21  and  CAY_22 
REMARK   10  A    between atoms: CAY_22  and  CAQ_23 
REMARK   11  A    between atoms: CAT_27  and  CAV_28 
ROOT
ATOM      1  CAC NF6 d   1     -33.902  -1.122 189.429  0.00  0.00     0.222 A 
ATOM      2  CAD NF6 d   1     -32.753  -0.953 190.339  0.00  0.00     0.009 A 
ATOM      3  CAE NF6 d   1     -32.069   0.297 190.373  0.00  0.00    -0.003 A 
ATOM      4  CAF NF6 d   1     -32.514   1.368 189.517  0.00  0.00     0.009 A 
ATOM      5  CAM NF6 d   1     -31.820   2.647 189.552  0.00  0.00    -0.070 A 
ATOM      6  CAL NF6 d   1     -30.717   2.828 190.422  0.00  0.00    -0.056 A 
ATOM      7  CAK NF6 d   1     -30.279   1.754 191.272  0.00  0.00     0.040 A 
ATOM      8  CAJ NF6 d   1     -30.975   0.480 191.237  0.00  0.00     0.002 A 
ATOM      9  CAP NF6 d   1     -30.531  -0.589 192.091  0.00  0.00    -0.070 A 
ATOM     10  CAO NF6 d   1     -31.215  -1.838 192.054  0.00  0.00    -0.081 A 
ATOM     11  CAN NF6 d   1     -32.317  -2.023 191.185  0.00  0.00    -0.072 A 
ATOM     12  CAG NF6 d   1     -33.662   1.149 188.633  0.00  0.00     0.222 A 
ATOM     13  NAB NF6 d   1     -34.309  -0.090 188.628  0.00  0.00    -0.009 N 
ATOM     14  H   NF6 d   1     -33.224  -1.470 188.635  0.00  0.00     0.137 H 
ATOM     15  H   NF6 d   1     -32.147   3.460 188.913  0.00  0.00     0.084 H 
ATOM     16  H   NF6 d   1     -30.201   3.781 190.447  0.00  0.00     0.087 H 
ATOM     17  H   NF6 d   1     -29.686  -0.446 192.755  0.00  0.00     0.084 H 
ATOM     18  H   NF6 d   1     -30.890  -2.650 192.694  0.00  0.00     0.083 H 
ATOM     19  H   NF6 d   1     -32.832  -2.977 191.160  0.00  0.00     0.084 H 
ATOM     20  H   NF6 d   1     -34.339   1.501 189.425  0.00  0.00     0.137 H 
ATOM     21  H   NF6 d   1     -34.927   0.232 189.356  0.00  0.00     0.287 HD
ENDROOT
BRANCH  13  22
ATOM     22  CAA NF6 d   1     -35.429  -0.300 187.751  0.00  0.00     0.112 C 
ATOM     23  H   NF6 d   1     -35.544  -1.387 187.632  0.00  0.00     0.079 H 
ATOM     24  H   NF6 d   1     -35.167   0.149 186.782  0.00  0.00     0.079 H 
BRANCH  22  25
ATOM     25  CAW NF6 d   1     -36.805   0.256 188.145  0.00  0.00     0.105 C 
ATOM     26  H   NF6 d   1     -36.719   1.351 188.201  0.00  0.00     0.078 H 
ATOM     27  H   NF6 d   1     -37.055  -0.144 189.139  0.00  0.00     0.078 H 
BRANCH  25  28
ATOM     28  NAX NF6 d   1     -37.971  -0.072 187.205  0.00  0.00    -0.068 N 
ATOM     29  H   NF6 d   1     -38.085  -1.072 187.156  0.00  0.00     0.277 HD
ATOM     30  H   NF6 d   1     -37.767   0.289 186.286  0.00  0.00     0.277 HD
BRANCH  28  31
ATOM     31  CAY NF6 d   1     -39.206   0.525 187.688  0.00  0.00     0.129 C 
ATOM     32  H   NF6 d   1     -39.128   0.596 188.783  0.00  0.00     0.086 H 
ATOM     33  H   NF6 d   1     -40.025  -0.159 187.423  0.00  0.00     0.086 H 
BRANCH  31  34
ATOM     34  CAQ NF6 d   1     -39.586   1.907 187.171  0.00  0.00     0.124 A 
ATOM     35  SAU NF6 d   1     -39.809   2.436 185.553  0.00  0.00    -0.055 SA
ATOM     36  CAT NF6 d   1     -40.197   4.064 185.947  0.00  0.00     0.095 A 
ATOM     37  NAS NF6 d   1     -40.145   4.126 187.275  0.00  0.00    -0.147 NA
ATOM     38  NAR NF6 d   1     -39.823   2.988 187.921  0.00  0.00    -0.145 NA
BRANCH  36  39
ATOM     39  CAV NF6 d   1     -40.537   5.207 185.015  0.00  0.00    -0.028 C 
ATOM     40  H   NF6 d   1     -40.733   6.115 185.604  0.00  0.00     0.036 H 
ATOM     41  H   NF6 d   1     -41.432   4.949 184.430  0.00  0.00     0.036 H 
ATOM     42  H   NF6 d   1     -39.693   5.388 184.333  0.00  0.00     0.036 H 
ENDBRANCH  36  39
ENDBRANCH  31  34
ENDBRANCH  28  31
ENDBRANCH  25  28
ENDBRANCH  22  25
ENDBRANCH  13  22
BRANCH   1  43
ATOM     43  OAH NF6 d   1     -34.575  -2.341 189.393  0.00  0.00    -0.366 OA
ATOM     44  H   NF6 d   1     -34.169  -2.944 190.004  0.00  0.00     0.212 HD
ENDBRANCH   1  43
BRANCH  12  45
ATOM     45  OAI NF6 d   1     -34.116   2.184 187.787  0.00  0.00    -0.366 OA
ATOM     46  H   NF6 d   1     -33.573   2.954 187.911  0.00  0.00     0.212 HD
ENDBRANCH  12  45
BRANCH   7  47
ATOM     47  NAZ NF6 d   1     -29.148   1.910 192.182  0.00  0.00    -0.389 N 
BRANCH  47  48
ATOM     48  CBA NF6 d   1     -29.386   2.323 193.554  0.00  0.00    -0.019 C 
ATOM     49  H   NF6 d   1     -28.427   2.388 194.089  0.00  0.00     0.056 H 
ATOM     50  H   NF6 d   1     -30.034   1.587 194.051  0.00  0.00     0.056 H 
ATOM     51  H   NF6 d   1     -29.877   3.307 193.561  0.00  0.00     0.056 H 
ENDBRANCH  47  48
BRANCH  47  52
ATOM     52  CBB NF6 d   1     -27.789   1.642 191.723  0.00  0.00    -0.019 C 
ATOM     53  H   NF6 d   1     -27.812   1.344 190.664  0.00  0.00     0.056 H 
ATOM     54  H   NF6 d   1     -27.353   0.830 192.323  0.00  0.00     0.056 H 
ATOM     55  H   NF6 d   1     -27.178   2.550 191.835  0.00  0.00     0.056 H 
ENDBRANCH  47  52
ENDBRANCH   7  47
TORSDOF 11
