REMARK  3 active torsions:
REMARK  status: ('A' for Active; 'I' for Inactive)
REMARK    1  A    between atoms: C4_7  and  C8_8 
REMARK    2  A    between atoms: C8_8  and  N9_9 
REMARK    3  A    between atoms: C10_13  and  N14_14 
ROOT
ATOM      1  N14 TH4 d   1      30.171 -28.756 -27.085  0.00  0.00    -0.149 NA
ATOM      2  C15 TH4 d   1      30.319 -29.916 -26.711  0.00  0.00     0.208 C 
ATOM      3  N16 TH4 d   1      30.474 -31.014 -26.369  0.00  0.00    -0.170 NA
ENDROOT
BRANCH   1   4
ATOM      4  C10 TH4 d   1      31.100 -27.862 -27.027  0.00  0.00     0.176 A 
ATOM      5  N9  TH4 d   1      30.945 -26.595 -27.433  0.00  0.00    -0.355 N 
ATOM      6  C13 TH4 d   1      32.091 -25.683 -27.302  0.00  0.00     0.005 A 
ATOM      7  C12 TH4 d   1      33.246 -26.486 -26.692  0.00  0.00    -0.001 A 
ATOM      8  H6  TH4 d   1      31.829 -24.841 -26.644  0.00  0.00     0.065 H 
ATOM      9  H7  TH4 d   1      32.381 -25.299 -28.291  0.00  0.00     0.065 H 
ATOM     10  S11 TH4 d   1      32.641 -28.112 -26.441  0.00  0.00    -0.090 SA
ATOM     11  H8  TH4 d   1      33.553 -26.042 -25.733  0.00  0.00     0.052 H 
ATOM     12  H9  TH4 d   1      34.104 -26.502 -27.381  0.00  0.00     0.052 H 
BRANCH   5  13
ATOM     13  C8  TH4 d   1      29.706 -26.059 -27.990  0.00  0.00     0.022 C 
ATOM     14  H4  TH4 d   1      28.923 -26.820 -27.852  0.00  0.00     0.071 H 
ATOM     15  H5  TH4 d   1      29.446 -25.157 -27.416  0.00  0.00     0.071 H 
BRANCH  13  16
ATOM     16  C4  TH4 d   1      29.722 -25.678 -29.460  0.00  0.00    -0.023 A 
ATOM     17  C5  TH4 d   1      29.812 -26.670 -30.483  0.00  0.00    -0.071 A 
ATOM     18  C6  TH4 d   1      29.792 -26.274 -31.849  0.00  0.00    -0.043 A 
ATOM     19  H1  TH4 d   1      29.895 -27.718 -30.220  0.00  0.00     0.084 H 
ATOM     20  C1  TH4 d   1      29.682 -24.893 -32.161  0.00  0.00     0.125 A 
ATOM     21  H2  TH4 d   1      29.860 -27.014 -32.638  0.00  0.00     0.088 H 
ATOM     22 CL7  TH4 d   1      29.626 -24.345 -33.864  0.00  0.00    -0.062 Cl
ATOM     23  N2  TH4 d   1      29.606 -23.959 -31.143  0.00  0.00    -0.248 NA
ATOM     24  C3  TH4 d   1      29.624 -24.316 -29.827  0.00  0.00     0.011 A 
ATOM     25  H3  TH4 d   1      29.563 -23.553 -29.059  0.00  0.00     0.115 H 
ENDBRANCH  13  16
ENDBRANCH   5  13
ENDBRANCH   1   4
TORSDOF 3
