REMARK  3 active torsions:
REMARK  status: ('A' for Active; 'I' for Inactive)
REMARK    1  A    between atoms: C3_5  and  C4_6 
REMARK    2  A    between atoms: C4_6  and  N2_7 
REMARK    3  A    between atoms: C8_11  and  N4_15 
ROOT
ATOM      1  N2  N1Y d   1      30.763 -26.881 -27.811  0.00  0.00    -0.360 N 
ATOM      2  C7  N1Y d   1      29.573 -27.280 -27.191  0.00  0.00     0.121 A 
ATOM      3  C8  N1Y d   1      28.611 -28.046 -27.751  0.00  0.00     0.088 C 
ATOM      4  N3  N1Y d   1      29.568 -26.752 -25.924  0.00  0.00    -0.374 N 
ATOM      5  C9  N1Y d   1      30.740 -25.972 -25.606  0.00  0.00     0.009 A 
ATOM      6  C10 N1Y d   1      31.581 -26.051 -26.902  0.00  0.00     0.011 A 
ATOM      7  H6  N1Y d   1      28.763 -28.390 -28.773  0.00  0.00     0.127 H 
ATOM      8  H7  N1Y d   1      28.796 -26.899 -25.259  0.00  0.00     0.161 HD
ATOM      9  H8  N1Y d   1      31.285 -26.408 -24.755  0.00  0.00     0.066 H 
ATOM     10  H9  N1Y d   1      30.470 -24.931 -25.374  0.00  0.00     0.066 H 
ATOM     11  H10 N1Y d   1      31.741 -25.049 -27.326  0.00  0.00     0.066 H 
ATOM     12  H11 N1Y d   1      32.554 -26.526 -26.708  0.00  0.00     0.066 H 
ENDROOT
BRANCH   1  13
ATOM     13  C4  N1Y d   1      31.274 -27.162 -29.154  0.00  0.00     0.021 C 
ATOM     14  H2  N1Y d   1      32.354 -26.953 -29.154  0.00  0.00     0.071 H 
ATOM     15  H3  N1Y d   1      31.107 -28.229 -29.362  0.00  0.00     0.071 H 
BRANCH  13  16
ATOM     16  C3  N1Y d   1      30.641 -26.359 -30.289  0.00  0.00    -0.023 A 
ATOM     17  C2  N1Y d   1      30.660 -24.938 -30.345  0.00  0.00     0.011 A 
ATOM     18  N1  N1Y d   1      30.105 -24.200 -31.371  0.00  0.00    -0.248 NA
ATOM     19  H1  N1Y d   1      31.139 -24.402 -29.533  0.00  0.00     0.115 H 
ATOM     20  C1  N1Y d   1      29.503 -24.902 -32.393  0.00  0.00     0.125 A 
ATOM     21 CL   N1Y d   1      28.847 -23.949 -33.641  0.00  0.00    -0.062 Cl
ATOM     22  C6  N1Y d   1      29.419 -26.299 -32.444  0.00  0.00    -0.043 A 
ATOM     23  C5  N1Y d   1      29.998 -27.026 -31.375  0.00  0.00    -0.071 A 
ATOM     24  H5  N1Y d   1      28.930 -26.804 -33.269  0.00  0.00     0.088 H 
ATOM     25  H4  N1Y d   1      29.952 -28.109 -31.382  0.00  0.00     0.084 H 
ENDBRANCH  13  16
ENDBRANCH   1  13
BRANCH   3  26
ATOM     26  N4  N1Y d   1      27.389 -28.438 -27.076  0.00  0.00    -0.124 N 
ATOM     27  O1  N1Y d   1      27.154 -28.077 -25.903  0.00  0.00    -0.532 OA
ATOM     28  O2  N1Y d   1      26.633 -29.137 -27.754  0.00  0.00    -0.532 OA
ENDBRANCH   3  26
TORSDOF 3
