REMARK  3 active torsions:
REMARK  status: ('A' for Active; 'I' for Inactive)
REMARK    1  A    between atoms: C3_5  and  C4_6 
REMARK    2  A    between atoms: C4_6  and  N2_7 
REMARK    3  A    between atoms: C8_11  and  N4_15 
ROOT
ATOM      1  N2  N1Y d   1      57.958 -12.459 -25.731  0.00  0.00    -0.360 N 
ATOM      2  C7  N1Y d   1      58.019 -13.605 -24.917  0.00  0.00     0.121 A 
ATOM      3  C8  N1Y d   1      58.524 -14.807 -25.280  0.00  0.00     0.088 C 
ATOM      4  N3  N1Y d   1      57.481 -13.274 -23.702  0.00  0.00    -0.374 N 
ATOM      5  C9  N1Y d   1      57.024 -11.905 -23.608  0.00  0.00     0.009 A 
ATOM      6  C10 N1Y d   1      57.346 -11.325 -25.006  0.00  0.00     0.011 A 
ATOM      7  H6  N1Y d   1      58.924 -14.901 -26.289  0.00  0.00     0.127 H 
ATOM      8  H7  N1Y d   1      57.408 -13.943 -22.922  0.00  0.00     0.161 HD
ATOM      9  H8  N1Y d   1      57.568 -11.361 -22.821  0.00  0.00     0.066 H 
ATOM     10  H9  N1Y d   1      55.944 -11.863 -23.403  0.00  0.00     0.066 H 
ATOM     11  H10 N1Y d   1      56.428 -10.988 -25.510  0.00  0.00     0.066 H 
ATOM     12  H11 N1Y d   1      58.051 -10.485 -24.928  0.00  0.00     0.066 H 
ENDROOT
BRANCH   1  13
ATOM     13  C4  N1Y d   1      58.392 -12.246 -27.109  0.00  0.00     0.021 C 
ATOM     14  H2  N1Y d   1      58.451 -11.162 -27.284  0.00  0.00     0.071 H 
ATOM     15  H3  N1Y d   1      59.391 -12.691 -27.224  0.00  0.00     0.071 H 
BRANCH  13  16
ATOM     16  C3  N1Y d   1      57.482 -12.847 -28.172  0.00  0.00    -0.023 A 
ATOM     17  C2  N1Y d   1      56.142 -12.416 -28.363  0.00  0.00     0.011 A 
ATOM     18  N1  N1Y d   1      55.304 -12.930 -29.319  0.00  0.00    -0.248 NA
ATOM     19  H1  N1Y d   1      55.760 -11.635 -27.715  0.00  0.00     0.115 H 
ATOM     20  C1  N1Y d   1      55.807 -13.915 -30.129  0.00  0.00     0.125 A 
ATOM     21 CL   N1Y d   1      54.725 -14.497 -31.290  0.00  0.00    -0.062 Cl
ATOM     22  C6  N1Y d   1      57.113 -14.427 -30.037  0.00  0.00    -0.043 A 
ATOM     23  C5  N1Y d   1      57.955 -13.876 -29.039  0.00  0.00    -0.071 A 
ATOM     24  H5  N1Y d   1      57.461 -15.210 -30.701  0.00  0.00     0.088 H 
ATOM     25  H4  N1Y d   1      58.970 -14.241 -28.933  0.00  0.00     0.084 H 
ENDBRANCH  13  16
ENDBRANCH   1  13
BRANCH   3  26
ATOM     26  N4  N1Y d   1      58.573 -15.980 -24.426  0.00  0.00    -0.124 N 
ATOM     27  O1  N1Y d   1      58.130 -15.956 -23.262  0.00  0.00    -0.532 OA
ATOM     28  O2  N1Y d   1      59.082 -16.977 -24.957  0.00  0.00    -0.532 OA
ENDBRANCH   3  26
TORSDOF 3
