REMARK  2 active torsions:
REMARK  status: ('A' for Active; 'I' for Inactive)
REMARK    1  A    between atoms: C9_14  and  N3_2 
REMARK    2  A    between atoms: C6_11  and  C9_14 
ROOT
ATOM      1  C9  N2Y d   1       1.821  21.035  14.469  0.00  0.00     0.027 C 
ATOM      2  H8  N2Y d   1       1.231  21.045  13.541  0.00  0.00     0.072 H 
ATOM      3  H9  N2Y d   1       1.164  20.796  15.318  0.00  0.00     0.072 H 
ENDROOT
BRANCH   1   4
ATOM      4  N3  N2Y d   1       2.329  22.410  14.681  0.00  0.00    -0.322 N 
ATOM      5  C1  N2Y d   1       2.154  23.244  15.820  0.00  0.00     0.201 A 
ATOM      6  N2  N2Y d   1       1.507  22.898  16.861  0.00  0.00    -0.369 N 
ATOM      7  N4  N2Y d   1       2.786  24.482  15.631  0.00  0.00    -0.226 NA
ATOM      8  H1  N2Y d   1       1.418  23.551  17.652  0.00  0.00     0.159 HD
ATOM      9  H2  N2Y d   1       1.073  21.965  16.911  0.00  0.00     0.159 HD
ATOM     10  C2  N2Y d   1       3.421  24.510  14.319  0.00  0.00     0.021 A 
ATOM     11  C3  N2Y d   1       3.121  23.147  13.685  0.00  0.00    -0.000 A 
ATOM     12  H3  N2Y d   1       3.990  25.329  13.881  0.00  0.00     0.117 H 
ATOM     13  H4  N2Y d   1       3.430  22.797  12.701  0.00  0.00     0.114 H 
ENDBRANCH   1   4
BRANCH   1  14
ATOM     14  C6  N2Y d   1       2.845  19.891  14.347  0.00  0.00    -0.022 A 
ATOM     15  C5  N2Y d   1       4.185  19.993  14.856  0.00  0.00     0.011 A 
ATOM     16  N6  N2Y d   1       5.054  18.970  14.729  0.00  0.00    -0.248 NA
ATOM     17  H5  N2Y d   1       4.502  20.905  15.349  0.00  0.00     0.115 H 
ATOM     18  C4  N2Y d   1       4.704  17.812  14.124  0.00  0.00     0.125 A 
ATOM     19 CL1  N2Y d   1       5.862  16.533  13.987  0.00  0.00    -0.062 Cl
ATOM     20  C8  N2Y d   1       3.400  17.620  13.591  0.00  0.00    -0.043 A 
ATOM     21  C7  N2Y d   1       2.473  18.675  13.711  0.00  0.00    -0.071 A 
ATOM     22  H7  N2Y d   1       3.127  16.690  13.107  0.00  0.00     0.088 H 
ATOM     23  H6  N2Y d   1       1.470  18.558  13.316  0.00  0.00     0.084 H 
ENDBRANCH   1  14
TORSDOF 2
