REMARK  2 active torsions:
REMARK  status: ('A' for Active; 'I' for Inactive)
REMARK    1  A    between atoms: C9_14  and  N3_2 
REMARK    2  A    between atoms: C6_11  and  C9_14 
ROOT
ATOM      1  C9  N2Y d   1     -20.857  -0.668  23.123  0.00  0.00     0.027 C 
ATOM      2  H8  N2Y d   1     -19.778  -0.683  22.911  0.00  0.00     0.072 H 
ATOM      3  H9  N2Y d   1     -21.371  -0.057  22.367  0.00  0.00     0.072 H 
ENDROOT
BRANCH   1   4
ATOM      4  N3  N2Y d   1     -21.014   0.055  24.414  0.00  0.00    -0.322 N 
ATOM      5  C1  N2Y d   1     -20.028   0.297  25.406  0.00  0.00     0.201 A 
ATOM      6  N2  N2Y d   1     -18.816  -0.107  25.315  0.00  0.00    -0.369 N 
ATOM      7  N4  N2Y d   1     -20.568   1.035  26.480  0.00  0.00    -0.226 NA
ATOM      8  H1  N2Y d   1     -18.146   0.100  26.069  0.00  0.00     0.159 HD
ATOM      9  H2  N2Y d   1     -18.511  -0.639  24.488  0.00  0.00     0.159 HD
ATOM     10  C2  N2Y d   1     -21.978   1.312  26.223  0.00  0.00     0.021 A 
ATOM     11  C3  N2Y d   1     -22.276   0.665  24.853  0.00  0.00    -0.000 A 
ATOM     12  H3  N2Y d   1     -22.671   1.858  26.861  0.00  0.00     0.117 H 
ATOM     13  H4  N2Y d   1     -23.227   0.662  24.322  0.00  0.00     0.114 H 
ENDBRANCH   1   4
BRANCH   1  14
ATOM     14  C6  N2Y d   1     -21.354  -2.114  22.914  0.00  0.00    -0.022 A 
ATOM     15  C5  N2Y d   1     -21.447  -2.602  21.580  0.00  0.00     0.011 A 
ATOM     16  N6  N2Y d   1     -21.855  -3.840  21.303  0.00  0.00    -0.248 NA
ATOM     17  H5  N2Y d   1     -21.177  -1.944  20.762  0.00  0.00     0.115 H 
ATOM     18  C4  N2Y d   1     -22.202  -4.704  22.247  0.00  0.00     0.125 A 
ATOM     19 CL1  N2Y d   1     -22.714  -6.291  21.728  0.00  0.00    -0.062 Cl
ATOM     20  C8  N2Y d   1     -22.157  -4.338  23.637  0.00  0.00    -0.043 A 
ATOM     21  C7  N2Y d   1     -21.723  -3.015  23.965  0.00  0.00    -0.071 A 
ATOM     22  H7  N2Y d   1     -22.443  -5.042  24.411  0.00  0.00     0.088 H 
ATOM     23  H6  N2Y d   1     -21.674  -2.697  25.000  0.00  0.00     0.084 H 
ENDBRANCH   1  14
TORSDOF 2
