REMARK  17 active torsions:
REMARK  status: ('A' for Active; 'I' for Inactive)
REMARK    1  A    between atoms: C1_1  and  C2_4 
REMARK    2  A    between atoms: C2_4  and  C3_5 
REMARK    3  A    between atoms: C3_5  and  C4_6 
REMARK    4  A    between atoms: C4_6  and  C5_7 
REMARK    5  A    between atoms: C5_7  and  C6_8 
REMARK    6  A    between atoms: C6_8  and  C7_9 
REMARK    7  A    between atoms: C7_9  and  C8_10 
REMARK    8  A    between atoms: C8_10  and  C9_11 
REMARK    9  A    between atoms: C9_11  and  C10_12 
REMARK   10  A    between atoms: C10_12  and  C11_13 
REMARK   11  A    between atoms: C11_13  and  C12_14 
REMARK   12  A    between atoms: C12_14  and  C13_15 
REMARK   13  A    between atoms: C13_15  and  C14_16 
REMARK   14  A    between atoms: C14_16  and  C15_17 
REMARK   15  A    between atoms: C15_17  and  C16_18 
REMARK   16  A    between atoms: C16_18  and  C17_19 
REMARK   17  A    between atoms: C17_19  and  C18_20 
ROOT
ATOM      1  C10 STE d   1       6.861 -25.009  -3.646  0.00  0.00    -0.065 C 
ATOM      2  H17 STE d   1       7.603 -25.629  -4.171  0.00  0.00     0.033 H 
ATOM      3  H18 STE d   1       5.950 -25.599  -3.467  0.00  0.00     0.033 H 
ENDROOT
BRANCH   1   4
ATOM      4  C9  STE d   1       6.504 -23.846  -4.535  0.00  0.00    -0.065 C 
ATOM      5  H15 STE d   1       6.212 -24.257  -5.512  0.00  0.00     0.033 H 
ATOM      6  H16 STE d   1       5.642 -23.337  -4.079  0.00  0.00     0.033 H 
BRANCH   4   7
ATOM      7  C8  STE d   1       7.558 -22.808  -4.783  0.00  0.00    -0.065 C 
ATOM      8  H13 STE d   1       7.747 -22.256  -3.850  0.00  0.00     0.033 H 
ATOM      9  H14 STE d   1       8.483 -23.305  -5.109  0.00  0.00     0.033 H 
BRANCH   7  10
ATOM     10  C7  STE d   1       7.110 -21.826  -5.863  0.00  0.00    -0.065 C 
ATOM     11  H11 STE d   1       7.061 -22.366  -6.820  0.00  0.00     0.033 H 
ATOM     12  H12 STE d   1       6.108 -21.457  -5.598  0.00  0.00     0.033 H 
BRANCH  10  13
ATOM     13  C6  STE d   1       8.021 -20.632  -6.041  0.00  0.00    -0.065 C 
ATOM     14  H9  STE d   1       9.032 -21.005  -6.261  0.00  0.00     0.033 H 
ATOM     15  H10 STE d   1       7.652 -20.047  -6.896  0.00  0.00     0.033 H 
BRANCH  13  16
ATOM     16  C5  STE d   1       8.113 -19.694  -4.826  0.00  0.00    -0.065 C 
ATOM     17  H7  STE d   1       8.628 -20.234  -4.018  0.00  0.00     0.033 H 
ATOM     18  H8  STE d   1       8.709 -18.817  -5.118  0.00  0.00     0.033 H 
BRANCH  16  19
ATOM     19  C4  STE d   1       6.795 -19.204  -4.291  0.00  0.00    -0.065 C 
ATOM     20  H5  STE d   1       6.191 -18.829  -5.130  0.00  0.00     0.033 H 
ATOM     21  H6  STE d   1       6.274 -20.046  -3.812  0.00  0.00     0.033 H 
BRANCH  19  22
ATOM     22  C3  STE d   1       6.957 -18.098  -3.280  0.00  0.00    -0.056 C 
ATOM     23  H3  STE d   1       7.679 -18.432  -2.520  0.00  0.00     0.033 H 
ATOM     24  H4  STE d   1       7.355 -17.214  -3.800  0.00  0.00     0.033 H 
BRANCH  22  25
ATOM     25  C2  STE d   1       5.683 -17.695  -2.574  0.00  0.00     0.016 C 
ATOM     26  H1  STE d   1       4.961 -17.378  -3.341  0.00  0.00     0.049 H 
ATOM     27  H2  STE d   1       5.295 -18.581  -2.050  0.00  0.00     0.049 H 
BRANCH  25  28
ATOM     28  C1  STE d   1       5.802 -16.578  -1.563  0.00  0.00     0.172 C 
ATOM     29  O1  STE d   1       6.859 -15.921  -1.497  0.00  0.00    -0.648 OA
ATOM     30  O2  STE d   1       4.781 -16.351  -0.846  0.00  0.00    -0.648 OA
ENDBRANCH  25  28
ENDBRANCH  22  25
ENDBRANCH  19  22
ENDBRANCH  16  19
ENDBRANCH  13  16
ENDBRANCH  10  13
ENDBRANCH   7  10
ENDBRANCH   4   7
ENDBRANCH   1   4
BRANCH   1  31
ATOM     31  C11 STE d   1       7.421 -24.623  -2.347  0.00  0.00    -0.065 C 
ATOM     32  H19 STE d   1       8.421 -24.199  -2.522  0.00  0.00     0.033 H 
ATOM     33  H20 STE d   1       7.510 -25.532  -1.734  0.00  0.00     0.033 H 
BRANCH  31  34
ATOM     34  C12 STE d   1       6.600 -23.587  -1.545  0.00  0.00    -0.065 C 
ATOM     35  H21 STE d   1       5.545 -23.900  -1.546  0.00  0.00     0.033 H 
ATOM     36  H22 STE d   1       6.693 -22.609  -2.040  0.00  0.00     0.033 H 
BRANCH  34  37
ATOM     37  C13 STE d   1       7.056 -23.445  -0.113  0.00  0.00    -0.065 C 
ATOM     38  H23 STE d   1       8.137 -23.242  -0.118  0.00  0.00     0.033 H 
ATOM     39  H24 STE d   1       6.864 -24.398   0.402  0.00  0.00     0.033 H 
BRANCH  37  40
ATOM     40  C14 STE d   1       6.387 -22.360   0.660  0.00  0.00    -0.065 C 
ATOM     41  H25 STE d   1       6.784 -22.378   1.686  0.00  0.00     0.033 H 
ATOM     42  H26 STE d   1       5.308 -22.573   0.681  0.00  0.00     0.033 H 
BRANCH  40  43
ATOM     43  C15 STE d   1       6.579 -20.958   0.107  0.00  0.00    -0.065 C 
ATOM     44  H27 STE d   1       6.156 -20.247   0.832  0.00  0.00     0.033 H 
ATOM     45  H28 STE d   1       6.025 -20.888  -0.841  0.00  0.00     0.033 H 
BRANCH  43  46
ATOM     46  C16 STE d   1       8.042 -20.548  -0.165  0.00  0.00    -0.065 C 
ATOM     47  H29 STE d   1       8.045 -19.534  -0.592  0.00  0.00     0.033 H 
ATOM     48  H30 STE d   1       8.471 -21.253  -0.892  0.00  0.00     0.033 H 
BRANCH  46  49
ATOM     49  C17 STE d   1       8.942 -20.547   1.109  0.00  0.00    -0.069 C 
ATOM     50  H31 STE d   1       8.881 -21.532   1.594  0.00  0.00     0.032 H 
ATOM     51  H32 STE d   1       8.582 -19.774   1.804  0.00  0.00     0.032 H 
BRANCH  49  52
ATOM     52  C18 STE d   1      10.391 -20.258   0.749  0.00  0.00    -0.077 C 
ATOM     53  H33 STE d   1      11.004 -20.263   1.663  0.00  0.00     0.027 H 
ATOM     54  H34 STE d   1      10.459 -19.272   0.267  0.00  0.00     0.027 H 
ATOM     55  H35 STE d   1      10.758 -21.030   0.057  0.00  0.00     0.027 H 
ENDBRANCH  49  52
ENDBRANCH  46  49
ENDBRANCH  43  46
ENDBRANCH  40  43
ENDBRANCH  37  40
ENDBRANCH  34  37
ENDBRANCH  31  34
ENDBRANCH   1  31
TORSDOF 17
