REMARK  8 active torsions:
REMARK  status: ('A' for Active; 'I' for Inactive)
REMARK    1  A    between atoms: C9_9  and  C10_10 
REMARK       I    between atoms: C10_10  and  N12_12 
REMARK    2  A    between atoms: N12_12  and  C13_13 
REMARK    3  A    between atoms: C13_13  and  C14_14 
REMARK       I    between atoms: N20_20  and  C21_21 
REMARK    4  A    between atoms: C21_21  and  C23_23 
REMARK    5  A    between atoms: C23_23  and  N24_24 
REMARK    6  A    between atoms: N24_24  and  C25_25 
REMARK    7  A    between atoms: C25_25  and  C26_26 
REMARK    8  A    between atoms: C26_26  and  C27_27 
ROOT
ATOM      1  C1  IXY d   1      48.399  11.348   9.518  0.00  0.00    -0.034 C 
ATOM      2  C2  IXY d   1      47.600  10.091   9.290  0.00  0.00    -0.008 A 
ATOM      3  C3  IXY d   1      46.114   9.857   9.078  0.00  0.00    -0.026 A 
ATOM      4  C4  IXY d   1      45.423  11.226   9.123  0.00  0.00    -0.039 C 
ATOM      5  C5  IXY d   1      46.152  12.350   9.847  0.00  0.00    -0.061 C 
ATOM      6  C6  IXY d   1      47.531  12.567   9.258  0.00  0.00    -0.061 C 
ATOM      7  S7  IXY d   1      48.102   8.525   9.196  0.00  0.00    -0.075 SA
ATOM      8  C8  IXY d   1      46.939   7.430   8.938  0.00  0.00     0.093 A 
ATOM      9  C9  IXY d   1      45.736   8.375   8.879  0.00  0.00     0.073 A 
ATOM     10  N20 IXY d   1      47.046   6.102   8.817  0.00  0.00    -0.319 N 
ATOM     11  C21 IXY d   1      46.757   5.245   9.785  0.00  0.00     0.248 C 
ATOM     12  O22 IXY d   1      46.347   5.593  10.878  0.00  0.00    -0.271 OA
ATOM     13  H1  IXY d   1      49.261  11.361   8.834  0.00  0.00     0.040 H 
ATOM     14  H2  IXY d   1      48.756  11.370  10.558  0.00  0.00     0.040 H 
ATOM     15  H3  IXY d   1      44.450  11.090   9.618  0.00  0.00     0.040 H 
ATOM     16  H4  IXY d   1      45.263  11.550   8.084  0.00  0.00     0.040 H 
ATOM     17  H5  IXY d   1      46.252  12.088  10.911  0.00  0.00     0.033 H 
ATOM     18  H6  IXY d   1      45.569  13.278   9.751  0.00  0.00     0.033 H 
ATOM     19  H7  IXY d   1      47.444  12.729   8.173  0.00  0.00     0.033 H 
ATOM     20  H8  IXY d   1      47.992  13.450   9.724  0.00  0.00     0.033 H 
ATOM     21  H17 IXY d   1      47.363   5.734   7.943  0.00  0.00     0.169 HD
ENDROOT
BRANCH   9  22
ATOM     22  C10 IXY d   1      44.474   7.587   8.641  0.00  0.00     0.255 C 
ATOM     23  O11 IXY d   1      43.565   7.681   9.470  0.00  0.00    -0.268 OA
ATOM     24  N12 IXY d   1      44.353   6.883   7.514  0.00  0.00    -0.353 N 
ATOM     25  H9  IXY d   1      45.126   6.878   6.880  0.00  0.00     0.163 HD
BRANCH  24  26
ATOM     26  C13 IXY d   1      43.164   6.120   7.148  0.00  0.00     0.019 C 
ATOM     27  H10 IXY d   1      42.797   5.564   8.023  0.00  0.00     0.071 H 
ATOM     28  H11 IXY d   1      43.411   5.414   6.342  0.00  0.00     0.071 H 
BRANCH  26  29
ATOM     29  C14 IXY d   1      42.090   7.088   6.670  0.00  0.00    -0.041 A 
ATOM     30  C15 IXY d   1      42.428   8.361   6.232  0.00  0.00    -0.075 A 
ATOM     31  C16 IXY d   1      41.430   9.226   5.787  0.00  0.00    -0.082 A 
ATOM     32  H12 IXY d   1      43.464   8.681   6.236  0.00  0.00     0.084 H 
ATOM     33  C17 IXY d   1      40.095   8.834   5.773  0.00  0.00    -0.083 A 
ATOM     34  H13 IXY d   1      41.698  10.220   5.447  0.00  0.00     0.083 H 
ATOM     35  C18 IXY d   1      39.748   7.558   6.193  0.00  0.00    -0.082 A 
ATOM     36  H14 IXY d   1      39.329   9.523   5.435  0.00  0.00     0.083 H 
ATOM     37  C19 IXY d   1      40.748   6.697   6.636  0.00  0.00    -0.075 A 
ATOM     38  H15 IXY d   1      38.713   7.236   6.176  0.00  0.00     0.083 H 
ATOM     39  H16 IXY d   1      40.480   5.699   6.963  0.00  0.00     0.084 H 
ENDBRANCH  26  29
ENDBRANCH  24  26
ENDBRANCH   9  22
BRANCH  11  40
ATOM     40  C23 IXY d   1      46.949   3.784   9.463  0.00  0.00     0.154 C 
ATOM     41  H18 IXY d   1      48.017   3.533   9.541  0.00  0.00     0.090 H 
ATOM     42  H19 IXY d   1      46.600   3.589   8.438  0.00  0.00     0.090 H 
BRANCH  40  43
ATOM     43  N24 IXY d   1      46.194   2.960  10.391  0.00  0.00    -0.067 N 
ATOM     44  H20 IXY d   1      46.357   3.333  11.313  0.00  0.00     0.277 HD
ATOM     45  H21 IXY d   1      46.575   2.029  10.333  0.00  0.00     0.277 HD
BRANCH  43  46
ATOM     46  C25 IXY d   1      44.757   2.839  10.233  0.00  0.00     0.086 C 
ATOM     47  H22 IXY d   1      44.531   2.482   9.218  0.00  0.00     0.076 H 
ATOM     48  H23 IXY d   1      44.289   3.822  10.389  0.00  0.00     0.076 H 
BRANCH  46  49
ATOM     49  C26 IXY d   1      44.207   1.855  11.246  0.00  0.00    -0.016 C 
ATOM     50  H24 IXY d   1      44.381   2.237  12.263  0.00  0.00     0.042 H 
ATOM     51  H25 IXY d   1      44.711   0.884  11.127  0.00  0.00     0.042 H 
BRANCH  49  52
ATOM     52  C27 IXY d   1      42.731   1.687  11.018  0.00  0.00    -0.029 A 
ATOM     53  C28 IXY d   1      41.741   2.653  11.186  0.00  0.00    -0.015 A 
ATOM     54  N29 IXY d   1      40.516   2.136  10.887  0.00  0.00    -0.365 N 
ATOM     55  H26 IXY d   1      41.921   3.677  11.511  0.00  0.00     0.112 H 
ATOM     56  C30 IXY d   1      40.654   0.841  10.522  0.00  0.00     0.042 A 
ATOM     57  H27 IXY d   1      39.625   2.651  10.932  0.00  0.00     0.165 HD
ATOM     58  C31 IXY d   1      42.094   0.528  10.599  0.00  0.00    -0.002 A 
ATOM     59  C35 IXY d   1      39.776  -0.159  10.123  0.00  0.00    -0.056 A 
ATOM     60  C32 IXY d   1      42.578  -0.741  10.286  0.00  0.00    -0.070 A 
ATOM     61  C33 IXY d   1      41.657  -1.710   9.902  0.00  0.00    -0.082 A 
ATOM     62  H28 IXY d   1      43.637  -0.965  10.340  0.00  0.00     0.084 H 
ATOM     63  C34 IXY d   1      40.293  -1.423   9.823  0.00  0.00    -0.081 A 
ATOM     64  H29 IXY d   1      42.005  -2.708   9.659  0.00  0.00     0.083 H 
ATOM     65  H30 IXY d   1      39.611  -2.208   9.518  0.00  0.00     0.083 H 
ATOM     66  H31 IXY d   1      38.713   0.037  10.046  0.00  0.00     0.086 H 
ENDBRANCH  49  52
ENDBRANCH  46  49
ENDBRANCH  43  46
ENDBRANCH  40  43
ENDBRANCH  11  40
TORSDOF 8
