REMARK  5 active torsions:
REMARK  status: ('A' for Active; 'I' for Inactive)
REMARK    1  A    between atoms: C11_1  and  C10_4 
REMARK    2  A    between atoms: C10_4  and  C9_5 
REMARK    3  A    between atoms: C9_5  and  C8_6 
REMARK    4  A    between atoms: C8_6  and  C7_7 
REMARK    5  A    between atoms: C7_7  and  C2_8 
ROOT
ATOM      1  C2  BTN d   1       6.030 -18.463   4.630  0.00  0.00     0.012 C 
ATOM      2  S1  BTN d   1       5.305 -17.835   6.094  0.00  0.00    -0.160 SA
ATOM      3  C6  BTN d   1       6.077 -19.138   7.125  0.00  0.00    -0.002 C 
ATOM      4  C5  BTN d   1       7.474 -19.285   6.494  0.00  0.00     0.041 A 
ATOM      5  N1  BTN d   1       8.371 -18.292   7.095  0.00  0.00    -0.347 N 
ATOM      6  C3  BTN d   1       8.849 -17.493   6.132  0.00  0.00     0.248 A 
ATOM      7  O3  BTN d   1       9.511 -16.366   6.407  0.00  0.00    -0.152 OA
ATOM      8  N2  BTN d   1       8.383 -17.725   4.882  0.00  0.00    -0.347 N 
ATOM      9  C4  BTN d   1       7.498 -18.901   5.002  0.00  0.00     0.045 A 
ATOM     10  H9  BTN d   1       5.475 -19.376   4.368  0.00  0.00     0.059 H 
ATOM     11  H10 BTN d   1       5.512 -20.080   7.062  0.00  0.00     0.052 H 
ATOM     12  H11 BTN d   1       6.148 -18.822   8.176  0.00  0.00     0.052 H 
ATOM     13  H12 BTN d   1       7.843 -20.311   6.642  0.00  0.00     0.076 H 
ATOM     14  H13 BTN d   1       8.591 -18.223   8.068  0.00  0.00     0.163 HD
ATOM     15  H14 BTN d   1       8.594 -17.209   4.052  0.00  0.00     0.163 HD
ATOM     16  H15 BTN d   1       7.844 -19.732   4.370  0.00  0.00     0.077 H 
ENDROOT
BRANCH   1  17
ATOM     17  C7  BTN d   1       5.944 -17.564   3.389  0.00  0.00    -0.051 C 
ATOM     18  H7  BTN d   1       6.294 -16.553   3.646  0.00  0.00     0.034 H 
ATOM     19  H8  BTN d   1       6.578 -17.980   2.592  0.00  0.00     0.034 H 
BRANCH  17  20
ATOM     20  C8  BTN d   1       4.499 -17.491   2.900  0.00  0.00    -0.063 C 
ATOM     21  H5  BTN d   1       4.175 -18.479   2.539  0.00  0.00     0.033 H 
ATOM     22  H6  BTN d   1       3.842 -17.167   3.720  0.00  0.00     0.033 H 
BRANCH  20  23
ATOM     23  C9  BTN d   1       4.445 -16.472   1.753  0.00  0.00    -0.056 C 
ATOM     24  H3  BTN d   1       4.746 -15.494   2.157  0.00  0.00     0.033 H 
ATOM     25  H4  BTN d   1       5.167 -16.790   0.986  0.00  0.00     0.033 H 
BRANCH  23  26
ATOM     26  C10 BTN d   1       3.072 -16.299   1.068  0.00  0.00     0.016 C 
ATOM     27  H1  BTN d   1       2.363 -15.893   1.805  0.00  0.00     0.049 H 
ATOM     28  H2  BTN d   1       3.184 -15.587   0.237  0.00  0.00     0.049 H 
BRANCH  26  29
ATOM     29  C11 BTN d   1       2.505 -17.594   0.518  0.00  0.00     0.172 C 
ATOM     30  O11 BTN d   1       3.215 -18.345  -0.227  0.00  0.00    -0.648 OA
ATOM     31  O12 BTN d   1       1.272 -17.939   0.766  0.00  0.00    -0.648 OA
ENDBRANCH  26  29
ENDBRANCH  23  26
ENDBRANCH  20  23
ENDBRANCH  17  20
ENDBRANCH   1  17
TORSDOF 5
