REMARK  3 active torsions:
REMARK  status: ('A' for Active; 'I' for Inactive)
REMARK    1  A    between atoms: C27_27  and  C7_7 
REMARK    2  A    between atoms: C11_11  and  C18_18 
REMARK    3  A    between atoms: C26_26  and  C27_27 
ROOT
ATOM      1  C11 6XE d   1      18.244  12.202  41.405  0.00  0.00     0.106 A 
ATOM      2  C12 6XE d   1      17.697  13.155  40.482  0.00  0.00     0.051 A 
ATOM      3  N13 6XE d   1      17.555  12.850  39.194  0.00  0.00    -0.069 NA
ATOM      4  N14 6XE d   1      18.602  11.013  40.946  0.00  0.00    -0.149 NA
ATOM      5  N22 6XE d   1      18.447  10.697  39.586  0.00  0.00    -0.041 N 
ATOM      6  C23 6XE d   1      17.918  11.635  38.713  0.00  0.00     0.769 A 
ATOM      7  N24 6XE d   1      17.892  11.067  37.522  0.00  0.00     0.047 NA
ATOM      8  N25 6XE d   1      18.360   9.867  37.608  0.00  0.00    -0.117 NA
ATOM      9  C26 6XE d   1      18.712   9.593  38.841  0.00  0.00     0.173 A 
ATOM     10  H7  6XE d   1      17.395  14.138  40.839  0.00  0.00     0.119 H 
ENDROOT
BRANCH   9  11
ATOM     11  C27 6XE d   1      19.299   8.282  39.344  0.00  0.00     0.018 C 
ATOM     12  H12 6XE d   1      18.694   7.930  40.193  0.00  0.00     0.052 H 
ATOM     13  H13 6XE d   1      19.254   7.543  38.530  0.00  0.00     0.052 H 
BRANCH  11  14
ATOM     14  C7  6XE d   1      20.746   8.414  39.801  0.00  0.00    -0.050 A 
ATOM     15  C8  6XE d   1      21.797   8.294  38.849  0.00  0.00    -0.074 A 
ATOM     16  C9  6XE d   1      23.130   8.399  39.230  0.00  0.00    -0.054 A 
ATOM     17  H4  6XE d   1      21.554   8.117  37.807  0.00  0.00     0.084 H 
ATOM     18  C2  6XE d   1      23.467   8.631  40.600  0.00  0.00     0.066 A 
ATOM     19  H5  6XE d   1      23.914   8.305  38.488  0.00  0.00     0.087 H 
ATOM     20  C1  6XE d   1      22.396   8.757  41.580  0.00  0.00    -0.007 A 
ATOM     21  N3  6XE d   1      24.762   8.735  41.009  0.00  0.00    -0.260 NA
ATOM     22  C6  6XE d   1      22.749   8.993  42.950  0.00  0.00    -0.069 A 
ATOM     23  C10 6XE d   1      21.032   8.643  41.152  0.00  0.00    -0.064 A 
ATOM     24  C5  6XE d   1      24.098   9.089  43.299  0.00  0.00    -0.065 A 
ATOM     25  H3  6XE d   1      21.978   9.096  43.705  0.00  0.00     0.085 H 
ATOM     26  C4  6XE d   1      25.091   8.952  42.293  0.00  0.00     0.003 A 
ATOM     27  H2  6XE d   1      24.385   9.267  44.329  0.00  0.00     0.085 H 
ATOM     28  H1  6XE d   1      26.137   9.024  42.567  0.00  0.00     0.114 H 
ATOM     29  H6  6XE d   1      20.226   8.734  41.871  0.00  0.00     0.085 H 
ENDBRANCH  11  14
ENDBRANCH   9  11
BRANCH   1  30
ATOM     30  C18 6XE d   1      18.425  12.503  42.855  0.00  0.00    -0.004 A 
ATOM     31  C17 6XE d   1      18.044  13.764  43.407  0.00  0.00    -0.068 A 
ATOM     32  C16 6XE d   1      18.233  14.015  44.777  0.00  0.00    -0.045 A 
ATOM     33  H9  6XE d   1      17.610  14.526  42.770  0.00  0.00     0.085 H 
ATOM     34  C15 6XE d   1      18.803  13.023  45.609  0.00  0.00     0.116 A 
ATOM     35  H8  6XE d   1      17.941  14.971  45.197  0.00  0.00     0.088 H 
ATOM     36  C20 6XE d   1      19.181  11.772  45.073  0.00  0.00    -0.045 A 
ATOM     37  F21 6XE d   1      18.987  13.271  46.919  0.00  0.00    -0.206 F 
ATOM     38  C19 6XE d   1      18.994  11.508  43.705  0.00  0.00    -0.068 A 
ATOM     39  H11 6XE d   1      19.615  11.015  45.717  0.00  0.00     0.088 H 
ATOM     40  H10 6XE d   1      19.282  10.547  43.295  0.00  0.00     0.085 H 
ENDBRANCH   1  30
TORSDOF 3
