REMARK  5 active torsions:
REMARK  status: ('A' for Active; 'I' for Inactive)
REMARK    1  A    between atoms: C5_9  and  C4_7 
REMARK    2  A    between atoms: C6_11  and  C5_9 
REMARK    3  A    between atoms: C5_9  and  C15_22 
REMARK    4  A    between atoms: N5_10  and  C11_18 
REMARK    5  A    between atoms: C8_14  and  C7_13 
ROOT
ATOM      1  N2  W9Z d   1      18.572  83.854   6.471  0.00  0.00    -0.197 N 
ATOM      2  N3  W9Z d   1      18.588  83.567   5.194  0.00  0.00    -0.164 NA
ATOM      3  C6  W9Z d   1      18.836  85.024   7.144  0.00  0.00     0.160 A 
ATOM      4  N6  W9Z d   1      18.307  83.570   8.615  0.00  0.00    -0.128 NA
ATOM      5  C7  W9Z d   1      18.256  82.292   4.829  0.00  0.00     0.090 A 
ATOM      6  N10 W9Z d   1      18.654  84.803   8.410  0.00  0.00    -0.132 NA
ATOM      7  C12 W9Z d   1      17.919  81.289   5.806  0.00  0.00    -0.049 A 
ATOM      8  C13 W9Z d   1      17.913  81.629   7.192  0.00  0.00    -0.033 A 
ATOM      9  C14 W9Z d   1      18.247  82.966   7.483  0.00  0.00     0.174 A 
ATOM     10  H9  W9Z d   1      17.670  80.277   5.489  0.00  0.00     0.087 H 
ATOM     11  H10 W9Z d   1      17.668  80.906   7.969  0.00  0.00     0.089 H 
ENDROOT
BRANCH   3  12
ATOM     12  C5  W9Z d   1      19.261  86.365   6.532  0.00  0.00     0.029 C 
ATOM     13  H3  W9Z d   1      18.575  86.658   5.723  0.00  0.00     0.059 H 
BRANCH  12  14
ATOM     14  C4  W9Z d   1      20.744  86.182   6.014  0.00  0.00    -0.046 A 
ATOM     15  C3  W9Z d   1      21.839  86.192   6.963  0.00  0.00    -0.074 A 
ATOM     16  C2  W9Z d   1      23.198  86.062   6.560  0.00  0.00    -0.054 A 
ATOM     17  H2  W9Z d   1      21.615  86.302   8.018  0.00  0.00     0.084 H 
ATOM     18  C1  W9Z d   1      23.542  85.915   5.194  0.00  0.00     0.066 A 
ATOM     19  H1  W9Z d   1      23.981  86.076   7.309  0.00  0.00     0.087 H 
ATOM     20  N1  W9Z d   1      24.868  85.807   4.870  0.00  0.00    -0.260 NA
ATOM     21  C17 W9Z d   1      22.470  85.889   4.207  0.00  0.00    -0.007 A 
ATOM     22  C20 W9Z d   1      25.206  85.665   3.551  0.00  0.00     0.003 A 
ATOM     23  C19 W9Z d   1      24.238  85.621   2.499  0.00  0.00    -0.065 A 
ATOM     24  H17 W9Z d   1      26.255  85.582   3.292  0.00  0.00     0.114 H 
ATOM     25  C18 W9Z d   1      22.850  85.736   2.836  0.00  0.00    -0.069 A 
ATOM     26  H16 W9Z d   1      24.548  85.503   1.467  0.00  0.00     0.085 H 
ATOM     27  H15 W9Z d   1      22.095  85.707   2.059  0.00  0.00     0.085 H 
ATOM     28  C16 W9Z d   1      21.078  86.024   4.622  0.00  0.00    -0.064 A 
ATOM     29  H14 W9Z d   1      20.290  86.005   3.878  0.00  0.00     0.085 H 
ENDBRANCH  12  14
BRANCH  12  30
ATOM     30  C15 W9Z d   1      19.352  87.469   7.610  0.00  0.00    -0.062 C 
ATOM     31  H11 W9Z d   1      19.658  88.415   7.141  0.00  0.00     0.028 H 
ATOM     32  H12 W9Z d   1      20.093  87.180   8.369  0.00  0.00     0.028 H 
ATOM     33  H13 W9Z d   1      18.369  87.597   8.087  0.00  0.00     0.028 H 
ENDBRANCH  12  30
ENDBRANCH   3  12
BRANCH   5  34
ATOM     34  C8  W9Z d   1      18.228  81.983   3.371  0.00  0.00     0.031 A 
ATOM     35  C9  W9Z d   1      18.521  82.911   2.277  0.00  0.00     0.035 A 
ATOM     36  N4  W9Z d   1      18.378  82.290   1.157  0.00  0.00    -0.185 NA
ATOM     37  H4  W9Z d   1      18.812  83.954   2.391  0.00  0.00     0.118 H 
ATOM     38  N5  W9Z d   1      18.027  81.063   1.395  0.00  0.00    -0.285 N 
ATOM     39  C10 W9Z d   1      17.911  80.782   2.754  0.00  0.00     0.011 A 
ATOM     40  H5  W9Z d   1      17.636  79.839   3.223  0.00  0.00     0.115 H 
BRANCH  38  41
ATOM     41  C11 W9Z d   1      17.777  80.070   0.351  0.00  0.00     0.002 C 
ATOM     42  H6  W9Z d   1      17.496  79.113   0.815  0.00  0.00     0.059 H 
ATOM     43  H7  W9Z d   1      18.688  79.932  -0.250  0.00  0.00     0.059 H 
ATOM     44  H8  W9Z d   1      16.959  80.418  -0.297  0.00  0.00     0.059 H 
ENDBRANCH  38  41
ENDBRANCH   5  34
TORSDOF 5
