REMARK  7 active torsions:
REMARK  status: ('A' for Active; 'I' for Inactive)
REMARK    1  A    between atoms: C1_1  and  C2_2 
REMARK    2  A    between atoms: C2_2  and  C3_3 
REMARK    3  A    between atoms: C2_2  and  N4_4 
REMARK    4  A    between atoms: N4_4  and  C5_5 
REMARK    5  A    between atoms: C11_11  and  C12_12 
REMARK    6  A    between atoms: C12_12  and  C13_13 
REMARK    7  A    between atoms: C12_12  and  C14_14 
ROOT
ATOM      1  C5  5TF d   1      18.613  82.417   4.934  0.00  0.00     0.144 A 
ATOM      2  C6  5TF d   1      17.975  81.338   5.790  0.00  0.00    -0.034 A 
ATOM      3  C7  5TF d   1      17.723  81.603   7.094  0.00  0.00    -0.031 A 
ATOM      4  C8  5TF d   1      18.059  82.875   7.630  0.00  0.00     0.174 A 
ATOM      5  N9  5TF d   1      17.940  83.413   8.821  0.00  0.00    -0.128 NA
ATOM      6  N10 5TF d   1      18.445  84.696   8.751  0.00  0.00    -0.132 NA
ATOM      7  C11 5TF d   1      18.862  84.914   7.515  0.00  0.00     0.160 A 
ATOM      8  N23 5TF d   1      18.636  83.785   6.764  0.00  0.00    -0.195 N 
ATOM      9  N24 5TF d   1      18.926  83.605   5.440  0.00  0.00    -0.146 NA
ATOM     10  H9  5TF d   1      17.724  80.368   5.363  0.00  0.00     0.089 H 
ATOM     11  H10 5TF d   1      17.265  80.845   7.728  0.00  0.00     0.089 H 
ENDROOT
BRANCH   7  12
ATOM     12  C12 5TF d   1      19.483  86.162   6.960  0.00  0.00     0.032 C 
ATOM     13  H11 5TF d   1      19.255  86.207   5.885  0.00  0.00     0.059 H 
BRANCH  12  14
ATOM     14  C13 5TF d   1      18.894  87.415   7.614  0.00  0.00    -0.062 C 
ATOM     15  H12 5TF d   1      17.802  87.420   7.480  0.00  0.00     0.028 H 
ATOM     16  H13 5TF d   1      19.325  88.311   7.144  0.00  0.00     0.028 H 
ATOM     17  H14 5TF d   1      19.132  87.414   8.688  0.00  0.00     0.028 H 
ENDBRANCH  12  14
BRANCH  12  18
ATOM     18  C14 5TF d   1      20.993  86.106   7.116  0.00  0.00    -0.018 A 
ATOM     19  C15 5TF d   1      21.746  86.220   8.287  0.00  0.00    -0.013 A 
ATOM     20  N16 5TF d   1      23.078  86.112   7.981  0.00  0.00    -0.350 N 
ATOM     21  H15 5TF d   1      21.339  86.371   9.286  0.00  0.00     0.112 H 
ATOM     22  C17 5TF d   1      23.217  85.928   6.637  0.00  0.00     0.138 A 
ATOM     23  H16 5TF d   1      23.852  86.162   8.659  0.00  0.00     0.166 HD
ATOM     24  N18 5TF d   1      24.407  85.781   5.982  0.00  0.00    -0.242 NA
ATOM     25  C22 5TF d   1      21.933  85.919   6.061  0.00  0.00     0.018 A 
ATOM     26  C19 5TF d   1      24.287  85.609   4.619  0.00  0.00     0.004 A 
ATOM     27  C20 5TF d   1      23.070  85.579   3.908  0.00  0.00    -0.065 A 
ATOM     28  H17 5TF d   1      25.201  85.487   4.049  0.00  0.00     0.114 H 
ATOM     29  C21 5TF d   1      21.865  85.738   4.643  0.00  0.00    -0.067 A 
ATOM     30  H18 5TF d   1      23.054  85.439   2.833  0.00  0.00     0.085 H 
ATOM     31  H19 5TF d   1      20.907  85.722   4.137  0.00  0.00     0.085 H 
ENDBRANCH  12  18
ENDBRANCH   7  12
BRANCH   1  32
ATOM     32  N4  5TF d   1      18.856  82.112   3.607  0.00  0.00    -0.370 N 
ATOM     33  H8  5TF d   1      18.457  81.238   3.235  0.00  0.00     0.161 HD
BRANCH  32  34
ATOM     34  C2  5TF d   1      19.640  82.945   2.697  0.00  0.00     0.004 C 
ATOM     35  H4  5TF d   1      20.441  83.445   3.261  0.00  0.00     0.071 H 
BRANCH  34  36
ATOM     36  C1  5TF d   1      20.266  82.066   1.617  0.00  0.00    -0.058 C 
ATOM     37  H1  5TF d   1      20.856  82.692   0.931  0.00  0.00     0.030 H 
ATOM     38  H2  5TF d   1      19.471  81.555   1.054  0.00  0.00     0.030 H 
ATOM     39  H3  5TF d   1      20.922  81.318   2.087  0.00  0.00     0.030 H 
ENDBRANCH  34  36
BRANCH  34  40
ATOM     40  C3  5TF d   1      18.739  83.999   2.073  0.00  0.00    -0.058 C 
ATOM     41  H5  5TF d   1      18.298  84.621   2.866  0.00  0.00     0.030 H 
ATOM     42  H6  5TF d   1      17.936  83.506   1.505  0.00  0.00     0.030 H 
ATOM     43  H7  5TF d   1      19.331  84.633   1.396  0.00  0.00     0.030 H 
ENDBRANCH  34  40
ENDBRANCH  32  34
ENDBRANCH   1  32
TORSDOF 7
