REMARK  10 active torsions:
REMARK  status: ('A' for Active; 'I' for Inactive)
REMARK    1  A    between atoms: N1_1  and  C4_4 
REMARK    2  A    between atoms: C7_7  and  N1_1 
REMARK    3  A    between atoms: N1_1  and  C10_10 
REMARK    4  A    between atoms: C2_2  and  O3_3 
REMARK    5  A    between atoms: C8_8  and  C2_2 
REMARK    6  A    between atoms: O3_3  and  C9_9 
REMARK       I    between atoms: C9_9  and  N5_5 
REMARK    7  A    between atoms: N5_5  and  C12_12 
REMARK    8  A    between atoms: N5_5  and  C13_13 
REMARK    9  A    between atoms: C7_7  and  C8_8 
REMARK   10  A    between atoms: C7_7  and  C11_11 
ROOT
ATOM      1  C8  XRX d   1     -99.106  38.613  26.402  0.00  0.00    -0.018 C 
ATOM      2  H8  XRX d   1     -99.618  39.165  27.204  0.00  0.00     0.039 H 
ATOM      3  H9  XRX d   1     -98.094  39.021  26.264  0.00  0.00     0.039 H 
ENDROOT
BRANCH   1   4
ATOM      4  C2  XRX d   1     -99.894  38.843  25.089  0.00  0.00     0.032 C 
ATOM      5  H2  XRX d   1     -99.701  39.854  24.702  0.00  0.00     0.075 H 
ATOM      6  H3  XRX d   1     -99.599  38.099  24.334  0.00  0.00     0.075 H 
BRANCH   4   7
ATOM      7  O3  XRX d   1    -101.280  38.695  25.414  0.00  0.00    -0.304 OA
BRANCH   7   8
ATOM      8  C9  XRX d   1    -102.225  39.211  24.586  0.00  0.00     0.362 C 
ATOM      9  N5  XRX d   1    -103.483  39.163  25.179  0.00  0.00    -0.337 N 
ATOM     10  O6  XRX d   1    -102.004  39.625  23.456  0.00  0.00    -0.238 OA
BRANCH   9  11
ATOM     11  C12 XRX d   1    -104.651  39.498  24.336  0.00  0.00    -0.015 C 
ATOM     12  H16 XRX d   1    -105.570  39.418  24.935  0.00  0.00     0.056 H 
ATOM     13  H17 XRX d   1    -104.704  38.799  23.488  0.00  0.00     0.056 H 
ATOM     14  H18 XRX d   1    -104.548  40.526  23.958  0.00  0.00     0.056 H 
ENDBRANCH   9  11
BRANCH   9  15
ATOM     15  C13 XRX d   1    -103.719  38.462  26.448  0.00  0.00    -0.015 C 
ATOM     16  H19 XRX d   1    -102.758  38.286  26.954  0.00  0.00     0.056 H 
ATOM     17  H20 XRX d   1    -104.210  37.498  26.249  0.00  0.00     0.056 H 
ATOM     18  H21 XRX d   1    -104.366  39.077  27.092  0.00  0.00     0.056 H 
ENDBRANCH   9  15
ENDBRANCH   7   8
ENDBRANCH   4   7
ENDBRANCH   1   4
BRANCH   1  19
ATOM     19  C7  XRX d   1     -98.966  37.136  26.856  0.00  0.00     0.101 C 
ATOM     20  H7  XRX d   1     -98.510  36.566  26.033  0.00  0.00     0.084 H 
BRANCH  19  21
ATOM     21  N1  XRX d   1    -100.241  36.487  27.247  0.00  0.00    -0.075 N 
ATOM     22  H1  XRX d   1    -100.894  36.579  26.484  0.00  0.00     0.279 HD
BRANCH  21  23
ATOM     23  C4  XRX d   1    -100.845  37.122  28.459  0.00  0.00     0.066 C 
ATOM     24  H4  XRX d   1    -101.785  36.610  28.711  0.00  0.00     0.068 H 
ATOM     25  H5  XRX d   1    -101.049  38.183  28.254  0.00  0.00     0.068 H 
ATOM     26  H6  XRX d   1    -100.145  37.040  29.303  0.00  0.00     0.068 H 
ENDBRANCH  21  23
BRANCH  21  27
ATOM     27  C10 XRX d   1     -99.991  35.035  27.496  0.00  0.00     0.066 C 
ATOM     28  H10 XRX d   1    -100.932  34.545  27.787  0.00  0.00     0.068 H 
ATOM     29  H11 XRX d   1     -99.254  34.923  28.305  0.00  0.00     0.068 H 
ATOM     30  H12 XRX d   1     -99.603  34.567  26.579  0.00  0.00     0.068 H 
ENDBRANCH  21  27
ENDBRANCH  19  21
BRANCH  19  31
ATOM     31  C11 XRX d   1     -98.081  37.058  28.100  0.00  0.00    -0.049 C 
ATOM     32  H13 XRX d   1     -97.107  37.524  27.887  0.00  0.00     0.030 H 
ATOM     33  H14 XRX d   1     -97.930  36.004  28.378  0.00  0.00     0.030 H 
ATOM     34  H15 XRX d   1     -98.568  37.590  28.930  0.00  0.00     0.030 H 
ENDBRANCH  19  31
ENDBRANCH   1  19
TORSDOF 10
