REMARK  12 active torsions:
REMARK  status: ('A' for Active; 'I' for Inactive)
REMARK    1  A    between atoms: C1_1  and  O1_8 
REMARK    2  A    between atoms: C2_2  and  O2_9 
REMARK    3  A    between atoms: C3_3  and  O3_10 
REMARK    4  A    between atoms: C4_4  and  O4_11 
REMARK    5  A    between atoms: C5_5  and  C6_6 
REMARK    6  A    between atoms: C6_6  and  N_13 
REMARK    7  A    between atoms: O1_8  and  C7_7 
REMARK    8  A    between atoms: N_13  and  S_14 
REMARK    9  A    between atoms: S_14  and  C1_17 
REMARK   10  A    between atoms: C2_18  and  C7_23 
REMARK   11  A    between atoms: C4_20  and  C8_25 
REMARK   12  A    between atoms: C6_22  and  C9_24 
ROOT
ATOM      1  C6  MMA d   1      -8.757  16.829  23.572  0.00  0.00     0.029 C 
ATOM      2  H6  MMA d   1      -8.997  17.234  24.566  0.00  0.00     0.069 H 
ATOM      3  H7  MMA d   1      -8.567  15.748  23.652  0.00  0.00     0.069 H 
ENDROOT
BRANCH   1   4
ATOM      4  C5  MMA d   1      -7.509  17.513  23.048  0.00  0.00     0.084 C 
ATOM      5  C4  MMA d   1      -6.747  16.706  21.971  0.00  0.00     0.089 C 
ATOM      6  C3  MMA d   1      -5.557  17.510  21.550  0.00  0.00     0.092 C 
ATOM      7  H4  MMA d   1      -6.400  15.765  22.423  0.00  0.00     0.091 H 
ATOM      8  C2  MMA d   1      -4.673  17.818  22.741  0.00  0.00     0.110 C 
ATOM      9  H3  MMA d   1      -5.912  18.457  21.117  0.00  0.00     0.091 H 
ATOM     10  C1  MMA d   1      -5.450  18.413  23.876  0.00  0.00     0.158 C 
ATOM     11  H2  MMA d   1      -3.886  18.524  22.438  0.00  0.00     0.094 H 
ATOM     12  O5  MMA d   1      -6.614  17.643  24.167  0.00  0.00    -0.349 OA
ATOM     13  H1  MMA d   1      -4.821  18.456  24.778  0.00  0.00     0.133 H 
ATOM     14  H5  MMA d   1      -7.777  18.500  22.642  0.00  0.00     0.090 H 
BRANCH   5  15
ATOM     15  O4  MMA d   1      -7.556  16.378  20.840  0.00  0.00    -0.390 OA
ATOM     16  H13 MMA d   1      -8.296  15.854  21.123  0.00  0.00     0.210 HD
ENDBRANCH   5  15
BRANCH   6  17
ATOM     17  O3  MMA d   1      -4.787  16.808  20.560  0.00  0.00    -0.390 OA
ATOM     18  H12 MMA d   1      -4.039  17.337  20.309  0.00  0.00     0.210 HD
ENDBRANCH   6  17
BRANCH   8  19
ATOM     19  O2  MMA d   1      -4.081  16.580  23.167  0.00  0.00    -0.388 OA
ATOM     20  H11 MMA d   1      -3.518  16.740  23.916  0.00  0.00     0.210 HD
ENDBRANCH   8  19
BRANCH  10  21
ATOM     21  O1  MMA d   1      -5.784  19.721  23.461  0.00  0.00    -0.363 OA
BRANCH  21  22
ATOM     22  C7  MMA d   1      -6.458  20.493  24.484  0.00  0.00     0.007 C 
ATOM     23  H8  MMA d   1      -6.688  21.496  24.095  0.00  0.00     0.066 H 
ATOM     24  H9  MMA d   1      -5.806  20.582  25.365  0.00  0.00     0.066 H 
ATOM     25  H10 MMA d   1      -7.393  19.988  24.769  0.00  0.00     0.066 H 
ENDBRANCH  21  22
ENDBRANCH  10  21
ENDBRANCH   1   4
BRANCH   1  26
ATOM     26  N   F1A d   1      -9.890  17.047  22.685  0.00  0.00    -0.313 N 
ATOM     27  H14 MMA d   1      -9.969  16.556  21.817  0.00  0.00     0.172 HD
BRANCH  26  28
ATOM     28  S   F1A d   1     -11.032  18.124  23.155  0.00  0.00     0.259 S 
ATOM     29  O1  F1A d   1     -12.147  17.985  22.255  0.00  0.00    -0.201 OA
ATOM     30  O2  F1A d   1     -10.360  19.380  23.244  0.00  0.00    -0.201 OA
BRANCH  28  31
ATOM     31  C1  F1A d   1     -11.489  17.632  24.708  0.00  0.00     0.091 A 
ATOM     32  C2  F1A d   1     -11.145  18.361  25.946  0.00  0.00    -0.038 A 
ATOM     33  C3  F1A d   1     -11.479  17.830  27.183  0.00  0.00    -0.070 A 
ATOM     34  C4  F1A d   1     -12.184  16.658  27.302  0.00  0.00    -0.061 A 
ATOM     35  H15 MMA d   1     -11.175  18.355  28.081  0.00  0.00     0.085 H 
ATOM     36  C5  F1A d   1     -12.532  15.902  26.196  0.00  0.00    -0.070 A 
ATOM     37  C6  F1A d   1     -12.211  16.368  24.919  0.00  0.00    -0.038 A 
ATOM     38  H16 MMA d   1     -13.049  14.957  26.320  0.00  0.00     0.085 H 
BRANCH  32  39
ATOM     39  C7  F1A d   1     -10.388  19.661  25.956  0.00  0.00    -0.050 C 
ATOM     40  H17 MMA d   1     -10.185  19.975  24.922  0.00  0.00     0.033 H 
ATOM     41  H18 MMA d   1      -9.437  19.527  26.492  0.00  0.00     0.033 H 
ATOM     42  H19 MMA d   1     -10.989  20.431  26.461  0.00  0.00     0.033 H 
ENDBRANCH  32  39
BRANCH  34  43
ATOM     43  C8  F1A d   1     -12.562  16.172  28.672  0.00  0.00    -0.051 C 
ATOM     44  H23 MMA d   1     -12.209  16.891  29.426  0.00  0.00     0.033 H 
ATOM     45  H24 MMA d   1     -12.098  15.192  28.854  0.00  0.00     0.033 H 
ATOM     46  H25 MMA d   1     -13.656  16.078  28.739  0.00  0.00     0.033 H 
ENDBRANCH  34  43
BRANCH  37  47
ATOM     47  C9  F1A d   1     -12.585  15.528  23.734  0.00  0.00    -0.050 C 
ATOM     48  H20 MMA d   1     -12.264  16.033  22.811  0.00  0.00     0.033 H 
ATOM     49  H21 MMA d   1     -13.676  15.386  23.715  0.00  0.00     0.033 H 
ATOM     50  H22 MMA d   1     -12.089  14.549  23.808  0.00  0.00     0.033 H 
ENDBRANCH  37  47
ENDBRANCH  28  31
ENDBRANCH  26  28
ENDBRANCH   1  26
TORSDOF 12
