REMARK  7 active torsions:
REMARK  status: ('A' for Active; 'I' for Inactive)
REMARK    1  A    between atoms: C6_8  and  C4_9 
REMARK    2  A    between atoms: C4_9  and  PA1_10 
REMARK    3  A    between atoms: C4_9  and  C3_14 
REMARK    4  A    between atoms: C3_14  and  C2_15 
REMARK    5  A    between atoms: C2_15  and  N1_16 
REMARK    6  A    between atoms: N1_16  and  O2_17 
REMARK       I    between atoms: N1_16  and  C1_18 
REMARK    7  A    between atoms: C1_18  and  C12_20 
ROOT
ATOM      1  C3  FM6 d   1      22.084  21.355 -15.612  0.00  0.00    -0.029 C 
ATOM      2  H5  FM6 d   1      22.994  21.864 -15.961  0.00  0.00     0.037 H 
ATOM      3  H6  FM6 d   1      22.306  20.798 -14.690  0.00  0.00     0.037 H 
ENDROOT
BRANCH   1   4
ATOM      4  C4  FM6 d   1      21.612  20.367 -16.696  0.00  0.00     0.082 C 
ATOM      5  H4  FM6 d   1      20.678  19.908 -16.339  0.00  0.00     0.069 H 
BRANCH   4   6
ATOM      6  C6  FM6 d   1      21.279  21.172 -17.954  0.00  0.00    -0.039 A 
ATOM      7  C7  FM6 d   1      22.221  22.020 -18.535  0.00  0.00    -0.053 A 
ATOM      8  C8  FM6 d   1      21.868  22.769 -19.657  0.00  0.00     0.056 A 
ATOM      9  H1  FM6 d   1      23.219  22.096 -18.118  0.00  0.00     0.087 H 
ATOM     10 CL1  FM6 d   1      23.087  23.795 -20.341  0.00  0.00    -0.083 Cl
ATOM     11  C9  FM6 d   1      20.562  22.669 -20.181  0.00  0.00     0.055 A 
ATOM     12 CL2  FM6 d   1      20.037  23.566 -21.566  0.00  0.00    -0.083 Cl
ATOM     13  C10 FM6 d   1      19.624  21.824 -19.587  0.00  0.00    -0.060 A 
ATOM     14  C11 FM6 d   1      19.982  21.082 -18.466  0.00  0.00    -0.074 A 
ATOM     15  H2  FM6 d   1      18.623  21.746 -19.996  0.00  0.00     0.086 H 
ATOM     16  H3  FM6 d   1      19.255  20.434 -17.990  0.00  0.00     0.084 H 
ENDBRANCH   4   6
BRANCH   4  17
ATOM     17  PA1 FM6 d   1      22.777  18.989 -17.008  0.00  0.00     0.268 P 
ATOM     18  OP1 FM6 d   1      23.002  18.250 -15.705  0.00  0.00    -0.639 OA
ATOM     19  OP3 FM6 d   1      22.150  18.065 -18.026  0.00  0.00    -0.639 OA
ATOM     20  OP2 FM6 d   1      24.103  19.495 -17.515  0.00  0.00    -0.639 OA
ENDBRANCH   4  17
ENDBRANCH   1   4
BRANCH   1  21
ATOM     21  C2  FM6 d   1      20.985  22.424 -15.311  0.00  0.00     0.025 C 
ATOM     22  H7  FM6 d   1      20.847  23.075 -16.187  0.00  0.00     0.068 H 
ATOM     23  H8  FM6 d   1      21.283  23.033 -14.444  0.00  0.00     0.068 H 
BRANCH  21  24
ATOM     24  N1  FM6 d   1      19.723  21.708 -15.013  0.00  0.00    -0.225 N 
ATOM     25  C1  FM6 d   1      18.479  21.994 -15.453  0.00  0.00     0.277 C 
ATOM     26  O1  FM6 d   1      17.505  21.313 -15.147  0.00  0.00    -0.265 OA
BRANCH  24  27
ATOM     27  O2  FM6 d   1      19.869  20.627 -14.220  0.00  0.00    -0.285 OA
ATOM     28  H9  FM6 d   1      19.021  20.225 -14.076  0.00  0.00     0.245 HD
ENDBRANCH  24  27
BRANCH  25  29
ATOM     29  C12 FM6 d   1      18.219  23.231 -16.327  0.00  0.00     0.034 A 
ATOM     30  C17 FM6 d   1      18.672  24.493 -15.915  0.00  0.00    -0.068 A 
ATOM     31  C16 FM6 d   1      18.412  25.621 -16.697  0.00  0.00    -0.082 A 
ATOM     32  H10 FM6 d   1      19.225  24.593 -14.988  0.00  0.00     0.085 H 
ATOM     33  C15 FM6 d   1      17.665  25.488 -17.871  0.00  0.00    -0.083 A 
ATOM     34  H11 FM6 d   1      18.787  26.592 -16.396  0.00  0.00     0.083 H 
ATOM     35  C14 FM6 d   1      17.191  24.237 -18.268  0.00  0.00    -0.082 A 
ATOM     36  H12 FM6 d   1      17.453  26.362 -18.477  0.00  0.00     0.083 H 
ATOM     37  C13 FM6 d   1      17.454  23.109 -17.490  0.00  0.00    -0.068 A 
ATOM     38  H13 FM6 d   1      16.617  24.141 -19.183  0.00  0.00     0.083 H 
ATOM     39  H14 FM6 d   1      17.066  22.141 -17.787  0.00  0.00     0.085 H 
ENDBRANCH  25  29
ENDBRANCH  21  24
ENDBRANCH   1  21
TORSDOF 7
