REMARK  9 active torsions:
REMARK  status: ('A' for Active; 'I' for Inactive)
REMARK       I    between atoms: C1_1  and  N1_2 
REMARK    1  A    between atoms: C12_19  and  C1_1 
REMARK    2  A    between atoms: N1_2  and  C2_5 
REMARK    3  A    between atoms: N1_2  and  O2_7 
REMARK    4  A    between atoms: C2_5  and  C3_9 
REMARK    5  A    between atoms: C18_25  and  N2_6 
REMARK    6  A    between atoms: C3_9  and  C4_11 
REMARK    7  A    between atoms: C4_11  and  C6_13 
REMARK    8  A    between atoms: C4_11  and  PA1_28 
REMARK    9  A    between atoms: C13_20  and  C18_25 
ROOT
ATOM      1  C1  FM8 d   1      39.297  21.994  23.713  0.00  0.00     0.277 C 
ATOM      2  N1  FM8 d   1      39.943  21.576  24.815  0.00  0.00    -0.225 N 
ATOM      3  O1  FM8 d   1      38.095  21.794  23.536  0.00  0.00    -0.265 OA
ENDROOT
BRANCH   2   4
ATOM      4  C2  FM8 d   1      41.377  21.807  25.093  0.00  0.00     0.025 C 
ATOM      5  H1  FM8 d   1      41.459  22.487  25.954  0.00  0.00     0.068 H 
ATOM      6  H2  FM8 d   1      41.831  22.279  24.209  0.00  0.00     0.068 H 
BRANCH   4   7
ATOM      7  C3  FM8 d   1      42.165  20.514  25.415  0.00  0.00    -0.029 C 
ATOM      8  H4  FM8 d   1      41.459  19.731  25.731  0.00  0.00     0.037 H 
ATOM      9  H5  FM8 d   1      42.875  20.718  26.230  0.00  0.00     0.037 H 
BRANCH   7  10
ATOM     10  C4  FM8 d   1      42.944  20.023  24.178  0.00  0.00     0.082 C 
ATOM     11  H6  FM8 d   1      42.176  19.687  23.465  0.00  0.00     0.069 H 
BRANCH  10  12
ATOM     12  C6  FM8 d   1      43.727  21.138  23.456  0.00  0.00    -0.039 A 
ATOM     13  C7  FM8 d   1      44.362  22.164  24.155  0.00  0.00    -0.053 A 
ATOM     14  C8  FM8 d   1      45.030  23.159  23.453  0.00  0.00     0.056 A 
ATOM     15  H7  FM8 d   1      44.334  22.185  25.238  0.00  0.00     0.087 H 
ATOM     16 CL1  FM8 d   1      45.809  24.422  24.337  0.00  0.00    -0.083 Cl
ATOM     17  C9  FM8 d   1      45.071  23.131  22.058  0.00  0.00     0.055 A 
ATOM     18 CL2  FM8 d   1      45.907  24.371  21.193  0.00  0.00    -0.083 Cl
ATOM     19  C10 FM8 d   1      44.442  22.106  21.351  0.00  0.00    -0.060 A 
ATOM     20  C11 FM8 d   1      43.767  21.115  22.064  0.00  0.00    -0.074 A 
ATOM     21  H8  FM8 d   1      44.477  22.080  20.268  0.00  0.00     0.086 H 
ATOM     22  H9  FM8 d   1      43.267  20.317  21.528  0.00  0.00     0.084 H 
ENDBRANCH  10  12
BRANCH  10  23
ATOM     23  PA1 FM8 d   1      44.008  18.548  24.501  0.00  0.00     0.268 P 
ATOM     24  OP1 FM8 d   1      43.773  17.921  25.956  0.00  0.00    -0.639 OA
ATOM     25  OP2 FM8 d   1      43.251  17.539  23.504  0.00  0.00    -0.639 OA
ATOM     26  OP3 FM8 d   1      45.438  18.650  24.107  0.00  0.00    -0.639 OA
ENDBRANCH  10  23
ENDBRANCH   7  10
ENDBRANCH   4   7
ENDBRANCH   2   4
BRANCH   2  27
ATOM     27  O2  FM8 d   1      39.202  20.937  25.763  0.00  0.00    -0.285 OA
ATOM     28  H3  FM8 d   1      38.306  20.854  25.460  0.00  0.00     0.245 HD
ENDBRANCH   2  27
BRANCH   1  29
ATOM     29  C12 FM8 d   1      40.083  22.742  22.615  0.00  0.00     0.042 A 
ATOM     30  C13 FM8 d   1      40.243  24.138  22.652  0.00  0.00    -0.022 A 
ATOM     31  C14 FM8 d   1      40.950  24.762  21.617  0.00  0.00    -0.074 A 
ATOM     32  C15 FM8 d   1      41.479  24.025  20.553  0.00  0.00    -0.082 A 
ATOM     33  H10 FM8 d   1      41.090  25.837  21.641  0.00  0.00     0.084 H 
ATOM     34  C16 FM8 d   1      41.298  22.651  20.517  0.00  0.00    -0.082 A 
ATOM     35  H11 FM8 d   1      42.027  24.524  19.762  0.00  0.00     0.083 H 
ATOM     36  C17 FM8 d   1      40.598  22.011  21.542  0.00  0.00    -0.067 A 
ATOM     37  H12 FM8 d   1      41.700  22.073  19.693  0.00  0.00     0.083 H 
ATOM     38  H13 FM8 d   1      40.453  20.937  21.505  0.00  0.00     0.085 H 
BRANCH  30  39
ATOM     39  C18 FM8 d   1      39.715  25.054  23.765  0.00  0.00     0.043 C 
ATOM     40  H14 FM8 d   1      39.490  26.047  23.348  0.00  0.00     0.074 H 
ATOM     41  H15 FM8 d   1      38.800  24.621  24.194  0.00  0.00     0.074 H 
BRANCH  39  42
ATOM     42  N2  FM8 d   1      40.740  25.181  24.816  0.00  0.00    -0.258 N 
ATOM     43  N3  FM8 d   1      41.886  25.597  24.630  0.00  0.00    -0.164 NA
ATOM     44  C19 FM8 d   1      42.529  25.569  25.797  0.00  0.00     0.107 A 
ATOM     45  N4  FM8 d   1      41.689  25.101  26.719  0.00  0.00    -0.234 NA
ATOM     46  H16 FM8 d   1      43.560  25.875  25.967  0.00  0.00     0.149 H 
ATOM     47  C20 FM8 d   1      40.542  24.857  26.091  0.00  0.00     0.084 A 
ATOM     48  H17 FM8 d   1      39.625  24.470  26.532  0.00  0.00     0.146 H 
ENDBRANCH  39  42
ENDBRANCH  30  39
ENDBRANCH   1  29
TORSDOF 9
