REMARK  8 active torsions:
REMARK  status: ('A' for Active; 'I' for Inactive)
REMARK    1  A    between atoms: C7B_18  and  C1_1 
REMARK    2  A    between atoms: C2B_7  and  O2B_12 
REMARK    3  A    between atoms: C3B_8  and  O3B_13 
REMARK    4  A    between atoms: C4B_9  and  O4B_14 
REMARK    5  A    between atoms: C5B_10  and  C6B_11 
REMARK    6  A    between atoms: C6B_11  and  O6B_15 
REMARK    7  A    between atoms: N2B_17  and  CAR_16 
REMARK    8  A    between atoms: N2B_17  and  C7B_18 
ROOT
ATOM      1  N2B VM2 d   1      18.590  19.092  35.765  0.00  0.00    -0.068 N 
ATOM      2  H   VM2 d   1      19.118  18.438  36.322  0.00  0.00     0.277 HD
ATOM      3  H   VM2 d   1      17.608  18.988  35.966  0.00  0.00     0.277 HD
ENDROOT
BRANCH   1   4
ATOM      4  CAR VM2 d   1      18.776  18.684  34.347  0.00  0.00     0.136 C 
ATOM      5  C2B VM2 d   1      18.208  17.285  34.069  0.00  0.00     0.090 C 
ATOM      6  C3B VM2 d   1      17.343  17.428  32.808  0.00  0.00     0.087 C 
ATOM      7  H   VM2 d   1      17.587  16.964  34.918  0.00  0.00     0.090 H 
ATOM      8  C4B VM2 d   1      16.810  18.838  32.935  0.00  0.00     0.070 C 
ATOM      9  H   VM2 d   1      17.973  17.335  31.911  0.00  0.00     0.091 H 
ATOM     10  C5B VM2 d   1      18.109  19.583  33.270  0.00  0.00     0.024 C 
ATOM     11  H   VM2 d   1      16.120  18.896  33.789  0.00  0.00     0.087 H 
ATOM     12  H   VM2 d   1      18.756  19.570  32.380  0.00  0.00     0.050 H 
ATOM     13  H   VM2 d   1      19.860  18.675  34.162  0.00  0.00     0.089 H 
BRANCH   5  14
ATOM     14  O2B VM2 d   1      19.228  16.315  33.855  0.00  0.00    -0.391 OA
ATOM     15  H   VM2 d   1      19.777  16.589  33.129  0.00  0.00     0.210 HD
ENDBRANCH   5  14
BRANCH   6  16
ATOM     16  O3B VM2 d   1      16.280  16.470  32.705  0.00  0.00    -0.390 OA
ATOM     17  H   VM2 d   1      15.754  16.663  31.938  0.00  0.00     0.210 HD
ENDBRANCH   6  16
BRANCH   8  18
ATOM     18  O4B VM2 d   1      16.093  19.333  31.792  0.00  0.00    -0.392 OA
ATOM     19  H   VM2 d   1      15.853  20.240  31.939  0.00  0.00     0.210 HD
ENDBRANCH   8  18
BRANCH  10  20
ATOM     20  C6B VM2 d   1      17.898  21.084  33.612  0.00  0.00     0.024 C 
ATOM     21  H   VM2 d   1      17.640  21.634  32.695  0.00  0.00     0.074 H 
ATOM     22  H   VM2 d   1      18.826  21.495  34.037  0.00  0.00     0.074 H 
BRANCH  20  23
ATOM     23  O6B VM2 d   1      16.823  21.226  34.576  0.00  0.00    -0.400 OA
ATOM     24  H   VM2 d   1      16.021  20.872  34.209  0.00  0.00     0.209 HD
ENDBRANCH  20  23
ENDBRANCH  10  20
ENDBRANCH   1   4
BRANCH   1  25
ATOM     25  C7B VM2 d   1      18.973  20.446  36.231  0.00  0.00     0.086 C 
ATOM     26  H   VM2 d   1      19.862  20.748  35.658  0.00  0.00     0.076 H 
ATOM     27  H   VM2 d   1      18.137  21.120  35.993  0.00  0.00     0.076 H 
BRANCH  25  28
ATOM     28  C1  VM2 d   1      19.304  20.639  37.720  0.00  0.00    -0.031 C 
ATOM     29  C2  VM2 d   1      18.255  19.937  38.614  0.00  0.00    -0.060 C 
ATOM     30  C3  VM2 d   1      17.855  20.575  39.952  0.00  0.00    -0.065 C 
ATOM     31  H   VM2 d   1      18.648  18.935  38.842  0.00  0.00     0.033 H 
ATOM     32  H   VM2 d   1      17.336  19.844  38.017  0.00  0.00     0.033 H 
ATOM     33  C4  VM2 d   1      18.631  21.848  40.354  0.00  0.00    -0.065 C 
ATOM     34  H   VM2 d   1      18.008  19.825  40.742  0.00  0.00     0.033 H 
ATOM     35  H   VM2 d   1      16.788  20.835  39.895  0.00  0.00     0.033 H 
ATOM     36  C5  VM2 d   1      18.640  22.764  39.140  0.00  0.00    -0.065 C 
ATOM     37  H   VM2 d   1      19.661  21.588  40.639  0.00  0.00     0.033 H 
ATOM     38  H   VM2 d   1      18.131  22.345  41.199  0.00  0.00     0.033 H 
ATOM     39  C6  VM2 d   1      19.489  22.156  37.995  0.00  0.00    -0.060 C 
ATOM     40  H   VM2 d   1      19.066  23.737  39.426  0.00  0.00     0.033 H 
ATOM     41  H   VM2 d   1      17.608  22.905  38.787  0.00  0.00     0.033 H 
ATOM     42  H   VM2 d   1      19.237  22.696  37.070  0.00  0.00     0.033 H 
ATOM     43  H   VM2 d   1      20.548  22.324  38.240  0.00  0.00     0.033 H 
ATOM     44  H   VM2 d   1      20.270  20.151  37.920  0.00  0.00     0.042 H 
ENDBRANCH  25  28
ENDBRANCH   1  25
TORSDOF 8
