REMARK  13 active torsions:
REMARK  status: ('A' for Active; 'I' for Inactive)
REMARK    1  A    between atoms: C8_8  and  N10_10 
REMARK    2  A    between atoms: N10_10  and  N11_11 
REMARK    3  A    between atoms: C12_12  and  C13_13 
REMARK    4  A    between atoms: C12_12  and  C14_14 
REMARK    5  A    between atoms: C17_17  and  C19_19 
REMARK    6  A    between atoms: C23_23  and  S25_25 
REMARK    7  A    between atoms: S25_25  and  N26_28 
REMARK       I    between atoms: N26_28  and  C27_29 
REMARK    8  A    between atoms: C27_29  and  C28_31 
REMARK    9  A    between atoms: C28_31  and  C29_32 
REMARK   10  A    between atoms: C29_32  and  C30_33 
REMARK   11  A    between atoms: C30_33  and  C31_34 
REMARK   12  A    between atoms: C31_34  and  C32_35 
REMARK   13  A    between atoms: C32_35  and  C33_36 
ROOT
ATOM      1  C19 H1I d   1      22.278  47.681   1.235  0.00  0.00    -0.001 A 
ATOM      2  C20 H1I d   1      22.840  46.965   0.193  0.00  0.00    -0.070 A 
ATOM      3  C21 H1I d   1      22.033  46.113  -0.541  0.00  0.00    -0.081 A 
ATOM      4  C22 H1I d   1      20.679  45.972  -0.258  0.00  0.00    -0.060 A 
ATOM      5  C23 H1I d   1      20.091  46.722   0.764  0.00  0.00     0.080 A 
ATOM      6  C24 H1I d   1      20.913  47.577   1.510  0.00  0.00    -0.048 A 
ATOM      7  H11 H1I d   1      23.893  47.069  -0.044  0.00  0.00     0.084 H 
ATOM      8  H12 H1I d   1      22.466  45.543  -1.355  0.00  0.00     0.083 H 
ATOM      9  H13 H1I d   1      20.077  45.277  -0.833  0.00  0.00     0.085 H 
ATOM     10  H14 H1I d   1      20.483  48.166   2.312  0.00  0.00     0.087 H 
ENDROOT
BRANCH   5  11
ATOM     11  S25 H1I d   1      18.526  46.568   1.111  0.00  0.00     0.265 S 
ATOM     12  O25 H1I d   1      17.909  45.663   0.193  0.00  0.00    -0.200 OA
ATOM     13  O26 H1I d   1      18.396  46.023   2.433  0.00  0.00    -0.200 OA
BRANCH  11  14
ATOM     14  N26 H1I d   1      17.783  47.884   1.007  0.00  0.00    -0.250 N 
ATOM     15  C27 H1I d   1      17.884  48.825   1.939  0.00  0.00     0.231 C 
ATOM     16  O27 H1I d   1      18.584  48.718   2.935  0.00  0.00    -0.273 OA
ATOM     17  H15 H1I d   1      17.199  48.049   0.212  0.00  0.00     0.181 HD
BRANCH  15  18
ATOM     18  C28 H1I d   1      17.088  50.089   1.702  0.00  0.00     0.010 C 
ATOM     19  H16 H1I d   1      17.064  50.306   0.624  0.00  0.00     0.047 H 
ATOM     20  H17 H1I d   1      17.567  50.924   2.233  0.00  0.00     0.047 H 
BRANCH  18  21
ATOM     21  C29 H1I d   1      15.661  49.922   2.212  0.00  0.00    -0.057 C 
ATOM     22  H18 H1I d   1      15.636  49.142   2.987  0.00  0.00     0.033 H 
ATOM     23  H19 H1I d   1      15.004  49.631   1.379  0.00  0.00     0.033 H 
BRANCH  21  24
ATOM     24  C30 H1I d   1      15.182  51.240   2.801  0.00  0.00    -0.064 C 
ATOM     25  H20 H1I d   1      15.165  51.998   2.004  0.00  0.00     0.033 H 
ATOM     26  H21 H1I d   1      15.884  51.551   3.589  0.00  0.00     0.033 H 
BRANCH  24  27
ATOM     27  C31 H1I d   1      13.787  51.132   3.403  0.00  0.00    -0.061 C 
ATOM     28  H22 H1I d   1      13.752  50.267   4.082  0.00  0.00     0.033 H 
ATOM     29  H23 H1I d   1      13.054  50.993   2.595  0.00  0.00     0.033 H 
BRANCH  27  30
ATOM     30  C32 H1I d   1      13.440  52.400   4.185  0.00  0.00    -0.041 C 
ATOM     31  H24 H1I d   1      13.524  53.272   3.520  0.00  0.00     0.040 H 
ATOM     32  H25 H1I d   1      14.140  52.512   5.026  0.00  0.00     0.040 H 
BRANCH  30  33
ATOM     33  C33 H1I d   1      12.025  52.311   4.719  0.00  0.00    -0.058 A 
ATOM     34  C34 H1I d   1      11.049  51.629   4.004  0.00  0.00    -0.077 A 
ATOM     35  C35 H1I d   1       9.746  51.552   4.487  0.00  0.00    -0.082 A 
ATOM     36  H26 H1I d   1      11.304  51.154   3.064  0.00  0.00     0.084 H 
ATOM     37  C36 H1I d   1       9.419  52.158   5.698  0.00  0.00    -0.083 A 
ATOM     38  H27 H1I d   1       8.988  51.022   3.922  0.00  0.00     0.083 H 
ATOM     39  C37 H1I d   1      10.396  52.842   6.413  0.00  0.00    -0.082 A 
ATOM     40  H28 H1I d   1       8.407  52.097   6.081  0.00  0.00     0.083 H 
ATOM     41  C38 H1I d   1      11.694  52.917   5.923  0.00  0.00    -0.077 A 
ATOM     42  H29 H1I d   1      10.145  53.318   7.354  0.00  0.00     0.083 H 
ATOM     43  H30 H1I d   1      12.452  53.452   6.484  0.00  0.00     0.084 H 
ENDBRANCH  30  33
ENDBRANCH  27  30
ENDBRANCH  24  27
ENDBRANCH  21  24
ENDBRANCH  18  21
ENDBRANCH  15  18
ENDBRANCH  11  14
ENDBRANCH   5  11
BRANCH   1  44
ATOM     44  C17 H1I d   1      23.117  48.627   2.009  0.00  0.00     0.086 A 
ATOM     45  C16 H1I d   1      23.024  48.953   3.367  0.00  0.00    -0.047 A 
ATOM     46  C15 H1I d   1      23.995  49.908   3.659  0.00  0.00    -0.045 A 
ATOM     47  H10 H1I d   1      22.313  48.531   4.076  0.00  0.00     0.087 H 
ATOM     48  C14 H1I d   1      24.621  50.111   2.447  0.00  0.00     0.102 A 
ATOM     49  H9  H1I d   1      24.209  50.382   4.616  0.00  0.00     0.088 H 
ATOM     50  O18 H1I d   1      24.118  49.354   1.441  0.00  0.00    -0.308 OA
BRANCH  48  51
ATOM     51  C12 H1I d   1      25.695  50.954   1.934  0.00  0.00     0.084 C 
ATOM     52  N11 H1I d   1      26.324  50.576   0.922  0.00  0.00    -0.175 NA
BRANCH  52  53
ATOM     53  N10 H1I d   1      27.274  51.328   0.426  0.00  0.00    -0.255 N 
ATOM     54  H5  H1I d   1      27.501  52.253   0.818  0.00  0.00     0.191 HD
BRANCH  53  55
ATOM     55  C8  H1I d   1      27.928  50.820  -0.618  0.00  0.00     0.188 A 
ATOM     56  N7  H1I d   1      28.907  51.504  -1.227  0.00  0.00    -0.222 NA
ATOM     57  C5  H1I d   1      29.385  50.759  -2.261  0.00  0.00     0.076 A 
ATOM     58  C4  H1I d   1      28.687  49.560  -2.309  0.00  0.00     0.037 A 
ATOM     59  C6  H1I d   1      30.402  51.001  -3.182  0.00  0.00    -0.054 A 
ATOM     60  C3  H1I d   1      28.995  48.622  -3.286  0.00  0.00    -0.064 A 
ATOM     61  S9  H1I d   1      27.455  49.249  -1.181  0.00  0.00    -0.049 SA
ATOM     62  C2  H1I d   1      30.005  48.868  -4.208  0.00  0.00    -0.082 A 
ATOM     63  H3  H1I d   1      28.443  47.690  -3.330  0.00  0.00     0.085 H 
ATOM     64  C1  H1I d   1      30.720  50.057  -4.150  0.00  0.00    -0.081 A 
ATOM     65  H2  H1I d   1      30.234  48.133  -4.971  0.00  0.00     0.083 H 
ATOM     66  H1  H1I d   1      31.521  50.247  -4.855  0.00  0.00     0.083 H 
ATOM     67  H4  H1I d   1      30.951  51.935  -3.143  0.00  0.00     0.087 H 
ENDBRANCH  53  55
ENDBRANCH  52  53
BRANCH  51  68
ATOM     68  C13 H1I d   1      25.926  52.289   2.561  0.00  0.00    -0.031 C 
ATOM     69  H6  H1I d   1      25.265  52.404   3.433  0.00  0.00     0.035 H 
ATOM     70  H7  H1I d   1      25.708  53.081   1.829  0.00  0.00     0.035 H 
ATOM     71  H8  H1I d   1      26.975  52.366   2.883  0.00  0.00     0.035 H 
ENDBRANCH  51  68
ENDBRANCH  48  51
ENDBRANCH   1  44
TORSDOF 13
