REMARK  4 active torsions:
REMARK  status: ('A' for Active; 'I' for Inactive)
REMARK    1  A    between atoms: C_1  and  O_3 
REMARK    2  A    between atoms: CA_4  and  N_2 
REMARK    3  A    between atoms: CAJ_13  and  NAL_14 
REMARK    4  A    between atoms: CAJ_13  and  CAQ_17 
ROOT
ATOM      1  C   4WF d   1      36.826   4.034  10.079  0.00  0.00     0.179 A 
ATOM      2  CA  4WF d   1      36.062   2.856  10.078  0.00  0.00     0.146 A 
ATOM      3  CB  4WF d   1      36.474   1.735  10.814  0.00  0.00     0.280 A 
ATOM      4  OAC 4WF d   1      39.498   3.093  12.198  0.00  0.00    -0.246 OA
ATOM      5  CA0 4WF d   1      38.453   3.004  11.553  0.00  0.00     0.331 A 
ATOM      6  NAL 4WF d   1      38.017   4.125  10.830  0.00  0.00    -0.274 N 
ATOM      7  OAN 4WF d   1      35.801   0.685  10.805  0.00  0.00    -0.265 OA
ATOM      8  NAB 4WF d   1      37.685   1.816  11.551  0.00  0.00    -0.273 N 
ATOM      9  H11 4WF d   1      37.999   1.024  12.075  0.00  0.00     0.173 HD
ENDROOT
BRANCH   6  10
ATOM     10  CAJ 4WF d   1      38.843   5.356  10.805  0.00  0.00     0.030 C 
ATOM     11  H9  4WF d   1      38.697   5.825   9.821  0.00  0.00     0.072 H 
ATOM     12  H10 4WF d   1      39.893   5.045  10.911  0.00  0.00     0.072 H 
BRANCH  10  13
ATOM     13  CAQ 4WF d   1      38.583   6.429  11.858  0.00  0.00    -0.040 A 
ATOM     14  CAH 4WF d   1      37.858   6.192  13.012  0.00  0.00    -0.075 A 
ATOM     15  CAF 4WF d   1      37.664   7.225  13.927  0.00  0.00    -0.082 A 
ATOM     16  H7  4WF d   1      37.443   5.209  13.203  0.00  0.00     0.084 H 
ATOM     17  CAE 4WF d   1      38.193   8.490  13.693  0.00  0.00    -0.083 A 
ATOM     18  H5  4WF d   1      37.095   7.041  14.831  0.00  0.00     0.083 H 
ATOM     19  CAG 4WF d   1      38.929   8.737  12.540  0.00  0.00    -0.082 A 
ATOM     20  H4  4WF d   1      38.031   9.285  14.412  0.00  0.00     0.083 H 
ATOM     21  CAI 4WF d   1      39.118   7.699  11.631  0.00  0.00    -0.075 A 
ATOM     22  H6  4WF d   1      39.348   9.719  12.352  0.00  0.00     0.083 H 
ATOM     23  H8  4WF d   1      39.692   7.880  10.729  0.00  0.00     0.084 H 
ENDBRANCH  10  13
ENDBRANCH   6  10
BRANCH   1  24
ATOM     24  O   4WF d   1      36.419   5.120   9.364  0.00  0.00    -0.344 OA
ATOM     25  H3  4WF d   1      35.609   4.915   8.912  0.00  0.00     0.219 HD
ENDBRANCH   1  24
BRANCH   2  26
ATOM     26  N   4WF d   1      34.926   2.804   9.361  0.00  0.00    -0.391 N 
ATOM     27  H1  4WF d   1      34.621   3.625   8.819  0.00  0.00     0.156 HD
ATOM     28  H2  4WF d   1      34.361   1.943   9.353  0.00  0.00     0.156 HD
ENDBRANCH   2  26
TORSDOF 4
