REMARK  3 active torsions:
REMARK  status: ('A' for Active; 'I' for Inactive)
REMARK    1  A    between atoms: C28_2  and  C24_4 
REMARK    2  A    between atoms: C22_9  and  C19_10 
REMARK    3  A    between atoms: N11_20  and  N10_21 
ROOT
ATOM      1  C19 H0Y d   1     -19.727 -14.076  11.235  0.00  0.00    -0.006 A 
ATOM      2  C20 H0Y d   1     -19.710 -14.434   9.894  0.00  0.00    -0.070 A 
ATOM      3  C21 H0Y d   1     -18.724 -13.908   9.051  0.00  0.00    -0.075 A 
ATOM      4  C16 H0Y d   1     -17.760 -13.030   9.548  0.00  0.00    -0.046 A 
ATOM      5  C15 H0Y d   1     -16.692 -12.466   8.627  0.00  0.00    -0.040 C 
ATOM      6  C14 H0Y d   1     -15.414 -12.229   9.415  0.00  0.00    -0.056 C 
ATOM      7  C13 H0Y d   1     -15.678 -11.190  10.498  0.00  0.00    -0.022 C 
ATOM      8  C18 H0Y d   1     -18.756 -13.206  11.731  0.00  0.00    -0.058 A 
ATOM      9  C17 H0Y d   1     -17.778 -12.682  10.891  0.00  0.00    -0.003 A 
ATOM     10  C12 H0Y d   1     -16.728 -11.747  11.427  0.00  0.00     0.065 C 
ATOM     11  N11 H0Y d   1     -16.719 -11.367  12.632  0.00  0.00    -0.177 NA
ATOM     12  H4  H0Y d   1     -20.455 -15.117   9.502  0.00  0.00     0.084 H 
ATOM     13  H5  H0Y d   1     -18.709 -14.185   8.003  0.00  0.00     0.084 H 
ATOM     14  H6  H0Y d   1     -17.041 -11.514   8.201  0.00  0.00     0.040 H 
ATOM     15  H7  H0Y d   1     -16.494 -13.181   7.815  0.00  0.00     0.040 H 
ATOM     16  H8  H0Y d   1     -14.627 -11.864   8.739  0.00  0.00     0.034 H 
ATOM     17  H9  H0Y d   1     -15.089 -13.171   9.881  0.00  0.00     0.034 H 
ATOM     18  H10 H0Y d   1     -16.040 -10.257  10.041  0.00  0.00     0.042 H 
ATOM     19  H11 H0Y d   1     -14.752 -10.989  11.057  0.00  0.00     0.042 H 
ATOM     20  H12 H0Y d   1     -18.763 -12.935  12.781  0.00  0.00     0.086 H 
ENDROOT
BRANCH  11  21
ATOM     21  N10 H0Y d   1     -15.802 -10.527  13.092  0.00  0.00    -0.255 N 
ATOM     22  C8  H0Y d   1     -16.143  -9.696  14.115  0.00  0.00     0.188 A 
ATOM     23  S9  H0Y d   1     -17.792  -9.527  14.676  0.00  0.00    -0.049 SA
ATOM     24  N7  H0Y d   1     -15.202  -8.932  14.709  0.00  0.00    -0.222 NA
ATOM     25  C4  H0Y d   1     -17.113  -8.418  15.762  0.00  0.00     0.037 A 
ATOM     26  C3  H0Y d   1     -17.902  -7.762  16.692  0.00  0.00    -0.064 A 
ATOM     27  C5  H0Y d   1     -15.746  -8.177  15.704  0.00  0.00     0.076 A 
ATOM     28  C2  H0Y d   1     -17.324  -6.854  17.572  0.00  0.00    -0.082 A 
ATOM     29  H14 H0Y d   1     -18.968  -7.956  16.734  0.00  0.00     0.085 H 
ATOM     30  C1  H0Y d   1     -15.954  -6.608  17.524  0.00  0.00    -0.081 A 
ATOM     31  H15 H0Y d   1     -17.941  -6.336  18.297  0.00  0.00     0.083 H 
ATOM     32  C6  H0Y d   1     -15.167  -7.272  16.594  0.00  0.00    -0.054 A 
ATOM     33  H17 H0Y d   1     -15.504  -5.900  18.211  0.00  0.00     0.083 H 
ATOM     34  H16 H0Y d   1     -14.100  -7.087  16.559  0.00  0.00     0.087 H 
ATOM     35  H13 H0Y d   1     -14.856 -10.504  12.686  0.00  0.00     0.191 HD
ENDBRANCH  11  21
BRANCH   1  36
ATOM     36  C22 H0Y d   1     -20.688 -14.616  12.078  0.00  0.00     0.068 A 
ATOM     37  N23 H0Y d   1     -21.301 -15.744  11.706  0.00  0.00    -0.241 NA
ATOM     38  C24 H0Y d   1     -22.233 -16.334  12.469  0.00  0.00     0.133 A 
ATOM     39  C25 H0Y d   1     -22.572 -15.787  13.702  0.00  0.00    -0.048 A 
ATOM     40  C26 H0Y d   1     -21.936 -14.625  14.117  0.00  0.00    -0.078 A 
ATOM     41  H1  H0Y d   1     -23.320 -16.260  14.328  0.00  0.00     0.087 H 
ATOM     42  C27 H0Y d   1     -20.979 -14.035  13.305  0.00  0.00    -0.054 A 
ATOM     43  H2  H0Y d   1     -22.187 -14.180  15.073  0.00  0.00     0.083 H 
ATOM     44  H3  H0Y d   1     -20.466 -13.134  13.623  0.00  0.00     0.087 H 
BRANCH  38  45
ATOM     45  C28 H0Y d   1     -22.925 -17.576  11.969  0.00  0.00     0.229 C 
ATOM     46  O82 H0Y d   1     -22.852 -17.870  10.747  0.00  0.00    -0.643 OA
ATOM     47  O81 H0Y d   1     -23.592 -18.265  12.771  0.00  0.00    -0.643 OA
ENDBRANCH  38  45
ENDBRANCH   1  36
TORSDOF 3
