REMARK  10 active torsions:
REMARK  status: ('A' for Active; 'I' for Inactive)
REMARK    1  A    between atoms: C19_2  and  C18_4 
REMARK    2  A    between atoms: C20_6  and  C21_7 
REMARK    3  A    between atoms: C21_7  and  C22_8 
REMARK    4  A    between atoms: C22_8  and  C23_9 
REMARK    5  A    between atoms: C23_9  and  O24_10 
REMARK    6  A    between atoms: O24_10  and  C25_11 
REMARK    7  A    between atoms: C28_14  and  C31_15 
REMARK    8  A    between atoms: C31_15  and  N4_16 
REMARK    9  A    between atoms: C17_20  and  C14_21 
REMARK   10  A    between atoms: N2_31  and  N1_32 
ROOT
ATOM      1  C18 X0B d   1     -15.346 -16.148 -47.215  0.00  0.00     0.147 A 
ATOM      2  N3  X0B d   1     -16.528 -16.638 -46.793  0.00  0.00    -0.233 NA
ATOM      3  C20 X0B d   1     -15.311 -14.754 -47.266  0.00  0.00     0.020 A 
ATOM      4  S1  X0B d   1     -16.827 -14.047 -46.768  0.00  0.00    -0.072 SA
ATOM      5  C17 X0B d   1     -17.433 -15.675 -46.522  0.00  0.00     0.109 A 
ENDROOT
BRANCH   5   6
ATOM      6  C14 X0B d   1     -18.737 -15.853 -46.069  0.00  0.00     0.001 A 
ATOM      7  C15 X0B d   1     -19.053 -17.098 -45.510  0.00  0.00    -0.070 A 
ATOM      8  C16 X0B d   1     -20.344 -17.343 -45.045  0.00  0.00    -0.075 A 
ATOM      9  H16 X0B d   1     -18.295 -17.869 -45.439  0.00  0.00     0.085 H 
ATOM     10  C11 X0B d   1     -21.313 -16.356 -45.141  0.00  0.00    -0.046 A 
ATOM     11  H17 X0B d   1     -20.590 -18.304 -44.609  0.00  0.00     0.084 H 
ATOM     12  C10 X0B d   1     -22.720 -16.603 -44.642  0.00  0.00    -0.040 C 
ATOM     13  C12 X0B d   1     -20.999 -15.120 -45.691  0.00  0.00    -0.003 A 
ATOM     14  C9  X0B d   1     -23.698 -15.971 -45.636  0.00  0.00    -0.056 C 
ATOM     15  H18 X0B d   1     -22.849 -16.145 -43.650  0.00  0.00     0.040 H 
ATOM     16  H19 X0B d   1     -22.906 -17.685 -44.573  0.00  0.00     0.040 H 
ATOM     17  C8  X0B d   1     -23.538 -14.451 -45.697  0.00  0.00    -0.022 C 
ATOM     18  H20 X0B d   1     -24.726 -16.209 -45.325  0.00  0.00     0.034 H 
ATOM     19  H21 X0B d   1     -23.511 -16.390 -46.636  0.00  0.00     0.034 H 
ATOM     20  C7  X0B d   1     -22.073 -14.070 -45.769  0.00  0.00     0.065 C 
ATOM     21  H22 X0B d   1     -23.983 -14.004 -44.796  0.00  0.00     0.042 H 
ATOM     22  H23 X0B d   1     -24.055 -14.069 -46.590  0.00  0.00     0.042 H 
ATOM     23  N2  X0B d   1     -21.784 -12.840 -45.892  0.00  0.00    -0.177 NA
ATOM     24  C13 X0B d   1     -19.708 -14.858 -46.153  0.00  0.00    -0.058 A 
ATOM     25  H24 X0B d   1     -19.463 -13.889 -46.573  0.00  0.00     0.086 H 
BRANCH  23  26
ATOM     26  N1  X0B d   1     -22.734 -11.908 -45.949  0.00  0.00    -0.255 N 
ATOM     27  C6  X0B d   1     -22.362 -10.623 -45.731  0.00  0.00     0.188 A 
ATOM     28  S   X0B d   1     -20.705 -10.252 -45.362  0.00  0.00    -0.049 SA
ATOM     29  N   X0B d   1     -23.246  -9.598 -45.802  0.00  0.00    -0.222 NA
ATOM     30  C3  X0B d   1     -21.262  -8.649 -45.306  0.00  0.00     0.037 A 
ATOM     31  C2  X0B d   1     -20.384  -7.606 -45.029  0.00  0.00    -0.064 A 
ATOM     32  C4  X0B d   1     -22.611  -8.410 -45.556  0.00  0.00     0.076 A 
ATOM     33  C1  X0B d   1     -20.872  -6.303 -44.986  0.00  0.00    -0.082 A 
ATOM     34  H26 X0B d   1     -19.334  -7.805 -44.849  0.00  0.00     0.085 H 
ATOM     35  C   X0B d   1     -22.223  -6.051 -45.235  0.00  0.00    -0.081 A 
ATOM     36  H27 X0B d   1     -20.202  -5.482 -44.759  0.00  0.00     0.083 H 
ATOM     37  C5  X0B d   1     -23.095  -7.103 -45.518  0.00  0.00    -0.054 A 
ATOM     38  H29 X0B d   1     -22.596  -5.034 -45.208  0.00  0.00     0.083 H 
ATOM     39  H28 X0B d   1     -24.144  -6.905 -45.707  0.00  0.00     0.087 H 
ATOM     40  H25 X0B d   1     -23.713 -12.154 -46.151  0.00  0.00     0.191 HD
ENDBRANCH  23  26
ENDBRANCH   5   6
BRANCH   1  41
ATOM     41  C19 X0B d   1     -14.185 -17.004 -47.557  0.00  0.00     0.230 C 
ATOM     42  O1  X0B d   1     -14.226 -18.168 -47.101  0.00  0.00    -0.643 OA
ATOM     43  O   X0B d   1     -13.232 -16.578 -48.249  0.00  0.00    -0.643 OA
ENDBRANCH   1  41
BRANCH   3  44
ATOM     44  C21 X0B d   1     -14.238 -13.768 -47.680  0.00  0.00    -0.030 C 
ATOM     45  H1  X0B d   1     -13.246 -14.155 -47.404  0.00  0.00     0.041 H 
ATOM     46  H2  X0B d   1     -14.406 -12.801 -47.184  0.00  0.00     0.041 H 
BRANCH  44  47
ATOM     47  C22 X0B d   1     -14.328 -13.597 -49.206  0.00  0.00    -0.041 C 
ATOM     48  H3  X0B d   1     -15.086 -12.831 -49.427  0.00  0.00     0.036 H 
ATOM     49  H4  X0B d   1     -14.637 -14.556 -49.647  0.00  0.00     0.036 H 
BRANCH  47  50
ATOM     50  C23 X0B d   1     -13.008 -13.171 -49.849  0.00  0.00     0.026 C 
ATOM     51  H5  X0B d   1     -13.147 -13.063 -50.935  0.00  0.00     0.075 H 
ATOM     52  H6  X0B d   1     -12.241 -13.934 -49.651  0.00  0.00     0.075 H 
BRANCH  50  53
ATOM     53  O24 X0B d   1     -12.589 -11.913 -49.292  0.00  0.00    -0.351 OA
BRANCH  53  54
ATOM     54  C25 X0B d   1     -11.430 -11.308 -49.706  0.00  0.00     0.068 A 
ATOM     55  C30 X0B d   1     -11.100 -10.049 -49.210  0.00  0.00    -0.050 A 
ATOM     56  C29 X0B d   1      -9.922  -9.433 -49.619  0.00  0.00    -0.073 A 
ATOM     57  H7  X0B d   1     -11.759  -9.551 -48.508  0.00  0.00     0.087 H 
ATOM     58  C28 X0B d   1      -9.074 -10.069 -50.524  0.00  0.00    -0.033 A 
ATOM     59  H8  X0B d   1      -9.662  -8.454 -49.232  0.00  0.00     0.084 H 
ATOM     60  C27 X0B d   1      -9.404 -11.327 -51.018  0.00  0.00    -0.073 A 
ATOM     61  C26 X0B d   1     -10.581 -11.955 -50.602  0.00  0.00    -0.050 A 
ATOM     62  H14 X0B d   1      -8.748 -11.820 -51.726  0.00  0.00     0.084 H 
ATOM     63  H15 X0B d   1     -10.833 -12.941 -50.975  0.00  0.00     0.087 H 
BRANCH  58  64
ATOM     64  C31 X0B d   1      -7.788  -9.397 -50.968  0.00  0.00     0.103 C 
ATOM     65  H9  X0B d   1      -7.099  -9.324 -50.113  0.00  0.00     0.082 H 
ATOM     66  H10 X0B d   1      -8.014  -8.388 -51.344  0.00  0.00     0.082 H 
BRANCH  64  67
ATOM     67  N4  X0B d   1      -7.166 -10.179 -52.024  0.00  0.00    -0.075 N 
ATOM     68  H11 X0B d   1      -6.312  -9.730 -52.316  0.00  0.00     0.274 HD
ATOM     69  H12 X0B d   1      -7.796 -10.246 -52.808  0.00  0.00     0.274 HD
ATOM     70  H13 X0B d   1      -6.958 -11.103 -51.680  0.00  0.00     0.274 HD
ENDBRANCH  64  67
ENDBRANCH  58  64
ENDBRANCH  53  54
ENDBRANCH  50  53
ENDBRANCH  47  50
ENDBRANCH  44  47
ENDBRANCH   3  44
TORSDOF 10
