REMARK  13 active torsions:
REMARK  status: ('A' for Active; 'I' for Inactive)
REMARK    1  A    between atoms: CAA_1  and  NBI_2 
REMARK    2  A    between atoms: NBI_2  and  CAB_3 
REMARK    3  A    between atoms: NBI_2  and  CBE_4 
REMARK    4  A    between atoms: NBK_9  and  CAW_10 
REMARK    5  A    between atoms: CAW_10  and  CBD_11 
REMARK    6  A    between atoms: CBB_16  and  CAU_17 
REMARK    7  A    between atoms: CAU_17  and  CAS_18 
REMARK    8  A    between atoms: CAS_18  and  CAR_19 
REMARK    9  A    between atoms: CAR_19  and  CAT_20 
REMARK   10  A    between atoms: CAT_20  and  CBA_21 
REMARK   11  A    between atoms: CBC_26  and  CAV_27 
REMARK   12  A    between atoms: CAV_27  and  N9_28 
REMARK   13  A    between atoms: C6_36  and  N6_37 
ROOT
ATOM      1  CAU QMQ d   1     -15.537  14.372 -10.448  0.00  0.00    -0.041 C 
ATOM      2  H18 QMQ d   1     -15.718  14.975 -11.350  0.00  0.00     0.040 H 
ATOM      3  H19 QMQ d   1     -16.468  14.293  -9.867  0.00  0.00     0.040 H 
ENDROOT
BRANCH   1   4
ATOM      4  CBB QMQ d   1     -14.537  14.980  -9.662  0.00  0.00    -0.058 A 
ATOM      5  CAG QMQ d   1     -13.746  16.021 -10.174  0.00  0.00    -0.076 A 
ATOM      6  CAK QMQ d   1     -12.738  16.606  -9.395  0.00  0.00    -0.075 A 
ATOM      7  H15 QMQ d   1     -13.917  16.377 -11.184  0.00  0.00     0.084 H 
ATOM      8  CBD QMQ d   1     -12.508  16.158  -8.085  0.00  0.00    -0.040 A 
ATOM      9  H14 QMQ d   1     -12.134  17.407  -9.806  0.00  0.00     0.084 H 
ATOM     10  CAJ QMQ d   1     -13.305  15.116  -7.584  0.00  0.00    -0.075 A 
ATOM     11  CAF QMQ d   1     -14.307  14.526  -8.357  0.00  0.00    -0.076 A 
ATOM     12  H16 QMQ d   1     -13.138  14.761  -6.573  0.00  0.00     0.084 H 
ATOM     13  H17 QMQ d   1     -14.905  13.719  -7.949  0.00  0.00     0.084 H 
BRANCH   8  14
ATOM     14  CAW QMQ d   1     -11.486  16.732  -7.285  0.00  0.00     0.018 C 
ATOM     15  H12 QMQ d   1     -10.720  17.166  -7.944  0.00  0.00     0.071 H 
ATOM     16  H13 QMQ d   1     -11.925  17.524  -6.660  0.00  0.00     0.071 H 
BRANCH  14  17
ATOM     17  NBK QMQ d   1     -10.835  15.704  -6.387  0.00  0.00    -0.382 N 
ATOM     18  CAP QMQ d   1     -10.059  14.628  -6.916  0.00  0.00     0.012 A 
ATOM     19  CAM QMQ d   1      -9.485  13.689  -6.043  0.00  0.00    -0.060 A 
ATOM     20  H8  QMQ d   1     -10.714  14.069  -7.600  0.00  0.00     0.070 H 
ATOM     21  H9  QMQ d   1      -9.234  15.080  -7.486  0.00  0.00     0.070 H 
ATOM     22  CBE QMQ d   1      -9.650  13.772  -4.643  0.00  0.00     0.028 A 
ATOM     23  H7  QMQ d   1      -8.895  12.873  -6.458  0.00  0.00     0.082 H 
ATOM     24  CAL QMQ d   1     -10.410  14.834  -4.127  0.00  0.00    -0.043 A 
ATOM     25  CAO QMQ d   1     -10.994  15.778  -4.986  0.00  0.00    -0.022 A 
ATOM     26  H10 QMQ d   1     -10.547  14.926  -3.051  0.00  0.00     0.089 H 
ATOM     27  H11 QMQ d   1     -11.585  16.588  -4.561  0.00  0.00     0.111 H 
BRANCH  22  28
ATOM     28  NBI QMQ d   1      -9.091  12.847  -3.811  0.00  0.00    -0.390 N 
BRANCH  28  29
ATOM     29  CAA QMQ d   1      -9.475  12.827  -2.382  0.00  0.00    -0.019 C 
ATOM     30  H1  QMQ d   1      -8.930  12.022  -1.867  0.00  0.00     0.056 H 
ATOM     31  H2  QMQ d   1     -10.557  12.650  -2.296  0.00  0.00     0.056 H 
ATOM     32  H3  QMQ d   1      -9.223  13.793  -1.921  0.00  0.00     0.056 H 
ENDBRANCH  28  29
BRANCH  28  33
ATOM     33  CAB QMQ d   1      -8.151  11.842  -4.364  0.00  0.00    -0.019 C 
ATOM     34  H4  QMQ d   1      -8.000  12.033  -5.437  0.00  0.00     0.056 H 
ATOM     35  H5  QMQ d   1      -8.569  10.834  -4.226  0.00  0.00     0.056 H 
ATOM     36  H6  QMQ d   1      -7.187  11.914  -3.840  0.00  0.00     0.056 H 
ENDBRANCH  28  33
ENDBRANCH  22  28
ENDBRANCH  14  17
ENDBRANCH   8  14
ENDBRANCH   1   4
BRANCH   1  37
ATOM     37  CAS QMQ d   1     -15.050  12.951 -10.856  0.00  0.00    -0.061 C 
ATOM     38  H20 QMQ d   1     -15.312  12.248 -10.051  0.00  0.00     0.033 H 
ATOM     39  H21 QMQ d   1     -13.957  12.979 -10.978  0.00  0.00     0.033 H 
BRANCH  37  40
ATOM     40  CAR QMQ d   1     -15.676  12.443 -12.172  0.00  0.00    -0.061 C 
ATOM     41  H22 QMQ d   1     -15.332  13.071 -13.007  0.00  0.00     0.033 H 
ATOM     42  H23 QMQ d   1     -16.772  12.498 -12.100  0.00  0.00     0.033 H 
BRANCH  40  43
ATOM     43  CAT QMQ d   1     -15.249  10.972 -12.424  0.00  0.00    -0.041 C 
ATOM     44  H24 QMQ d   1     -14.979  10.517 -11.460  0.00  0.00     0.040 H 
ATOM     45  H25 QMQ d   1     -14.372  10.972 -13.088  0.00  0.00     0.040 H 
BRANCH  43  46
ATOM     46  CBA QMQ d   1     -16.268  10.187 -13.023  0.00  0.00    -0.058 A 
ATOM     47  CAE QMQ d   1     -16.662  10.375 -14.362  0.00  0.00    -0.076 A 
ATOM     48  CAI QMQ d   1     -17.674   9.583 -14.939  0.00  0.00    -0.075 A 
ATOM     49  H26 QMQ d   1     -16.179  11.141 -14.958  0.00  0.00     0.084 H 
ATOM     50  CBC QMQ d   1     -18.294   8.575 -14.187  0.00  0.00    -0.040 A 
ATOM     51  H27 QMQ d   1     -17.974   9.753 -15.967  0.00  0.00     0.084 H 
ATOM     52  CAH QMQ d   1     -17.900   8.391 -12.857  0.00  0.00    -0.075 A 
ATOM     53  CAD QMQ d   1     -16.891   9.181 -12.276  0.00  0.00    -0.076 A 
ATOM     54  H29 QMQ d   1     -18.382   7.624 -12.262  0.00  0.00     0.084 H 
ATOM     55  H28 QMQ d   1     -16.596   9.010 -11.247  0.00  0.00     0.084 H 
BRANCH  50  56
ATOM     56  CAV QMQ d   1     -19.316   7.775 -14.749  0.00  0.00     0.026 C 
ATOM     57  H30 QMQ d   1     -19.707   8.288 -15.640  0.00  0.00     0.072 H 
ATOM     58  H31 QMQ d   1     -20.120   7.667 -14.006  0.00  0.00     0.072 H 
BRANCH  56  59
ATOM     59  N9  QMQ d   1     -18.847   6.363 -15.167  0.00  0.00    -0.320 N 
ATOM     60  C8  QMQ d   1     -17.658   5.795 -14.948  0.00  0.00     0.069 A 
ATOM     61  N7  QMQ d   1     -17.652   4.567 -15.455  0.00  0.00    -0.236 NA
ATOM     62  H32 QMQ d   1     -16.822   6.266 -14.433  0.00  0.00     0.143 H 
ATOM     63  C5  QMQ d   1     -18.845   4.361 -16.007  0.00  0.00     0.149 A 
ATOM     64  C4  QMQ d   1     -19.587   5.469 -15.819  0.00  0.00     0.165 A 
ATOM     65  C6  QMQ d   1     -19.332   3.302 -16.654  0.00  0.00     0.155 A 
ATOM     66  N3  QMQ d   1     -20.841   5.548 -16.286  0.00  0.00    -0.222 NA
ATOM     67  C2  QMQ d   1     -21.388   4.457 -16.965  0.00  0.00     0.091 A 
ATOM     68  N1  QMQ d   1     -20.590   3.323 -17.132  0.00  0.00    -0.222 NA
ATOM     69  H33 QMQ d   1     -22.401   4.489 -17.351  0.00  0.00     0.146 H 
BRANCH  65  70
ATOM     70  N6  QMQ d   1     -18.512   2.233 -16.795  0.00  0.00    -0.382 N 
ATOM     71  H34 QMQ d   1     -18.843   1.391 -17.288  0.00  0.00     0.157 HD
ATOM     72  H35 QMQ d   1     -17.557   2.262 -16.410  0.00  0.00     0.157 HD
ENDBRANCH  65  70
ENDBRANCH  56  59
ENDBRANCH  50  56
ENDBRANCH  43  46
ENDBRANCH  40  43
ENDBRANCH  37  40
ENDBRANCH   1  37
TORSDOF 13
