REMARK  7 active torsions:
REMARK  status: ('A' for Active; 'I' for Inactive)
REMARK    1  A    between atoms: C02_2  and  C05_5 
REMARK    2  A    between atoms: C07_7  and  C10_10 
REMARK    3  A    between atoms: C14_14  and  C16_16 
REMARK       I    between atoms: C16_16  and  N18_18 
REMARK    4  A    between atoms: N18_18  and  C19_19 
REMARK    5  A    between atoms: C19_19  and  C20_20 
REMARK    6  A    between atoms: C20_20  and  C26_26 
REMARK    7  A    between atoms: C28_28  and  C31_31 
ROOT
ATOM      1  C20 NU9 d   1      -8.679   5.904 -17.886  0.00  0.00     0.029 C 
ATOM      2  C21 NU9 d   1      -9.362   7.226 -18.104  0.00  0.00    -0.031 C 
ATOM      3  C22 NU9 d   1      -9.184   7.747 -19.535  0.00  0.00     0.021 C 
ATOM      4  O23 NU9 d   1      -8.490   6.835 -20.401  0.00  0.00    -0.391 OA
ATOM      5  C24 NU9 d   1      -8.988   5.486 -20.360  0.00  0.00     0.021 C 
ATOM      6  C25 NU9 d   1      -9.051   4.900 -18.943  0.00  0.00    -0.031 C 
ATOM      7  H8  NU9 d   1      -8.938   7.962 -17.405  0.00  0.00     0.037 H 
ATOM      8  H9  NU9 d   1     -10.437   7.106 -17.903  0.00  0.00     0.037 H 
ATOM      9  H10 NU9 d   1      -8.615   8.687 -19.494  0.00  0.00     0.074 H 
ATOM     10  H11 NU9 d   1     -10.180   7.940 -19.960  0.00  0.00     0.074 H 
ATOM     11  H12 NU9 d   1      -8.327   4.852 -20.970  0.00  0.00     0.074 H 
ATOM     12  H13 NU9 d   1     -10.002   5.476 -20.786  0.00  0.00     0.074 H 
ATOM     13  H14 NU9 d   1     -10.076   4.550 -18.752  0.00  0.00     0.037 H 
ATOM     14  H15 NU9 d   1      -8.356   4.050 -18.882  0.00  0.00     0.037 H 
ENDROOT
BRANCH   1  15
ATOM     15  C19 NU9 d   1      -9.375   5.341 -16.624  0.00  0.00     0.008 C 
ATOM     16  H6  NU9 d   1      -9.118   6.000 -15.782  0.00  0.00     0.065 H 
ATOM     17  H7  NU9 d   1     -10.460   5.377 -16.800  0.00  0.00     0.065 H 
BRANCH  15  18
ATOM     18  N18 NU9 d   1      -9.043   3.996 -16.238  0.00  0.00    -0.356 N 
ATOM     19  C16 NU9 d   1      -9.930   3.112 -15.556  0.00  0.00     0.251 C 
ATOM     20  O17 NU9 d   1     -11.067   3.429 -15.239  0.00  0.00    -0.268 OA
ATOM     21  H5  NU9 d   1      -8.129   3.658 -16.463  0.00  0.00     0.162 HD
BRANCH  19  22
ATOM     22  C14 NU9 d   1      -9.376   1.761 -15.268  0.00  0.00     0.032 A 
ATOM     23  C13 NU9 d   1     -10.033   0.613 -15.725  0.00  0.00    -0.068 A 
ATOM     24  C12 NU9 d   1      -9.483  -0.646 -15.463  0.00  0.00    -0.081 A 
ATOM     25  H3  NU9 d   1     -10.961   0.699 -16.278  0.00  0.00     0.085 H 
ATOM     26  C11 NU9 d   1      -8.279  -0.761 -14.753  0.00  0.00    -0.069 A 
ATOM     27  H2  NU9 d   1      -9.991  -1.538 -15.811  0.00  0.00     0.083 H 
ATOM     28  C10 NU9 d   1      -7.615   0.391 -14.300  0.00  0.00     0.015 A 
ATOM     29  H1  NU9 d   1      -7.860  -1.741 -14.553  0.00  0.00     0.085 H 
ATOM     30  C15 NU9 d   1      -8.167   1.653 -14.569  0.00  0.00    -0.054 A 
ATOM     31  H4  NU9 d   1      -7.655   2.548 -14.234  0.00  0.00     0.086 H 
BRANCH  28  32
ATOM     32  C07 NU9 d   1      -6.417   0.281 -13.604  0.00  0.00     0.189 A 
ATOM     33  N06 NU9 d   1      -5.714  -0.906 -13.377  0.00  0.00    -0.196 NA
ATOM     34  C05 NU9 d   1      -4.560  -0.601 -12.736  0.00  0.00     0.280 A 
ATOM     35  O09 NU9 d   1      -4.513   0.769 -12.562  0.00  0.00    -0.186 OA
ATOM     36  N08 NU9 d   1      -5.658   1.304 -13.129  0.00  0.00    -0.105 NA
BRANCH  34  37
ATOM     37  C02 NU9 d   1      -3.538  -1.577 -12.276  0.00  0.00     0.460 C 
ATOM     38  F01 NU9 d   1      -2.352  -1.229 -12.758  0.00  0.00    -0.163 F 
ATOM     39  F03 NU9 d   1      -3.852  -2.795 -12.711  0.00  0.00    -0.163 F 
ATOM     40  F04 NU9 d   1      -3.508  -1.561 -10.948  0.00  0.00    -0.163 F 
ENDBRANCH  34  37
ENDBRANCH  28  32
ENDBRANCH  19  22
ENDBRANCH  15  18
ENDBRANCH   1  15
BRANCH   1  41
ATOM     41  C26 NU9 d   1      -7.235   5.911 -17.456  0.00  0.00     0.061 A 
ATOM     42  N27 NU9 d   1      -6.445   4.698 -17.139  0.00  0.00    -0.352 N 
ATOM     43  C28 NU9 d   1      -4.945   5.126 -16.663  0.00  0.00     0.049 A 
ATOM     44  H16 NU9 d   1      -6.791   3.730 -17.209  0.00  0.00     0.166 HD
ATOM     45  C29 NU9 d   1      -4.864   6.564 -16.760  0.00  0.00    -0.017 A 
ATOM     46  S30 NU9 d   1      -6.292   7.118 -17.271  0.00  0.00    -0.085 SA
ATOM     47  H17 NU9 d   1      -3.990   7.171 -16.528  0.00  0.00     0.098 H 
BRANCH  43  48
ATOM     48  C31 NU9 d   1      -3.961   4.228 -16.257  0.00  0.00    -0.009 A 
ATOM     49  C32 NU9 d   1      -4.338   2.956 -15.796  0.00  0.00    -0.071 A 
ATOM     50  C33 NU9 d   1      -3.367   2.037 -15.382  0.00  0.00    -0.082 A 
ATOM     51  H18 NU9 d   1      -5.387   2.684 -15.761  0.00  0.00     0.084 H 
ATOM     52  C34 NU9 d   1      -2.008   2.381 -15.426  0.00  0.00    -0.083 A 
ATOM     53  H19 NU9 d   1      -3.666   1.058 -15.027  0.00  0.00     0.083 H 
ATOM     54  C35 NU9 d   1      -1.628   3.647 -15.885  0.00  0.00    -0.082 A 
ATOM     55  H20 NU9 d   1      -1.256   1.669 -15.106  0.00  0.00     0.083 H 
ATOM     56  C36 NU9 d   1      -2.600   4.565 -16.300  0.00  0.00    -0.071 A 
ATOM     57  H21 NU9 d   1      -0.579   3.917 -15.919  0.00  0.00     0.083 H 
ATOM     58  H22 NU9 d   1      -2.299   5.543 -16.657  0.00  0.00     0.084 H 
ENDBRANCH  43  48
ENDBRANCH   1  41
TORSDOF 7
