REMARK  8 active torsions:
REMARK  status: ('A' for Active; 'I' for Inactive)
REMARK    1  A    between atoms: N2_2  and  C1_1 
REMARK    2  A    between atoms: C05_7  and  C02_4 
REMARK    3  A    between atoms: C10_12  and  C07_9 
REMARK    4  A    between atoms: C16_18  and  C14_16 
REMARK       I    between atoms: N18_20  and  C16_18 
REMARK    5  A    between atoms: C19_21  and  N18_20 
REMARK    6  A    between atoms: C20_22  and  C19_21 
REMARK    7  A    between atoms: C20_22  and  C26_27 
REMARK    8  A    between atoms: C28_29  and  C31_32 
ROOT
ATOM      1  N2  NU7 d   1      -9.863   6.143 -20.564  0.00  0.00    -0.075 N 
ATOM      2  C20 NU7 d   1      -8.579   5.886 -17.896  0.00  0.00     0.030 C 
ATOM      3  C21 NU7 d   1      -8.970   7.259 -18.504  0.00  0.00    -0.028 C 
ATOM      4  C22 NU7 d   1     -10.102   7.183 -19.549  0.00  0.00     0.084 C 
ATOM      5  C24 NU7 d   1      -9.792   4.822 -19.925  0.00  0.00     0.084 C 
ATOM      6  C25 NU7 d   1      -8.618   4.733 -18.931  0.00  0.00    -0.028 C 
ATOM      7  H4  NU7 d   1     -10.642   6.144 -21.203  0.00  0.00     0.279 HD
ATOM      8  H12 NU7 d   1      -8.081   7.689 -18.988  0.00  0.00     0.037 H 
ATOM      9  H13 NU7 d   1      -9.297   7.918 -17.687  0.00  0.00     0.037 H 
ATOM     10  H14 NU7 d   1     -11.046   6.960 -19.031  0.00  0.00     0.076 H 
ATOM     11  H15 NU7 d   1     -10.182   8.157 -20.054  0.00  0.00     0.076 H 
ATOM     12  H16 NU7 d   1      -9.659   4.056 -20.703  0.00  0.00     0.076 H 
ATOM     13  H17 NU7 d   1     -10.732   4.636 -19.384  0.00  0.00     0.076 H 
ATOM     14  H18 NU7 d   1      -8.698   3.781 -18.386  0.00  0.00     0.037 H 
ATOM     15  H19 NU7 d   1      -7.679   4.750 -19.503  0.00  0.00     0.037 H 
ENDROOT
BRANCH   2  16
ATOM     16  C19 NU7 d   1      -9.485   5.572 -16.692  0.00  0.00     0.008 C 
ATOM     17  H10 NU7 d   1      -9.361   6.354 -15.928  0.00  0.00     0.065 H 
ATOM     18  H11 NU7 d   1     -10.534   5.545 -17.022  0.00  0.00     0.065 H 
BRANCH  16  19
ATOM     19  N18 NU7 d   1      -9.120   4.262 -16.115  0.00  0.00    -0.356 N 
ATOM     20  C16 NU7 d   1     -10.024   3.365 -15.710  0.00  0.00     0.251 C 
ATOM     21  O17 NU7 d   1     -11.233   3.615 -15.701  0.00  0.00    -0.268 OA
ATOM     22  H9  NU7 d   1      -8.150   4.036 -16.023  0.00  0.00     0.162 HD
BRANCH  20  23
ATOM     23  C14 NU7 d   1      -9.537   2.015 -15.341  0.00  0.00     0.032 A 
ATOM     24  C13 NU7 d   1     -10.254   0.877 -15.741  0.00  0.00    -0.068 A 
ATOM     25  C12 NU7 d   1      -9.781  -0.401 -15.411  0.00  0.00    -0.081 A 
ATOM     26  H7  NU7 d   1     -11.173   0.986 -16.305  0.00  0.00     0.085 H 
ATOM     27  C11 NU7 d   1      -8.590  -0.550 -14.685  0.00  0.00    -0.069 A 
ATOM     28  H6  NU7 d   1     -10.338  -1.278 -15.718  0.00  0.00     0.083 H 
ATOM     29  C10 NU7 d   1      -7.880   0.588 -14.286  0.00  0.00     0.015 A 
ATOM     30  H5  NU7 d   1      -8.223  -1.539 -14.435  0.00  0.00     0.085 H 
ATOM     31  C15 NU7 d   1      -8.344   1.866 -14.621  0.00  0.00    -0.054 A 
ATOM     32  H8  NU7 d   1      -7.779   2.742 -14.323  0.00  0.00     0.086 H 
BRANCH  29  33
ATOM     33  C07 NU7 d   1      -6.618   0.456 -13.539  0.00  0.00     0.189 A 
ATOM     34  N06 NU7 d   1      -5.925  -0.734 -13.301  0.00  0.00    -0.196 NA
ATOM     35  C05 NU7 d   1      -4.830  -0.443 -12.623  0.00  0.00     0.280 A 
ATOM     36  O09 NU7 d   1      -4.788   0.926 -12.408  0.00  0.00    -0.186 OA
ATOM     37  N08 NU7 d   1      -5.934   1.453 -13.012  0.00  0.00    -0.105 NA
BRANCH  35  38
ATOM     38  C02 NU7 d   1      -3.790  -1.410 -12.141  0.00  0.00     0.460 C 
ATOM     39  F01 NU7 d   1      -2.606  -1.094 -12.654  0.00  0.00    -0.163 F 
ATOM     40  F03 NU7 d   1      -4.088  -2.642 -12.528  0.00  0.00    -0.163 F 
ATOM     41  F04 NU7 d   1      -3.788  -1.321 -10.815  0.00  0.00    -0.163 F 
ENDBRANCH  35  38
ENDBRANCH  29  33
ENDBRANCH  20  23
ENDBRANCH  16  19
ENDBRANCH   2  16
BRANCH   2  42
ATOM     42  C26 NU7 d   1      -7.165   5.968 -17.358  0.00  0.00     0.086 A 
ATOM     43  N27 NU7 d   1      -6.380   4.963 -16.998  0.00  0.00    -0.244 NA
ATOM     44  C28 NU7 d   1      -5.093   5.270 -16.530  0.00  0.00     0.074 A 
ATOM     45  C29 NU7 d   1      -4.776   6.576 -16.499  0.00  0.00    -0.015 A 
ATOM     46  S30 NU7 d   1      -6.207   7.429 -17.095  0.00  0.00    -0.083 SA
ATOM     47  H20 NU7 d   1      -3.835   7.017 -16.175  0.00  0.00     0.098 H 
BRANCH  44  48
ATOM     48  C31 NU7 d   1      -4.138   4.211 -16.093  0.00  0.00    -0.007 A 
ATOM     49  C32 NU7 d   1      -2.750   4.446 -16.050  0.00  0.00    -0.071 A 
ATOM     50  C33 NU7 d   1      -1.868   3.441 -15.635  0.00  0.00    -0.082 A 
ATOM     51  H21 NU7 d   1      -2.361   5.415 -16.341  0.00  0.00     0.084 H 
ATOM     52  C34 NU7 d   1      -2.360   2.188 -15.253  0.00  0.00    -0.083 A 
ATOM     53  H22 NU7 d   1      -0.802   3.634 -15.610  0.00  0.00     0.083 H 
ATOM     54  C35 NU7 d   1      -3.738   1.946 -15.290  0.00  0.00    -0.082 A 
ATOM     55  H23 NU7 d   1      -1.678   1.410 -14.930  0.00  0.00     0.083 H 
ATOM     56  C36 NU7 d   1      -4.625   2.952 -15.706  0.00  0.00    -0.071 A 
ATOM     57  H24 NU7 d   1      -4.123   0.976 -14.996  0.00  0.00     0.083 H 
ATOM     58  H25 NU7 d   1      -5.691   2.756 -15.729  0.00  0.00     0.084 H 
ENDBRANCH  44  48
ENDBRANCH   2  42
BRANCH   1  59
ATOM     59  C1  NU7 d   1      -8.636   6.416 -21.340  0.00  0.00     0.066 C 
ATOM     60  H1  NU7 d   1      -8.712   7.408 -21.808  0.00  0.00     0.068 H 
ATOM     61  H2  NU7 d   1      -8.518   5.650 -22.121  0.00  0.00     0.068 H 
ATOM     62  H3  NU7 d   1      -7.765   6.393 -20.669  0.00  0.00     0.068 H 
ENDBRANCH   1  59
TORSDOF 8
