REMARK  27 active torsions:
REMARK  status: ('A' for Active; 'I' for Inactive)
REMARK    1  A    between atoms: C1_2  and  O1_4 
REMARK    2  A    between atoms: C2_5  and  C1_2 
REMARK    3  A    between atoms: C1_2  and  C7_19 
REMARK    4  A    between atoms: C1_2  and  C25_37 
REMARK       I    between atoms: N1_3  and  C2_5 
REMARK    5  A    between atoms: C3_8  and  N1_3 
REMARK    6  A    between atoms: N2_6  and  N3_9 
REMARK    7  A    between atoms: C9_21  and  N2_6 
REMARK    8  A    between atoms: N2_6  and  C10_22 
REMARK    9  A    between atoms: C3_8  and  C4_11 
REMARK   10  A    between atoms: C34_45  and  C3_8 
REMARK       I    between atoms: N3_9  and  C12_24 
REMARK   11  A    between atoms: C4_11  and  C5_14 
REMARK   12  A    between atoms: C4_11  and  C6_17 
REMARK   13  A    between atoms: C4_11  and  C35_46 
REMARK   14  A    between atoms: C13_25  and  N4_12 
REMARK       I    between atoms: N4_12  and  C18_30 
REMARK       I    between atoms: N5_15  and  C34_45 
REMARK   15  A    between atoms: C37_48  and  N5_15 
REMARK   16  A    between atoms: C18_30  and  O5_16 
REMARK   17  A    between atoms: O5_16  and  C19_31 
REMARK   18  A    between atoms: C7_19  and  C8_20 
REMARK   19  A    between atoms: C8_20  and  C9_21 
REMARK   20  A    between atoms: C10_22  and  C11_23 
REMARK   21  A    between atoms: C12_24  and  C13_25 
REMARK   22  A    between atoms: C13_25  and  C14_26 
REMARK   23  A    between atoms: C14_26  and  C15_27 
REMARK   24  A    between atoms: C14_26  and  C16_28 
REMARK   25  A    between atoms: C14_26  and  C17_29 
REMARK   26  A    between atoms: C25_37  and  C26_38 
REMARK   27  A    between atoms: C36_47  and  C37_48 
ROOT
ATOM      1  C7  EQM d   1      13.178  23.500   5.247  0.00  0.00    -0.026 C 
ATOM      2  H14 EQM d   1      13.994  23.518   4.510  0.00  0.00     0.038 H 
ATOM      3  H15 EQM d   1      12.883  22.458   5.442  0.00  0.00     0.038 H 
ENDROOT
BRANCH   1   4
ATOM      4  C1  EQM d   1      11.970  24.258   4.670  0.00  0.00     0.142 C 
BRANCH   4   5
ATOM      5  O1  EQM d   1      12.376  25.598   4.357  0.00  0.00    -0.380 OA
ATOM      6  H2  EQM d   1      11.648  26.064   3.963  0.00  0.00     0.211 HD
ENDBRANCH   4   5
BRANCH   4   7
ATOM      7  C2  EQM d   1      10.891  24.318   5.574  0.00  0.00     0.253 C 
ATOM      8  N1  EQM d   1      10.208  25.534   5.717  0.00  0.00    -0.344 N 
ATOM      9  H1  EQM d   1      10.649  26.370   5.390  0.00  0.00     0.163 HD
ATOM     10  O2  EQM d   1      10.424  23.307   6.105  0.00  0.00    -0.270 OA
BRANCH   8  11
ATOM     11  C3  EQM d   1       8.860  25.637   6.332  0.00  0.00     0.095 C 
ATOM     12  H4  EQM d   1       8.415  24.631   6.345  0.00  0.00     0.088 H 
BRANCH  11  13
ATOM     13  C4  EQM d   1       8.958  26.135   7.784  0.00  0.00    -0.022 C 
BRANCH  13  14
ATOM     14  C5  EQM d   1       9.735  27.453   7.843  0.00  0.00    -0.067 C 
ATOM     15  H7  EQM d   1       9.796  27.796   8.886  0.00  0.00     0.028 H 
ATOM     16  H8  EQM d   1       9.217  28.212   7.238  0.00  0.00     0.028 H 
ATOM     17  H9  EQM d   1      10.750  27.299   7.447  0.00  0.00     0.028 H 
ENDBRANCH  13  14
BRANCH  13  18
ATOM     18  C6  EQM d   1       7.545  26.367   8.319  0.00  0.00    -0.067 C 
ATOM     19  H11 EQM d   1       6.979  25.425   8.280  0.00  0.00     0.028 H 
ATOM     20  H12 EQM d   1       7.039  27.124   7.702  0.00  0.00     0.028 H 
ATOM     21  H13 EQM d   1       7.600  26.719   9.360  0.00  0.00     0.028 H 
ENDBRANCH  13  18
BRANCH  13  22
ATOM     22  C35 EQM d   1       9.663  25.091   8.651  0.00  0.00    -0.067 C 
ATOM     23  H48 EQM d   1      10.680  24.922   8.268  0.00  0.00     0.028 H 
ATOM     24  H49 EQM d   1       9.099  24.147   8.620  0.00  0.00     0.028 H 
ATOM     25  H50 EQM d   1       9.717  25.452   9.689  0.00  0.00     0.028 H 
ENDBRANCH  13  22
ENDBRANCH  11  13
BRANCH  11  26
ATOM     26  C34 EQM d   1       8.018  26.478   5.576  0.00  0.00     0.241 C 
ATOM     27  N5  EQM d   1       6.789  26.001   5.114  0.00  0.00    -0.356 N 
ATOM     28  H10 EQM d   1       6.483  25.081   5.357  0.00  0.00     0.162 HD
ATOM     29  O6  EQM d   1       8.338  27.626   5.256  0.00  0.00    -0.271 OA
BRANCH  27  30
ATOM     30  C37 EQM d   1       5.941  26.869   4.260  0.00  0.00     0.010 C 
ATOM     31  H52 EQM d   1       6.584  27.550   3.683  0.00  0.00     0.070 H 
ATOM     32  H53 EQM d   1       5.264  27.456   4.898  0.00  0.00     0.070 H 
BRANCH  30  33
ATOM     33  C36 EQM d   1       5.188  26.093   3.381  0.00  0.00    -0.095 C 
ATOM     34  C33 EQM d   1       5.803  25.349   2.379  0.00  0.00    -0.123 C 
ATOM     35  H46 EQM d   1       5.201  24.747   1.700  0.00  0.00     0.066 H 
ATOM     36  H47 EQM d   1       6.887  25.368   2.274  0.00  0.00     0.066 H 
ATOM     37  H51 EQM d   1       4.104  26.069   3.480  0.00  0.00     0.078 H 
ENDBRANCH  30  33
ENDBRANCH  27  30
ENDBRANCH  11  26
ENDBRANCH   8  11
ENDBRANCH   4   7
BRANCH   4  38
ATOM     38  C25 EQM d   1      11.551  23.548   3.368  0.00  0.00    -0.004 C 
ATOM     39  H39 EQM d   1      11.584  22.460   3.527  0.00  0.00     0.045 H 
ATOM     40  H40 EQM d   1      12.254  23.823   2.568  0.00  0.00     0.045 H 
BRANCH  38  41
ATOM     41  C26 EQM d   1      10.263  23.910   2.983  0.00  0.00    -0.055 A 
ATOM     42  C27 EQM d   1      10.047  25.102   2.301  0.00  0.00    -0.077 A 
ATOM     43  C28 EQM d   1       8.757  25.462   1.924  0.00  0.00    -0.082 A 
ATOM     44  H41 EQM d   1      10.883  25.750   2.063  0.00  0.00     0.084 H 
ATOM     45  C29 EQM d   1       7.687  24.623   2.216  0.00  0.00    -0.083 A 
ATOM     46  H42 EQM d   1       8.586  26.397   1.403  0.00  0.00     0.083 H 
ATOM     47  C30 EQM d   1       7.909  23.420   2.877  0.00  0.00    -0.082 A 
ATOM     48  H43 EQM d   1       6.681  24.907   1.929  0.00  0.00     0.083 H 
ATOM     49  C31 EQM d   1       9.203  23.041   3.214  0.00  0.00    -0.077 A 
ATOM     50  H44 EQM d   1       7.073  22.778   3.129  0.00  0.00     0.083 H 
ATOM     51  H45 EQM d   1       9.386  22.069   3.657  0.00  0.00     0.084 H 
ENDBRANCH  38  41
ENDBRANCH   4  38
ENDBRANCH   1   4
BRANCH   1  52
ATOM     52  C8  EQM d   1      13.678  24.127   6.555  0.00  0.00    -0.037 C 
ATOM     53  H16 EQM d   1      13.046  23.784   7.387  0.00  0.00     0.035 H 
ATOM     54  H17 EQM d   1      13.620  25.223   6.478  0.00  0.00     0.035 H 
BRANCH  52  55
ATOM     55  C9  EQM d   1      15.136  23.712   6.820  0.00  0.00     0.105 C 
ATOM     56  H18 EQM d   1      15.730  23.923   5.918  0.00  0.00     0.079 H 
ATOM     57  H19 EQM d   1      15.522  24.307   7.661  0.00  0.00     0.079 H 
BRANCH  55  58
ATOM     58  N2  EQM d   1      15.278  22.282   7.152  0.00  0.00     0.015 N 
ATOM     59  H3  EQM d   1      14.374  21.882   7.351  0.00  0.00     0.309 HD
BRANCH  58  60
ATOM     60  N3  EQM d   1      15.802  21.689   6.198  0.00  0.00    -0.185 N 
ATOM     61  C12 EQM d   1      15.134  20.669   5.616  0.00  0.00     0.265 C 
ATOM     62  O3  EQM d   1      14.002  20.311   5.953  0.00  0.00    -0.269 OA
ATOM     63  H5  EQM d   1      16.705  21.961   5.864  0.00  0.00     0.197 HD
BRANCH  61  64
ATOM     64  C13 EQM d   1      16.027  19.764   4.748  0.00  0.00     0.099 C 
ATOM     65  H22 EQM d   1      16.799  20.405   4.298  0.00  0.00     0.088 H 
BRANCH  64  66
ATOM     66  N4  EQM d   1      16.703  18.756   5.576  0.00  0.00    -0.323 N 
ATOM     67  C18 EQM d   1      18.037  18.781   5.750  0.00  0.00     0.360 C 
ATOM     68  O4  EQM d   1      18.731  19.533   5.051  0.00  0.00    -0.239 OA
ATOM     69  H6  EQM d   1      16.163  18.040   6.018  0.00  0.00     0.165 HD
BRANCH  67  70
ATOM     70  O5  EQM d   1      18.631  17.780   6.469  0.00  0.00    -0.309 OA
BRANCH  70  71
ATOM     71  C19 EQM d   1      19.914  18.204   6.941  0.00  0.00     0.015 C 
ATOM     72  H32 EQM d   1      20.380  17.391   7.517  0.00  0.00     0.067 H 
ATOM     73  H33 EQM d   1      19.794  19.087   7.585  0.00  0.00     0.067 H 
ATOM     74  H34 EQM d   1      20.554  18.460   6.084  0.00  0.00     0.067 H 
ENDBRANCH  70  71
ENDBRANCH  67  70
ENDBRANCH  64  66
BRANCH  64  75
ATOM     75  C14 EQM d   1      15.276  19.082   3.602  0.00  0.00    -0.022 C 
BRANCH  75  76
ATOM     76  C15 EQM d   1      16.299  18.509   2.619  0.00  0.00    -0.067 C 
ATOM     77  H23 EQM d   1      15.773  18.015   1.789  0.00  0.00     0.028 H 
ATOM     78  H24 EQM d   1      16.935  17.777   3.137  0.00  0.00     0.028 H 
ATOM     79  H25 EQM d   1      16.924  19.323   2.224  0.00  0.00     0.028 H 
ENDBRANCH  75  76
BRANCH  75  80
ATOM     80  C16 EQM d   1      14.410  17.939   4.141  0.00  0.00    -0.067 C 
ATOM     81  H26 EQM d   1      13.671  18.342   4.849  0.00  0.00     0.028 H 
ATOM     82  H27 EQM d   1      15.049  17.206   4.655  0.00  0.00     0.028 H 
ATOM     83  H28 EQM d   1      13.888  17.449   3.306  0.00  0.00     0.028 H 
ENDBRANCH  75  80
BRANCH  75  84
ATOM     84  C17 EQM d   1      14.387  20.094   2.878  0.00  0.00    -0.067 C 
ATOM     85  H29 EQM d   1      15.007  20.916   2.490  0.00  0.00     0.028 H 
ATOM     86  H30 EQM d   1      13.643  20.497   3.580  0.00  0.00     0.028 H 
ATOM     87  H31 EQM d   1      13.872  19.598   2.042  0.00  0.00     0.028 H 
ENDBRANCH  75  84
ENDBRANCH  64  75
ENDBRANCH  61  64
ENDBRANCH  58  60
BRANCH  58  88
ATOM     88  C10 EQM d   1      16.158  22.164   8.333  0.00  0.00     0.128 C 
ATOM     89  H20 EQM d   1      15.769  22.816   9.129  0.00  0.00     0.086 H 
ATOM     90  H21 EQM d   1      17.170  22.492   8.053  0.00  0.00     0.086 H 
BRANCH  88  91
ATOM     91  C11 EQM d   1      16.230  20.856   8.820  0.00  0.00    -0.030 A 
ATOM     92  C20 EQM d   1      15.086  20.235   9.306  0.00  0.00    -0.074 A 
ATOM     93  C21 EQM d   1      15.159  18.946   9.824  0.00  0.00    -0.066 A 
ATOM     94  H35 EQM d   1      14.136  20.756   9.281  0.00  0.00     0.084 H 
ATOM     95  C22 EQM d   1      16.388  18.311   9.957  0.00  0.00     0.011 A 
ATOM     96  H36 EQM d   1      14.252  18.434  10.126  0.00  0.00     0.085 H 
ATOM     97 BR   EQM d   1      16.479  16.593  10.775  0.00  0.00    -0.051 Br
ATOM     98  C23 EQM d   1      17.548  18.975   9.573  0.00  0.00    -0.066 A 
ATOM     99  C24 EQM d   1      17.467  20.243   8.997  0.00  0.00    -0.074 A 
ATOM    100  H37 EQM d   1      18.515  18.508   9.721  0.00  0.00     0.085 H 
ATOM    101  H38 EQM d   1      18.372  20.753   8.686  0.00  0.00     0.084 H 
ENDBRANCH  88  91
ENDBRANCH  58  88
ENDBRANCH  55  58
ENDBRANCH  52  55
ENDBRANCH   1  52
TORSDOF 27
