REMARK  20 active torsions:
REMARK  status: ('A' for Active; 'I' for Inactive)
REMARK    1  A    between atoms: C19_1  and  O5_2 
REMARK    2  A    between atoms: O5_2  and  C18_3 
REMARK       I    between atoms: C18_3  and  N4_5 
REMARK    3  A    between atoms: N4_5  and  C13_6 
REMARK    4  A    between atoms: C13_6  and  C14_7 
REMARK    5  A    between atoms: C13_6  and  C12_11 
REMARK    6  A    between atoms: C14_7  and  C16_8 
REMARK    7  A    between atoms: C14_7  and  C17_9 
REMARK    8  A    between atoms: C14_7  and  C15_10 
REMARK       I    between atoms: C12_11  and  N3_13 
REMARK    9  A    between atoms: N3_13  and  N2_14 
REMARK   10  A    between atoms: N2_14  and  C10_15 
REMARK   11  A    between atoms: N2_14  and  C9_23 
REMARK   12  A    between atoms: C10_15  and  C11_16 
REMARK   13  A    between atoms: C9_23  and  C8_24 
REMARK   14  A    between atoms: C8_24  and  C7_25 
REMARK   15  A    between atoms: C7_25  and  C1_26 
REMARK   16  A    between atoms: C1_26  and  O1_28 
REMARK   17  A    between atoms: C3_32  and  C4_33 
REMARK   18  A    between atoms: C4_33  and  C6_34 
REMARK   19  A    between atoms: C4_33  and  C35_35 
REMARK   20  A    between atoms: C4_33  and  C5_36 
ROOT
ATOM      1  C7  M8B d   1      13.434  23.631   5.004  0.00  0.00    -0.026 C 
ATOM      2  H27 M8B d   1      13.272  22.550   5.127  0.00  0.00     0.038 H 
ATOM      3  H28 M8B d   1      14.210  23.802   4.243  0.00  0.00     0.038 H 
ENDROOT
BRANCH   1   4
ATOM      4  C8  M8B d   1      13.880  24.253   6.359  0.00  0.00    -0.037 C 
ATOM      5  H25 M8B d   1      13.861  25.348   6.258  0.00  0.00     0.035 H 
ATOM      6  H26 M8B d   1      13.162  23.944   7.133  0.00  0.00     0.035 H 
BRANCH   4   7
ATOM      7  C9  M8B d   1      15.287  23.837   6.816  0.00  0.00     0.105 C 
ATOM      8  H23 M8B d   1      15.995  24.035   5.998  0.00  0.00     0.079 H 
ATOM      9  H24 M8B d   1      15.564  24.439   7.694  0.00  0.00     0.079 H 
BRANCH   7  10
ATOM     10  N2  M8B d   1      15.371  22.438   7.171  0.00  0.00     0.015 N 
ATOM     11  H16 M8B d   1      14.452  22.085   7.389  0.00  0.00     0.309 HD
BRANCH  10  12
ATOM     12  N3  M8B d   1      15.882  21.745   6.176  0.00  0.00    -0.185 N 
ATOM     13  C12 M8B d   1      15.216  20.662   5.695  0.00  0.00     0.265 C 
ATOM     14  O3  M8B d   1      14.093  20.322   6.093  0.00  0.00    -0.269 OA
ATOM     15  H15 M8B d   1      16.758  22.014   5.775  0.00  0.00     0.197 HD
BRANCH  13  16
ATOM     16  C13 M8B d   1      16.059  19.816   4.681  0.00  0.00     0.099 C 
ATOM     17  H5  M8B d   1      16.781  20.500   4.211  0.00  0.00     0.088 H 
BRANCH  16  18
ATOM     18  N4  M8B d   1      16.807  18.823   5.492  0.00  0.00    -0.323 N 
ATOM     19  C18 M8B d   1      18.105  18.817   5.703  0.00  0.00     0.360 C 
ATOM     20  O4  M8B d   1      18.846  19.593   5.053  0.00  0.00    -0.239 OA
ATOM     21  H4  M8B d   1      16.275  18.091   5.917  0.00  0.00     0.165 HD
BRANCH  19  22
ATOM     22  O5  M8B d   1      18.596  17.903   6.606  0.00  0.00    -0.309 OA
BRANCH  22  23
ATOM     23  C19 M8B d   1      20.007  18.079   6.837  0.00  0.00     0.015 C 
ATOM     24  H1  M8B d   1      20.356  17.330   7.563  0.00  0.00     0.067 H 
ATOM     25  H2  M8B d   1      20.190  19.088   7.235  0.00  0.00     0.067 H 
ATOM     26  H3  M8B d   1      20.552  17.954   5.890  0.00  0.00     0.067 H 
ENDBRANCH  22  23
ENDBRANCH  19  22
ENDBRANCH  16  18
BRANCH  16  27
ATOM     27  C14 M8B d   1      15.313  19.124   3.533  0.00  0.00    -0.022 C 
BRANCH  27  28
ATOM     28  C16 M8B d   1      16.407  18.620   2.637  0.00  0.00    -0.067 C 
ATOM     29  H6  M8B d   1      15.964  18.102   1.774  0.00  0.00     0.028 H 
ATOM     30  H7  M8B d   1      17.046  17.921   3.196  0.00  0.00     0.028 H 
ATOM     31  H8  M8B d   1      17.012  19.468   2.285  0.00  0.00     0.028 H 
ENDBRANCH  27  28
BRANCH  27  32
ATOM     32  C17 M8B d   1      14.387  17.941   4.016  0.00  0.00    -0.067 C 
ATOM     33  H9  M8B d   1      13.596  18.338   4.669  0.00  0.00     0.028 H 
ATOM     34  H10 M8B d   1      14.989  17.208   4.573  0.00  0.00     0.028 H 
ATOM     35  H11 M8B d   1      13.930  17.453   3.143  0.00  0.00     0.028 H 
ENDBRANCH  27  32
BRANCH  27  36
ATOM     36  C15 M8B d   1      14.483  20.172   2.694  0.00  0.00    -0.067 C 
ATOM     37  H12 M8B d   1      15.145  20.987   2.367  0.00  0.00     0.028 H 
ATOM     38  H13 M8B d   1      13.675  20.583   3.317  0.00  0.00     0.028 H 
ATOM     39  H14 M8B d   1      14.050  19.676   1.813  0.00  0.00     0.028 H 
ENDBRANCH  27  36
ENDBRANCH  16  27
ENDBRANCH  13  16
ENDBRANCH  10  12
BRANCH  10  40
ATOM     40  C10 M8B d   1      16.253  22.325   8.360  0.00  0.00     0.128 C 
ATOM     41  H17 M8B d   1      15.866  22.994   9.143  0.00  0.00     0.086 H 
ATOM     42  H18 M8B d   1      17.265  22.645   8.072  0.00  0.00     0.086 H 
BRANCH  40  43
ATOM     43  C11 M8B d   1      16.336  21.010   8.896  0.00  0.00    -0.030 A 
ATOM     44  C20 M8B d   1      15.173  20.321   9.272  0.00  0.00    -0.074 A 
ATOM     45  C21 M8B d   1      15.316  19.000   9.755  0.00  0.00    -0.066 A 
ATOM     46  H19 M8B d   1      14.197  20.786   9.195  0.00  0.00     0.084 H 
ATOM     47  C22 M8B d   1      16.538  18.406   9.913  0.00  0.00     0.011 A 
ATOM     48  H20 M8B d   1      14.425  18.438  10.009  0.00  0.00     0.085 H 
ATOM     49 BR1  M8B d   1      16.614  16.514  10.707  0.00  0.00    -0.051 Br
ATOM     50  C23 M8B d   1      17.676  19.113   9.559  0.00  0.00    -0.066 A 
ATOM     51  C24 M8B d   1      17.565  20.395   9.001  0.00  0.00    -0.074 A 
ATOM     52  H21 M8B d   1      18.655  18.674   9.714  0.00  0.00     0.085 H 
ATOM     53  H22 M8B d   1      18.454  20.907   8.649  0.00  0.00     0.084 H 
ENDBRANCH  40  43
ENDBRANCH  10  40
ENDBRANCH   7  10
ENDBRANCH   4   7
ENDBRANCH   1   4
BRANCH   1  54
ATOM     54  C1  M8B d   1      12.126  24.305   4.571  0.00  0.00     0.142 C 
ATOM     55  C25 M8B d   1      11.665  23.625   3.194  0.00  0.00    -0.004 C 
ATOM     56  C26 M8B d   1      10.342  24.117   2.798  0.00  0.00    -0.055 A 
ATOM     57  H29 M8B d   1      11.621  22.534   3.326  0.00  0.00     0.045 H 
ATOM     58  H30 M8B d   1      12.393  23.870   2.407  0.00  0.00     0.045 H 
ATOM     59  C27 M8B d   1      10.230  25.371   2.164  0.00  0.00    -0.076 A 
ATOM     60  C31 M8B d   1       9.183  23.350   3.020  0.00  0.00    -0.076 A 
ATOM     61  C28 M8B d   1       8.924  25.822   1.821  0.00  0.00    -0.076 A 
ATOM     62  H51 M8B d   1      11.107  25.970   1.946  0.00  0.00     0.084 H 
ATOM     63  C29 M8B d   1       7.764  25.053   2.056  0.00  0.00    -0.055 A 
ATOM     64  H50 M8B d   1       8.816  26.797   1.360  0.00  0.00     0.084 H 
ATOM     65  C32 M8B d   1       6.463  25.568   1.657  0.00  0.00    -0.026 C 
ATOM     66  C30 M8B d   1       7.929  23.796   2.662  0.00  0.00    -0.076 A 
ATOM     67  C33 M8B d   1       5.358  25.399   2.506  0.00  0.00    -0.101 C 
ATOM     68  H48 M8B d   1       6.583  26.650   1.501  0.00  0.00     0.045 H 
ATOM     69  H49 M8B d   1       6.208  25.085   0.702  0.00  0.00     0.045 H 
ATOM     70  C36 M8B d   1       5.138  26.013   3.744  0.00  0.00    -0.089 C 
ATOM     71  H47 M8B d   1       4.585  24.713   2.163  0.00  0.00     0.076 H 
ATOM     72  C37 M8B d   1       6.018  26.937   4.386  0.00  0.00     0.010 C 
ATOM     73  H46 M8B d   1       4.214  25.764   4.264  0.00  0.00     0.078 H 
ATOM     74  N5  M8B d   1       6.893  26.137   5.284  0.00  0.00    -0.356 N 
ATOM     75  H44 M8B d   1       6.625  27.466   3.637  0.00  0.00     0.070 H 
ATOM     76  H45 M8B d   1       5.440  27.667   4.971  0.00  0.00     0.070 H 
ATOM     77  C34 M8B d   1       8.181  26.495   5.681  0.00  0.00     0.241 C 
ATOM     78  H43 M8B d   1       6.528  25.273   5.631  0.00  0.00     0.162 HD
ATOM     79  C3  M8B d   1       9.049  25.641   6.511  0.00  0.00     0.095 C 
ATOM     80  O6  M8B d   1       8.538  27.595   5.244  0.00  0.00    -0.271 OA
ATOM     81  N1  M8B d   1      10.350  25.523   5.762  0.00  0.00    -0.344 N 
ATOM     82  H33 M8B d   1       8.594  24.642   6.578  0.00  0.00     0.088 H 
ATOM     83  C2  M8B d   1      11.047  24.330   5.532  0.00  0.00     0.253 C 
ATOM     84  H32 M8B d   1      10.749  26.365   5.399  0.00  0.00     0.163 HD
ATOM     85  O2  M8B d   1      10.507  23.324   6.004  0.00  0.00    -0.270 OA
ATOM     86  H53 M8B d   1       7.063  23.172   2.849  0.00  0.00     0.084 H 
ATOM     87  H52 M8B d   1       9.280  22.377   3.488  0.00  0.00     0.084 H 
BRANCH  79  88
ATOM     88  C4  M8B d   1       9.209  26.148   7.922  0.00  0.00    -0.022 C 
BRANCH  88  89
ATOM     89  C6  M8B d   1       9.982  27.497   7.970  0.00  0.00    -0.067 C 
ATOM     90  H34 M8B d   1      10.075  27.829   9.014  0.00  0.00     0.028 H 
ATOM     91  H35 M8B d   1       9.433  28.255   7.392  0.00  0.00     0.028 H 
ATOM     92  H36 M8B d   1      10.984  27.361   7.537  0.00  0.00     0.028 H 
ENDBRANCH  88  89
BRANCH  88  93
ATOM     93  C35 M8B d   1       7.757  26.449   8.484  0.00  0.00    -0.067 C 
ATOM     94  H37 M8B d   1       7.161  25.525   8.474  0.00  0.00     0.028 H 
ATOM     95  H38 M8B d   1       7.269  27.207   7.853  0.00  0.00     0.028 H 
ATOM     96  H39 M8B d   1       7.833  26.824   9.515  0.00  0.00     0.028 H 
ENDBRANCH  88  93
BRANCH  88  97
ATOM     97  C5  M8B d   1       9.896  25.130   8.777  0.00  0.00    -0.067 C 
ATOM     98  H40 M8B d   1      10.901  24.932   8.375  0.00  0.00     0.028 H 
ATOM     99  H41 M8B d   1       9.312  24.198   8.779  0.00  0.00     0.028 H 
ATOM    100  H42 M8B d   1       9.981  25.512   9.805  0.00  0.00     0.028 H 
ENDBRANCH  88  97
ENDBRANCH  79  88
BRANCH  54 101
ATOM    101  O1  M8B d   1      12.436  25.691   4.393  0.00  0.00    -0.380 OA
ATOM    102  H31 M8B d   1      13.142  25.778   3.763  0.00  0.00     0.211 HD
ENDBRANCH  54 101
ENDBRANCH   1  54
TORSDOF 20
