REMARK  11 active torsions:
REMARK  status: ('A' for Active; 'I' for Inactive)
REMARK    1  A    between atoms: O4_1  and  C4_2 
REMARK    2  A    between atoms: C1_17  and  O4_1 
REMARK    3  A    between atoms: C3_3  and  O3_4 
REMARK    4  A    between atoms: C2_5  and  O2_10 
REMARK    5  A    between atoms: C5_8  and  C6_9 
REMARK    6  A    between atoms: C6_9  and  O6_11 
REMARK    7  A    between atoms: C2_12  and  O2_18 
REMARK    8  A    between atoms: C3_13  and  O3_19 
REMARK    9  A    between atoms: C4_14  and  O4_20 
REMARK   10  A    between atoms: C5_15  and  C6_16 
REMARK   11  A    between atoms: C6_16  and  O6_22 
ROOT
ATOM      1  C4  NOY d   1      14.964  25.156  13.736  0.00  0.00     0.077 C 
ATOM      2  C3  NOY d   1      15.435  26.353  14.589  0.00  0.00     0.110 C 
ATOM      3  C2  NOY d   1      15.009  26.122  16.057  0.00  0.00     0.217 C 
ATOM      4  N   NOY d   1      13.551  25.931  16.187  0.00  0.00    -0.046 N 
ATOM      5  C7  NOY d   1      12.992  24.885  15.297  0.00  0.00     0.092 C 
ATOM      6  C5  NOY d   1      13.430  25.150  13.851  0.00  0.00     0.017 C 
ATOM      7  H1  NOY d   1      15.392  24.216  14.116  0.00  0.00     0.088 H 
ATOM      8  H2  NOY d   1      14.964  27.271  14.209  0.00  0.00     0.093 H 
ATOM      9  H4  NOY d   1      15.502  25.203  16.407  0.00  0.00     0.133 H 
ATOM     10  H5  NOY d   1      13.097  26.805  15.971  0.00  0.00     0.280 HD
ATOM     11  H6  NOY d   1      13.350  25.675  17.141  0.00  0.00     0.280 HD
ATOM     12  H7  NOY d   1      11.894  24.903  15.356  0.00  0.00     0.076 H 
ATOM     13  H8  NOY d   1      13.360  23.899  15.616  0.00  0.00     0.076 H 
ATOM     14  H9  NOY d   1      13.078  26.157  13.582  0.00  0.00     0.049 H 
ENDROOT
BRANCH   1  15
ATOM     15  O4  NOY d   1      15.331  25.340  12.355  0.00  0.00    -0.350 OA
BRANCH  15  16
ATOM     16  C1  BGC d   1      16.596  24.856  11.929  0.00  0.00     0.159 C 
ATOM     17  C2  BGC d   1      16.459  24.286  10.514  0.00  0.00     0.110 C 
ATOM     18  C3  BGC d   1      17.851  23.981   9.975  0.00  0.00     0.092 C 
ATOM     19  H14 NOY d   1      15.947  24.994   9.845  0.00  0.00     0.094 H 
ATOM     20  C4  BGC d   1      18.693  25.259  10.091  0.00  0.00     0.090 C 
ATOM     21  H15 NOY d   1      18.315  23.163  10.545  0.00  0.00     0.091 H 
ATOM     22  C5  BGC d   1      18.809  25.743  11.545  0.00  0.00     0.089 C 
ATOM     23  H16 NOY d   1      18.171  26.049   9.532  0.00  0.00     0.091 H 
ATOM     24  O5  BGC d   1      17.465  25.955  11.988  0.00  0.00    -0.348 OA
ATOM     25  H17 NOY d   1      19.313  24.988  12.166  0.00  0.00     0.090 H 
ATOM     26  H20 NOY d   1      16.953  24.064  12.604  0.00  0.00     0.133 H 
BRANCH  17  27
ATOM     27  O2  BGC d   1      15.691  23.115  10.681  0.00  0.00    -0.388 OA
ATOM     28  H21 NOY d   1      16.148  22.518  11.262  0.00  0.00     0.210 HD
ENDBRANCH  17  27
BRANCH  18  29
ATOM     29  O3  BGC d   1      17.734  23.617   8.576  0.00  0.00    -0.390 OA
ATOM     30  H22 NOY d   1      17.312  24.323   8.100  0.00  0.00     0.210 HD
ENDBRANCH  18  29
BRANCH  20  31
ATOM     31  O4  BGC d   1      19.958  25.069   9.471  0.00  0.00    -0.390 OA
ATOM     32  H23 NOY d   1      19.830  24.771   8.578  0.00  0.00     0.210 HD
ENDBRANCH  20  31
BRANCH  22  33
ATOM     33  C6  BGC d   1      19.573  27.066  11.611  0.00  0.00     0.043 C 
ATOM     34  H18 NOY d   1      19.035  27.831  11.031  0.00  0.00     0.078 H 
ATOM     35  H19 NOY d   1      20.581  26.930  11.192  0.00  0.00     0.078 H 
BRANCH  33  36
ATOM     36  O6  BGC d   1      19.674  27.482  12.972  0.00  0.00    -0.398 OA
ATOM     37  H24 NOY d   1      20.148  28.304  13.016  0.00  0.00     0.209 HD
ENDBRANCH  33  36
ENDBRANCH  22  33
ENDBRANCH  15  16
ENDBRANCH   1  15
BRANCH   2  38
ATOM     38  O3  NOY d   1      16.854  26.504  14.544  0.00  0.00    -0.389 OA
ATOM     39  H3  NOY d   1      17.128  26.649  13.646  0.00  0.00     0.210 HD
ENDBRANCH   2  38
BRANCH   6  40
ATOM     40  C6  NOY d   1      12.783  24.170  12.866  0.00  0.00     0.024 C 
ATOM     41  H10 NOY d   1      13.183  24.353  11.858  0.00  0.00     0.074 H 
ATOM     42  H11 NOY d   1      11.694  24.326  12.863  0.00  0.00     0.074 H 
BRANCH  40  43
ATOM     43  O6  NOY d   1      13.064  22.816  13.246  0.00  0.00    -0.400 OA
ATOM     44  H13 NOY d   1      12.656  22.223  12.626  0.00  0.00     0.209 HD
ENDBRANCH  40  43
ENDBRANCH   6  40
BRANCH   3  45
ATOM     45  O2  NOY d   1      15.436  27.198  16.891  0.00  0.00    -0.368 OA
ATOM     46  H12 NOY d   1      14.991  27.996  16.630  0.00  0.00     0.212 HD
ENDBRANCH   3  45
TORSDOF 11
