REMARK  9 active torsions:
REMARK  status: ('A' for Active; 'I' for Inactive)
REMARK    1  A    between atoms: C1_1  and  O2_21 
REMARK    2  A    between atoms: C4_4  and  C18_18 
REMARK    3  A    between atoms: C12_12  and  C20_22 
REMARK    4  A    between atoms: C13_13  and  O1_20 
REMARK    5  A    between atoms: C17_17  and  C19_19 
REMARK    6  A    between atoms: C19_19  and  C21_23 
REMARK    7  A    between atoms: C19_19  and  C24_28 
REMARK    8  A    between atoms: C21_23  and  C22_24 
REMARK    9  A    between atoms: C22_24  and  C23_25 
ROOT
ATOM      1  C1  DXC d   1      -0.789  22.723  14.881  0.00  0.00     0.036 C 
ATOM      2  C2  DXC d   1      -1.018  21.276  14.439  0.00  0.00    -0.037 C 
ATOM      3  C3  DXC d   1      -0.046  20.353  15.177  0.00  0.00    -0.044 C 
ATOM      4  C4  DXC d   1       1.414  20.731  14.912  0.00  0.00    -0.036 C 
ATOM      5  C5  DXC d   1       1.631  22.196  15.296  0.00  0.00    -0.055 C 
ATOM      6  C6  DXC d   1       0.654  23.117  14.562  0.00  0.00    -0.040 C 
ATOM      7  C7  DXC d   1      -0.328  18.908  14.761  0.00  0.00    -0.060 C 
ATOM      8  C8  DXC d   1      -0.004  18.719  13.277  0.00  0.00    -0.061 C 
ATOM      9  C9  DXC d   1       1.459  19.078  13.014  0.00  0.00    -0.046 C 
ATOM     10  C10 DXC d   1       1.760  20.518  13.435  0.00  0.00    -0.041 C 
ATOM     11  C11 DXC d   1       1.785  18.930  11.527  0.00  0.00    -0.041 C 
ATOM     12  C12 DXC d   1       3.276  19.163  11.294  0.00  0.00    -0.010 C 
ATOM     13  C13 DXC d   1       3.610  20.603  11.697  0.00  0.00     0.043 C 
ATOM     14  C14 DXC d   1       3.232  20.851  13.161  0.00  0.00    -0.036 C 
ATOM     15  C15 DXC d   1       1.630  17.517  10.968  0.00  0.00    -0.060 C 
ATOM     16  C16 DXC d   1       2.398  17.628   9.647  0.00  0.00    -0.060 C 
ATOM     17  C17 DXC d   1       3.278  18.876   9.791  0.00  0.00    -0.041 C 
ATOM     18  H1  DXC d   1      -0.968  22.815  15.963  0.00  0.00     0.082 H 
ATOM     19  H2  DXC d   1      -0.850  21.193  13.355  0.00  0.00     0.037 H 
ATOM     20  H3  DXC d   1      -2.052  20.981  14.673  0.00  0.00     0.037 H 
ATOM     21  H4  DXC d   1      -0.229  20.448  16.257  0.00  0.00     0.041 H 
ATOM     22  H5  DXC d   1       2.660  22.485  15.036  0.00  0.00     0.034 H 
ATOM     23  H6  DXC d   1       1.482  22.308  16.380  0.00  0.00     0.034 H 
ATOM     24  H7  DXC d   1       0.826  24.156  14.881  0.00  0.00     0.036 H 
ATOM     25  H8  DXC d   1       0.822  23.034  13.478  0.00  0.00     0.036 H 
ATOM     26  H9  DXC d   1      -1.390  18.680  14.934  0.00  0.00     0.033 H 
ATOM     27  H10 DXC d   1       0.296  18.228  15.360  0.00  0.00     0.033 H 
ATOM     28  H11 DXC d   1      -0.654  19.372  12.676  0.00  0.00     0.033 H 
ATOM     29  H12 DXC d   1      -0.178  17.670  12.996  0.00  0.00     0.033 H 
ATOM     30  H13 DXC d   1       2.098  18.395  13.593  0.00  0.00     0.041 H 
ATOM     31  H14 DXC d   1       1.135  21.194  12.834  0.00  0.00     0.042 H 
ATOM     32  H15 DXC d   1       1.169  19.641  10.957  0.00  0.00     0.042 H 
ATOM     33  H16 DXC d   1       4.691  20.765  11.576  0.00  0.00     0.084 H 
ATOM     34  H17 DXC d   1       3.865  20.221  13.803  0.00  0.00     0.037 H 
ATOM     35  H18 DXC d   1       3.407  21.910  13.399  0.00  0.00     0.037 H 
ATOM     36  H19 DXC d   1       0.573  17.265  10.799  0.00  0.00     0.033 H 
ATOM     37  H20 DXC d   1       2.083  16.769  11.635  0.00  0.00     0.033 H 
ATOM     38  H21 DXC d   1       1.700  17.744   8.805  0.00  0.00     0.033 H 
ATOM     39  H22 DXC d   1       3.020  16.735   9.487  0.00  0.00     0.033 H 
ATOM     40  H23 DXC d   1       2.805  19.723   9.273  0.00  0.00     0.042 H 
ENDROOT
BRANCH  17  41
ATOM     41  C19 DXC d   1       4.651  18.659   9.145  0.00  0.00    -0.053 C 
ATOM     42  H27 DXC d   1       5.178  17.858   9.684  0.00  0.00     0.040 H 
BRANCH  41  43
ATOM     43  C21 DXC d   1       4.438  18.225   7.694  0.00  0.00    -0.053 C 
ATOM     44  H33 DXC d   1       4.083  19.095   7.121  0.00  0.00     0.034 H 
ATOM     45  H34 DXC d   1       3.671  17.437   7.678  0.00  0.00     0.034 H 
BRANCH  43  46
ATOM     46  C22 DXC d   1       5.700  17.683   7.014  0.00  0.00     0.016 C 
ATOM     47  H35 DXC d   1       5.396  17.047   6.169  0.00  0.00     0.049 H 
ATOM     48  H36 DXC d   1       6.259  17.080   7.745  0.00  0.00     0.049 H 
BRANCH  46  49
ATOM     49  C23 DXC d   1       6.623  18.785   6.486  0.00  0.00     0.172 C 
ATOM     50  O3  DXC d   1       7.748  18.886   7.008  0.00  0.00    -0.648 OA
ATOM     51  O4  DXC d   1       6.186  19.480   5.537  0.00  0.00    -0.648 OA
ENDBRANCH  46  49
ENDBRANCH  43  46
ENDBRANCH  41  43
BRANCH  41  52
ATOM     52  C24 DXC d   1       5.499  19.932   9.219  0.00  0.00    -0.072 C 
ATOM     53  H37 DXC d   1       5.636  20.221  10.272  0.00  0.00     0.028 H 
ATOM     54  H38 DXC d   1       4.989  20.744   8.680  0.00  0.00     0.028 H 
ATOM     55  H39 DXC d   1       6.481  19.746   8.759  0.00  0.00     0.028 H 
ENDBRANCH  41  52
ENDBRANCH  17  41
BRANCH  12  56
ATOM     56  C20 DXC d   1       4.109  18.150  12.081  0.00  0.00    -0.066 C 
ATOM     57  H30 DXC d   1       4.075  18.400  13.152  0.00  0.00     0.028 H 
ATOM     58  H31 DXC d   1       5.151  18.181  11.730  0.00  0.00     0.028 H 
ATOM     59  H32 DXC d   1       3.700  17.140  11.927  0.00  0.00     0.028 H 
ENDBRANCH  12  56
BRANCH  13  60
ATOM     60  O1  DXC d   1       2.906  21.517  10.855  0.00  0.00    -0.395 OA
ATOM     61  H28 DXC d   1       3.144  21.359   9.949  0.00  0.00     0.210 HD
ENDBRANCH  13  60
BRANCH   4  62
ATOM     62  C18 DXC d   1       2.322  19.851  15.775  0.00  0.00    -0.068 C 
ATOM     63  H24 DXC d   1       2.077  20.001  16.837  0.00  0.00     0.028 H 
ATOM     64  H25 DXC d   1       3.373  20.125  15.599  0.00  0.00     0.028 H 
ATOM     65  H26 DXC d   1       2.169  18.795  15.509  0.00  0.00     0.028 H 
ENDBRANCH   4  62
BRANCH   1  66
ATOM     66  O2  DXC d   1      -1.690  23.577  14.170  0.00  0.00    -0.396 OA
ATOM     67  H29 DXC d   1      -2.585  23.329  14.371  0.00  0.00     0.210 HD
ENDBRANCH   1  66
TORSDOF 9
