REMARK  15 active torsions:
REMARK  status: ('A' for Active; 'I' for Inactive)
REMARK    1  A    between atoms: C21_21  and  C11_11 
REMARK    2  A    between atoms: C12_12  and  C22_22 
REMARK    3  A    between atoms: C31_31  and  C13_13 
REMARK    4  A    between atoms: C14_14  and  C26_26 
REMARK    5  A    between atoms: C27_27  and  C15_15 
REMARK    6  A    between atoms: C18_18  and  O39_39 
REMARK    7  A    between atoms: C28_28  and  C20_20 
REMARK       I    between atoms: N32_32  and  C21_21 
REMARK    8  A    between atoms: C29_29  and  C24_24 
REMARK    9  A    between atoms: O39_39  and  C25_25 
REMARK   10  A    between atoms: C26_26  and  N33_33 
REMARK   11  A    between atoms: N33_33  and  C27_27 
REMARK   12  A    between atoms: N33_33  and  C28_28 
REMARK   13  A    between atoms: C30_30  and  C29_29 
REMARK   14  A    between atoms: C31_31  and  C30_30 
REMARK   15  A    between atoms: C31_31  and  N32_32 
ROOT
ATOM      1  C1  O4N d   1     -11.675  35.231   7.014  0.00  0.00    -0.082 A 
ATOM      2  C2  O4N d   1     -12.785  34.842   6.294  0.00  0.00    -0.082 A 
ATOM      3  C3  O4N d   1     -10.621  35.902   6.341  0.00  0.00    -0.067 A 
ATOM      4  C4  O4N d   1     -12.865  35.084   4.942  0.00  0.00    -0.074 A 
ATOM      5  C11 O4N d   1     -10.727  36.149   4.980  0.00  0.00     0.040 A 
ATOM      6  C14 O4N d   1     -11.862  35.732   4.262  0.00  0.00    -0.017 A 
ATOM      7  H1  O4N d   1     -11.609  35.028   8.077  0.00  0.00     0.083 H 
ATOM      8  H2  O4N d   1     -13.603  34.340   6.798  0.00  0.00     0.083 H 
ATOM      9  H3  O4N d   1      -9.739  36.219   6.886  0.00  0.00     0.085 H 
ATOM     10  H4  O4N d   1     -13.743  34.755   4.398  0.00  0.00     0.084 H 
ENDROOT
BRANCH   6  11
ATOM     11  C26 O4N d   1     -12.027  35.940   2.736  0.00  0.00     0.109 C 
ATOM     12  H22 O4N d   1     -11.377  36.778   2.442  0.00  0.00     0.083 H 
ATOM     13  H23 O4N d   1     -13.077  36.207   2.548  0.00  0.00     0.083 H 
BRANCH  11  14
ATOM     14  N33 O4N d   1     -11.681  34.740   1.827  0.00  0.00    -0.060 N 
ATOM     15  H34 O4N d   1     -12.137  33.955   2.265  0.00  0.00     0.281 HD
BRANCH  14  16
ATOM     16  C27 O4N d   1     -10.166  34.272   1.729  0.00  0.00     0.109 C 
ATOM     17  H24 O4N d   1      -9.543  35.107   1.376  0.00  0.00     0.083 H 
ATOM     18  H25 O4N d   1      -9.815  33.946   2.719  0.00  0.00     0.083 H 
BRANCH  16  19
ATOM     19  C15 O4N d   1     -10.074  33.107   0.741  0.00  0.00    -0.013 A 
ATOM     20  C5  O4N d   1      -9.413  33.364  -0.480  0.00  0.00    -0.071 A 
ATOM     21  C8  O4N d   1      -9.325  32.381  -1.440  0.00  0.00    -0.047 A 
ATOM     22  H5  O4N d   1      -8.974  34.338  -0.662  0.00  0.00     0.084 H 
ATOM     23  C16 O4N d   1      -9.879  31.152  -1.197  0.00  0.00     0.106 A 
ATOM     24  H8  O4N d   1      -8.822  32.578  -2.380  0.00  0.00     0.087 H 
ATOM     25  C17 O4N d   1     -10.486  30.866   0.021  0.00  0.00     0.122 A 
ATOM     26  O37 O4N d   1      -9.926  30.062  -2.003  0.00  0.00    -0.323 OA
ATOM     27  C12 O4N d   1     -10.608  31.833   0.995  0.00  0.00     0.085 A 
ATOM     28  O38 O4N d   1     -11.008  29.557   0.076  0.00  0.00    -0.322 OA
ATOM     29  C23 O4N d   1     -10.476  29.041  -1.177  0.00  0.00     0.115 C 
ATOM     30  H14 O4N d   1      -9.687  28.309  -0.949  0.00  0.00     0.118 H 
ATOM     31  H15 O4N d   1     -11.289  28.544  -1.726  0.00  0.00     0.118 H 
BRANCH  27  32
ATOM     32  C22 O4N d   1     -11.272  31.480   2.330  0.00  0.00     0.212 C 
ATOM     33  O34 O4N d   1     -11.062  30.289   2.738  0.00  0.00    -0.644 OA
ATOM     34  O36 O4N d   1     -11.804  32.404   3.000  0.00  0.00    -0.644 OA
ENDBRANCH  27  32
ENDBRANCH  16  19
ENDBRANCH  14  16
BRANCH  14  35
ATOM     35  C28 O4N d   1     -12.392  34.915   0.480  0.00  0.00     0.099 C 
ATOM     36  H26 O4N d   1     -12.269  33.985  -0.095  0.00  0.00     0.082 H 
ATOM     37  H27 O4N d   1     -13.461  35.085   0.677  0.00  0.00     0.082 H 
BRANCH  35  38
ATOM     38  C20 O4N d   1     -11.886  36.050  -0.356  0.00  0.00    -0.087 C 
ATOM     39  C19 O4N d   1     -12.473  37.243  -0.513  0.00  0.00    -0.123 C 
ATOM     40  H11 O4N d   1     -12.012  37.997  -1.149  0.00  0.00     0.066 H 
ATOM     41  H12 O4N d   1     -13.412  37.459  -0.005  0.00  0.00     0.066 H 
ATOM     42  H13 O4N d   1     -10.950  35.889  -0.888  0.00  0.00     0.078 H 
ENDBRANCH  35  38
ENDBRANCH  14  35
ENDBRANCH  11  14
ENDBRANCH   6  11
BRANCH   5  43
ATOM     43  C21 O4N d   1      -9.620  36.840   4.324  0.00  0.00     0.252 C 
ATOM     44  N32 O4N d   1      -8.384  36.397   4.627  0.00  0.00    -0.348 N 
ATOM     45  H33 O4N d   1      -8.274  35.746   5.378  0.00  0.00     0.163 HD
ATOM     46  O35 O4N d   1      -9.801  37.753   3.509  0.00  0.00    -0.268 OA
BRANCH  44  47
ATOM     47  C31 O4N d   1      -7.206  36.834   3.898  0.00  0.00     0.038 C 
ATOM     48  H32 O4N d   1      -7.368  37.857   3.527  0.00  0.00     0.080 H 
BRANCH  47  49
ATOM     49  C13 O4N d   1      -6.882  35.937   2.703  0.00  0.00    -0.035 A 
ATOM     50  C6  O4N d   1      -6.770  36.539   1.471  0.00  0.00    -0.072 A 
ATOM     51  C9  O4N d   1      -6.437  35.743   0.369  0.00  0.00    -0.050 A 
ATOM     52  H6  O4N d   1      -6.936  37.604   1.357  0.00  0.00     0.084 H 
ATOM     53  C18 O4N d   1      -6.251  34.371   0.504  0.00  0.00     0.068 A 
ATOM     54  H9  O4N d   1      -6.322  36.203  -0.606  0.00  0.00     0.087 H 
ATOM     55  C10 O4N d   1      -6.372  33.772   1.724  0.00  0.00    -0.050 A 
ATOM     56  C7  O4N d   1      -6.679  34.559   2.812  0.00  0.00    -0.072 A 
ATOM     57  H10 O4N d   1      -6.230  32.703   1.834  0.00  0.00     0.087 H 
ATOM     58  H7  O4N d   1      -6.766  34.093   3.787  0.00  0.00     0.084 H 
BRANCH  53  59
ATOM     59  O39 O4N d   1      -5.989  33.708  -0.666  0.00  0.00    -0.356 OA
BRANCH  59  60
ATOM     60  C25 O4N d   1      -5.675  32.302  -0.529  0.00  0.00     0.010 C 
ATOM     61  H19 O4N d   1      -5.483  31.871  -1.523  0.00  0.00     0.066 H 
ATOM     62  H20 O4N d   1      -6.523  31.781  -0.061  0.00  0.00     0.066 H 
ATOM     63  H21 O4N d   1      -4.780  32.186   0.100  0.00  0.00     0.066 H 
ENDBRANCH  59  60
ENDBRANCH  53  59
ENDBRANCH  47  49
BRANCH  47  64
ATOM     64  C30 O4N d   1      -6.088  36.830   4.889  0.00  0.00    -0.043 C 
ATOM     65  H30 O4N d   1      -5.974  35.815   5.296  0.00  0.00     0.036 H 
ATOM     66  H31 O4N d   1      -5.159  37.128   4.382  0.00  0.00     0.036 H 
BRANCH  64  67
ATOM     67  C29 O4N d   1      -6.360  37.795   6.033  0.00  0.00    -0.066 C 
ATOM     68  H28 O4N d   1      -6.598  38.798   5.648  0.00  0.00     0.032 H 
ATOM     69  H29 O4N d   1      -7.191  37.435   6.657  0.00  0.00     0.032 H 
BRANCH  67  70
ATOM     70  C24 O4N d   1      -5.040  37.817   6.840  0.00  0.00    -0.076 C 
ATOM     71  H16 O4N d   1      -5.146  38.498   7.698  0.00  0.00     0.027 H 
ATOM     72  H17 O4N d   1      -4.221  38.166   6.194  0.00  0.00     0.027 H 
ATOM     73  H18 O4N d   1      -4.815  36.803   7.202  0.00  0.00     0.027 H 
ENDBRANCH  67  70
ENDBRANCH  64  67
ENDBRANCH  47  64
ENDBRANCH  44  47
ENDBRANCH   5  43
TORSDOF 15
