REMARK  9 active torsions:
REMARK  status: ('A' for Active; 'I' for Inactive)
REMARK    1  A    between atoms: C13_13  and  C7_7 
REMARK    2  A    between atoms: C8_8  and  C14_14 
REMARK    3  A    between atoms: C9_9  and  C23_23 
REMARK    4  A    between atoms: C24_24  and  C10_10 
REMARK       I    between atoms: N26_26  and  C13_13 
REMARK    5  A    between atoms: C25_25  and  C21_21 
REMARK    6  A    between atoms: N27_27  and  C22_22 
REMARK    7  A    between atoms: C23_23  and  N27_27 
REMARK    8  A    between atoms: N27_27  and  C24_24 
REMARK    9  A    between atoms: C25_25  and  N26_26 
ROOT
ATOM      1  C1  OM3 d   1     -10.762  47.974   5.996  0.00  0.00    -0.082 A 
ATOM      2  C2  OM3 d   1     -11.604  48.867   5.390  0.00  0.00    -0.082 A 
ATOM      3  C3  OM3 d   1      -9.812  47.336   5.218  0.00  0.00    -0.067 A 
ATOM      4  C4  OM3 d   1     -11.494  49.092   4.032  0.00  0.00    -0.074 A 
ATOM      5  C7  OM3 d   1      -9.687  47.565   3.857  0.00  0.00     0.040 A 
ATOM      6  C9  OM3 d   1     -10.551  48.465   3.252  0.00  0.00    -0.017 A 
ATOM      7  H1  OM3 d   1     -10.838  47.772   7.058  0.00  0.00     0.083 H 
ATOM      8  H2  OM3 d   1     -12.352  49.394   5.972  0.00  0.00     0.083 H 
ATOM      9  H3  OM3 d   1      -9.140  46.630   5.691  0.00  0.00     0.085 H 
ATOM     10  H4  OM3 d   1     -12.178  49.790   3.563  0.00  0.00     0.084 H 
ENDROOT
BRANCH   6  11
ATOM     11  C23 OM3 d   1     -10.515  48.804   1.795  0.00  0.00     0.108 C 
ATOM     12  H23 OM3 d   1      -9.493  48.616   1.434  0.00  0.00     0.083 H 
ATOM     13  H24 OM3 d   1     -10.748  49.874   1.696  0.00  0.00     0.083 H 
BRANCH  11  14
ATOM     14  N27 OM3 d   1     -11.453  48.053   0.910  0.00  0.00    -0.067 N 
ATOM     15  H30 OM3 d   1     -12.342  48.067   1.384  0.00  0.00     0.280 HD
BRANCH  14  16
ATOM     16  C22 OM3 d   1     -11.660  48.780  -0.375  0.00  0.00     0.067 C 
ATOM     17  H20 OM3 d   1     -11.890  49.835  -0.166  0.00  0.00     0.068 H 
ATOM     18  H21 OM3 d   1     -12.497  48.324  -0.924  0.00  0.00     0.068 H 
ATOM     19  H22 OM3 d   1     -10.745  48.718  -0.983  0.00  0.00     0.068 H 
ENDBRANCH  14  16
BRANCH  14  20
ATOM     20  C24 OM3 d   1     -11.130  46.588   0.720  0.00  0.00     0.108 C 
ATOM     21  H25 OM3 d   1     -10.108  46.502   0.321  0.00  0.00     0.083 H 
ATOM     22  H26 OM3 d   1     -11.185  46.087   1.698  0.00  0.00     0.083 H 
BRANCH  20  23
ATOM     23  C10 OM3 d   1     -12.079  45.897  -0.231  0.00  0.00    -0.013 A 
ATOM     24  C5  OM3 d   1     -11.571  45.556  -1.477  0.00  0.00    -0.071 A 
ATOM     25  C6  OM3 d   1     -12.342  44.912  -2.430  0.00  0.00    -0.047 A 
ATOM     26  H5  OM3 d   1     -10.541  45.801  -1.711  0.00  0.00     0.084 H 
ATOM     27  C11 OM3 d   1     -13.650  44.631  -2.110  0.00  0.00     0.106 A 
ATOM     28  H6  OM3 d   1     -11.929  44.639  -3.394  0.00  0.00     0.087 H 
ATOM     29  C12 OM3 d   1     -14.169  44.964  -0.895  0.00  0.00     0.122 A 
ATOM     30  O31 OM3 d   1     -14.553  44.020  -2.932  0.00  0.00    -0.323 OA
ATOM     31  C8  OM3 d   1     -13.409  45.603   0.084  0.00  0.00     0.085 A 
ATOM     32  O32 OM3 d   1     -15.497  44.585  -0.810  0.00  0.00    -0.322 OA
ATOM     33  C20 OM3 d   1     -15.700  43.959  -2.082  0.00  0.00     0.115 A 
ATOM     34  H17 OM3 d   1     -15.954  42.902  -1.914  0.00  0.00     0.118 H 
ATOM     35  H18 OM3 d   1     -16.537  44.462  -2.589  0.00  0.00     0.118 H 
BRANCH  31  36
ATOM     36  C14 OM3 d   1     -14.014  45.913   1.415  0.00  0.00     0.212 C 
ATOM     37  O28 OM3 d   1     -14.965  45.173   1.812  0.00  0.00    -0.644 OA
ATOM     38  O30 OM3 d   1     -13.522  46.835   2.110  0.00  0.00    -0.644 OA
ENDBRANCH  31  36
ENDBRANCH  20  23
ENDBRANCH  14  20
ENDBRANCH  11  14
ENDBRANCH   6  11
BRANCH   5  39
ATOM     39  C13 OM3 d   1      -8.624  46.824   3.099  0.00  0.00     0.252 C 
ATOM     40  N26 OM3 d   1      -8.491  45.495   3.379  0.00  0.00    -0.356 N 
ATOM     41  H29 OM3 d   1      -9.113  45.054   4.026  0.00  0.00     0.162 HD
ATOM     42  O29 OM3 d   1      -7.911  47.354   2.267  0.00  0.00    -0.268 OA
BRANCH  40  43
ATOM     43  C25 OM3 d   1      -7.444  44.724   2.734  0.00  0.00    -0.001 C 
ATOM     44  H27 OM3 d   1      -6.917  45.350   1.999  0.00  0.00     0.064 H 
ATOM     45  H28 OM3 d   1      -6.728  44.362   3.487  0.00  0.00     0.064 H 
BRANCH  43  46
ATOM     46  C21 OM3 d   1      -8.102  43.538   2.030  0.00  0.00    -0.039 C 
ATOM     47  C18 OM3 d   1      -8.918  43.991   0.843  0.00  0.00    -0.060 C 
ATOM     48  C16 OM3 d   1      -9.687  42.799   0.309  0.00  0.00    -0.065 C 
ATOM     49  H13 OM3 d   1      -9.621  44.778   1.154  0.00  0.00     0.033 H 
ATOM     50  H14 OM3 d   1      -8.251  44.383   0.061  0.00  0.00     0.033 H 
ATOM     51  C15 OM3 d   1      -8.712  41.790  -0.229  0.00  0.00    -0.065 C 
ATOM     52  H9  OM3 d   1     -10.276  42.347   1.120  0.00  0.00     0.033 H 
ATOM     53  H10 OM3 d   1     -10.362  43.126  -0.496  0.00  0.00     0.033 H 
ATOM     54  C17 OM3 d   1      -7.907  41.313   0.954  0.00  0.00    -0.065 C 
ATOM     55  H7  OM3 d   1      -8.053  42.257  -0.976  0.00  0.00     0.033 H 
ATOM     56  H8  OM3 d   1      -9.249  40.948  -0.689  0.00  0.00     0.033 H 
ATOM     57  C19 OM3 d   1      -7.136  42.474   1.564  0.00  0.00    -0.060 C 
ATOM     58  H11 OM3 d   1      -7.198  40.539   0.624  0.00  0.00     0.033 H 
ATOM     59  H12 OM3 d   1      -8.586  40.890   1.709  0.00  0.00     0.033 H 
ATOM     60  H15 OM3 d   1      -6.459  42.900   0.809  0.00  0.00     0.033 H 
ATOM     61  H16 OM3 d   1      -6.549  42.113   2.421  0.00  0.00     0.033 H 
ATOM     62  H19 OM3 d   1      -8.783  43.071   2.757  0.00  0.00     0.042 H 
ENDBRANCH  43  46
ENDBRANCH  40  43
ENDBRANCH   5  39
TORSDOF 9
