REMARK  2 active torsions:
REMARK  status: ('A' for Active; 'I' for Inactive)
REMARK    1  A    between atoms: C15_15  and  C8_8 
REMARK    2  A    between atoms: C9_9  and  C16_16 
ROOT
ATOM      1  C1  ZT2 d   1     -31.022  28.606   0.465  0.00  0.00    -0.082 A 
ATOM      2  C2  ZT2 d   1     -31.300  27.472  -0.281  0.00  0.00    -0.082 A 
ATOM      3  C3  ZT2 d   1     -31.848  29.712   0.351  0.00  0.00    -0.072 A 
ATOM      4  C5  ZT2 d   1     -32.400  27.485  -1.096  0.00  0.00    -0.076 A 
ATOM      5  C7  ZT2 d   1     -32.934  29.727  -0.492  0.00  0.00    -0.016 A 
ATOM      6  C10 ZT2 d   1     -33.213  28.594  -1.224  0.00  0.00    -0.040 A 
ATOM      7  C13 ZT2 d   1     -33.943  30.731  -0.788  0.00  0.00     0.022 A 
ATOM      8  C14 ZT2 d   1     -34.915  30.104  -1.717  0.00  0.00     0.164 A 
ATOM      9  C15 ZT2 d   1     -34.150  32.036  -0.418  0.00  0.00    -0.058 C 
ATOM     10  C17 ZT2 d   1     -34.411  28.740  -2.082  0.00  0.00     0.020 A 
ATOM     11  O20 ZT2 d   1     -35.961  30.607  -2.120  0.00  0.00    -0.292 OA
ATOM     12  H1  ZT2 d   1     -30.167  28.627   1.131  0.00  0.00     0.083 H 
ATOM     13  H2  ZT2 d   1     -30.663  26.597  -0.221  0.00  0.00     0.083 H 
ATOM     14  H3  ZT2 d   1     -31.632  30.593   0.945  0.00  0.00     0.084 H 
ATOM     15  H5  ZT2 d   1     -32.642  26.592  -1.661  0.00  0.00     0.084 H 
ATOM     16  H7  ZT2 d   1     -34.968  32.577  -0.890  0.00  0.00     0.086 H 
ATOM     17  H8  ZT2 d   1     -35.159  27.967  -1.853  0.00  0.00     0.052 H 
ATOM     18  H9  ZT2 d   1     -34.144  28.688  -3.148  0.00  0.00     0.052 H 
ENDROOT
BRANCH   9  19
ATOM     19  C8  ZT2 d   1     -33.324  32.758   0.590  0.00  0.00    -0.015 A 
ATOM     20  C4  ZT2 d   1     -33.184  32.222   1.845  0.00  0.00    -0.069 A 
ATOM     21  C6  ZT2 d   1     -32.452  32.815   2.879  0.00  0.00    -0.047 A 
ATOM     22  H4  ZT2 d   1     -33.673  31.276   2.049  0.00  0.00     0.085 H 
ATOM     23  C11 ZT2 d   1     -31.866  34.007   2.560  0.00  0.00     0.106 A 
ATOM     24  H6  ZT2 d   1     -32.357  32.363   3.860  0.00  0.00     0.087 H 
ATOM     25  C12 ZT2 d   1     -32.015  34.588   1.340  0.00  0.00     0.122 A 
ATOM     26  O22 ZT2 d   1     -31.087  34.750   3.348  0.00  0.00    -0.323 OA
ATOM     27  C9  ZT2 d   1     -32.743  34.016   0.325  0.00  0.00     0.087 A 
ATOM     28  O23 ZT2 d   1     -31.365  35.792   1.249  0.00  0.00    -0.322 OA
ATOM     29  C18 ZT2 d   1     -30.643  35.700   2.488  0.00  0.00     0.115 C 
ATOM     30  H10 ZT2 d   1     -29.591  35.481   2.253  0.00  0.00     0.118 H 
ATOM     31  H11 ZT2 d   1     -30.710  36.675   2.994  0.00  0.00     0.118 H 
BRANCH  27  32
ATOM     32  C16 ZT2 d   1     -32.846  34.666  -1.039  0.00  0.00     0.213 C 
ATOM     33  O19 ZT2 d   1     -31.818  35.226  -1.497  0.00  0.00    -0.644 OA
ATOM     34  O21 ZT2 d   1     -33.945  34.589  -1.700  0.00  0.00    -0.644 OA
ENDBRANCH  27  32
ENDBRANCH   9  19
TORSDOF 2
