REMARK  3 active torsions:
REMARK  status: ('A' for Active; 'I' for Inactive)
REMARK    1  A    between atoms: C14_14  and  C8_8 
REMARK    2  A    between atoms: C9_9  and  C15_15 
REMARK    3  A    between atoms: C18_18  and  O23_23 
ROOT
ATOM      1  C1  ZT4 d   1     -30.830  28.906   0.853  0.00  0.00    -0.082 A 
ATOM      2  C2  ZT4 d   1     -30.962  27.698   0.223  0.00  0.00    -0.082 A 
ATOM      3  C3  ZT4 d   1     -31.700  29.944   0.569  0.00  0.00    -0.072 A 
ATOM      4  C5  ZT4 d   1     -31.992  27.506  -0.675  0.00  0.00    -0.076 A 
ATOM      5  C7  ZT4 d   1     -32.735  29.759  -0.319  0.00  0.00    -0.021 A 
ATOM      6  C10 ZT4 d   1     -32.861  28.541  -0.932  0.00  0.00    -0.044 A 
ATOM      7  C13 ZT4 d   1     -33.776  30.716  -0.795  0.00  0.00    -0.018 C 
ATOM      8  C14 ZT4 d   1     -34.095  32.021  -0.451  0.00  0.00    -0.062 C 
ATOM      9  C16 ZT4 d   1     -34.022  28.521  -1.880  0.00  0.00    -0.012 C 
ATOM     10  C18 ZT4 d   1     -34.439  29.996  -1.962  0.00  0.00     0.065 C 
ATOM     11  H1  ZT4 d   1     -30.038  29.051   1.579  0.00  0.00     0.083 H 
ATOM     12  H2  ZT4 d   1     -30.261  26.897   0.428  0.00  0.00     0.083 H 
ATOM     13  H3  ZT4 d   1     -31.566  30.907   1.048  0.00  0.00     0.084 H 
ATOM     14  H5  ZT4 d   1     -32.115  26.551  -1.172  0.00  0.00     0.084 H 
ATOM     15  H7  ZT4 d   1     -34.901  32.515  -0.991  0.00  0.00     0.085 H 
ATOM     16  H8  ZT4 d   1     -34.841  27.902  -1.486  0.00  0.00     0.044 H 
ATOM     17  H9  ZT4 d   1     -33.718  28.142  -2.867  0.00  0.00     0.044 H 
ATOM     18  H12 ZT4 d   1     -34.088  30.416  -2.916  0.00  0.00     0.091 H 
ENDROOT
BRANCH   8  19
ATOM     19  C8  ZT4 d   1     -33.390  32.784   0.622  0.00  0.00    -0.016 A 
ATOM     20  C4  ZT4 d   1     -33.327  32.257   1.910  0.00  0.00    -0.069 A 
ATOM     21  C6  ZT4 d   1     -32.636  32.946   2.927  0.00  0.00    -0.047 A 
ATOM     22  H4  ZT4 d   1     -33.812  31.313   2.131  0.00  0.00     0.085 H 
ATOM     23  C11 ZT4 d   1     -32.014  34.121   2.561  0.00  0.00     0.106 A 
ATOM     24  H6  ZT4 d   1     -32.596  32.572   3.944  0.00  0.00     0.087 H 
ATOM     25  C12 ZT4 d   1     -32.097  34.655   1.326  0.00  0.00     0.122 A 
ATOM     26  O21 ZT4 d   1     -31.307  34.913   3.425  0.00  0.00    -0.323 OA
ATOM     27  C9  ZT4 d   1     -32.769  34.027   0.310  0.00  0.00     0.087 A 
ATOM     28  O22 ZT4 d   1     -31.428  35.859   1.284  0.00  0.00    -0.322 OA
ATOM     29  C17 ZT4 d   1     -30.746  35.844   2.554  0.00  0.00     0.115 C 
ATOM     30  H10 ZT4 d   1     -29.689  35.587   2.389  0.00  0.00     0.118 H 
ATOM     31  H11 ZT4 d   1     -30.814  36.844   3.008  0.00  0.00     0.118 H 
BRANCH  27  32
ATOM     32  C15 ZT4 d   1     -32.823  34.648  -1.066  0.00  0.00     0.213 C 
ATOM     33  O19 ZT4 d   1     -31.860  35.314  -1.541  0.00  0.00    -0.644 OA
ATOM     34  O20 ZT4 d   1     -33.915  34.514  -1.712  0.00  0.00    -0.644 OA
ENDBRANCH  27  32
ENDBRANCH   8  19
BRANCH  10  35
ATOM     35  O23 ZT4 d   1     -35.822  30.192  -1.862  0.00  0.00    -0.391 OA
ATOM     36  H13 ZT4 d   1     -36.014  31.121  -1.919  0.00  0.00     0.210 HD
ENDBRANCH  10  35
TORSDOF 3
