REMARK  2 active torsions:
REMARK  status: ('A' for Active; 'I' for Inactive)
REMARK    1  A    between atoms: CW7_3  and  CK2_4 
REMARK    2  A    between atoms: CW1_13  and  OW1_14 
ROOT
ATOM      1  CW2 NHG d   1       4.849  65.338  62.598  0.00  0.00    -0.042 A 
ATOM      2  CW3 NHG d   1       4.040  66.336  63.130  0.00  0.00    -0.017 A 
ATOM      3  CW7 NHG d   1       3.884  67.807  62.745  0.00  0.00     0.033 C 
ATOM      4  CW9 NHG d   1       5.169  68.579  63.045  0.00  0.00    -0.028 C 
ATOM      5  CK1 NHG d   1       5.061  68.662  64.566  0.00  0.00     0.085 C 
ATOM      6  NW2 NHG d   1       3.682  69.150  64.710  0.00  0.00    -0.053 N 
ATOM      7  CW8 NHG d   1       2.888  68.324  63.785  0.00  0.00     0.177 C 
ATOM      8  NW1 NHG d   1       2.405  67.109  64.460  0.00  0.00    -0.361 N 
ATOM      9  CW4 NHG d   1       3.110  66.030  64.121  0.00  0.00     0.037 A 
ATOM     10  CW5 NHG d   1       2.996  64.714  64.556  0.00  0.00    -0.054 A 
ATOM     11  CW6 NHG d   1       3.803  63.713  64.027  0.00  0.00    -0.049 A 
ATOM     12  CW1 NHG d   1       4.738  64.027  63.047  0.00  0.00     0.066 A 
ATOM     13  H1  NHG d   1       5.571  65.584  61.828  0.00  0.00     0.088 H 
ATOM     14  H5  NHG d   1       5.168  69.575  62.578  0.00  0.00     0.037 H 
ATOM     15  H6  NHG d   1       6.065  68.025  62.727  0.00  0.00     0.037 H 
ATOM     16  H7  NHG d   1       5.789  69.371  64.987  0.00  0.00     0.075 H 
ATOM     17  H8  NHG d   1       5.194  67.677  65.037  0.00  0.00     0.075 H 
ATOM     18  H9  NHG d   1       3.622  70.124  64.456  0.00  0.00     0.279 HD
ATOM     19  H10 NHG d   1       3.361  69.029  65.658  0.00  0.00     0.279 HD
ATOM     20  H11 NHG d   1       2.063  68.898  63.338  0.00  0.00     0.120 H 
ATOM     21  H12 NHG d   1       1.613  67.094  65.119  0.00  0.00     0.161 HD
ATOM     22  H13 NHG d   1       2.267  64.465  65.319  0.00  0.00     0.087 H 
ATOM     23  H14 NHG d   1       3.704  62.692  64.377  0.00  0.00     0.087 H 
ENDROOT
BRANCH   3  24
ATOM     24  CK2 NHG d   1       3.427  67.978  61.294  0.00  0.00    -0.061 C 
ATOM     25  H2  NHG d   1       4.199  67.582  60.617  0.00  0.00     0.029 H 
ATOM     26  H3  NHG d   1       3.268  69.046  61.083  0.00  0.00     0.029 H 
ATOM     27  H4  NHG d   1       2.486  67.429  61.139  0.00  0.00     0.029 H 
ENDBRANCH   3  24
BRANCH  12  28
ATOM     28  OW1 NHG d   1       5.570  63.068  62.557  0.00  0.00    -0.361 OA
ATOM     29  H15 NHG d   1       6.140  63.450  61.901  0.00  0.00     0.217 HD
ENDBRANCH  12  28
TORSDOF 2
