REMARK  6 active torsions:
REMARK  status: ('A' for Active; 'I' for Inactive)
REMARK    1  A    between atoms: O28_1  and  C27_2 
REMARK    2  A    between atoms: C27_2  and  C26_3 
REMARK    3  A    between atoms: C26_3  and  N12_4 
REMARK    4  A    between atoms: C10_8  and  C1_9 
REMARK    5  A    between atoms: N9_12  and  C_18 
REMARK    6  A    between atoms: C_18  and  C16_19 
ROOT
ATOM      1  C1  KRW d   1      18.110  82.221   4.632  0.00  0.00     0.090 A 
ATOM      2  N4  KRW d   1      18.476  83.488   5.031  0.00  0.00    -0.224 NA
ATOM      3  C5  KRW d   1      18.414  83.695   6.369  0.00  0.00     0.198 A 
ATOM      4  N9  KRW d   1      18.710  84.824   7.114  0.00  0.00    -0.226 N 
ATOM      5  N8  KRW d   1      18.506  84.578   8.367  0.00  0.00    -0.062 NA
ATOM      6  N7  KRW d   1      18.091  83.365   8.554  0.00  0.00    -0.108 NA
ATOM      7  C6  KRW d   1      18.022  82.761   7.272  0.00  0.00     0.220 A 
ATOM      8  N3  KRW d   1      17.650  81.503   6.929  0.00  0.00    -0.234 NA
ATOM      9  C2  KRW d   1      17.702  81.242   5.581  0.00  0.00     0.033 A 
ATOM     10  H8  KRW d   1      17.422  80.256   5.228  0.00  0.00     0.118 H 
ENDROOT
BRANCH   4  11
ATOM     11  C   KRW d   1      19.185  86.105   6.572  0.00  0.00     0.044 C 
ATOM     12  H9  KRW d   1      19.088  86.884   7.343  0.00  0.00     0.074 H 
ATOM     13  H10 KRW d   1      18.577  86.377   5.697  0.00  0.00     0.074 H 
BRANCH  11  14
ATOM     14  C16 KRW d   1      20.652  85.988   6.152  0.00  0.00    -0.037 A 
ATOM     15  C19 KRW d   1      21.008  85.766   4.775  0.00  0.00    -0.063 A 
ATOM     16  C20 KRW d   1      22.379  85.655   4.376  0.00  0.00    -0.007 A 
ATOM     17  H11 KRW d   1      20.226  85.681   4.029  0.00  0.00     0.085 H 
ATOM     18  C25 KRW d   1      22.760  85.432   3.016  0.00  0.00    -0.069 A 
ATOM     19  C21 KRW d   1      23.438  85.766   5.364  0.00  0.00     0.066 A 
ATOM     20  C24 KRW d   1      24.146  85.330   2.687  0.00  0.00    -0.065 A 
ATOM     21  H12 KRW d   1      22.005  85.341   2.243  0.00  0.00     0.085 H 
ATOM     22  C23 KRW d   1      25.106  85.456   3.737  0.00  0.00     0.003 A 
ATOM     23  H13 KRW d   1      24.462  85.161   1.664  0.00  0.00     0.085 H 
ATOM     24  N22 KRW d   1      24.762  85.669   5.046  0.00  0.00    -0.260 NA
ATOM     25  H14 KRW d   1      26.158  85.379   3.486  0.00  0.00     0.114 H 
ATOM     26  C18 KRW d   1      23.074  85.986   6.734  0.00  0.00    -0.054 A 
ATOM     27  C17 KRW d   1      21.699  86.096   7.124  0.00  0.00    -0.073 A 
ATOM     28  H15 KRW d   1      23.851  86.070   7.486  0.00  0.00     0.087 H 
ATOM     29  H16 KRW d   1      21.449  86.263   8.165  0.00  0.00     0.084 H 
ENDBRANCH  11  14
ENDBRANCH   4  11
BRANCH   1  30
ATOM     30  C10 KRW d   1      18.162  81.920   3.164  0.00  0.00     0.030 A 
ATOM     31  C11 KRW d   1      17.861  80.728   2.506  0.00  0.00     0.012 A 
ATOM     32  N12 KRW d   1      18.088  81.021   1.156  0.00  0.00    -0.278 N 
ATOM     33  H6  KRW d   1      17.527  79.787   2.941  0.00  0.00     0.115 H 
ATOM     34  N13 KRW d   1      18.476  82.233   0.963  0.00  0.00    -0.184 NA
ATOM     35  C14 KRW d   1      18.550  82.841   2.099  0.00  0.00     0.035 A 
ATOM     36  H7  KRW d   1      18.854  83.877   2.241  0.00  0.00     0.118 H 
BRANCH  32  37
ATOM     37  C26 KRW d   1      17.913  80.057   0.067  0.00  0.00     0.036 C 
ATOM     38  H4  KRW d   1      18.289  80.501  -0.867  0.00  0.00     0.070 H 
ATOM     39  H5  KRW d   1      18.488  79.148   0.298  0.00  0.00     0.070 H 
BRANCH  37  40
ATOM     40  C27 KRW d   1      16.442  79.681  -0.118  0.00  0.00     0.033 C 
ATOM     41  H2  KRW d   1      16.061  79.232   0.811  0.00  0.00     0.076 H 
ATOM     42  H3  KRW d   1      15.861  80.585  -0.353  0.00  0.00     0.076 H 
BRANCH  40  43
ATOM     43  O28 KRW d   1      16.311  78.753  -1.175  0.00  0.00    -0.399 OA
ATOM     44  H1  KRW d   1      16.639  79.141  -1.978  0.00  0.00     0.209 HD
ENDBRANCH  40  43
ENDBRANCH  37  40
ENDBRANCH  32  37
ENDBRANCH   1  30
TORSDOF 6
