REMARK  8 active torsions:
REMARK  status: ('A' for Active; 'I' for Inactive)
REMARK    1  A    between atoms: C1_1  and  O1'_12 
REMARK    2  A    between atoms: C2_2  and  O2_3 
REMARK    3  A    between atoms: C3_4  and  O3_5 
REMARK    4  A    between atoms: C4_6  and  O4_7 
REMARK    5  A    between atoms: C5_8  and  C6_9 
REMARK    6  A    between atoms: C6_9  and  O6_10 
REMARK    7  A    between atoms: O1'_12  and  C1'_13 
REMARK    8  A    between atoms: C4'_16  and  N1'_19 
ROOT
ATOM      1  C1  147 d   1       9.526   8.669   9.763  0.00  0.00     0.164 C 
ATOM      2  C2  147 d   1      10.855   8.027  10.033  0.00  0.00     0.110 C 
ATOM      3  C3  147 d   1      11.402   7.411   8.832  0.00  0.00     0.092 C 
ATOM      4  C4  147 d   1      10.490   6.516   8.238  0.00  0.00     0.090 C 
ATOM      5  C5  147 d   1       9.142   7.125   8.018  0.00  0.00     0.089 C 
ATOM      6  O5  147 d   1       8.621   7.765   9.232  0.00  0.00    -0.348 OA
ATOM      7  H1  147 d   1       9.668   9.490   9.045  0.00  0.00     0.134 H 
ATOM      8  H2  147 d   1      10.711   7.242  10.790  0.00  0.00     0.094 H 
ATOM      9  H4  147 d   1      11.643   8.197   8.101  0.00  0.00     0.091 H 
ATOM     10  H6  147 d   1      10.897   6.214   7.262  0.00  0.00     0.091 H 
ATOM     11  H8  147 d   1       9.244   7.900   7.245  0.00  0.00     0.090 H 
ENDROOT
BRANCH   1  12
ATOM     12  O1' 147 d   1       9.021   9.185  10.959  0.00  0.00    -0.318 OA
BRANCH  12  13
ATOM     13  C1' 147 d   1       8.093  10.262  10.632  0.00  0.00     0.072 A 
ATOM     14  C2' 147 d   1       7.912  10.629   9.324  0.00  0.00    -0.048 A 
ATOM     15  C3' 147 d   1       6.998  11.692   8.995  0.00  0.00    -0.048 A 
ATOM     16  H12 147 d   1       8.457  10.119   8.537  0.00  0.00     0.087 H 
ATOM     17  C4' 147 d   1       6.327  12.319   9.983  0.00  0.00     0.103 A 
ATOM     18  H13 147 d   1       6.850  11.986   7.962  0.00  0.00     0.087 H 
ATOM     19  C5' 147 d   1       6.512  11.942  11.304  0.00  0.00    -0.048 A 
ATOM     20  C6' 147 d   1       7.414  10.895  11.625  0.00  0.00    -0.048 A 
ATOM     21  H14 147 d   1       5.967  12.448  12.093  0.00  0.00     0.087 H 
ATOM     22  H15 147 d   1       7.561  10.601  12.658  0.00  0.00     0.087 H 
BRANCH  17  23
ATOM     23  N1' 147 d   1       5.396  13.388   9.669  0.00  0.00    -0.116 N 
ATOM     24  O2' 147 d   1       5.325  13.868   8.423  0.00  0.00    -0.532 OA
ATOM     25  O3' 147 d   1       4.591  13.834  10.593  0.00  0.00    -0.532 OA
ENDBRANCH  17  23
ENDBRANCH  12  13
ENDBRANCH   1  12
BRANCH   2  26
ATOM     26  O2  147 d   1      11.764   8.978  10.539  0.00  0.00    -0.388 OA
ATOM     27  H3  147 d   1      11.424   9.340  11.349  0.00  0.00     0.210 HD
ENDBRANCH   2  26
BRANCH   3  28
ATOM     28  O3  147 d   1      12.635   6.718   9.224  0.00  0.00    -0.390 OA
ATOM     29  H5  147 d   1      13.248   7.346   9.587  0.00  0.00     0.210 HD
ENDBRANCH   3  28
BRANCH   5  30
ATOM     30  C6  147 d   1       8.176   6.091   7.521  0.00  0.00     0.043 C 
ATOM     31  H9  147 d   1       7.942   5.426   8.365  0.00  0.00     0.078 H 
ATOM     32  H10 147 d   1       8.685   5.518   6.732  0.00  0.00     0.078 H 
BRANCH  30  33
ATOM     33  O6  147 d   1       6.993   6.529   7.008  0.00  0.00    -0.398 OA
ATOM     34  H11 147 d   1       6.474   5.783   6.730  0.00  0.00     0.209 HD
ENDBRANCH  30  33
ENDBRANCH   5  30
BRANCH   4  35
ATOM     35  O4  147 d   1      10.334   5.331   9.070  0.00  0.00    -0.390 OA
ATOM     36  H7  147 d   1       9.718   4.736   8.659  0.00  0.00     0.210 HD
ENDBRANCH   4  35
TORSDOF 8
