REMARK  8 active torsions:
REMARK  status: ('A' for Active; 'I' for Inactive)
REMARK    1  A    between atoms: N1_3  and  C6_4 
REMARK    2  A    between atoms: C6_4  and  C8_5 
REMARK    3  A    between atoms: C6_4  and  C7_11 
REMARK    4  A    between atoms: C18_21  and  C19_25 
REMARK    5  A    between atoms: C2_22  and  O1_23 
REMARK    6  A    between atoms: O1_23  and  C1_24 
REMARK    7  A    between atoms: C22_26  and  C23_27 
REMARK    8  A    between atoms: C20_30  and  C21_31 
ROOT
ATOM      1  O2  1GH d   1       3.030  -5.500  26.548  0.00  0.00    -0.246 OA
ATOM      2  C13 1GH d   1       2.632  -5.591  25.396  0.00  0.00     0.328 A 
ATOM      3  N1  1GH d   1       2.227  -6.757  24.766  0.00  0.00    -0.286 N 
ATOM      4  N3  1GH d   1       2.494  -4.604  24.494  0.00  0.00    -0.305 N 
ATOM      5  C14 1GH d   1       2.010  -5.112  23.302  0.00  0.00     0.082 A 
ATOM      6  C5  1GH d   1       1.837  -6.461  23.452  0.00  0.00     0.080 A 
ATOM      7  C15 1GH d   1       1.710  -4.488  22.098  0.00  0.00     0.031 A 
ATOM      8  N4  1GH d   1       1.249  -5.164  21.059  0.00  0.00    -0.258 NA
ATOM      9  C16 1GH d   1       1.063  -6.499  21.169  0.00  0.00     0.070 A 
ATOM     10  C4  1GH d   1       1.342  -7.233  22.359  0.00  0.00     0.025 A 
ATOM     11  C3  1GH d   1       1.127  -8.597  22.382  0.00  0.00    -0.035 A 
ATOM     12  C17 1GH d   1       0.567  -7.187  20.037  0.00  0.00    -0.041 A 
ATOM     13  C18 1GH d   1       0.361  -8.544  20.096  0.00  0.00     0.014 A 
ATOM     14  C2  1GH d   1       0.642  -9.241  21.277  0.00  0.00     0.080 A 
ATOM     15  H9  1GH d   1       2.710  -3.642  24.661  0.00  0.00     0.171 HD
ATOM     16  H10 1GH d   1       1.858  -3.418  22.008  0.00  0.00     0.118 H 
ATOM     17  H11 1GH d   1       1.344  -9.161  23.282  0.00  0.00     0.089 H 
ATOM     18  H12 1GH d   1       0.350  -6.644  19.124  0.00  0.00     0.088 H 
ENDROOT
BRANCH   3  19
ATOM     19  C6  1GH d   1       2.260  -8.060  25.512  0.00  0.00     0.060 C 
ATOM     20  H1  1GH d   1       2.571  -7.827  26.541  0.00  0.00     0.083 H 
BRANCH  19  21
ATOM     21  C8  1GH d   1       0.912  -8.710  25.610  0.00  0.00     0.057 A 
ATOM     22  N2  1GH d   1       0.890 -10.050  25.634  0.00  0.00    -0.263 NA
ATOM     23  C12 1GH d   1      -0.310 -10.633  25.726  0.00  0.00     0.003 A 
ATOM     24  C11 1GH d   1      -1.494  -9.939  25.797  0.00  0.00    -0.066 A 
ATOM     25  H2  1GH d   1      -0.351 -11.716  25.746  0.00  0.00     0.114 H 
ATOM     26  C10 1GH d   1      -1.440  -8.570  25.775  0.00  0.00    -0.080 A 
ATOM     27  H3  1GH d   1      -2.442 -10.459  25.868  0.00  0.00     0.085 H 
ATOM     28  C9  1GH d   1      -0.225  -7.935  25.680  0.00  0.00    -0.057 A 
ATOM     29  H4  1GH d   1      -2.353  -7.989  25.832  0.00  0.00     0.083 H 
ATOM     30  H5  1GH d   1      -0.163  -6.853  25.661  0.00  0.00     0.086 H 
ENDBRANCH  19  21
BRANCH  19  31
ATOM     31  C7  1GH d   1       3.303  -8.994  24.939  0.00  0.00    -0.051 C 
ATOM     32  H6  1GH d   1       3.302  -9.937  25.506  0.00  0.00     0.030 H 
ATOM     33  H7  1GH d   1       4.295  -8.524  25.011  0.00  0.00     0.030 H 
ATOM     34  H8  1GH d   1       3.070  -9.200  23.884  0.00  0.00     0.030 H 
ENDBRANCH  19  31
ENDBRANCH   3  19
BRANCH  14  35
ATOM     35  O1  1GH d   1       0.382 -10.583  21.195  0.00  0.00    -0.355 OA
BRANCH  35  36
ATOM     36  C1  1GH d   1       0.789 -11.409  22.281  0.00  0.00     0.010 C 
ATOM     37  H13 1GH d   1       0.514 -12.453  22.071  0.00  0.00     0.066 H 
ATOM     38  H14 1GH d   1       0.289 -11.076  23.202  0.00  0.00     0.066 H 
ATOM     39  H15 1GH d   1       1.879 -11.336  22.409  0.00  0.00     0.066 H 
ENDBRANCH  35  36
ENDBRANCH  14  35
BRANCH  13  40
ATOM     40  C19 1GH d   1      -0.196  -9.238  18.913  0.00  0.00     0.035 A 
ATOM     41  C22 1GH d   1       0.355 -10.302  18.276  0.00  0.00     0.088 A 
ATOM     42  O3  1GH d   1      -0.444 -10.692  17.243  0.00  0.00    -0.217 OA
ATOM     43  N5  1GH d   1      -1.540  -9.832  17.237  0.00  0.00    -0.133 NA
ATOM     44  C20 1GH d   1      -1.402  -8.955  18.231  0.00  0.00     0.072 A 
BRANCH  41  45
ATOM     45  C23 1GH d   1       1.589 -11.078  18.481  0.00  0.00    -0.028 C 
ATOM     46  H16 1GH d   1       1.652 -11.873  17.724  0.00  0.00     0.036 H 
ATOM     47  H17 1GH d   1       1.577 -11.527  19.485  0.00  0.00     0.036 H 
ATOM     48  H18 1GH d   1       2.460 -10.413  18.387  0.00  0.00     0.036 H 
ENDBRANCH  41  45
BRANCH  44  49
ATOM     49  C21 1GH d   1      -2.299  -7.991  18.484  0.00  0.00    -0.033 C 
ATOM     50  H19 1GH d   1      -3.122  -8.056  17.758  0.00  0.00     0.035 H 
ATOM     51  H20 1GH d   1      -1.814  -7.007  18.401  0.00  0.00     0.035 H 
ATOM     52  H21 1GH d   1      -2.697  -8.118  19.502  0.00  0.00     0.035 H 
ENDBRANCH  44  49
ENDBRANCH  13  40
TORSDOF 8
