REMARK  7 active torsions:
REMARK  status: ('A' for Active; 'I' for Inactive)
REMARK    1  A    between atoms: C1_1  and  O11_7 
REMARK    2  A    between atoms: O11_7  and  C12_8 
REMARK    3  A    between atoms: C15_11  and  S22_14 
REMARK    4  A    between atoms: S22_14  and  C25_17 
REMARK    5  A    between atoms: C25_17  and  C39_23 
REMARK    6  A    between atoms: C39_23  and  C40_24 
REMARK       I    between atoms: C40_24  and  N43_25 
REMARK    7  A    between atoms: N43_25  and  O45_27 
ROOT
ATOM      1  S22 CBP d   1      -5.613  28.162  56.725  0.00  0.00     0.184 S 
ATOM      2  O23 CBP d   1      -5.652  27.161  57.745  0.00  0.00    -0.222 OA
ATOM      3  O24 CBP d   1      -6.449  29.307  56.908  0.00  0.00    -0.222 OA
ENDROOT
BRANCH   1   4
ATOM      4  C15 CBP d   1      -6.183  27.446  55.196  0.00  0.00     0.060 A 
ATOM      5  C14 CBP d   1      -6.318  26.078  55.049  0.00  0.00    -0.059 A 
ATOM      6  C13 CBP d   1      -6.849  25.571  53.877  0.00  0.00    -0.049 A 
ATOM      7  H6  CBP d   1      -6.011  25.409  55.845  0.00  0.00     0.085 H 
ATOM      8  C12 CBP d   1      -7.237  26.415  52.845  0.00  0.00     0.076 A 
ATOM      9  H5  CBP d   1      -6.964  24.499  53.762  0.00  0.00     0.087 H 
ATOM     10  C17 CBP d   1      -7.027  27.794  52.974  0.00  0.00    -0.049 A 
ATOM     11  C16 CBP d   1      -6.505  28.300  54.153  0.00  0.00    -0.059 A 
ATOM     12  H8  CBP d   1      -7.272  28.461  52.156  0.00  0.00     0.087 H 
ATOM     13  H7  CBP d   1      -6.348  29.367  54.260  0.00  0.00     0.085 H 
BRANCH   8  14
ATOM     14  O11 CBP d   1      -7.870  25.780  51.778  0.00  0.00    -0.311 OA
BRANCH  14  15
ATOM     15  C1  CBP d   1      -8.205  26.453  50.617  0.00  0.00     0.076 A 
ATOM     16  C6  CBP d   1      -7.276  27.216  49.903  0.00  0.00    -0.049 A 
ATOM     17  C5  CBP d   1      -7.642  27.799  48.701  0.00  0.00    -0.059 A 
ATOM     18  H4  CBP d   1      -6.272  27.351  50.289  0.00  0.00     0.087 H 
ATOM     19  C4  CBP d   1      -8.930  27.590  48.227  0.00  0.00     0.034 A 
ATOM     20  H3  CBP d   1      -6.938  28.405  48.143  0.00  0.00     0.086 H 
ATOM     21  C3  CBP d   1      -9.881  26.844  48.925  0.00  0.00    -0.059 A 
ATOM     22 CL4  CBP d   1      -9.332  28.241  46.692  0.00  0.00    -0.084 Cl
ATOM     23  C2  CBP d   1      -9.501  26.282  50.142  0.00  0.00    -0.049 A 
ATOM     24  H2  CBP d   1     -10.882  26.706  48.533  0.00  0.00     0.086 H 
ATOM     25  H1  CBP d   1     -10.217  25.710  50.720  0.00  0.00     0.087 H 
ENDBRANCH  14  15
ENDBRANCH   8  14
ENDBRANCH   1   4
BRANCH   1  26
ATOM     26  C25 CBP d   1      -3.881  28.701  56.578  0.00  0.00     0.081 C 
ATOM     27  C30 CBP d   1      -3.724  29.582  55.311  0.00  0.00    -0.024 C 
ATOM     28  C29 CBP d   1      -2.425  30.377  55.321  0.00  0.00     0.021 C 
ATOM     29  H15 CBP d   1      -4.569  30.285  55.261  0.00  0.00     0.038 H 
ATOM     30  H16 CBP d   1      -3.735  28.932  54.424  0.00  0.00     0.038 H 
ATOM     31  O28 CBP d   1      -2.413  31.206  56.475  0.00  0.00    -0.391 OA
ATOM     32  H13 CBP d   1      -1.568  29.688  55.350  0.00  0.00     0.074 H 
ATOM     33  H14 CBP d   1      -2.364  31.000  54.416  0.00  0.00     0.074 H 
ATOM     34  C27 CBP d   1      -2.398  30.527  57.713  0.00  0.00     0.021 C 
ATOM     35  C26 CBP d   1      -3.628  29.600  57.835  0.00  0.00    -0.024 C 
ATOM     36  H11 CBP d   1      -1.481  29.924  57.784  0.00  0.00     0.074 H 
ATOM     37  H12 CBP d   1      -2.417  31.263  58.530  0.00  0.00     0.074 H 
ATOM     38  H9  CBP d   1      -3.480  28.943  58.705  0.00  0.00     0.038 H 
ATOM     39  H10 CBP d   1      -4.518  30.227  57.996  0.00  0.00     0.038 H 
BRANCH  26  40
ATOM     40  C39 CBP d   1      -2.913  27.470  56.605  0.00  0.00     0.032 C 
ATOM     41  H17 CBP d   1      -3.214  26.848  57.461  0.00  0.00     0.050 H 
ATOM     42  H18 CBP d   1      -1.901  27.866  56.777  0.00  0.00     0.050 H 
BRANCH  40  43
ATOM     43  C40 CBP d   1      -2.823  26.531  55.382  0.00  0.00     0.242 C 
ATOM     44  O44 CBP d   1      -2.597  26.903  54.227  0.00  0.00    -0.271 OA
ATOM     45  N43 CBP d   1      -2.944  25.231  55.616  0.00  0.00    -0.237 N 
ATOM     46  H19 CBP d   1      -3.281  24.873  56.487  0.00  0.00     0.197 HD
BRANCH  45  47
ATOM     47  O45 CBP d   1      -2.566  24.395  54.557  0.00  0.00    -0.287 OA
ATOM     48  H20 CBP d   1      -2.685  23.488  54.813  0.00  0.00     0.244 HD
ENDBRANCH  45  47
ENDBRANCH  40  43
ENDBRANCH  26  40
ENDBRANCH   1  26
TORSDOF 7
