REMARK  20 active torsions:
REMARK  status: ('A' for Active; 'I' for Inactive)
REMARK    1  A    between atoms: C18_18  and  C3_3 
REMARK    2  A    between atoms: C3_3  and  C21_20 
REMARK    3  A    between atoms: C4_4  and  O17_17 
REMARK    4  A    between atoms: N6_6  and  C7_7 
REMARK    5  A    between atoms: C11_11  and  O12_12 
REMARK    6  A    between atoms: C19_19  and  C18_18 
REMARK    7  A    between atoms: N36_35  and  C19_19 
REMARK    8  A    between atoms: C21_20  and  C22_21 
REMARK    9  A    between atoms: C29_28  and  C28_27 
REMARK   10  A    between atoms: C35_34  and  C32_31 
REMARK   11  A    between atoms: C35_34  and  N36_35 
REMARK   12  A    between atoms: N36_35  and  N37_36 
REMARK       I    between atoms: N37_36  and  C38_37 
REMARK   13  A    between atoms: C38_37  and  C39_38 
REMARK   14  A    between atoms: C39_38  and  N40_39 
REMARK   15  A    between atoms: C39_38  and  C45_44 
REMARK       I    between atoms: N40_39  and  C41_40 
REMARK   16  A    between atoms: C41_40  and  O42_41 
REMARK   17  A    between atoms: O42_41  and  C43_42 
REMARK   18  A    between atoms: C45_44  and  C46_45 
REMARK   19  A    between atoms: C45_44  and  C47_46 
REMARK   20  A    between atoms: C45_44  and  C48_47 
ROOT
ATOM      1  N36 UX9 d   1      14.587  22.212   6.513  0.00  0.00     0.015 N 
ATOM      2  H31 UX9 d   1      13.898  21.559   6.852  0.00  0.00     0.309 HD
ENDROOT
BRANCH   1   3
ATOM      3  C19 UX9 d   1      13.870  23.260   5.787  0.00  0.00     0.106 C 
ATOM      4  H16 UX9 d   1      13.221  23.777   6.509  0.00  0.00     0.079 H 
ATOM      5  H17 UX9 d   1      14.620  23.964   5.398  0.00  0.00     0.079 H 
BRANCH   3   6
ATOM      6  C18 UX9 d   1      12.965  22.814   4.572  0.00  0.00    -0.022 C 
ATOM      7  H14 UX9 d   1      13.591  22.861   3.669  0.00  0.00     0.037 H 
ATOM      8  H15 UX9 d   1      12.666  21.772   4.758  0.00  0.00     0.037 H 
BRANCH   6   9
ATOM      9  C3  UX9 d   1      11.647  23.627   4.265  0.00  0.00     0.074 C 
ATOM     10  C1  UX9 d   1      10.613  23.535   5.373  0.00  0.00     0.232 C 
ATOM     11  O2  UX9 d   1      10.023  22.479   5.644  0.00  0.00    -0.272 OA
ATOM     12  N6  UX9 d   1      10.466  24.733   5.962  0.00  0.00    -0.338 N 
ATOM     13  C5  UX9 d   1      11.336  25.771   5.369  0.00  0.00     0.024 C 
ATOM     14  C4  UX9 d   1      11.894  25.158   4.075  0.00  0.00     0.067 C 
ATOM     15  H2  UX9 d   1      10.754  26.677   5.144  0.00  0.00     0.068 H 
ATOM     16  H3  UX9 d   1      12.155  26.024   6.058  0.00  0.00     0.068 H 
ATOM     17  H1  UX9 d   1      11.327  25.507   3.200  0.00  0.00     0.087 H 
BRANCH  12  18
ATOM     18  C7  UX9 d   1       9.465  24.927   7.084  0.00  0.00     0.065 C 
ATOM     19  C8  UX9 d   1       9.744  25.894   8.195  0.00  0.00    -0.026 A 
ATOM     20  C9  UX9 d   1       8.563  26.573   8.569  0.00  0.00    -0.047 A 
ATOM     21  C16 UX9 d   1      10.991  26.151   8.821  0.00  0.00    -0.074 A 
ATOM     22  C10 UX9 d   1       7.360  26.142   7.787  0.00  0.00    -0.014 C 
ATOM     23  C13 UX9 d   1       8.592  27.630   9.686  0.00  0.00    -0.076 A 
ATOM     24  C11 UX9 d   1       8.041  25.466   6.587  0.00  0.00     0.063 C 
ATOM     25  H5  UX9 d   1       6.747  27.001   7.476  0.00  0.00     0.044 H 
ATOM     26  H6  UX9 d   1       6.738  25.434   8.354  0.00  0.00     0.044 H 
ATOM     27  H7  UX9 d   1       7.428  24.628   6.225  0.00  0.00     0.087 H 
ATOM     28  C14 UX9 d   1       9.821  27.887  10.305  0.00  0.00    -0.082 A 
ATOM     29  H9  UX9 d   1       7.693  28.157   9.983  0.00  0.00     0.084 H 
ATOM     30  C15 UX9 d   1      11.081  27.106   9.848  0.00  0.00    -0.082 A 
ATOM     31  H10 UX9 d   1       9.892  28.625  11.096  0.00  0.00     0.083 H 
ATOM     32  H11 UX9 d   1      12.036  27.298  10.323  0.00  0.00     0.083 H 
ATOM     33  H12 UX9 d   1      11.876  25.610   8.507  0.00  0.00     0.084 H 
ATOM     34  H4  UX9 d   1       9.337  23.931   7.532  0.00  0.00     0.084 H 
BRANCH  24  35
ATOM     35  O12 UX9 d   1       8.209  26.441   5.525  0.00  0.00    -0.393 OA
ATOM     36  H8  UX9 d   1       8.630  26.027   4.780  0.00  0.00     0.210 HD
ENDBRANCH  24  35
ENDBRANCH  12  18
BRANCH  14  37
ATOM     37  O17 UX9 d   1      13.267  25.590   3.923  0.00  0.00    -0.393 OA
ATOM     38  H13 UX9 d   1      13.628  25.219   3.126  0.00  0.00     0.210 HD
ENDBRANCH  14  37
BRANCH   9  39
ATOM     39  C21 UX9 d   1      10.942  23.077   2.887  0.00  0.00    -0.023 C 
ATOM     40  H18 UX9 d   1      10.859  21.983   2.966  0.00  0.00     0.042 H 
ATOM     41  H19 UX9 d   1      11.602  23.335   2.046  0.00  0.00     0.042 H 
BRANCH  39  42
ATOM     42  C22 UX9 d   1       9.479  23.658   2.560  0.00  0.00    -0.057 A 
ATOM     43  C23 UX9 d   1       8.253  22.976   3.037  0.00  0.00    -0.077 A 
ATOM     44  C24 UX9 d   1       6.926  23.511   2.749  0.00  0.00    -0.082 A 
ATOM     45  H20 UX9 d   1       8.344  22.061   3.611  0.00  0.00     0.084 H 
ATOM     46  C25 UX9 d   1       6.791  24.748   1.974  0.00  0.00    -0.083 A 
ATOM     47  H21 UX9 d   1       6.043  22.995   3.107  0.00  0.00     0.083 H 
ATOM     48  C26 UX9 d   1       7.983  25.438   1.492  0.00  0.00    -0.082 A 
ATOM     49  H22 UX9 d   1       5.807  25.149   1.759  0.00  0.00     0.083 H 
ATOM     50  C27 UX9 d   1       9.305  24.902   1.781  0.00  0.00    -0.077 A 
ATOM     51  H23 UX9 d   1       7.884  26.352   0.917  0.00  0.00     0.083 H 
ATOM     52  H24 UX9 d   1      10.181  25.427   1.417  0.00  0.00     0.084 H 
ENDBRANCH  39  42
ENDBRANCH   9  39
ENDBRANCH   6   9
ENDBRANCH   3   6
ENDBRANCH   1   3
BRANCH   1  53
ATOM     53  C35 UX9 d   1      15.317  22.764   7.722  0.00  0.00     0.128 C 
ATOM     54  H29 UX9 d   1      16.195  23.348   7.409  0.00  0.00     0.086 H 
ATOM     55  H30 UX9 d   1      14.647  23.400   8.319  0.00  0.00     0.086 H 
BRANCH  53  56
ATOM     56  C32 UX9 d   1      15.750  21.533   8.528  0.00  0.00    -0.030 A 
ATOM     57  C31 UX9 d   1      17.167  21.166   8.660  0.00  0.00    -0.074 A 
ATOM     58  C30 UX9 d   1      17.548  19.984   9.432  0.00  0.00    -0.072 A 
ATOM     59  H26 UX9 d   1      17.930  21.772   8.185  0.00  0.00     0.084 H 
ATOM     60  C29 UX9 d   1      16.512  19.146  10.087  0.00  0.00    -0.026 A 
ATOM     61  H25 UX9 d   1      18.595  19.718   9.527  0.00  0.00     0.084 H 
ATOM     62  C34 UX9 d   1      15.096  19.538   9.933  0.00  0.00    -0.072 A 
ATOM     63  C33 UX9 d   1      14.724  20.716   9.163  0.00  0.00    -0.074 A 
ATOM     64  H28 UX9 d   1      14.322  18.939  10.400  0.00  0.00     0.084 H 
ATOM     65  H27 UX9 d   1      13.679  20.987   9.062  0.00  0.00     0.084 H 
BRANCH  60  66
ATOM     66  C28 UX9 d   1      16.898  17.907  10.910  0.00  0.00    -0.023 A 
ATOM     67  C50 UX9 d   1      16.172  16.619  10.759  0.00  0.00    -0.055 A 
ATOM     68  C51 UX9 d   1      16.587  15.488  11.577  0.00  0.00     0.003 A 
ATOM     69  H47 UX9 d   1      15.352  16.524  10.056  0.00  0.00     0.087 H 
ATOM     70  N52 UX9 d   1      17.657  15.663  12.475  0.00  0.00    -0.273 NA
ATOM     71  H48 UX9 d   1      16.083  14.532  11.496  0.00  0.00     0.114 H 
ATOM     72  C53 UX9 d   1      18.361  16.884  12.633  0.00  0.00     0.003 A 
ATOM     73  C54 UX9 d   1      17.991  18.016  11.856  0.00  0.00    -0.055 A 
ATOM     74  H49 UX9 d   1      19.177  16.954  13.343  0.00  0.00     0.114 H 
ATOM     75  H50 UX9 d   1      18.523  18.954  11.970  0.00  0.00     0.087 H 
ENDBRANCH  60  66
ENDBRANCH  53  56
ENDBRANCH   1  53
BRANCH   1  76
ATOM     76  N37 UX9 d   1      15.455  21.501   5.673  0.00  0.00    -0.185 N 
ATOM     77  C38 UX9 d   1      15.145  20.179   5.329  0.00  0.00     0.265 C 
ATOM     78  O49 UX9 d   1      14.108  19.653   5.766  0.00  0.00    -0.269 OA
ATOM     79  H32 UX9 d   1      16.286  21.933   5.323  0.00  0.00     0.197 HD
BRANCH  77  80
ATOM     80  C39 UX9 d   1      16.094  19.369   4.425  0.00  0.00     0.099 C 
ATOM     81  H33 UX9 d   1      16.765  20.060   3.894  0.00  0.00     0.088 H 
BRANCH  80  82
ATOM     82  N40 UX9 d   1      16.853  18.579   5.447  0.00  0.00    -0.323 N 
ATOM     83  C41 UX9 d   1      18.222  18.667   5.677  0.00  0.00     0.360 C 
ATOM     84  O44 UX9 d   1      19.017  19.419   5.052  0.00  0.00    -0.239 OA
ATOM     85  H34 UX9 d   1      16.333  17.936   6.010  0.00  0.00     0.165 HD
BRANCH  83  86
ATOM     86  O42 UX9 d   1      18.578  17.801   6.702  0.00  0.00    -0.309 OA
BRANCH  86  87
ATOM     87  C43 UX9 d   1      19.979  17.737   7.110  0.00  0.00     0.015 C 
ATOM     88  H35 UX9 d   1      20.090  17.009   7.927  0.00  0.00     0.067 H 
ATOM     89  H36 UX9 d   1      20.306  18.729   7.456  0.00  0.00     0.067 H 
ATOM     90  H37 UX9 d   1      20.596  17.426   6.254  0.00  0.00     0.067 H 
ENDBRANCH  86  87
ENDBRANCH  83  86
ENDBRANCH  80  82
BRANCH  80  91
ATOM     91  C45 UX9 d   1      15.427  18.395   3.311  0.00  0.00    -0.022 C 
BRANCH  91  92
ATOM     92  C46 UX9 d   1      14.498  17.261   3.866  0.00  0.00    -0.067 C 
ATOM     93  H38 UX9 d   1      14.104  16.667   3.028  0.00  0.00     0.028 H 
ATOM     94  H39 UX9 d   1      13.662  17.711   4.421  0.00  0.00     0.028 H 
ATOM     95  H40 UX9 d   1      15.076  16.609   4.538  0.00  0.00     0.028 H 
ENDBRANCH  91  92
BRANCH  91  96
ATOM     96  C47 UX9 d   1      14.611  19.250   2.281  0.00  0.00    -0.067 C 
ATOM     97  H41 UX9 d   1      15.250  20.051   1.882  0.00  0.00     0.028 H 
ATOM     98  H42 UX9 d   1      13.738  19.693   2.782  0.00  0.00     0.028 H 
ATOM     99  H43 UX9 d   1      14.273  18.606   1.456  0.00  0.00     0.028 H 
ENDBRANCH  91  96
BRANCH  91 100
ATOM    100  C48 UX9 d   1      16.555  17.668   2.509  0.00  0.00    -0.067 C 
ATOM    101  H44 UX9 d   1      17.155  17.053   3.196  0.00  0.00     0.028 H 
ATOM    102  H45 UX9 d   1      17.201  18.415   2.026  0.00  0.00     0.028 H 
ATOM    103  H46 UX9 d   1      16.102  17.024   1.741  0.00  0.00     0.028 H 
ENDBRANCH  91 100
ENDBRANCH  80  91
ENDBRANCH  77  80
ENDBRANCH   1  76
TORSDOF 20
