REMARK  13 active torsions:
REMARK  status: ('A' for Active; 'I' for Inactive)
REMARK    1  A    between atoms: CAA_1  and  CAJ_2 
REMARK    2  A    between atoms: CAJ_2  and  CAL_3 
REMARK    3  A    between atoms: CAL_3  and  CAM_4 
REMARK    4  A    between atoms: CAM_4  and  CAN_5 
REMARK    5  A    between atoms: CAN_5  and  CAS_6 
REMARK    6  A    between atoms: CAV_7  and  CAQ_8 
REMARK    7  A    between atoms: CAR_11  and  OAG_12 
REMARK    8  A    between atoms: CAT_14  and  OAO_15 
REMARK    9  A    between atoms: OAO_15  and  CAB_16 
REMARK   10  A    between atoms: CAU_17  and  CAK_18 
REMARK   11  A    between atoms: CAK_18  and  CAH_19 
REMARK   12  A    between atoms: CAP_20  and  CAD_21 
REMARK   13  A    between atoms: CAP_20  and  CAC_22 
ROOT
ATOM      1  CAS YFD d   1     -16.120  22.697 -48.348  0.00  0.00    -0.036 A 
ATOM      2  CAV YFD d   1     -17.426  22.185 -48.192  0.00  0.00     0.080 A 
ATOM      3  CAR YFD d   1     -17.607  20.870 -47.733  0.00  0.00     0.092 A 
ATOM      4  CAI YFD d   1     -15.065  21.864 -48.005  0.00  0.00    -0.043 A 
ATOM      5  CAT YFD d   1     -15.263  20.562 -47.548  0.00  0.00     0.078 A 
ATOM      6  CAU YFD d   1     -16.545  20.025 -47.391  0.00  0.00     0.013 A 
ATOM      7  H13 YFD d   1     -14.052  22.238 -48.096  0.00  0.00     0.088 H 
ENDROOT
BRANCH   1   8
ATOM      8  CAN YFD d   1     -15.696  24.103 -48.815  0.00  0.00    -0.040 C 
ATOM      9  H10 YFD d   1     -16.241  24.842 -48.209  0.00  0.00     0.040 H 
ATOM     10  H11 YFD d   1     -14.616  24.209 -48.638  0.00  0.00     0.040 H 
BRANCH   8  11
ATOM     11  CAM YFD d   1     -15.967  24.409 -50.292  0.00  0.00    -0.061 C 
ATOM     12  H8  YFD d   1     -15.868  23.479 -50.871  0.00  0.00     0.033 H 
ATOM     13  H9  YFD d   1     -16.992  24.796 -50.392  0.00  0.00     0.033 H 
BRANCH  11  14
ATOM     14  CAL YFD d   1     -14.980  25.457 -50.858  0.00  0.00    -0.065 C 
ATOM     15  H6  YFD d   1     -13.956  25.075 -50.734  0.00  0.00     0.033 H 
ATOM     16  H7  YFD d   1     -15.193  25.594 -51.928  0.00  0.00     0.033 H 
BRANCH  14  17
ATOM     17  CAJ YFD d   1     -15.078  26.820 -50.164  0.00  0.00    -0.069 C 
ATOM     18  H4  YFD d   1     -16.111  27.191 -50.235  0.00  0.00     0.032 H 
ATOM     19  H5  YFD d   1     -14.800  26.709 -49.105  0.00  0.00     0.032 H 
BRANCH  17  20
ATOM     20  CAA YFD d   1     -14.132  27.825 -50.834  0.00  0.00    -0.077 C 
ATOM     21  H1  YFD d   1     -14.212  28.798 -50.327  0.00  0.00     0.027 H 
ATOM     22  H2  YFD d   1     -14.409  27.939 -51.892  0.00  0.00     0.027 H 
ATOM     23  H3  YFD d   1     -13.097  27.458 -50.763  0.00  0.00     0.027 H 
ENDBRANCH  17  20
ENDBRANCH  14  17
ENDBRANCH  11  14
ENDBRANCH   8  11
ENDBRANCH   1   8
BRANCH   2  24
ATOM     24  CAQ YFD d   1     -18.698  23.013 -48.523  0.00  0.00     0.212 C 
ATOM     25  OAF YFD d   1     -19.815  22.437 -48.450  0.00  0.00    -0.644 OA
ATOM     26  OAE YFD d   1     -18.564  24.224 -48.824  0.00  0.00    -0.644 OA
ENDBRANCH   2  24
BRANCH   3  27
ATOM     27  OAG YFD d   1     -18.874  20.393 -47.605  0.00  0.00    -0.359 OA
ATOM     28  H12 YFD d   1     -19.307  20.416 -48.450  0.00  0.00     0.217 HD
ENDBRANCH   3  27
BRANCH   5  29
ATOM     29  OAO YFD d   1     -14.164  19.825 -47.253  0.00  0.00    -0.355 OA
BRANCH  29  30
ATOM     30  CAB YFD d   1     -13.496  19.451 -48.454  0.00  0.00     0.010 C 
ATOM     31  H14 YFD d   1     -12.606  18.854 -48.208  0.00  0.00     0.066 H 
ATOM     32  H15 YFD d   1     -13.191  20.355 -49.001  0.00  0.00     0.066 H 
ATOM     33  H16 YFD d   1     -14.175  18.855 -49.081  0.00  0.00     0.066 H 
ENDBRANCH  29  30
ENDBRANCH   5  29
BRANCH   6  34
ATOM     34  CAK YFD d   1     -16.831  18.590 -46.874  0.00  0.00    -0.020 C 
ATOM     35  H17 YFD d   1     -16.447  17.867 -47.609  0.00  0.00     0.046 H 
ATOM     36  H18 YFD d   1     -17.919  18.463 -46.769  0.00  0.00     0.046 H 
BRANCH  34  37
ATOM     37  CAH YFD d   1     -16.223  18.333 -45.627  0.00  0.00    -0.097 C 
ATOM     38  CAP YFD d   1     -16.770  17.986 -44.375  0.00  0.00    -0.091 C 
ATOM     39  H19 YFD d   1     -15.137  18.418 -45.633  0.00  0.00     0.077 H 
BRANCH  38  40
ATOM     40  CAD YFD d   1     -15.835  17.703 -43.171  0.00  0.00    -0.055 C 
ATOM     41  H20 YFD d   1     -16.441  17.451 -42.288  0.00  0.00     0.033 H 
ATOM     42  H21 YFD d   1     -15.231  18.597 -42.958  0.00  0.00     0.033 H 
ATOM     43  H22 YFD d   1     -15.171  16.860 -43.413  0.00  0.00     0.033 H 
ENDBRANCH  38  40
BRANCH  38  44
ATOM     44  CAC YFD d   1     -18.303  17.863 -44.152  0.00  0.00    -0.055 C 
ATOM     45  H23 YFD d   1     -18.829  18.092 -45.090  0.00  0.00     0.033 H 
ATOM     46  H24 YFD d   1     -18.618  18.572 -43.372  0.00  0.00     0.033 H 
ATOM     47  H25 YFD d   1     -18.547  16.838 -43.836  0.00  0.00     0.033 H 
ENDBRANCH  38  44
ENDBRANCH  34  37
ENDBRANCH   6  34
TORSDOF 13
