REMARK  15 active torsions:
REMARK  status: ('A' for Active; 'I' for Inactive)
REMARK    1  A    between atoms: CAB_1  and  CAV_2 
REMARK    2  A    between atoms: CAV_2  and  CAC_3 
REMARK    3  A    between atoms: CAH_4  and  CAP_5 
REMARK    4  A    between atoms: CAP_5  and  CAR_6 
REMARK    5  A    between atoms: CAR_6  and  CAW_7 
REMARK    6  A    between atoms: CAW_7  and  CAD_8 
REMARK    7  A    between atoms: CAI_9  and  CAQ_10 
REMARK    8  A    between atoms: CAQ_10  and  CBC_11 
REMARK    9  A    between atoms: CBB_12  and  OAU_14 
REMARK   10  A    between atoms: OAU_14  and  CAA_15 
REMARK   11  A    between atoms: CAZ_16  and  OAG_17 
REMARK   12  A    between atoms: CBD_18  and  CAX_19 
REMARK   13  A    between atoms: CBA_22  and  CAT_23 
REMARK   14  A    between atoms: CAT_23  and  CAS_24 
REMARK   15  A    between atoms: CAS_24  and  CAY_25 
ROOT
ATOM      1  CBC YFB d   1     -16.568  19.768 -10.080  0.00  0.00     0.013 A 
ATOM      2  CBB YFB d   1     -17.864  20.267  -9.957  0.00  0.00     0.078 A 
ATOM      3  CAO YFB d   1     -18.117  21.565  -9.523  0.00  0.00    -0.043 A 
ATOM      4  CAZ YFB d   1     -15.525  20.644  -9.726  0.00  0.00     0.092 A 
ATOM      5  CBD YFB d   1     -15.764  21.955  -9.289  0.00  0.00     0.080 A 
ATOM      6  CBA YFB d   1     -17.084  22.424  -9.181  0.00  0.00    -0.035 A 
ATOM      7  H18 YFB d   1     -19.142  21.911  -9.451  0.00  0.00     0.088 H 
ENDROOT
BRANCH   1   8
ATOM      8  CAQ YFB d   1     -16.263  18.327 -10.567  0.00  0.00    -0.020 C 
ATOM      9  H16 YFB d   1     -15.178  18.226 -10.718  0.00  0.00     0.046 H 
ATOM     10  H17 YFB d   1     -16.594  17.615  -9.797  0.00  0.00     0.046 H 
BRANCH   8  11
ATOM     11  CAI YFB d   1     -16.919  18.027 -11.775  0.00  0.00    -0.097 C 
ATOM     12  CAW YFB d   1     -16.400  17.909 -13.074  0.00  0.00    -0.087 C 
ATOM     13  H15 YFB d   1     -17.992  17.861 -11.689  0.00  0.00     0.077 H 
BRANCH  12  14
ATOM     14  CAR YFB d   1     -14.890  18.134 -13.351  0.00  0.00    -0.042 C 
ATOM     15  H10 YFB d   1     -14.789  19.003 -14.018  0.00  0.00     0.040 H 
ATOM     16  H11 YFB d   1     -14.393  18.348 -12.393  0.00  0.00     0.040 H 
BRANCH  14  17
ATOM     17  CAP YFB d   1     -14.178  16.941 -14.005  0.00  0.00    -0.046 C 
ATOM     18  H8  YFB d   1     -14.727  16.021 -13.758  0.00  0.00     0.039 H 
ATOM     19  H9  YFB d   1     -14.174  17.084 -15.096  0.00  0.00     0.039 H 
BRANCH  17  20
ATOM     20  CAH YFB d   1     -12.851  16.811 -13.560  0.00  0.00    -0.101 C 
ATOM     21  CAV YFB d   1     -11.900  15.809 -13.843  0.00  0.00    -0.091 C 
ATOM     22  H7  YFB d   1     -12.505  17.603 -12.897  0.00  0.00     0.077 H 
BRANCH  21  23
ATOM     23  CAB YFB d   1     -10.516  15.832 -13.188  0.00  0.00    -0.055 C 
ATOM     24  H1  YFB d   1      -9.930  14.970 -13.539  0.00  0.00     0.033 H 
ATOM     25  H2  YFB d   1     -10.627  15.780 -12.095  0.00  0.00     0.033 H 
ATOM     26  H3  YFB d   1      -9.997  16.763 -13.460  0.00  0.00     0.033 H 
ENDBRANCH  21  23
BRANCH  21  27
ATOM     27  CAC YFB d   1     -12.146  14.673 -14.848  0.00  0.00    -0.055 C 
ATOM     28  H4  YFB d   1     -13.166  14.756 -15.252  0.00  0.00     0.033 H 
ATOM     29  H5  YFB d   1     -12.030  13.704 -14.341  0.00  0.00     0.033 H 
ATOM     30  H6  YFB d   1     -11.419  14.746 -15.670  0.00  0.00     0.033 H 
ENDBRANCH  21  27
ENDBRANCH  17  20
ENDBRANCH  14  17
ENDBRANCH  12  14
BRANCH  12  31
ATOM     31  CAD YFB d   1     -17.338  17.529 -14.249  0.00  0.00    -0.055 C 
ATOM     32  H12 YFB d   1     -18.365  17.409 -13.874  0.00  0.00     0.033 H 
ATOM     33  H13 YFB d   1     -16.999  16.584 -14.698  0.00  0.00     0.033 H 
ATOM     34  H14 YFB d   1     -17.315  18.325 -15.008  0.00  0.00     0.033 H 
ENDBRANCH  12  31
ENDBRANCH   8  11
ENDBRANCH   1   8
BRANCH   2  35
ATOM     35  OAU YFB d   1     -18.923  19.483 -10.264  0.00  0.00    -0.355 OA
BRANCH  35  36
ATOM     36  CAA YFB d   1     -19.824  19.447  -9.147  0.00  0.00     0.010 C 
ATOM     37  H19 YFB d   1     -20.687  18.810  -9.392  0.00  0.00     0.066 H 
ATOM     38  H20 YFB d   1     -20.172  20.466  -8.924  0.00  0.00     0.066 H 
ATOM     39  H21 YFB d   1     -19.303  19.037  -8.269  0.00  0.00     0.066 H 
ENDBRANCH  35  36
ENDBRANCH   2  35
BRANCH   4  40
ATOM     40  OAG YFB d   1     -14.229  20.209  -9.812  0.00  0.00    -0.359 OA
ATOM     41  H22 YFB d   1     -13.643  20.907  -9.542  0.00  0.00     0.217 HD
ENDBRANCH   4  40
BRANCH   5  42
ATOM     42  CAX YFB d   1     -14.546  22.855  -8.938  0.00  0.00     0.212 C 
ATOM     43  OAF YFB d   1     -13.402  22.323  -8.946  0.00  0.00    -0.644 OA
ATOM     44  OAE YFB d   1     -14.756  24.071  -8.685  0.00  0.00    -0.644 OA
ENDBRANCH   5  42
BRANCH   6  45
ATOM     45  CAT YFB d   1     -17.521  23.818  -8.731  0.00  0.00    -0.036 C 
ATOM     46  H23 YFB d   1     -18.456  24.084  -9.246  0.00  0.00     0.040 H 
ATOM     47  H24 YFB d   1     -16.737  24.543  -8.996  0.00  0.00     0.040 H 
BRANCH  45  48
ATOM     48  CAS YFB d   1     -17.752  23.866  -7.228  0.00  0.00    -0.037 C 
ATOM     49  H25 YFB d   1     -16.889  23.416  -6.716  0.00  0.00     0.040 H 
ATOM     50  H26 YFB d   1     -18.661  23.296  -6.985  0.00  0.00     0.040 H 
BRANCH  48  51
ATOM     51  CAY YFB d   1     -17.922  25.311  -6.748  0.00  0.00    -0.058 A 
ATOM     52  CAM YFB d   1     -18.948  26.110  -7.261  0.00  0.00    -0.077 A 
ATOM     53  CAK YFB d   1     -19.108  27.427  -6.826  0.00  0.00    -0.082 A 
ATOM     54  H27 YFB d   1     -19.625  25.703  -8.003  0.00  0.00     0.084 H 
ATOM     55  CAJ YFB d   1     -18.225  27.935  -5.868  0.00  0.00    -0.083 A 
ATOM     56  H28 YFB d   1     -19.904  28.046  -7.224  0.00  0.00     0.083 H 
ATOM     57  CAL YFB d   1     -17.200  27.137  -5.348  0.00  0.00    -0.082 A 
ATOM     58  H29 YFB d   1     -18.336  28.957  -5.525  0.00  0.00     0.083 H 
ATOM     59  CAN YFB d   1     -17.046  25.821  -5.790  0.00  0.00    -0.077 A 
ATOM     60  H30 YFB d   1     -16.525  27.540  -4.602  0.00  0.00     0.083 H 
ATOM     61  H31 YFB d   1     -16.252  25.201  -5.391  0.00  0.00     0.084 H 
ENDBRANCH  48  51
ENDBRANCH  45  48
ENDBRANCH   6  45
TORSDOF 15
