REMARK  21 active torsions:
REMARK  status: ('A' for Active; 'I' for Inactive)
REMARK    1  A    between atoms: C20_20  and  C3_3 
REMARK    2  A    between atoms: C3_3  and  C21_21 
REMARK    3  A    between atoms: C4_4  and  O17_17 
REMARK    4  A    between atoms: N6_6  and  C7_7 
REMARK    5  A    between atoms: C11_11  and  O12_12 
REMARK    6  A    between atoms: C19_19  and  C18_18 
REMARK    7  A    between atoms: C18_18  and  C20_20 
REMARK    8  A    between atoms: N36_36  and  C19_19 
REMARK    9  A    between atoms: C21_21  and  C22_22 
REMARK   10  A    between atoms: C29_29  and  C28_28 
REMARK   11  A    between atoms: C35_35  and  C32_32 
REMARK   12  A    between atoms: C35_35  and  N36_36 
REMARK   13  A    between atoms: N36_36  and  N37_37 
REMARK       I    between atoms: N37_37  and  C38_38 
REMARK   14  A    between atoms: C38_38  and  C39_39 
REMARK   15  A    between atoms: C39_39  and  N40_40 
REMARK   16  A    between atoms: C39_39  and  C45_45 
REMARK       I    between atoms: N40_40  and  C41_41 
REMARK   17  A    between atoms: C41_41  and  O42_42 
REMARK   18  A    between atoms: O42_42  and  C43_43 
REMARK   19  A    between atoms: C45_45  and  C46_46 
REMARK   20  A    between atoms: C45_45  and  C47_47 
REMARK   21  A    between atoms: C45_45  and  C48_48 
ROOT
ATOM      1  N36 QG8 d   1      15.774  22.513   7.135  0.00  0.00     0.015 N 
ATOM      2  H33 QG8 d   1      14.874  22.198   7.462  0.00  0.00     0.309 HD
ENDROOT
BRANCH   1   3
ATOM      3  C19 QG8 d   1      15.638  23.845   6.531  0.00  0.00     0.105 C 
ATOM      4  H16 QG8 d   1      15.494  24.572   7.344  0.00  0.00     0.079 H 
ATOM      5  H17 QG8 d   1      16.573  24.072   5.998  0.00  0.00     0.079 H 
BRANCH   3   6
ATOM      6  C18 QG8 d   1      14.499  24.006   5.558  0.00  0.00    -0.039 C 
ATOM      7  H14 QG8 d   1      14.642  23.281   4.743  0.00  0.00     0.035 H 
ATOM      8  H15 QG8 d   1      14.541  25.027   5.151  0.00  0.00     0.035 H 
BRANCH   6   9
ATOM      9  C20 QG8 d   1      13.082  23.784   6.156  0.00  0.00    -0.045 C 
ATOM     10  H18 QG8 d   1      12.954  22.704   6.322  0.00  0.00     0.035 H 
ATOM     11  H19 QG8 d   1      13.039  24.311   7.120  0.00  0.00     0.035 H 
BRANCH   9  12
ATOM     12  C3  QG8 d   1      11.882  24.276   5.293  0.00  0.00     0.072 C 
ATOM     13  C1  QG8 d   1      10.581  24.194   6.168  0.00  0.00     0.232 C 
ATOM     14  O2  QG8 d   1      10.302  23.195   6.827  0.00  0.00    -0.272 OA
ATOM     15  N6  QG8 d   1       9.842  25.318   6.103  0.00  0.00    -0.338 N 
ATOM     16  C5  QG8 d   1      10.478  26.260   5.220  0.00  0.00     0.024 C 
ATOM     17  C4  QG8 d   1      11.899  25.827   5.008  0.00  0.00     0.067 C 
ATOM     18  H2  QG8 d   1       9.948  26.281   4.256  0.00  0.00     0.068 H 
ATOM     19  H3  QG8 d   1      10.459  27.263   5.671  0.00  0.00     0.068 H 
ATOM     20  H1  QG8 d   1      12.247  26.011   3.981  0.00  0.00     0.087 H 
BRANCH  15  21
ATOM     21  C7  QG8 d   1       8.555  25.594   6.802  0.00  0.00     0.065 C 
ATOM     22  C8  QG8 d   1       8.468  26.860   7.658  0.00  0.00    -0.026 A 
ATOM     23  C9  QG8 d   1       7.138  27.388   7.621  0.00  0.00    -0.047 A 
ATOM     24  C16 QG8 d   1       9.510  27.523   8.437  0.00  0.00    -0.074 A 
ATOM     25  C10 QG8 d   1       6.248  26.548   6.752  0.00  0.00    -0.014 C 
ATOM     26  C13 QG8 d   1       6.776  28.591   8.348  0.00  0.00    -0.076 A 
ATOM     27  C11 QG8 d   1       7.247  25.702   5.924  0.00  0.00     0.063 C 
ATOM     28  H5  QG8 d   1       5.629  27.179   6.097  0.00  0.00     0.044 H 
ATOM     29  H6  QG8 d   1       5.598  25.904   7.362  0.00  0.00     0.044 H 
ATOM     30  H7  QG8 d   1       6.856  24.696   5.713  0.00  0.00     0.087 H 
ATOM     31  C14 QG8 d   1       7.802  29.268   9.130  0.00  0.00    -0.082 A 
ATOM     32  H9  QG8 d   1       5.764  28.977   8.310  0.00  0.00     0.084 H 
ATOM     33  C15 QG8 d   1       9.168  28.735   9.169  0.00  0.00    -0.082 A 
ATOM     34  H10 QG8 d   1       7.556  30.167   9.684  0.00  0.00     0.083 H 
ATOM     35  H11 QG8 d   1       9.929  29.247   9.747  0.00  0.00     0.083 H 
ATOM     36  H12 QG8 d   1      10.517  27.122   8.470  0.00  0.00     0.084 H 
ATOM     37  H4  QG8 d   1       8.424  24.735   7.476  0.00  0.00     0.084 H 
BRANCH  27  38
ATOM     38  O12 QG8 d   1       7.405  26.433   4.703  0.00  0.00    -0.393 OA
ATOM     39  H8  QG8 d   1       7.746  27.299   4.895  0.00  0.00     0.210 HD
ENDBRANCH  27  38
ENDBRANCH  15  21
BRANCH  17  40
ATOM     40  O17 QG8 d   1      12.616  26.632   5.905  0.00  0.00    -0.393 OA
ATOM     41  H13 QG8 d   1      13.541  26.427   5.843  0.00  0.00     0.210 HD
ENDBRANCH  17  40
BRANCH  12  42
ATOM     42  C21 QG8 d   1      11.755  23.356   3.942  0.00  0.00    -0.023 C 
ATOM     43  H20 QG8 d   1      11.574  22.322   4.270  0.00  0.00     0.042 H 
ATOM     44  H21 QG8 d   1      12.722  23.411   3.421  0.00  0.00     0.042 H 
BRANCH  42  45
ATOM     45  C22 QG8 d   1      10.660  23.704   2.908  0.00  0.00    -0.057 A 
ATOM     46  C23 QG8 d   1      10.941  24.598   1.791  0.00  0.00    -0.077 A 
ATOM     47  C24 QG8 d   1       9.905  24.921   0.839  0.00  0.00    -0.082 A 
ATOM     48  H22 QG8 d   1      11.932  25.022   1.675  0.00  0.00     0.084 H 
ATOM     49  C25 QG8 d   1       8.584  24.360   0.990  0.00  0.00    -0.083 A 
ATOM     50  H23 QG8 d   1      10.120  25.586   0.010  0.00  0.00     0.083 H 
ATOM     51  C26 QG8 d   1       8.302  23.475   2.090  0.00  0.00    -0.082 A 
ATOM     52  H24 QG8 d   1       7.805  24.605   0.277  0.00  0.00     0.083 H 
ATOM     53  C27 QG8 d   1       9.324  23.142   3.048  0.00  0.00    -0.077 A 
ATOM     54  H25 QG8 d   1       7.309  23.055   2.198  0.00  0.00     0.083 H 
ATOM     55  H26 QG8 d   1       9.099  22.474   3.872  0.00  0.00     0.084 H 
ENDBRANCH  42  45
ENDBRANCH  12  42
ENDBRANCH   9  12
ENDBRANCH   6   9
ENDBRANCH   3   6
ENDBRANCH   1   3
BRANCH   1  56
ATOM     56  C35 QG8 d   1      16.713  22.589   8.280  0.00  0.00     0.128 C 
ATOM     57  H31 QG8 d   1      17.685  22.953   7.917  0.00  0.00     0.086 H 
ATOM     58  H32 QG8 d   1      16.311  23.295   9.021  0.00  0.00     0.086 H 
BRANCH  56  59
ATOM     59  C32 QG8 d   1      16.917  21.234   8.953  0.00  0.00    -0.030 A 
ATOM     60  C31 QG8 d   1      18.278  20.762   9.126  0.00  0.00    -0.074 A 
ATOM     61  C30 QG8 d   1      18.537  19.490   9.760  0.00  0.00    -0.072 A 
ATOM     62  H28 QG8 d   1      19.106  21.368   8.777  0.00  0.00     0.084 H 
ATOM     63  C29 QG8 d   1      17.443  18.651  10.240  0.00  0.00    -0.026 A 
ATOM     64  H27 QG8 d   1      19.560  19.153   9.881  0.00  0.00     0.084 H 
ATOM     65  C34 QG8 d   1      16.062  19.129  10.062  0.00  0.00    -0.072 A 
ATOM     66  C33 QG8 d   1      15.798  20.418   9.421  0.00  0.00    -0.074 A 
ATOM     67  H30 QG8 d   1      15.234  18.521  10.409  0.00  0.00     0.084 H 
ATOM     68  H29 QG8 d   1      14.779  20.765   9.294  0.00  0.00     0.084 H 
BRANCH  63  69
ATOM     69  C28 QG8 d   1      17.743  17.349  10.893  0.00  0.00    -0.026 A 
ATOM     70  C50 QG8 d   1      17.842  17.248  12.350  0.00  0.00    -0.072 A 
ATOM     71  C51 QG8 d   1      18.133  15.978  12.998  0.00  0.00    -0.082 A 
ATOM     72  H49 QG8 d   1      17.696  18.134  12.957  0.00  0.00     0.084 H 
ATOM     73  C52 QG8 d   1      18.331  14.781  12.192  0.00  0.00    -0.083 A 
ATOM     74  H50 QG8 d   1      18.202  15.923  14.078  0.00  0.00     0.083 H 
ATOM     75  C53 QG8 d   1      18.238  14.861  10.740  0.00  0.00    -0.082 A 
ATOM     76  H51 QG8 d   1      18.547  13.833  12.671  0.00  0.00     0.083 H 
ATOM     77  C54 QG8 d   1      17.946  16.131  10.095  0.00  0.00    -0.072 A 
ATOM     78  H52 QG8 d   1      18.387  13.971  10.139  0.00  0.00     0.083 H 
ATOM     79  H53 QG8 d   1      17.877  16.180   9.014  0.00  0.00     0.084 H 
ENDBRANCH  63  69
ENDBRANCH  56  59
ENDBRANCH   1  56
BRANCH   1  80
ATOM     80  N37 QG8 d   1      16.260  21.614   6.168  0.00  0.00    -0.185 N 
ATOM     81  C38 QG8 d   1      15.550  20.605   5.648  0.00  0.00     0.265 C 
ATOM     82  O49 QG8 d   1      14.377  20.361   5.972  0.00  0.00    -0.269 OA
ATOM     83  H34 QG8 d   1      17.199  21.737   5.847  0.00  0.00     0.197 HD
BRANCH  81  84
ATOM     84  C39 QG8 d   1      16.359  19.798   4.618  0.00  0.00     0.099 C 
ATOM     85  H35 QG8 d   1      17.010  20.490   4.064  0.00  0.00     0.088 H 
BRANCH  84  86
ATOM     86  N40 QG8 d   1      17.147  18.907   5.471  0.00  0.00    -0.323 N 
ATOM     87  C41 QG8 d   1      18.515  19.019   5.674  0.00  0.00     0.360 C 
ATOM     88  O44 QG8 d   1      19.232  19.890   5.152  0.00  0.00    -0.239 OA
ATOM     89  H36 QG8 d   1      16.666  18.166   5.940  0.00  0.00     0.165 HD
BRANCH  87  90
ATOM     90  O42 QG8 d   1      18.895  18.030   6.519  0.00  0.00    -0.309 OA
BRANCH  90  91
ATOM     91  C43 QG8 d   1      20.257  17.886   6.914  0.00  0.00     0.015 C 
ATOM     92  H37 QG8 d   1      20.352  17.029   7.597  0.00  0.00     0.067 H 
ATOM     93  H38 QG8 d   1      20.589  18.801   7.426  0.00  0.00     0.067 H 
ATOM     94  H39 QG8 d   1      20.881  17.716   6.024  0.00  0.00     0.067 H 
ENDBRANCH  90  91
ENDBRANCH  87  90
ENDBRANCH  84  86
BRANCH  84  95
ATOM     95  C45 QG8 d   1      15.587  18.897   3.541  0.00  0.00    -0.022 C 
BRANCH  95  96
ATOM     96  C46 QG8 d   1      14.739  19.826   2.626  0.00  0.00    -0.067 C 
ATOM     97  H40 QG8 d   1      14.204  19.218   1.882  0.00  0.00     0.028 H 
ATOM     98  H41 QG8 d   1      15.401  20.537   2.111  0.00  0.00     0.028 H 
ATOM     99  H42 QG8 d   1      14.012  20.380   3.238  0.00  0.00     0.028 H 
ENDBRANCH  95  96
BRANCH  95 100
ATOM    100  C47 QG8 d   1      16.613  18.184   2.609  0.00  0.00    -0.067 C 
ATOM    101  H43 QG8 d   1      17.244  17.509   3.206  0.00  0.00     0.028 H 
ATOM    102  H44 QG8 d   1      17.245  18.937   2.116  0.00  0.00     0.028 H 
ATOM    103  H45 QG8 d   1      16.074  17.602   1.847  0.00  0.00     0.028 H 
ENDBRANCH  95 100
BRANCH  95 104
ATOM    104  C48 QG8 d   1      14.683  17.789   4.149  0.00  0.00    -0.067 C 
ATOM    105  H46 QG8 d   1      13.940  18.248   4.817  0.00  0.00     0.028 H 
ATOM    106  H47 QG8 d   1      15.303  17.082   4.721  0.00  0.00     0.028 H 
ATOM    107  H48 QG8 d   1      14.166  17.252   3.340  0.00  0.00     0.028 H 
ENDBRANCH  95 104
ENDBRANCH  84  95
ENDBRANCH  81  84
ENDBRANCH   1  80
TORSDOF 21
