REMARK  21 active torsions:
REMARK  status: ('A' for Active; 'I' for Inactive)
REMARK    1  A    between atoms: C4_3  and  O17_16 
REMARK    2  A    between atoms: N6_5  and  C7_6 
REMARK    3  A    between atoms: C11_10  and  O12_11 
REMARK    4  A    between atoms: C18_17  and  C19_18 
REMARK    5  A    between atoms: C20_54  and  C18_17 
REMARK    6  A    between atoms: C19_18  and  N36_34 
REMARK    7  A    between atoms: C21_19  and  C22_20 
REMARK    8  A    between atoms: C3_52  and  C21_19 
REMARK    9  A    between atoms: C29_27  and  C28_26 
REMARK   10  A    between atoms: C35_33  and  C32_30 
REMARK   11  A    between atoms: N36_34  and  C35_33 
REMARK   12  A    between atoms: N36_34  and  N37_35 
REMARK       I    between atoms: N37_35  and  C38_36 
REMARK   13  A    between atoms: C38_36  and  C39_37 
REMARK   14  A    between atoms: C39_37  and  N40_38 
REMARK   15  A    between atoms: C39_37  and  C45_43 
REMARK       I    between atoms: N40_38  and  C41_39 
REMARK   16  A    between atoms: C41_39  and  O42_40 
REMARK   17  A    between atoms: O42_40  and  C43_41 
REMARK   18  A    between atoms: C45_43  and  C46_44 
REMARK   19  A    between atoms: C45_43  and  C47_45 
REMARK   20  A    between atoms: C45_43  and  C48_46 
REMARK   21  A    between atoms: C3_52  and  C20_54 
ROOT
ATOM      1  C19 QG9 d   1      15.744  24.137   6.619  0.00  0.00     0.105 C 
ATOM      2  H16 QG9 d   1      15.623  24.837   7.458  0.00  0.00     0.079 H 
ATOM      3  H17 QG9 d   1      16.699  24.335   6.111  0.00  0.00     0.079 H 
ENDROOT
BRANCH   1   4
ATOM      4  C18 QG9 d   1      14.638  24.400   5.637  0.00  0.00    -0.039 C 
ATOM      5  H14 QG9 d   1      14.757  23.710   4.789  0.00  0.00     0.035 H 
ATOM      6  H15 QG9 d   1      14.730  25.437   5.282  0.00  0.00     0.035 H 
BRANCH   4   7
ATOM      7  C20 QG9 d   1      13.213  24.210   6.224  0.00  0.00    -0.045 C 
ATOM      8  H51 QG9 d   1      13.114  24.884   7.088  0.00  0.00     0.035 H 
ATOM      9  H52 QG9 d   1      13.126  23.166   6.561  0.00  0.00     0.035 H 
BRANCH   7  10
ATOM     10  C3  QG9 d   1      12.024  24.497   5.262  0.00  0.00     0.072 C 
ATOM     11  C1  QG9 d   1      10.732  24.368   6.106  0.00  0.00     0.232 C 
ATOM     12  O2  QG9 d   1      10.513  23.384   6.830  0.00  0.00    -0.272 OA
ATOM     13  N6  QG9 d   1       9.916  25.410   5.935  0.00  0.00    -0.338 N 
ATOM     14  C5  QG9 d   1      10.514  26.354   5.022  0.00  0.00     0.024 C 
ATOM     15  C4  QG9 d   1      11.963  26.024   4.907  0.00  0.00     0.067 C 
ATOM     16  H2  QG9 d   1      10.033  26.276   4.036  0.00  0.00     0.068 H 
ATOM     17  H3  QG9 d   1      10.393  27.377   5.409  0.00  0.00     0.068 H 
ATOM     18  H1  QG9 d   1      12.362  26.193   3.896  0.00  0.00     0.087 H 
BRANCH  13  19
ATOM     19  C7  QG9 d   1       8.599  25.631   6.567  0.00  0.00     0.065 C 
ATOM     20  C8  QG9 d   1       8.434  26.886   7.408  0.00  0.00    -0.026 A 
ATOM     21  C9  QG9 d   1       7.081  27.317   7.352  0.00  0.00    -0.047 A 
ATOM     22  C16 QG9 d   1       9.429  27.619   8.190  0.00  0.00    -0.074 A 
ATOM     23  C10 QG9 d   1       6.264  26.401   6.485  0.00  0.00    -0.014 C 
ATOM     24  C13 QG9 d   1       6.634  28.496   8.056  0.00  0.00    -0.076 A 
ATOM     25  C11 QG9 d   1       7.336  25.698   5.623  0.00  0.00     0.063 C 
ATOM     26  H5  QG9 d   1       5.562  26.971   5.858  0.00  0.00     0.044 H 
ATOM     27  H6  QG9 d   1       5.705  25.674   7.093  0.00  0.00     0.044 H 
ATOM     28  H7  QG9 d   1       7.030  24.685   5.321  0.00  0.00     0.087 H 
ATOM     29  C14 QG9 d   1       7.607  29.244   8.842  0.00  0.00    -0.082 A 
ATOM     30  H9  QG9 d   1       5.600  28.817   8.001  0.00  0.00     0.084 H 
ATOM     31  C15 QG9 d   1       9.001  28.808   8.906  0.00  0.00    -0.082 A 
ATOM     32  H10 QG9 d   1       7.295  30.130   9.383  0.00  0.00     0.083 H 
ATOM     33  H11 QG9 d   1       9.718  29.374   9.490  0.00  0.00     0.083 H 
ATOM     34  H12 QG9 d   1      10.459  27.284   8.234  0.00  0.00     0.084 H 
ATOM     35  H4  QG9 d   1       8.465  24.767   7.234  0.00  0.00     0.084 H 
BRANCH  25  36
ATOM     36  O12 QG9 d   1       7.497  26.527   4.468  0.00  0.00    -0.393 OA
ATOM     37  H8  QG9 d   1       6.668  26.592   4.008  0.00  0.00     0.210 HD
ENDBRANCH  25  36
ENDBRANCH  13  19
BRANCH  15  38
ATOM     38  O17 QG9 d   1      12.566  26.905   5.820  0.00  0.00    -0.393 OA
ATOM     39  H13 QG9 d   1      13.506  26.767   5.817  0.00  0.00     0.210 HD
ENDBRANCH  15  38
BRANCH  10  40
ATOM     40  C21 QG9 d   1      12.079  23.474   3.971  0.00  0.00    -0.023 C 
ATOM     41  H18 QG9 d   1      13.006  23.668   3.411  0.00  0.00     0.042 H 
ATOM     42  H19 QG9 d   1      12.086  22.440   4.345  0.00  0.00     0.042 H 
BRANCH  40  43
ATOM     43  C22 QG9 d   1      10.835  23.647   2.973  0.00  0.00    -0.057 A 
ATOM     44  C27 QG9 d   1      10.476  24.614   1.939  0.00  0.00    -0.077 A 
ATOM     45  C26 QG9 d   1       9.252  24.494   1.188  0.00  0.00    -0.082 A 
ATOM     46  H20 QG9 d   1      11.146  25.441   1.732  0.00  0.00     0.084 H 
ATOM     47  C25 QG9 d   1       8.350  23.396   1.456  0.00  0.00    -0.083 A 
ATOM     48  H21 QG9 d   1       9.008  25.224   0.425  0.00  0.00     0.083 H 
ATOM     49  C24 QG9 d   1       8.683  22.419   2.479  0.00  0.00    -0.082 A 
ATOM     50  H22 QG9 d   1       7.427  23.302   0.895  0.00  0.00     0.083 H 
ATOM     51  C23 QG9 d   1       9.911  22.535   3.235  0.00  0.00    -0.077 A 
ATOM     52  H23 QG9 d   1       8.005  21.596   2.677  0.00  0.00     0.083 H 
ATOM     53  H24 QG9 d   1      10.150  21.801   3.996  0.00  0.00     0.084 H 
ENDBRANCH  40  43
ENDBRANCH  10  40
ENDBRANCH   7  10
ENDBRANCH   4   7
ENDBRANCH   1   4
BRANCH   1  54
ATOM     54  N36 QG9 d   1      15.802  22.794   7.166  0.00  0.00     0.015 N 
ATOM     55  H31 QG9 d   1      14.877  22.524   7.463  0.00  0.00     0.309 HD
BRANCH  54  56
ATOM     56  C35 QG9 d   1      16.707  22.777   8.339  0.00  0.00     0.128 C 
ATOM     57  H29 QG9 d   1      17.691  23.138   8.005  0.00  0.00     0.086 H 
ATOM     58  H30 QG9 d   1      16.296  23.471   9.087  0.00  0.00     0.086 H 
BRANCH  56  59
ATOM     59  C32 QG9 d   1      16.902  21.531   8.974  0.00  0.00    -0.030 A 
ATOM     60  C31 QG9 d   1      18.186  20.916   9.195  0.00  0.00    -0.074 A 
ATOM     61  C30 QG9 d   1      18.277  19.629   9.855  0.00  0.00    -0.072 A 
ATOM     62  H26 QG9 d   1      19.088  21.418   8.866  0.00  0.00     0.084 H 
ATOM     63  C29 QG9 d   1      17.083  18.905  10.318  0.00  0.00    -0.026 A 
ATOM     64  H25 QG9 d   1      19.254  19.187  10.012  0.00  0.00     0.084 H 
ATOM     65  C34 QG9 d   1      15.781  19.558  10.079  0.00  0.00    -0.072 A 
ATOM     66  C33 QG9 d   1      15.693  20.854   9.416  0.00  0.00    -0.074 A 
ATOM     67  H28 QG9 d   1      14.872  19.064  10.403  0.00  0.00     0.084 H 
ATOM     68  H27 QG9 d   1      14.725  21.314   9.252  0.00  0.00     0.084 H 
BRANCH  63  69
ATOM     69  C28 QG9 d   1      17.198  17.549  11.013  0.00  0.00    -0.023 A 
ATOM     70  C54 QG9 d   1      18.501  17.018  11.190  0.00  0.00    -0.055 A 
ATOM     71  C53 QG9 d   1      18.688  15.787  11.816  0.00  0.00     0.003 A 
ATOM     72  H47 QG9 d   1      19.360  17.575  10.835  0.00  0.00     0.087 H 
ATOM     73  N52 QG9 d   1      17.578  15.005  12.304  0.00  0.00    -0.273 NA
ATOM     74  H48 QG9 d   1      19.695  15.406  11.940  0.00  0.00     0.114 H 
ATOM     75  C51 QG9 d   1      16.230  15.523  12.136  0.00  0.00     0.003 A 
ATOM     76  C50 QG9 d   1      16.032  16.796  11.487  0.00  0.00    -0.055 A 
ATOM     77  H49 QG9 d   1      15.379  14.956  12.496  0.00  0.00     0.114 H 
ATOM     78  H50 QG9 d   1      15.032  17.192  11.351  0.00  0.00     0.087 H 
ENDBRANCH  63  69
ENDBRANCH  56  59
ENDBRANCH  54  56
BRANCH  54  79
ATOM     79  N37 QG9 d   1      16.244  21.885   6.197  0.00  0.00    -0.185 N 
ATOM     80  C38 QG9 d   1      15.507  20.867   5.716  0.00  0.00     0.265 C 
ATOM     81  O49 QG9 d   1      14.346  20.621   6.077  0.00  0.00    -0.269 OA
ATOM     82  H32 QG9 d   1      17.170  22.000   5.838  0.00  0.00     0.197 HD
BRANCH  80  83
ATOM     83  C39 QG9 d   1      16.293  20.042   4.695  0.00  0.00     0.099 C 
ATOM     84  H33 QG9 d   1      16.973  20.723   4.163  0.00  0.00     0.088 H 
BRANCH  83  85
ATOM     85  N40 QG9 d   1      17.076  19.157   5.595  0.00  0.00    -0.323 N 
ATOM     86  C41 QG9 d   1      18.456  19.270   5.774  0.00  0.00     0.360 C 
ATOM     87  O44 QG9 d   1      19.168  20.105   5.201  0.00  0.00    -0.239 OA
ATOM     88  H34 QG9 d   1      16.590  18.443   6.099  0.00  0.00     0.165 HD
BRANCH  86  89
ATOM     89  O42 QG9 d   1      18.877  18.341   6.662  0.00  0.00    -0.309 OA
BRANCH  89  90
ATOM     90  C43 QG9 d   1      20.262  18.266   7.012  0.00  0.00     0.015 C 
ATOM     91  H35 QG9 d   1      20.413  17.456   7.741  0.00  0.00     0.067 H 
ATOM     92  H36 QG9 d   1      20.581  19.221   7.454  0.00  0.00     0.067 H 
ATOM     93  H37 QG9 d   1      20.858  18.062   6.110  0.00  0.00     0.067 H 
ENDBRANCH  89  90
ENDBRANCH  86  89
ENDBRANCH  83  85
BRANCH  83  94
ATOM     94  C45 QG9 d   1      15.534  19.224   3.568  0.00  0.00    -0.022 C 
BRANCH  94  95
ATOM     95  C46 QG9 d   1      14.575  18.142   4.121  0.00  0.00    -0.067 C 
ATOM     96  H38 QG9 d   1      14.089  17.621   3.284  0.00  0.00     0.028 H 
ATOM     97  H39 QG9 d   1      13.809  18.618   4.751  0.00  0.00     0.028 H 
ATOM     98  H40 QG9 d   1      15.146  17.418   4.721  0.00  0.00     0.028 H 
ENDBRANCH  94  95
BRANCH  94  99
ATOM     99  C47 QG9 d   1      14.743  20.196   2.661  0.00  0.00    -0.067 C 
ATOM    100  H41 QG9 d   1      15.423  20.966   2.267  0.00  0.00     0.028 H 
ATOM    101  H42 QG9 d   1      13.945  20.677   3.246  0.00  0.00     0.028 H 
ATOM    102  H43 QG9 d   1      14.298  19.637   1.825  0.00  0.00     0.028 H 
ENDBRANCH  94  99
BRANCH  94 103
ATOM    103  C48 QG9 d   1      16.559  18.493   2.652  0.00  0.00    -0.067 C 
ATOM    104  H44 QG9 d   1      17.150  17.786   3.254  0.00  0.00     0.028 H 
ATOM    105  H45 QG9 d   1      17.230  19.232   2.190  0.00  0.00     0.028 H 
ATOM    106  H46 QG9 d   1      16.021  17.944   1.865  0.00  0.00     0.028 H 
ENDBRANCH  94 103
ENDBRANCH  83  94
ENDBRANCH  80  83
ENDBRANCH  54  79
ENDBRANCH   1  54
TORSDOF 21
