REMARK  6 active torsions:
REMARK  status: ('A' for Active; 'I' for Inactive)
REMARK    1  A    between atoms: C20_20  and  C1_1 
REMARK    2  A    between atoms: C10_10  and  C4_4 
REMARK    3  A    between atoms: C6_6  and  C8_8 
REMARK    4  A    between atoms: C8_8  and  N9_9 
REMARK    5  A    between atoms: C18_18  and  C16_16 
REMARK    6  A    between atoms: C23_23  and  C24_24 
ROOT
ATOM      1  C10 P43 d   1      -4.168  58.298  -4.155  0.00  0.00    -0.026 C 
ATOM      2  C11 P43 d   1      -3.408  57.496  -5.268  0.00  0.00    -0.043 C 
ATOM      3  C12 P43 d   1      -3.239  56.047  -4.787  0.00  0.00    -0.002 C 
ATOM      4  N13 P43 d   1      -4.646  55.534  -4.564  0.00  0.00    -0.357 N 
ATOM      5  C14 P43 d   1      -5.450  56.224  -3.357  0.00  0.00    -0.002 C 
ATOM      6  C15 P43 d   1      -5.586  57.760  -3.633  0.00  0.00    -0.043 C 
ATOM      7  C16 P43 d   1      -5.159  54.585  -5.376  0.00  0.00     0.211 C 
ATOM      8  O17 P43 d   1      -4.463  54.093  -6.364  0.00  0.00    -0.169 OA
ATOM      9  H10 P43 d   1      -3.506  58.225  -3.279  0.00  0.00     0.047 H 
ATOM     10  H11 P43 d   1      -2.420  57.947  -5.443  0.00  0.00     0.036 H 
ATOM     11  H12 P43 d   1      -3.990  57.513  -6.202  0.00  0.00     0.036 H 
ATOM     12  H13 P43 d   1      -2.665  56.017  -3.849  0.00  0.00     0.064 H 
ATOM     13  H14 P43 d   1      -2.726  55.445  -5.551  0.00  0.00     0.064 H 
ATOM     14  H15 P43 d   1      -4.904  56.067  -2.415  0.00  0.00     0.064 H 
ATOM     15  H16 P43 d   1      -6.451  55.775  -3.279  0.00  0.00     0.064 H 
ATOM     16  H17 P43 d   1      -6.356  57.935  -4.399  0.00  0.00     0.036 H 
ATOM     17  H18 P43 d   1      -5.865  58.282  -2.706  0.00  0.00     0.036 H 
ENDROOT
BRANCH   7  18
ATOM     18  C18 P43 d   1      -6.554  54.065  -5.159  0.00  0.00     0.130 A 
ATOM     19  O19 P43 d   1      -7.293  53.865  -6.290  0.00  0.00    -0.297 OA
ATOM     20  C20 P43 d   1      -8.515  53.366  -5.961  0.00  0.00     0.129 A 
ATOM     21  C21 P43 d   1      -8.619  53.238  -4.603  0.00  0.00    -0.039 A 
ATOM     22  C22 P43 d   1      -7.299  53.705  -4.054  0.00  0.00    -0.043 A 
ATOM     23  H19 P43 d   1      -9.476  52.875  -4.039  0.00  0.00     0.088 H 
ATOM     24  H20 P43 d   1      -6.996  53.750  -3.009  0.00  0.00     0.088 H 
BRANCH  20  25
ATOM     25  C1  P43 d   1      -9.423  53.106  -7.026  0.00  0.00    -0.036 C 
ATOM     26  C23 P43 d   1     -10.207  52.875  -7.891  0.00  0.00    -0.056 C 
BRANCH  26  27
ATOM     27  C24 P43 d   1     -11.142  52.597  -8.921  0.00  0.00     0.056 A 
ATOM     28  C25 P43 d   1     -10.708  52.359 -10.322  0.00  0.00    -0.062 A 
ATOM     29  C26 P43 d   1     -11.714  52.008 -11.352  0.00  0.00    -0.081 A 
ATOM     30  H21 P43 d   1      -9.661  52.442 -10.589  0.00  0.00     0.085 H 
ATOM     31  C27 P43 d   1     -13.078  51.928 -10.889  0.00  0.00    -0.080 A 
ATOM     32  H22 P43 d   1     -11.443  51.824 -12.385  0.00  0.00     0.083 H 
ATOM     33  C28 P43 d   1     -13.510  52.143  -9.481  0.00  0.00    -0.044 A 
ATOM     34  H23 P43 d   1     -13.844  51.694 -11.620  0.00  0.00     0.083 H 
ATOM     35  C29 P43 d   1     -12.531  52.504  -8.483  0.00  0.00     0.135 A 
ATOM     36  H24 P43 d   1     -14.553  52.029  -9.207  0.00  0.00     0.088 H 
ATOM     37  F30 P43 d   1     -12.910  52.719  -7.143  0.00  0.00    -0.205 F 
ENDBRANCH  26  27
ENDBRANCH  20  25
ENDBRANCH   7  18
BRANCH   1  38
ATOM     38  C4  P43 d   1      -4.274  59.740  -4.461  0.00  0.00    -0.053 A 
ATOM     39  C3  P43 d   1      -3.965  60.681  -3.397  0.00  0.00    -0.076 A 
ATOM     40  C2  P43 d   1      -4.066  62.094  -3.605  0.00  0.00    -0.082 A 
ATOM     41  H2  P43 d   1      -3.653  60.306  -2.429  0.00  0.00     0.084 H 
ATOM     42  C7  P43 d   1      -4.462  62.521  -4.930  0.00  0.00    -0.075 A 
ATOM     43  H1  P43 d   1      -3.857  62.805  -2.814  0.00  0.00     0.083 H 
ATOM     44  C6  P43 d   1      -4.788  61.582  -6.004  0.00  0.00    -0.033 A 
ATOM     45  H4  P43 d   1      -4.520  63.584  -5.136  0.00  0.00     0.084 H 
ATOM     46  C5  P43 d   1      -4.673  60.183  -5.805  0.00  0.00    -0.069 A 
ATOM     47  H3  P43 d   1      -4.869  59.476  -6.603  0.00  0.00     0.085 H 
BRANCH  44  48
ATOM     48  C8  P43 d   1      -5.231  62.160  -7.366  0.00  0.00     0.103 C 
ATOM     49  H5  P43 d   1      -4.990  63.233  -7.392  0.00  0.00     0.082 H 
ATOM     50  H6  P43 d   1      -6.317  62.025  -7.473  0.00  0.00     0.082 H 
BRANCH  48  51
ATOM     51  N9  P43 d   1      -4.572  61.510  -8.465  0.00  0.00    -0.075 N 
ATOM     52  H7  P43 d   1      -4.887  61.915  -9.333  0.00  0.00     0.274 HD
ATOM     53  H8  P43 d   1      -4.791  60.526  -8.454  0.00  0.00     0.274 HD
ATOM     54  H9  P43 d   1      -3.575  61.633  -8.380  0.00  0.00     0.274 HD
ENDBRANCH  48  51
ENDBRANCH  44  48
ENDBRANCH   1  38
TORSDOF 6
