REMARK  7 active torsions:
REMARK  status: ('A' for Active; 'I' for Inactive)
REMARK    1  A    between atoms: S1_3  and  C1_1 
REMARK    2  A    between atoms: C7_15  and  S1_3 
REMARK    3  A    between atoms: C2_4  and  O2_5 
REMARK    4  A    between atoms: C3_6  and  O3_7 
REMARK    5  A    between atoms: C4_8  and  O4_9 
REMARK    6  A    between atoms: C5_10  and  C6_13 
REMARK    7  A    between atoms: C6_13  and  O6_12 
ROOT
ATOM      1  C1  GS9 d   1      13.604  15.027  67.228  0.00  0.00     0.115 C 
ATOM      2  O5  GS9 d   1      13.886  15.162  65.820  0.00  0.00    -0.362 OA
ATOM      3  C2  GS9 d   1      12.386  14.154  67.259  0.00  0.00     0.096 C 
ATOM      4  C3  GS9 d   1      12.821  12.776  66.737  0.00  0.00     0.090 C 
ATOM      5  C4  GS9 d   1      13.293  12.873  65.284  0.00  0.00     0.089 C 
ATOM      6  C5  GS9 d   1      14.353  13.984  65.144  0.00  0.00     0.087 C 
ATOM      7  H1  GS9 d   1      14.444  14.554  67.759  0.00  0.00     0.105 H 
ATOM      8  H2  GS9 d   1      11.593  14.575  66.623  0.00  0.00     0.092 H 
ATOM      9  H4  GS9 d   1      13.639  12.376  67.353  0.00  0.00     0.091 H 
ATOM     10  H6  GS9 d   1      13.742  11.915  64.982  0.00  0.00     0.091 H 
ATOM     11  H8  GS9 d   1      15.295  13.627  65.586  0.00  0.00     0.090 H 
ENDROOT
BRANCH   1  12
ATOM     12  S1  GS9 d   1      13.246  16.680  67.972  0.00  0.00    -0.095 SA
BRANCH  12  13
ATOM     13  C7  GS9 d   1      14.705  17.241  68.354  0.00  0.00     0.004 A 
ATOM     14  C80 GS9 d   1      14.773  18.362  69.204  0.00  0.00    -0.066 A 
ATOM     15  C90 GS9 d   1      16.012  18.891  69.579  0.00  0.00    -0.071 A 
ATOM     16  H9  GS9 d   1      13.860  18.817  69.570  0.00  0.00     0.085 H 
ATOM     17  C14 GS9 d   1      17.210  18.279  69.151  0.00  0.00    -0.026 A 
ATOM     18  H13 GS9 d   1      16.053  19.777  70.202  0.00  0.00     0.084 H 
ATOM     19  C9  GS9 d   1      17.124  17.076  68.291  0.00  0.00    -0.025 A 
ATOM     20  C13 GS9 d   1      18.466  18.790  69.559  0.00  0.00    -0.072 A 
ATOM     21  C8  GS9 d   1      15.878  16.594  67.913  0.00  0.00    -0.056 A 
ATOM     22  C10 GS9 d   1      18.300  16.453  67.861  0.00  0.00    -0.072 A 
ATOM     23  H14 GS9 d   1      15.807  15.719  67.278  0.00  0.00     0.086 H 
ATOM     24  C11 GS9 d   1      19.528  17.007  68.272  0.00  0.00    -0.082 A 
ATOM     25  H18 GS9 d   1      18.267  15.571  67.231  0.00  0.00     0.084 H 
ATOM     26  C12 GS9 d   1      19.616  18.126  69.114  0.00  0.00    -0.082 A 
ATOM     27  H17 GS9 d   1      20.446  16.549  67.922  0.00  0.00     0.083 H 
ATOM     28  H16 GS9 d   1      20.591  18.483  69.425  0.00  0.00     0.083 H 
ATOM     29  H15 GS9 d   1      18.535  19.666  70.194  0.00  0.00     0.084 H 
ENDBRANCH  12  13
ENDBRANCH   1  12
BRANCH   3  30
ATOM     30  O2  GS9 d   1      11.922  14.032  68.593  0.00  0.00    -0.389 OA
ATOM     31  H3  GS9 d   1      11.150  13.478  68.609  0.00  0.00     0.210 HD
ENDBRANCH   3  30
BRANCH   6  32
ATOM     32  C6  GS9 d   1      14.607  14.457  63.716  0.00  0.00     0.043 C 
ATOM     33  H11 GS9 d   1      13.724  14.994  63.338  0.00  0.00     0.078 H 
ATOM     34  H12 GS9 d   1      14.816  13.593  63.068  0.00  0.00     0.078 H 
BRANCH  32  35
ATOM     35  O6  GS9 d   1      15.755  15.348  63.735  0.00  0.00    -0.398 OA
ATOM     36  H10 GS9 d   1      15.569  16.090  64.299  0.00  0.00     0.209 HD
ENDBRANCH  32  35
ENDBRANCH   6  32
BRANCH   4  37
ATOM     37  O3  GS9 d   1      11.670  11.954  66.861  0.00  0.00    -0.390 OA
ATOM     38  H5  GS9 d   1      11.406  11.916  67.773  0.00  0.00     0.210 HD
ENDBRANCH   4  37
BRANCH   5  39
ATOM     39  O4  GS9 d   1      12.153  13.141  64.455  0.00  0.00    -0.390 OA
ATOM     40  H7  GS9 d   1      12.430  13.204  63.548  0.00  0.00     0.210 HD
ENDBRANCH   5  39
TORSDOF 7
