REMARK  9 active torsions:
REMARK  status: ('A' for Active; 'I' for Inactive)
REMARK    1  A    between atoms: N17_3  and  C20_4 
REMARK    2  A    between atoms: C20_4  and  C22_5 
REMARK    3  A    between atoms: C20_4  and  C21_6 
REMARK    4  A    between atoms: C14_9  and  N13_10 
REMARK    5  A    between atoms: N13_10  and  S12_11 
REMARK    6  A    between atoms: S12_11  and  C10_14 
REMARK    7  A    between atoms: C10_14  and  C9_15 
REMARK    8  A    between atoms: C9_15  and  N8_16 
REMARK       I    between atoms: N8_16  and  C7_17 
REMARK    9  A    between atoms: C7_17  and  C3_19 
ROOT
ATOM      1  C15 A7I d   1      48.800   5.058  57.992  0.00  0.00    -0.023 C 
ATOM      2  C16 A7I d   1      47.921   3.993  58.653  0.00  0.00     0.086 C 
ATOM      3  N17 A7I d   1      48.684   2.740  58.788  0.00  0.00    -0.067 N 
ATOM      4  C18 A7I d   1      49.077   2.210  57.472  0.00  0.00     0.086 C 
ATOM      5  C19 A7I d   1      50.005   3.214  56.784  0.00  0.00    -0.023 C 
ATOM      6  C14 A7I d   1      49.315   4.572  56.634  0.00  0.00     0.022 C 
ATOM      7  H1  A7I d   1      49.657   5.275  58.646  0.00  0.00     0.038 H 
ATOM      8  H2  A7I d   1      48.209   5.974  57.847  0.00  0.00     0.038 H 
ATOM      9  H3  A7I d   1      47.031   3.815  58.032  0.00  0.00     0.076 H 
ATOM     10  H4  A7I d   1      47.609   4.341  59.649  0.00  0.00     0.076 H 
ATOM     11  H5  A7I d   1      49.528   2.962  59.293  0.00  0.00     0.280 HD
ATOM     12  H13 A7I d   1      48.180   2.055  56.855  0.00  0.00     0.076 H 
ATOM     13  H14 A7I d   1      49.602   1.252  57.603  0.00  0.00     0.076 H 
ATOM     14  H15 A7I d   1      50.274   2.833  55.788  0.00  0.00     0.038 H 
ATOM     15  H16 A7I d   1      50.916   3.337  57.388  0.00  0.00     0.038 H 
ATOM     16  H17 A7I d   1      48.463   4.471  55.946  0.00  0.00     0.073 H 
ENDROOT
BRANCH   6  17
ATOM     17  N13 A7I d   1      50.277   5.533  56.074  0.00  0.00    -0.315 N 
ATOM     18  H18 A7I d   1      51.269   5.421  56.133  0.00  0.00     0.172 HD
BRANCH  17  19
ATOM     19  S12 A7I d   1      49.553   6.801  55.347  0.00  0.00     0.228 S 
ATOM     20  O23 A7I d   1      48.142   6.514  54.929  0.00  0.00    -0.206 OA
ATOM     21  O24 A7I d   1      49.666   8.069  56.140  0.00  0.00    -0.206 OA
BRANCH  19  22
ATOM     22  C10 A7I d   1      50.508   7.070  53.809  0.00  0.00     0.061 C 
ATOM     23  H19 A7I d   1      50.454   6.151  53.207  0.00  0.00     0.061 H 
ATOM     24  H20 A7I d   1      51.554   7.267  54.086  0.00  0.00     0.061 H 
BRANCH  22  25
ATOM     25  C9  A7I d   1      50.017   8.234  52.945  0.00  0.00     0.009 C 
ATOM     26  H21 A7I d   1      50.749   8.425  52.146  0.00  0.00     0.065 H 
ATOM     27  H22 A7I d   1      49.915   9.132  53.572  0.00  0.00     0.065 H 
BRANCH  25  28
ATOM     28  N8  A7I d   1      48.714   7.916  52.341  0.00  0.00    -0.355 N 
ATOM     29  C7  A7I d   1      47.588   8.503  52.734  0.00  0.00     0.258 C 
ATOM     30  O25 A7I d   1      47.522   9.343  53.630  0.00  0.00    -0.267 OA
ATOM     31  H23 A7I d   1      48.674   7.235  51.610  0.00  0.00     0.162 HD
BRANCH  29  32
ATOM     32  C3  A7I d   1      46.323   8.060  51.995  0.00  0.00     0.074 A 
ATOM     33  C2  A7I d   1      46.268   7.403  50.837  0.00  0.00    -0.059 A 
ATOM     34  C1  A7I d   1      45.033   7.127  50.404  0.00  0.00    -0.054 A 
ATOM     35  H24 A7I d   1      47.161   7.113  50.285  0.00  0.00     0.086 H 
ATOM     36  C5  A7I d   1      44.049   7.554  51.196  0.00  0.00     0.075 A 
ATOM     37  H25 A7I d   1      44.845   6.593  49.474  0.00  0.00     0.086 H 
ATOM     38 CL6  A7I d   1      42.355   7.298  50.952  0.00  0.00    -0.076 Cl
ATOM     39  S4  A7I d   1      44.730   8.347  52.550  0.00  0.00    -0.072 SA
ENDBRANCH  29  32
ENDBRANCH  25  28
ENDBRANCH  22  25
ENDBRANCH  19  22
ENDBRANCH  17  19
ENDBRANCH   6  17
BRANCH   3  40
ATOM     40  C20 A7I d   1      47.974   1.703  59.557  0.00  0.00     0.097 C 
ATOM     41  H6  A7I d   1      48.578   0.785  59.504  0.00  0.00     0.083 H 
BRANCH  40  42
ATOM     42  C22 A7I d   1      46.594   1.373  58.979  0.00  0.00    -0.050 C 
ATOM     43  H7  A7I d   1      46.115   0.596  59.593  0.00  0.00     0.030 H 
ATOM     44  H8  A7I d   1      46.706   1.008  57.948  0.00  0.00     0.030 H 
ATOM     45  H9  A7I d   1      45.969   2.279  58.981  0.00  0.00     0.030 H 
ENDBRANCH  40  42
BRANCH  40  46
ATOM     46  C21 A7I d   1      47.865   2.105  61.030  0.00  0.00    -0.050 C 
ATOM     47  H10 A7I d   1      47.333   1.319  61.586  0.00  0.00     0.030 H 
ATOM     48  H11 A7I d   1      47.311   3.051  61.112  0.00  0.00     0.030 H 
ATOM     49  H12 A7I d   1      48.873   2.233  61.451  0.00  0.00     0.030 H 
ENDBRANCH  40  46
ENDBRANCH   3  40
TORSDOF 9
