REMARK  10 active torsions:
REMARK  status: ('A' for Active; 'I' for Inactive)
REMARK    1  A    between atoms: C16_3  and  C15_4 
REMARK    2  A    between atoms: C15_4  and  S_5 
REMARK    3  A    between atoms: S_5  and  C14_6 
REMARK    4  A    between atoms: C10_9  and  O_10 
REMARK    5  A    between atoms: O_10  and  C11_11 
REMARK    6  A    between atoms: C5_16  and  C6_17 
REMARK    7  A    between atoms: C4_18  and  C3_19 
REMARK    8  A    between atoms: C3_19  and  C2_20 
REMARK    9  A    between atoms: C2_20  and  C1_21 
REMARK   10  A    between atoms: C1_21  and  C_22 
ROOT
ATOM      1  N1  9MT d   1      20.202  43.994  62.390  0.00  0.00    -0.197 NA
ATOM      2  C17 9MT d   1      21.252  44.424  62.706  0.00  0.00     0.059 C 
ATOM      3  C16 9MT d   1      22.577  44.891  63.132  0.00  0.00     0.023 C 
ATOM      4  H1  9MT d   1      23.089  44.095  63.692  0.00  0.00     0.056 H 
ATOM      5  H2  9MT d   1      22.470  45.779  63.772  0.00  0.00     0.056 H 
ENDROOT
BRANCH   3   6
ATOM      6  C15 9MT d   1      23.390  45.249  61.882  0.00  0.00    -0.007 C 
ATOM      7  H3  9MT d   1      23.352  44.402  61.181  0.00  0.00     0.050 H 
ATOM      8  H4  9MT d   1      24.433  45.433  62.179  0.00  0.00     0.050 H 
BRANCH   6   9
ATOM      9  S   9MT d   1      22.766  46.696  61.063  0.00  0.00    -0.128 SA
BRANCH   9  10
ATOM     10  C14 9MT d   1      22.682  47.928  62.294  0.00  0.00     0.021 A 
ATOM     11  C13 9MT d   1      23.807  48.307  63.021  0.00  0.00     0.013 A 
ATOM     12  C12 9MT d   1      25.076  47.799  62.656  0.00  0.00    -0.037 A 
ATOM     13  C7  9MT d   1      23.649  49.181  64.088  0.00  0.00     0.069 A 
ATOM     14  C10 9MT d   1      26.162  48.242  63.396  0.00  0.00     0.069 A 
ATOM     15  H5  9MT d   1      25.194  47.098  61.838  0.00  0.00     0.089 H 
ATOM     16  C9  9MT d   1      25.969  49.096  64.485  0.00  0.00    -0.049 A 
ATOM     17  C8  9MT d   1      24.743  49.643  64.833  0.00  0.00    -0.052 A 
ATOM     18  H9  9MT d   1      26.830  49.346  65.095  0.00  0.00     0.087 H 
ATOM     19  H10 9MT d   1      24.638  50.376  65.625  0.00  0.00     0.087 H 
ATOM     20  N   9MT d   1      22.439  49.667  64.457  0.00  0.00    -0.253 NA
ATOM     21  C5  9MT d   1      21.321  49.359  63.774  0.00  0.00     0.039 A 
ATOM     22  C4  9MT d   1      21.443  48.451  62.685  0.00  0.00    -0.016 A 
BRANCH  14  23
ATOM     23  O   9MT d   1      27.428  47.752  63.086  0.00  0.00    -0.356 OA
BRANCH  23  24
ATOM     24  C11 9MT d   1      27.607  47.061  61.812  0.00  0.00     0.010 C 
ATOM     25  H6  9MT d   1      28.654  46.736  61.715  0.00  0.00     0.066 H 
ATOM     26  H7  9MT d   1      27.357  47.743  60.986  0.00  0.00     0.066 H 
ATOM     27  H8  9MT d   1      26.946  46.183  61.775  0.00  0.00     0.066 H 
ENDBRANCH  23  24
ENDBRANCH  14  23
BRANCH  21  28
ATOM     28  C6  9MT d   1      20.035  50.007  64.295  0.00  0.00    -0.035 C 
ATOM     29  H11 9MT d   1      19.186  49.692  63.670  0.00  0.00     0.035 H 
ATOM     30  H12 9MT d   1      20.133  51.102  64.254  0.00  0.00     0.035 H 
ATOM     31  H13 9MT d   1      19.861  49.693  65.335  0.00  0.00     0.035 H 
ENDBRANCH  21  28
BRANCH  22  32
ATOM     32  C3  9MT d   1      20.298  47.982  61.796  0.00  0.00    -0.038 C 
ATOM     33  H14 9MT d   1      20.599  47.002  61.397  0.00  0.00     0.040 H 
ATOM     34  H15 9MT d   1      20.230  48.708  60.973  0.00  0.00     0.040 H 
BRANCH  32  35
ATOM     35  C2  9MT d   1      18.915  47.812  62.318  0.00  0.00    -0.062 C 
ATOM     36  H16 9MT d   1      18.757  48.530  63.136  0.00  0.00     0.033 H 
ATOM     37  H17 9MT d   1      18.807  46.787  62.703  0.00  0.00     0.033 H 
BRANCH  35  38
ATOM     38  C1  9MT d   1      17.854  48.046  61.253  0.00  0.00    -0.068 C 
ATOM     39  H18 9MT d   1      17.114  47.233  61.300  0.00  0.00     0.032 H 
ATOM     40  H19 9MT d   1      18.334  48.049  60.263  0.00  0.00     0.032 H 
BRANCH  38  41
ATOM     41  C   9MT d   1      17.147  49.371  61.463  0.00  0.00    -0.077 C 
ATOM     42  H20 9MT d   1      16.388  49.510  60.679  0.00  0.00     0.027 H 
ATOM     43  H21 9MT d   1      17.880  50.190  61.413  0.00  0.00     0.027 H 
ATOM     44  H22 9MT d   1      16.660  49.374  62.449  0.00  0.00     0.027 H 
ENDBRANCH  38  41
ENDBRANCH  35  38
ENDBRANCH  32  35
ENDBRANCH  22  32
ENDBRANCH   9  10
ENDBRANCH   6   9
ENDBRANCH   3   6
TORSDOF 10
