REMARK  2 active torsions:
REMARK  status: ('A' for Active; 'I' for Inactive)
REMARK    1  A    between atoms: CB_3  and  N_1 
REMARK    2  A    between atoms: CG_5  and  CB_3 
ROOT
ATOM      1  C5  VXQ d   1       0.642 -14.363  13.621  0.00  0.00    -0.049 C 
ATOM      2  OE  VXQ d   1       1.814 -12.173  14.164  0.00  0.00    -0.322 OA
ATOM      3  CG  VXQ d   1       1.641 -14.838  17.254  0.00  0.00    -0.032 A 
ATOM      4  CM  VXQ d   1       0.817 -12.823  13.350  0.00  0.00     0.020 C 
ATOM      5  CZ  VXQ d   1       1.772 -13.040  15.249  0.00  0.00     0.085 A 
ATOM      6  CD1 VXQ d   1       1.196 -15.166  16.018  0.00  0.00    -0.063 A 
ATOM      7  CD2 VXQ d   1       2.210 -13.618  17.481  0.00  0.00    -0.073 A 
ATOM      8  CE1 VXQ d   1       1.207 -14.243  14.999  0.00  0.00     0.000 A 
ATOM      9  CE2 VXQ d   1       2.295 -12.694  16.476  0.00  0.00    -0.049 A 
ATOM     10  H4  VXQ d   1       0.258 -15.195  13.032  0.00  0.00     0.087 H 
ATOM     11  H7  VXQ d   1       0.230 -12.289  12.604  0.00  0.00     0.123 H 
ATOM     12  H8  VXQ d   1       0.827 -16.168  15.830  0.00  0.00     0.085 H 
ATOM     13  H9  VXQ d   1       2.597 -13.380  18.465  0.00  0.00     0.084 H 
ATOM     14  H10 VXQ d   1       2.756 -11.726  16.639  0.00  0.00     0.087 H 
ENDROOT
BRANCH   3  15
ATOM     15  CB  VXQ d   1       1.702 -15.822  18.371  0.00  0.00     0.103 C 
ATOM     16  H5  VXQ d   1       0.875 -15.658  19.078  0.00  0.00     0.082 H 
ATOM     17  H6  VXQ d   1       1.655 -16.851  17.984  0.00  0.00     0.082 H 
BRANCH  15  18
ATOM     18  N   VXQ d   1       3.021 -15.568  19.034  0.00  0.00    -0.075 N 
ATOM     19  H1  VXQ d   1       3.136 -16.203  19.808  0.00  0.00     0.274 HD
ATOM     20  H2  VXQ d   1       3.050 -14.618  19.371  0.00  0.00     0.274 HD
ATOM     21  H3  VXQ d   1       3.765 -15.712  18.369  0.00  0.00     0.274 HD
ENDBRANCH  15  18
ENDBRANCH   3  15
TORSDOF 2
