REMARK  2 active torsions:
REMARK  status: ('A' for Active; 'I' for Inactive)
REMARK    1  A    between atoms: C10_9  and  N1_2 
REMARK    2  A    between atoms: C5_6  and  C10_9 
ROOT
ATOM      1  C1  K9S d   1       1.268 -15.395  15.753  0.00  0.00    -0.036 A 
ATOM      2  S2  K9S d   1       1.105 -14.654  14.209  0.00  0.00    -0.101 SA
ATOM      3  C3  K9S d   1       1.775 -13.134  14.765  0.00  0.00     0.015 A 
ATOM      4  C4  K9S d   1       2.148 -13.255  16.133  0.00  0.00    -0.011 A 
ATOM      5  C5  K9S d   1       1.868 -14.489  16.693  0.00  0.00    -0.015 A 
ATOM      6  C6  K9S d   1       2.020 -11.952  14.081  0.00  0.00    -0.066 A 
ATOM      7  C7  K9S d   1       2.601 -10.814  14.753  0.00  0.00    -0.082 A 
ATOM      8  C8  K9S d   1       2.912 -10.923  16.057  0.00  0.00    -0.082 A 
ATOM      9  C9  K9S d   1       2.709 -12.164  16.833  0.00  0.00    -0.071 A 
ATOM     10  H1  K9S d   1       0.958 -16.413  15.986  0.00  0.00     0.096 H 
ATOM     11  H5  K9S d   1       1.772 -11.882  13.028  0.00  0.00     0.085 H 
ATOM     12  H6  K9S d   1       2.783  -9.890  14.217  0.00  0.00     0.083 H 
ATOM     13  H9  K9S d   1       3.331 -10.060  16.562  0.00  0.00     0.083 H 
ATOM     14  H10 K9S d   1       2.976 -12.233  17.881  0.00  0.00     0.084 H 
ENDROOT
BRANCH   5  15
ATOM     15  C10 K9S d   1       2.144 -14.784  18.117  0.00  0.00     0.104 C 
ATOM     16  H7  K9S d   1       3.185 -14.508  18.340  0.00  0.00     0.082 H 
ATOM     17  H8  K9S d   1       1.464 -14.184  18.740  0.00  0.00     0.082 H 
BRANCH  15  18
ATOM     18  N1  K9S d   1       1.954 -16.194  18.439  0.00  0.00    -0.075 N 
ATOM     19  H2  K9S d   1       2.153 -16.345  19.416  0.00  0.00     0.274 HD
ATOM     20  H3  K9S d   1       2.578 -16.754  17.878  0.00  0.00     0.274 HD
ATOM     21  H4  K9S d   1       1.000 -16.457  18.246  0.00  0.00     0.274 HD
ENDBRANCH  15  18
ENDBRANCH   5  15
TORSDOF 2
