REMARK  3 active torsions:
REMARK  status: ('A' for Active; 'I' for Inactive)
REMARK    1  A    between atoms: C1_1  and  N1_2 
REMARK    2  A    between atoms: C2_3  and  C1_1 
REMARK    3  A    between atoms: C6_8  and  N2_4 
ROOT
ATOM      1  C2  SW2 d   1       1.708 -15.087  17.157  0.00  0.00    -0.031 A 
ATOM      2  C3  SW2 d   1       1.077 -15.594  16.044  0.00  0.00    -0.075 A 
ATOM      3  C4  SW2 d   1       1.101 -14.957  14.826  0.00  0.00    -0.080 A 
ATOM      4  C5  SW2 d   1       1.734 -13.714  14.681  0.00  0.00    -0.057 A 
ATOM      5  C6  SW2 d   1       2.358 -13.209  15.795  0.00  0.00     0.038 A 
ATOM      6  C11 SW2 d   1       2.390 -13.888  16.988  0.00  0.00    -0.049 A 
ATOM      7  H6  SW2 d   1       0.540 -16.532  16.131  0.00  0.00     0.084 H 
ATOM      8  H7  SW2 d   1       0.626 -15.420  13.969  0.00  0.00     0.083 H 
ATOM      9  H8  SW2 d   1       1.731 -13.179  13.738  0.00  0.00     0.086 H 
ATOM     10  H13 SW2 d   1       2.959 -13.480  17.816  0.00  0.00     0.087 H 
ENDROOT
BRANCH   5  11
ATOM     11  N2  SW2 d   1       3.076 -11.976  15.591  0.00  0.00    -0.333 N 
ATOM     12  C7  SW2 d   1       2.867 -11.038  14.615  0.00  0.00    -0.015 A 
ATOM     13  C8  SW2 d   1       3.720  -9.951  14.763  0.00  0.00    -0.066 A 
ATOM     14  H9  SW2 d   1       2.126 -11.132  13.823  0.00  0.00     0.112 H 
ATOM     15  C9  SW2 d   1       4.444 -10.357  15.907  0.00  0.00    -0.066 A 
ATOM     16  H10 SW2 d   1       3.806  -9.044  14.167  0.00  0.00     0.085 H 
ATOM     17  C10 SW2 d   1       4.125 -11.590  16.396  0.00  0.00    -0.015 A 
ATOM     18  H11 SW2 d   1       5.205  -9.728  16.367  0.00  0.00     0.085 H 
ATOM     19  H12 SW2 d   1       4.586 -12.134  17.219  0.00  0.00     0.112 H 
ENDBRANCH   5  11
BRANCH   1  20
ATOM     20  C1  SW2 d   1       1.802 -15.975  18.373  0.00  0.00     0.103 C 
ATOM     21  H1  SW2 d   1       0.976 -15.731  19.058  0.00  0.00     0.082 H 
ATOM     22  H2  SW2 d   1       1.717 -17.025  18.055  0.00  0.00     0.082 H 
BRANCH  20  23
ATOM     23  N1  SW2 d   1       3.092 -15.791  19.089  0.00  0.00    -0.075 N 
ATOM     24  H3  SW2 d   1       3.119 -16.398  19.893  0.00  0.00     0.274 HD
ATOM     25  H4  SW2 d   1       3.176 -14.832  19.389  0.00  0.00     0.274 HD
ATOM     26  H5  SW2 d   1       3.855 -16.018  18.471  0.00  0.00     0.274 HD
ENDBRANCH  20  23
ENDBRANCH   1  20
TORSDOF 3
