REMARK  3 active torsions:
REMARK  status: ('A' for Active; 'I' for Inactive)
REMARK    1  A    between atoms: C1_1  and  N1_2 
REMARK    2  A    between atoms: C2_3  and  C1_1 
REMARK    3  A    between atoms: C6_8  and  N2_4 
ROOT
ATOM      1  C2  913 d   1      -1.723  15.136  17.045  0.00  0.00    -0.031 A 
ATOM      2  C3  913 d   1      -0.957  15.562  15.993  0.00  0.00    -0.075 A 
ATOM      3  C4  913 d   1      -0.896  14.847  14.823  0.00  0.00    -0.080 A 
ATOM      4  C5  913 d   1      -1.562  13.656  14.628  0.00  0.00    -0.055 A 
ATOM      5  C6  913 d   1      -2.344  13.201  15.638  0.00  0.00     0.058 A 
ATOM      6  C11 913 d   1      -2.412  13.949  16.798  0.00  0.00    -0.048 A 
ATOM      7  H6  913 d   1      -0.389  16.480  16.086  0.00  0.00     0.084 H 
ATOM      8  H7  913 d   1      -0.294  15.239  14.011  0.00  0.00     0.083 H 
ATOM      9  H8  913 d   1      -1.464  13.103  13.701  0.00  0.00     0.087 H 
ATOM     10  H12 913 d   1      -3.058  13.580  17.586  0.00  0.00     0.087 H 
ENDROOT
BRANCH   5  11
ATOM     11  N2  913 d   1      -3.061  11.955  15.336  0.00  0.00    -0.245 N 
ATOM     12  C7  913 d   1      -2.606  10.908  14.557  0.00  0.00     0.006 A 
ATOM     13  C8  913 d   1      -3.560   9.927  14.645  0.00  0.00    -0.048 A 
ATOM     14  H9  913 d   1      -1.678  10.870  13.989  0.00  0.00     0.114 H 
ATOM     15  C9  913 d   1      -4.549  10.502  15.497  0.00  0.00     0.023 A 
ATOM     16  H10 913 d   1      -3.562   8.944  14.177  0.00  0.00     0.087 H 
ATOM     17  N8  913 d   1      -4.293  11.762  15.863  0.00  0.00    -0.180 NA
ATOM     18  H11 913 d   1      -5.437   9.961  15.822  0.00  0.00     0.117 H 
ENDBRANCH   5  11
BRANCH   1  19
ATOM     19  C1  913 d   1      -1.817  16.061  18.259  0.00  0.00     0.103 C 
ATOM     20  H1  913 d   1      -0.985  15.828  18.939  0.00  0.00     0.082 H 
ATOM     21  H2  913 d   1      -1.726  17.101  17.912  0.00  0.00     0.082 H 
BRANCH  19  22
ATOM     22  N1  913 d   1      -3.094  15.926  19.013  0.00  0.00    -0.075 N 
ATOM     23  H3  913 d   1      -3.090  16.560  19.796  0.00  0.00     0.274 HD
ATOM     24  H4  913 d   1      -3.188  14.980  19.347  0.00  0.00     0.274 HD
ATOM     25  H5  913 d   1      -3.868  16.147  18.406  0.00  0.00     0.274 HD
ENDBRANCH  19  22
ENDBRANCH   1  19
TORSDOF 3
