REMARK  2 active torsions:
REMARK  status: ('A' for Active; 'I' for Inactive)
REMARK    1  A    between atoms: C6_9  and  N7_2 
REMARK    2  A    between atoms: C5_6  and  C6_9 
ROOT
ATOM      1  C4  513 d   1       0.981 -15.526  15.864  0.00  0.00    -0.036 A 
ATOM      2  S3  513 d   1       0.762 -14.811  14.343  0.00  0.00    -0.101 SA
ATOM      3  C2  513 d   1       1.723 -13.447  14.793  0.00  0.00     0.015 A 
ATOM      4  C1  513 d   1       2.167 -13.618  16.092  0.00  0.00    -0.009 A 
ATOM      5  C5  513 d   1       1.737 -14.783  16.744  0.00  0.00    -0.015 A 
ATOM      6  C8  513 d   1       2.066 -12.324  14.016  0.00  0.00    -0.064 A 
ATOM      7  C9  513 d   1       2.903 -11.401  14.611  0.00  0.00    -0.065 A 
ATOM      8  C10 513 d   1       3.391 -11.585  15.891  0.00  0.00     0.011 A 
ATOM      9  C11 513 d   1       3.020 -12.689  16.717  0.00  0.00    -0.054 A 
ATOM     10 BR1  513 d   1       4.577 -10.276  16.527  0.00  0.00    -0.051 Br
ATOM     11  H1  513 d   1       0.558 -16.495  16.125  0.00  0.00     0.096 H 
ATOM     12  H5  513 d   1       1.694 -12.191  13.007  0.00  0.00     0.085 H 
ATOM     13  H6  513 d   1       3.184 -10.510  14.061  0.00  0.00     0.085 H 
ATOM     14  H9  513 d   1       3.366 -12.802  17.738  0.00  0.00     0.086 H 
ENDROOT
BRANCH   5  15
ATOM     15  C6  513 d   1       2.143 -15.137  18.129  0.00  0.00     0.104 C 
ATOM     16  H7  513 d   1       3.225 -14.971  18.236  0.00  0.00     0.082 H 
ATOM     17  H8  513 d   1       1.601 -14.490  18.834  0.00  0.00     0.082 H 
BRANCH  15  18
ATOM     18  N7  513 d   1       1.849 -16.519  18.442  0.00  0.00    -0.075 N 
ATOM     19  H2  513 d   1       2.138 -16.718  19.387  0.00  0.00     0.274 HD
ATOM     20  H3  513 d   1       2.346 -17.121  17.804  0.00  0.00     0.274 HD
ATOM     21  H4  513 d   1       0.858 -16.680  18.353  0.00  0.00     0.274 HD
ENDBRANCH  15  18
ENDBRANCH   5  15
TORSDOF 2
