REMARK  4 active torsions:
REMARK  status: ('A' for Active; 'I' for Inactive)
REMARK    1  A    between atoms: C9_5  and  C13_12 
REMARK    2  A    between atoms: N4_13  and  C7_6 
REMARK    3  A    between atoms: N1_14  and  C15_11 
REMARK    4  A    between atoms: C13_12  and  N14_15 
ROOT
ATOM      1  C3  91B d   1     -23.461   4.840  17.373  0.00  0.00     0.018 C 
ATOM      2  C5  91B d   1     -24.109   5.000  14.884  0.00  0.00     0.018 C 
ATOM      3  C2  91B d   1     -24.706   5.700  17.653  0.00  0.00     0.098 C 
ATOM      4  C6  91B d   1     -25.414   5.639  15.301  0.00  0.00     0.098 C 
ATOM      5  N4  91B d   1     -23.668   4.193  16.049  0.00  0.00    -0.378 N 
ATOM      6  N1  91B d   1     -25.134   6.500  16.475  0.00  0.00    -0.072 N 
ATOM      7  H5  91B d   1     -23.348   4.074  18.154  0.00  0.00     0.066 H 
ATOM      8  H6  91B d   1     -22.562   5.474  17.347  0.00  0.00     0.066 H 
ATOM      9  H7  91B d   1     -23.362   5.772  14.647  0.00  0.00     0.066 H 
ATOM     10  H8  91B d   1     -24.261   4.355  14.006  0.00  0.00     0.066 H 
ATOM     11  H9  91B d   1     -24.478   6.388  18.480  0.00  0.00     0.078 H 
ATOM     12  H10 91B d   1     -25.533   5.036  17.945  0.00  0.00     0.078 H 
ATOM     13  H11 91B d   1     -26.143   4.861  15.571  0.00  0.00     0.078 H 
ATOM     14  H12 91B d   1     -25.815   6.247  14.476  0.00  0.00     0.078 H 
ATOM     15  H18 91B d   1     -24.356   7.088  16.220  0.00  0.00     0.279 HD
ENDROOT
BRANCH   5  16
ATOM     16  C7  91B d   1     -22.674   3.234  15.755  0.00  0.00     0.030 A 
ATOM     17  C12 91B d   1     -22.658   2.640  14.499  0.00  0.00    -0.057 A 
ATOM     18  C11 91B d   1     -21.694   1.693  14.207  0.00  0.00    -0.080 A 
ATOM     19  H3  91B d   1     -23.395   2.917  13.754  0.00  0.00     0.086 H 
ATOM     20  C10 91B d   1     -20.780   1.324  15.161  0.00  0.00    -0.075 A 
ATOM     21  H1  91B d   1     -21.660   1.241  13.222  0.00  0.00     0.083 H 
ATOM     22  C9  91B d   1     -20.793   1.855  16.436  0.00  0.00    -0.031 A 
ATOM     23  H2  91B d   1     -20.023   0.592  14.906  0.00  0.00     0.084 H 
ATOM     24  C8  91B d   1     -21.744   2.833  16.688  0.00  0.00    -0.050 A 
ATOM     25  H4  91B d   1     -21.756   3.303  17.665  0.00  0.00     0.087 H 
BRANCH  22  26
ATOM     26  C13 91B d   1     -19.727   1.353  17.408  0.00  0.00     0.103 C 
ATOM     27  H16 91B d   1     -18.900   0.905  16.837  0.00  0.00     0.082 H 
ATOM     28  H17 91B d   1     -20.170   0.594  18.069  0.00  0.00     0.082 H 
BRANCH  26  29
ATOM     29  N14 91B d   1     -19.205   2.461  18.226  0.00  0.00    -0.075 N 
ATOM     30  H19 91B d   1     -18.504   2.110  18.860  0.00  0.00     0.274 HD
ATOM     31  H20 91B d   1     -19.959   2.873  18.753  0.00  0.00     0.274 HD
ATOM     32  H21 91B d   1     -18.795   3.158  17.625  0.00  0.00     0.274 HD
ENDBRANCH  26  29
ENDBRANCH  22  26
ENDBRANCH   5  16
BRANCH   6  33
ATOM     33  C15 91B d   1     -26.242   7.398  16.824  0.00  0.00     0.066 C 
ATOM     34  H13 91B d   1     -25.962   8.002  17.700  0.00  0.00     0.068 H 
ATOM     35  H14 91B d   1     -27.136   6.803  17.060  0.00  0.00     0.068 H 
ATOM     36  H15 91B d   1     -26.457   8.062  15.974  0.00  0.00     0.068 H 
ENDBRANCH   6  33
TORSDOF 4
