REMARK  3 active torsions:
REMARK  status: ('A' for Active; 'I' for Inactive)
REMARK    1  A    between atoms: C1_1  and  N1_2 
REMARK    2  A    between atoms: C2_3  and  C1_1 
REMARK    3  A    between atoms: C6_8  and  N2_4 
ROOT
ATOM      1  C2  7Z3 d   1       1.675 -15.131  17.063  0.00  0.00    -0.031 A 
ATOM      2  C3  7Z3 d   1       1.311 -15.770  15.865  0.00  0.00    -0.075 A 
ATOM      3  C4  7Z3 d   1       1.218 -15.015  14.715  0.00  0.00    -0.080 A 
ATOM      4  C5  7Z3 d   1       1.590 -13.652  14.680  0.00  0.00    -0.057 A 
ATOM      5  C6  7Z3 d   1       2.005 -13.064  15.846  0.00  0.00     0.030 A 
ATOM      6  C11 7Z3 d   1       2.047 -13.811  17.036  0.00  0.00    -0.050 A 
ATOM      7  H6  7Z3 d   1       1.108 -16.835  15.846  0.00  0.00     0.084 H 
ATOM      8  H7  7Z3 d   1       0.848 -15.482  13.809  0.00  0.00     0.083 H 
ATOM      9  H8  7Z3 d   1       1.548 -13.087  13.756  0.00  0.00     0.086 H 
ATOM     10  H17 7Z3 d   1       2.380 -13.334  17.951  0.00  0.00     0.087 H 
ENDROOT
BRANCH   5  11
ATOM     11  N2  7Z3 d   1       2.416 -11.637  15.879  0.00  0.00    -0.381 N 
ATOM     12  C7  7Z3 d   1       2.686 -11.022  14.559  0.00  0.00    -0.005 C 
ATOM     13  C8  7Z3 d   1       3.463  -9.800  14.971  0.00  0.00    -0.049 C 
ATOM     14  H9  7Z3 d   1       1.754 -10.753  14.039  0.00  0.00     0.064 H 
ATOM     15  H10 7Z3 d   1       3.285 -11.686  13.918  0.00  0.00     0.064 H 
ATOM     16  C9  7Z3 d   1       4.028 -10.040  16.368  0.00  0.00    -0.049 C 
ATOM     17  H11 7Z3 d   1       2.798  -8.924  14.984  0.00  0.00     0.035 H 
ATOM     18  H12 7Z3 d   1       4.286  -9.626  14.262  0.00  0.00     0.035 H 
ATOM     19  C10 7Z3 d   1       3.367 -11.246  16.952  0.00  0.00    -0.005 C 
ATOM     20  H13 7Z3 d   1       3.828  -9.165  17.003  0.00  0.00     0.035 H 
ATOM     21  H14 7Z3 d   1       5.113 -10.207  16.305  0.00  0.00     0.035 H 
ATOM     22  H15 7Z3 d   1       4.097 -12.045  17.148  0.00  0.00     0.064 H 
ATOM     23  H16 7Z3 d   1       2.837 -10.998  17.883  0.00  0.00     0.064 H 
ENDBRANCH   5  11
BRANCH   1  24
ATOM     24  C1  7Z3 d   1       1.813 -15.979  18.283  0.00  0.00     0.103 C 
ATOM     25  H1  7Z3 d   1       0.991 -15.736  18.973  0.00  0.00     0.082 H 
ATOM     26  H2  7Z3 d   1       1.742 -17.035  17.985  0.00  0.00     0.082 H 
BRANCH  24  27
ATOM     27  N1  7Z3 d   1       3.119 -15.771  19.001  0.00  0.00    -0.075 N 
ATOM     28  H3  7Z3 d   1       3.155 -16.367  19.813  0.00  0.00     0.274 HD
ATOM     29  H4  7Z3 d   1       3.195 -14.808  19.288  0.00  0.00     0.274 HD
ATOM     30  H5  7Z3 d   1       3.882 -15.998  18.383  0.00  0.00     0.274 HD
ENDBRANCH  24  27
ENDBRANCH   1  24
TORSDOF 3
