REMARK  11 active torsions:
REMARK  status: ('A' for Active; 'I' for Inactive)
REMARK    1  A    between atoms: C1_1  and  N2_2 
REMARK    2  A    between atoms: N2_2  and  C3_3 
REMARK    3  A    between atoms: N2_2  and  C4_4 
REMARK    4  A    between atoms: C4_4  and  C5_5 
REMARK    5  A    between atoms: C5_5  and  N6_6 
REMARK    6  A    between atoms: N6_6  and  S7_7 
REMARK    7  A    between atoms: S7_7  and  C10_10 
REMARK    8  A    between atoms: C13_13  and  C16_16 
REMARK    9  A    between atoms: C19_19  and  N31_31 
REMARK   10  A    between atoms: C20_20  and  C22_22 
REMARK       I    between atoms: C22_22  and  N24_24 
REMARK   11  A    between atoms: N24_24  and  C25_25 
ROOT
ATOM      1  C10 7YG d   1      15.217  18.803  10.189  0.00  0.00     0.079 A 
ATOM      2  C11 7YG d   1      15.212  19.154   8.847  0.00  0.00    -0.059 A 
ATOM      3  C12 7YG d   1      16.406  19.192   8.153  0.00  0.00    -0.069 A 
ATOM      4  C13 7YG d   1      17.613  18.876   8.767  0.00  0.00    -0.006 A 
ATOM      5  C14 7YG d   1      17.588  18.530  10.107  0.00  0.00    -0.069 A 
ATOM      6  C15 7YG d   1      16.408  18.500  10.826  0.00  0.00    -0.059 A 
ATOM      7  H13 7YG d   1      14.281  19.396   8.348  0.00  0.00     0.085 H 
ATOM      8  H14 7YG d   1      16.402  19.474   7.106  0.00  0.00     0.085 H 
ATOM      9  H15 7YG d   1      18.517  18.276  10.605  0.00  0.00     0.085 H 
ATOM     10  H16 7YG d   1      16.415  18.242  11.879  0.00  0.00     0.085 H 
ENDROOT
BRANCH   4  11
ATOM     11  C16 7YG d   1      18.873  18.856   8.033  0.00  0.00     0.085 A 
ATOM     12  C17 7YG d   1      19.053  19.545   6.851  0.00  0.00     0.033 A 
ATOM     13  N18 7YG d   1      20.171  19.478   6.117  0.00  0.00    -0.239 NA
ATOM     14  H17 7YG d   1      18.245  20.175   6.497  0.00  0.00     0.118 H 
ATOM     15  C19 7YG d   1      21.155  18.707   6.613  0.00  0.00     0.155 A 
ATOM     16  C20 7YG d   1      20.998  18.046   7.820  0.00  0.00     0.170 A 
ATOM     17  N21 7YG d   1      19.860  18.090   8.532  0.00  0.00    -0.237 NA
BRANCH  15  18
ATOM     18  N31 7YG d   1      22.332  18.579   5.879  0.00  0.00    -0.382 N 
ATOM     19  H23 7YG d   1      23.101  17.994   6.237  0.00  0.00     0.157 HD
ATOM     20  H24 7YG d   1      22.433  19.069   4.979  0.00  0.00     0.157 HD
ENDBRANCH  15  18
BRANCH  16  21
ATOM     21  C22 7YG d   1      22.066  17.178   8.369  0.00  0.00     0.278 C 
ATOM     22  O23 7YG d   1      23.156  17.092   7.824  0.00  0.00    -0.265 OA
ATOM     23  N24 7YG d   1      21.659  16.480   9.490  0.00  0.00    -0.320 N 
ATOM     24  H18 7YG d   1      20.691  16.547   9.731  0.00  0.00     0.169 HD
BRANCH  23  25
ATOM     25  C25 7YG d   1      22.459  15.688  10.325  0.00  0.00     0.052 A 
ATOM     26  C26 7YG d   1      21.845  15.064  11.391  0.00  0.00    -0.054 A 
ATOM     27  C27 7YG d   1      22.602  14.298  12.261  0.00  0.00    -0.064 A 
ATOM     28  H19 7YG d   1      20.778  15.173  11.546  0.00  0.00     0.087 H 
ATOM     29  C28 7YG d   1      23.959  14.188  12.009  0.00  0.00     0.002 A 
ATOM     30  H20 7YG d   1      22.148  13.801  13.111  0.00  0.00     0.085 H 
ATOM     31  N29 7YG d   1      24.575  14.775  10.971  0.00  0.00    -0.271 NA
ATOM     32  H21 7YG d   1      24.558  13.594  12.689  0.00  0.00     0.114 H 
ATOM     33  C30 7YG d   1      23.824  15.520  10.154  0.00  0.00     0.028 A 
ATOM     34  H22 7YG d   1      24.305  16.016   9.319  0.00  0.00     0.118 H 
ENDBRANCH  23  25
ENDBRANCH  16  21
ENDBRANCH   4  11
BRANCH   1  35
ATOM     35  S7  7YG d   1      13.681  18.744  11.143  0.00  0.00     0.258 S 
ATOM     36  O8  7YG d   1      13.690  17.500  11.893  0.00  0.00    -0.201 OA
ATOM     37  O9  7YG d   1      12.632  19.072  10.203  0.00  0.00    -0.201 OA
BRANCH  35  38
ATOM     38  N6  7YG d   1      13.971  19.969  12.299  0.00  0.00    -0.314 N 
ATOM     39  H12 7YG d   1      14.251  19.735  13.230  0.00  0.00     0.172 HD
BRANCH  38  40
ATOM     40  C5  7YG d   1      13.800  21.376  11.897  0.00  0.00     0.025 C 
ATOM     41  H10 7YG d   1      14.641  21.695  11.264  0.00  0.00     0.067 H 
ATOM     42  H11 7YG d   1      12.857  21.501  11.345  0.00  0.00     0.067 H 
BRANCH  40  43
ATOM     43  C4  7YG d   1      13.770  22.194  13.183  0.00  0.00     0.098 C 
ATOM     44  H8  7YG d   1      14.643  21.914  13.791  0.00  0.00     0.078 H 
ATOM     45  H9  7YG d   1      13.835  23.259  12.916  0.00  0.00     0.078 H 
BRANCH  43  46
ATOM     46  N2  7YG d   1      12.529  21.989  14.013  0.00  0.00    -0.077 N 
ATOM     47  H4  7YG d   1      12.446  22.895  14.447  0.00  0.00     0.279 HD
BRANCH  46  48
ATOM     48  C1  7YG d   1      11.209  21.883  13.328  0.00  0.00     0.066 C 
ATOM     49  H1  7YG d   1      10.418  21.736  14.078  0.00  0.00     0.068 H 
ATOM     50  H2  7YG d   1      11.222  21.027  12.637  0.00  0.00     0.068 H 
ATOM     51  H3  7YG d   1      11.013  22.807  12.764  0.00  0.00     0.068 H 
ENDBRANCH  46  48
BRANCH  46  52
ATOM     52  C3  7YG d   1      12.672  21.103  15.201  0.00  0.00     0.066 C 
ATOM     53  H5  7YG d   1      13.669  21.242  15.645  0.00  0.00     0.068 H 
ATOM     54  H6  7YG d   1      12.551  20.054  14.893  0.00  0.00     0.068 H 
ATOM     55  H7  7YG d   1      11.901  21.358  15.944  0.00  0.00     0.068 H 
ENDBRANCH  46  52
ENDBRANCH  43  46
ENDBRANCH  40  43
ENDBRANCH  38  40
ENDBRANCH  35  38
ENDBRANCH   1  35
TORSDOF 11
