REMARK  6 active torsions:
REMARK  status: ('A' for Active; 'I' for Inactive)
REMARK    1  A    between atoms: C1_1  and  C2_4 
REMARK    2  A    between atoms: C2_4  and  C3_5 
REMARK    3  A    between atoms: C3_5  and  O7_6 
REMARK    4  A    between atoms: C3_5  and  C4_7 
REMARK    5  A    between atoms: C3_5  and  C6_11 
REMARK    6  A    between atoms: C4_7  and  C5_8 
ROOT
ATOM      1  C3  CIT d   1     -11.732   9.629  39.494  0.00  0.00     0.164 C 
ENDROOT
BRANCH   1   2
ATOM      2  C2  CIT d   1     -10.643   9.333  38.479  0.00  0.00     0.054 C 
ATOM      3  H1  CIT d   1      -9.813  10.037  38.639  0.00  0.00     0.054 H 
ATOM      4  H2  CIT d   1     -10.286   8.304  38.637  0.00  0.00     0.054 H 
BRANCH   2   5
ATOM      5  C1  CIT d   1     -11.113   9.463  37.071  0.00  0.00     0.176 C 
ATOM      6  O1  CIT d   1     -12.291   9.149  36.765  0.00  0.00    -0.648 OA
ATOM      7  O2  CIT d   1     -10.299   9.913  36.185  0.00  0.00    -0.648 OA
ENDBRANCH   2   5
ENDBRANCH   1   2
BRANCH   1   8
ATOM      8  O7  CIT d   1     -12.862   8.803  39.169  0.00  0.00    -0.378 OA
ATOM      9  H3  CIT d   1     -13.161   9.009  38.291  0.00  0.00     0.211 HD
ENDBRANCH   1   8
BRANCH   1  10
ATOM     10  C4  CIT d   1     -11.243   9.309  40.894  0.00  0.00     0.054 C 
ATOM     11  H4  CIT d   1     -10.375   9.948  41.114  0.00  0.00     0.054 H 
ATOM     12  H5  CIT d   1     -10.937   8.253  40.923  0.00  0.00     0.054 H 
BRANCH  10  13
ATOM     13  C5  CIT d   1     -12.300   9.537  41.979  0.00  0.00     0.176 C 
ATOM     14  O3  CIT d   1     -13.555   9.690  41.766  0.00  0.00    -0.648 OA
ATOM     15  O4  CIT d   1     -11.882   9.649  43.171  0.00  0.00    -0.648 OA
ENDBRANCH  10  13
ENDBRANCH   1  10
BRANCH   1  16
ATOM     16  C6  CIT d   1     -12.218  11.074  39.335  0.00  0.00     0.210 C 
ATOM     17  O5  CIT d   1     -13.417  11.383  39.461  0.00  0.00    -0.646 OA
ATOM     18  O6  CIT d   1     -11.410  11.958  39.102  0.00  0.00    -0.646 OA
ENDBRANCH   1  16
TORSDOF 6
