REMARK  10 active torsions:
REMARK  status: ('A' for Active; 'I' for Inactive)
REMARK    1  A    between atoms: O3_15  and  C1_1 
REMARK    2  A    between atoms: C2_2  and  O2_7 
REMARK    3  A    between atoms: C3_3  and  O3_8 
REMARK    4  A    between atoms: C4_4  and  O4_9 
REMARK    5  A    between atoms: C5_5  and  C6_6 
REMARK    6  A    between atoms: C6_6  and  O6_11 
REMARK    7  A    between atoms: C4_13  and  O4_12 
REMARK    8  A    between atoms: C3_14  and  O3_15 
REMARK    9  A    between atoms: C5_19  and  C6_20 
REMARK   10  A    between atoms: C6_20  and  O6_21 
ROOT
ATOM      1  O3  IFM d   1     -47.047  71.402 -16.060  0.00  0.00    -0.349 OA
ENDROOT
BRANCH   1   2
ATOM      2  C1  GLC d   1     -46.764  72.702 -16.600  0.00  0.00     0.159 C 
ATOM      3  C2  GLC d   1     -46.272  72.624 -18.043  0.00  0.00     0.110 C 
ATOM      4  C3  GLC d   1     -44.898  71.977 -18.053  0.00  0.00     0.092 C 
ATOM      5  H2  GLC d   1     -46.194  73.641 -18.455  0.00  0.00     0.094 H 
ATOM      6  C4  GLC d   1     -43.951  72.805 -17.181  0.00  0.00     0.090 C 
ATOM      7  H3  GLC d   1     -44.963  70.959 -17.642  0.00  0.00     0.091 H 
ATOM      8  C5  GLC d   1     -44.480  72.887 -15.749  0.00  0.00     0.089 C 
ATOM      9  H4  GLC d   1     -43.834  73.814 -17.603  0.00  0.00     0.091 H 
ATOM     10  O5  GLC d   1     -45.814  73.388 -15.776  0.00  0.00    -0.348 OA
ATOM     11  H5  GLC d   1     -44.484  71.873 -15.324  0.00  0.00     0.090 H 
ATOM     12  H1  GLC d   1     -47.700  73.280 -16.595  0.00  0.00     0.133 H 
BRANCH   3  13
ATOM     13  O2  GLC d   1     -47.182  71.887 -18.824  0.00  0.00    -0.388 OA
ATOM     14  H8  GLC d   1     -46.869  71.848 -19.720  0.00  0.00     0.210 HD
ENDBRANCH   3  13
BRANCH   4  15
ATOM     15  O3  GLC d   1     -44.462  71.909 -19.394  0.00  0.00    -0.390 OA
ATOM     16  H9  GLC d   1     -44.417  72.786 -19.756  0.00  0.00     0.210 HD
ENDBRANCH   4  15
BRANCH   6  17
ATOM     17  O4  GLC d   1     -42.722  72.145 -17.127  0.00  0.00    -0.390 OA
ATOM     18  H10 GLC d   1     -42.124  72.636 -16.576  0.00  0.00     0.210 HD
ENDBRANCH   6  17
BRANCH   8  19
ATOM     19  C6  GLC d   1     -43.626  73.791 -14.837  0.00  0.00     0.043 C 
ATOM     20  H6  GLC d   1     -43.656  74.824 -15.214  0.00  0.00     0.078 H 
ATOM     21  H7  GLC d   1     -42.586  73.431 -14.835  0.00  0.00     0.078 H 
BRANCH  19  22
ATOM     22  O6  GLC d   1     -44.143  73.755 -13.509  0.00  0.00    -0.398 OA
ATOM     23  H11 GLC d   1     -44.117  72.863 -13.184  0.00  0.00     0.209 HD
ENDBRANCH  19  22
ENDBRANCH   8  19
ENDBRANCH   1   2
BRANCH   1  24
ATOM     24  C3  IFM d   1     -47.889  71.422 -14.919  0.00  0.00     0.090 C 
ATOM     25  C4  IFM d   1     -48.459  70.004 -14.704  0.00  0.00     0.069 C 
ATOM     26  C5  IFM d   1     -49.243  69.974 -13.390  0.00  0.00     0.017 C 
ATOM     27  H13 GLC d   1     -47.628  69.287 -14.631  0.00  0.00     0.087 H 
ATOM     28  C1  IFM d   1     -48.404  70.497 -12.207  0.00  0.00     0.089 C 
ATOM     29  H21 GLC d   1     -50.100  70.651 -13.517  0.00  0.00     0.049 H 
ATOM     30  N   IFM d   1     -47.809  71.799 -12.495  0.00  0.00    -0.072 N 
ATOM     31  H19 GLC d   1     -49.053  70.590 -11.324  0.00  0.00     0.076 H 
ATOM     32  H20 GLC d   1     -47.599  69.777 -11.996  0.00  0.00     0.076 H 
ATOM     33  C2  IFM d   1     -47.043  71.892 -13.725  0.00  0.00     0.108 C 
ATOM     34  H17 GLC d   1     -48.555  72.475 -12.545  0.00  0.00     0.277 HD
ATOM     35  H18 GLC d   1     -47.195  72.033 -11.731  0.00  0.00     0.277 HD
ATOM     36  H15 GLC d   1     -46.739  72.937 -13.885  0.00  0.00     0.079 H 
ATOM     37  H16 GLC d   1     -46.148  71.258 -13.643  0.00  0.00     0.079 H 
ATOM     38  H14 GLC d   1     -48.720  72.125 -15.076  0.00  0.00     0.090 H 
BRANCH  25  39
ATOM     39  O4  IFM d   1     -49.280  69.645 -15.848  0.00  0.00    -0.392 OA
ATOM     40  H12 GLC d   1     -49.634  68.772 -15.721  0.00  0.00     0.210 HD
ENDBRANCH  25  39
BRANCH  26  41
ATOM     41  C6  IFM d   1     -49.801  68.595 -13.035  0.00  0.00     0.024 C 
ATOM     42  H22 GLC d   1     -50.430  68.245 -13.867  0.00  0.00     0.074 H 
ATOM     43  H23 GLC d   1     -50.413  68.686 -12.126  0.00  0.00     0.074 H 
BRANCH  41  44
ATOM     44  O6  IFM d   1     -48.763  67.620 -12.798  0.00  0.00    -0.400 OA
ATOM     45  H24 GLC d   1     -48.217  67.909 -12.076  0.00  0.00     0.209 HD
ENDBRANCH  41  44
ENDBRANCH  26  41
ENDBRANCH   1  24
TORSDOF 10
