REMARK  5 active torsions:
REMARK  status: ('A' for Active; 'I' for Inactive)
REMARK    1  A    between atoms: O15_1  and  C14_2 
REMARK    2  A    between atoms: C14_2  and  C13_3 
REMARK    3  A    between atoms: C13_3  and  N7_4 
REMARK    4  A    between atoms: C2_9  and  N2_10 
REMARK    5  A    between atoms: C8_14  and  S10_15 
ROOT
ATOM      1  N7  GSY d   1       1.300  -0.586  13.679  0.00  0.00    -0.316 N 
ATOM      2  C5  GSY d   1       1.731  -1.715  13.095  0.00  0.00     0.152 A 
ATOM      3  C6  GSY d   1       1.556  -2.302  11.824  0.00  0.00     0.290 A 
ATOM      4  O11 GSY d   1       0.849  -1.809  10.916  0.00  0.00    -0.265 OA
ATOM      5  N1  GSY d   1       2.154  -3.533  11.580  0.00  0.00    -0.154 N 
ATOM      6  C2  GSY d   1       2.929  -4.104  12.624  0.00  0.00     0.680 A 
ATOM      7  N3  GSY d   1       3.056  -3.520  13.802  0.00  0.00    -0.172 N 
ATOM      8  C4  GSY d   1       2.484  -2.353  14.068  0.00  0.00     0.178 A 
ATOM      9  N9  GSY d   1       2.462  -1.588  15.175  0.00  0.00    -0.204 NA
ATOM     10  C8  GSY d   1       1.735  -0.535  14.927  0.00  0.00     0.168 A 
ATOM     11  H6  GSY d   1       2.043  -3.999  10.702  0.00  0.00     0.187 HD
ATOM     12  H9  GSY d   1       3.614  -3.983  14.534  0.00  0.00     0.186 HD
ENDROOT
BRANCH   1  13
ATOM     13  C13 GSY d   1       0.405   0.381  12.962  0.00  0.00     0.022 C 
ATOM     14  H4  GSY d   1      -0.440  -0.150  12.500  0.00  0.00     0.068 H 
ATOM     15  H5  GSY d   1       0.023   1.139  13.661  0.00  0.00     0.068 H 
BRANCH  13  16
ATOM     16  C14 GSY d   1       1.269   1.034  11.892  0.00  0.00     0.032 C 
ATOM     17  H2  GSY d   1       2.030   0.322  11.539  0.00  0.00     0.076 H 
ATOM     18  H3  GSY d   1       0.642   1.351  11.046  0.00  0.00     0.076 H 
BRANCH  16  19
ATOM     19  O15 GSY d   1       1.894   2.156  12.474  0.00  0.00    -0.399 OA
ATOM     20  H1  GSY d   1       2.441   2.584  11.826  0.00  0.00     0.209 HD
ENDBRANCH  16  19
ENDBRANCH  13  16
ENDBRANCH   1  13
BRANCH  10  21
ATOM     21  S10 GSY d   1       1.491   0.736  16.174  0.00  0.00    -0.105 SA
ATOM     22  H10 GSY d   1       1.048   0.330  16.983  0.00  0.00     0.110 HD
ENDBRANCH  10  21
BRANCH   6  23
ATOM     23  N2  GSY d   1       3.484  -5.273  12.490  0.00  0.00    -0.234 N 
ATOM     24  H7  GSY d   1       4.042  -5.669  13.259  0.00  0.00     0.174 HD
ATOM     25  H8  GSY d   1       3.365  -5.802  11.614  0.00  0.00     0.174 HD
ENDBRANCH   6  23
TORSDOF 5
