REMARK  0 active torsions:
REMARK  status: ('A' for Active; 'I' for Inactive)
ROOT
ATOM      1  C01 QMR d   1      46.401  -4.107  13.855  0.00  0.00     0.089 C 
ATOM      2  N02 QMR d   1      44.911  -4.201  13.965  0.00  0.00    -0.074 N 
ATOM      3  C03 QMR d   1      44.141  -3.214  13.045  0.00  0.00     0.089 C 
ATOM      4  C04 QMR d   1      44.815  -1.933  12.948  0.00  0.00    -0.004 C 
ATOM      5  C05 QMR d   1      46.228  -2.100  12.588  0.00  0.00    -0.048 C 
ATOM      6  C06 QMR d   1      46.896  -2.732  13.701  0.00  0.00    -0.004 C 
ATOM      7  C07 QMR d   1      46.242  -1.961  14.673  0.00  0.00    -0.043 A 
ATOM      8  C08 QMR d   1      46.694  -1.641  15.985  0.00  0.00    -0.046 A 
ATOM      9  C09 QMR d   1      45.890  -0.833  16.842  0.00  0.00     0.085 A 
ATOM     10  N10 QMR d   1      46.353  -0.508  18.126  0.00  0.00    -0.257 NA
ATOM     11  C11 QMR d   1      45.586   0.247  18.937  0.00  0.00     0.020 A 
ATOM     12  C12 QMR d   1      44.351   0.735  18.527  0.00  0.00     0.020 A 
ATOM     13  N13 QMR d   1      43.907   0.443  17.288  0.00  0.00    -0.257 NA
ATOM     14  C14 QMR d   1      44.697  -0.364  16.437  0.00  0.00     0.085 A 
ATOM     15  C15 QMR d   1      44.224  -0.650  15.133  0.00  0.00    -0.046 A 
ATOM     16  C16 QMR d   1      45.014  -1.468  14.264  0.00  0.00    -0.043 A 
ATOM     17  H1  QMR d   1      46.722  -4.692  12.980  0.00  0.00     0.076 H 
ATOM     18  H2  QMR d   1      46.844  -4.536  14.766  0.00  0.00     0.076 H 
ATOM     19  H3  QMR d   1      44.652  -4.010  14.920  0.00  0.00     0.277 HD
ATOM     20  H4  QMR d   1      44.635  -5.140  13.723  0.00  0.00     0.277 HD
ATOM     21  H5  QMR d   1      43.133  -3.056  13.456  0.00  0.00     0.076 H 
ATOM     22  H6  QMR d   1      44.062  -3.652  12.039  0.00  0.00     0.076 H 
ATOM     23  H7  QMR d   1      44.272  -1.235  12.293  0.00  0.00     0.050 H 
ATOM     24  H8  QMR d   1      46.682  -1.118  12.388  0.00  0.00     0.035 H 
ATOM     25  H9  QMR d   1      46.314  -2.733  11.692  0.00  0.00     0.035 H 
ATOM     26  H10 QMR d   1      47.994  -2.668  13.691  0.00  0.00     0.050 H 
ATOM     27  H11 QMR d   1      47.651  -2.012  16.333  0.00  0.00     0.088 H 
ATOM     28  H12 QMR d   1      45.941   0.480  19.934  0.00  0.00     0.117 H 
ATOM     29  H13 QMR d   1      43.752   1.343  19.195  0.00  0.00     0.117 H 
ATOM     30  H14 QMR d   1      43.273  -0.253  14.796  0.00  0.00     0.088 H 
ENDROOT
TORSDOF 0
