REMARK  6 active torsions:
REMARK  status: ('A' for Active; 'I' for Inactive)
REMARK       I    between atoms: C80_2  and  N82_3 
REMARK    1  A    between atoms: C80_2  and  C23_5 
REMARK    2  A    between atoms: N82_3  and  C88_4 
REMARK    3  A    between atoms: C18_9  and  S24_11 
REMARK    4  A    between atoms: S24_11  and  C07_12 
REMARK    5  A    between atoms: C13_19  and  C16_21 
REMARK    6  A    between atoms: C17_22  and  C02_23 
ROOT
ATOM      1  C07 AXI d   1      21.489  24.548  38.526  0.00  0.00     0.007 A 
ATOM      2  C08 AXI d   1      20.123  24.259  38.796  0.00  0.00    -0.065 A 
ATOM      3  C09 AXI d   1      19.257  25.239  39.392  0.00  0.00    -0.067 A 
ATOM      4  C12 AXI d   1      22.020  25.832  38.865  0.00  0.00    -0.038 A 
ATOM      5  C11 AXI d   1      21.178  26.775  39.450  0.00  0.00     0.064 A 
ATOM      6  N15 AXI d   1      21.430  28.076  39.855  0.00  0.00    -0.277 N 
ATOM      7  N14 AXI d   1      20.339  28.597  40.306  0.00  0.00    -0.174 NA
ATOM      8  C13 AXI d   1      19.371  27.755  40.274  0.00  0.00     0.089 A 
ATOM      9  C10 AXI d   1      19.844  26.504  39.711  0.00  0.00     0.022 A 
ATOM     10  H9  AXI d   1      19.727  23.281  38.547  0.00  0.00     0.085 H 
ATOM     11  H10 AXI d   1      18.212  25.030  39.590  0.00  0.00     0.085 H 
ATOM     12  H11 AXI d   1      23.060  26.067  38.670  0.00  0.00     0.089 H 
ATOM     13  H12 AXI d   1      22.342  28.551  39.804  0.00  0.00     0.189 HD
ENDROOT
BRANCH   1  14
ATOM     14  S24 AXI d   1      22.510  23.347  37.788  0.00  0.00    -0.089 SA
BRANCH  14  15
ATOM     15  C18 AXI d   1      24.018  23.298  38.674  0.00  0.00     0.021 A 
ATOM     16  C23 AXI d   1      25.292  23.032  38.066  0.00  0.00     0.049 A 
ATOM     17  C22 AXI d   1      26.456  22.997  38.889  0.00  0.00    -0.066 A 
ATOM     18  C21 AXI d   1      26.409  23.200  40.291  0.00  0.00    -0.082 A 
ATOM     19  H5  AXI d   1      27.416  22.807  38.423  0.00  0.00     0.085 H 
ATOM     20  C20 AXI d   1      25.156  23.462  40.885  0.00  0.00    -0.082 A 
ATOM     21  H6  AXI d   1      27.311  23.155  40.891  0.00  0.00     0.083 H 
ATOM     22  C19 AXI d   1      23.982  23.492  40.094  0.00  0.00    -0.065 A 
ATOM     23  H7  AXI d   1      25.092  23.641  41.952  0.00  0.00     0.083 H 
ATOM     24  H8  AXI d   1      23.027  23.667  40.577  0.00  0.00     0.085 H 
BRANCH  16  25
ATOM     25  C80 AXI d   1      25.499  22.806  36.610  0.00  0.00     0.252 C 
ATOM     26  O81 AXI d   1      24.831  23.470  35.794  0.00  0.00    -0.268 OA
ATOM     27  N82 AXI d   1      26.415  21.916  36.184  0.00  0.00    -0.361 N 
ATOM     28  H1  AXI d   1      26.872  21.349  36.869  0.00  0.00     0.162 HD
BRANCH  27  29
ATOM     29  C88 AXI d   1      26.782  21.727  34.783  0.00  0.00    -0.018 C 
ATOM     30  H2  AXI d   1      27.550  20.943  34.708  0.00  0.00     0.056 H 
ATOM     31  H3  AXI d   1      27.179  22.669  34.378  0.00  0.00     0.056 H 
ATOM     32  H4  AXI d   1      25.893  21.427  34.209  0.00  0.00     0.056 H 
ENDBRANCH  27  29
ENDBRANCH  16  25
ENDBRANCH  14  15
ENDBRANCH   1  14
BRANCH   8  33
ATOM     33  C16 AXI d   1      18.018  28.134  40.713  0.00  0.00    -0.050 C 
ATOM     34  C17 AXI d   1      16.885  27.325  40.808  0.00  0.00    -0.053 C 
ATOM     35  H14 AXI d   1      16.976  26.276  40.530  0.00  0.00     0.087 H 
ATOM     36  H13 AXI d   1      17.885  29.176  40.999  0.00  0.00     0.087 H 
BRANCH  34  37
ATOM     37  C02 AXI d   1      15.547  27.825  41.273  0.00  0.00     0.056 A 
ATOM     38  N03 AXI d   1      14.576  26.890  41.337  0.00  0.00    -0.261 NA
ATOM     39  C04 AXI d   1      13.319  27.223  41.745  0.00  0.00     0.003 A 
ATOM     40  C05 AXI d   1      13.002  28.545  42.103  0.00  0.00    -0.066 A 
ATOM     41  H15 AXI d   1      12.553  26.458  41.794  0.00  0.00     0.114 H 
ATOM     42  C06 AXI d   1      14.004  29.530  42.041  0.00  0.00    -0.079 A 
ATOM     43  H16 AXI d   1      11.998  28.802  42.423  0.00  0.00     0.085 H 
ATOM     44  C01 AXI d   1      15.312  29.179  41.616  0.00  0.00    -0.055 A 
ATOM     45  H17 AXI d   1      13.778  30.554  42.317  0.00  0.00     0.083 H 
ATOM     46  H18 AXI d   1      16.102  29.919  41.556  0.00  0.00     0.087 H 
ENDBRANCH  34  37
ENDBRANCH   8  33
TORSDOF 6
