REMARK  6 active torsions:
REMARK  status: ('A' for Active; 'I' for Inactive)
REMARK       I    between atoms: C80_2  and  N82_3 
REMARK    1  A    between atoms: C80_2  and  C23_5 
REMARK    2  A    between atoms: N82_3  and  C88_4 
REMARK    3  A    between atoms: C18_9  and  S24_11 
REMARK    4  A    between atoms: S24_11  and  C07_12 
REMARK    5  A    between atoms: C13_19  and  C16_21 
REMARK    6  A    between atoms: C17_22  and  C02_23 
ROOT
ATOM      1  C07 AXI d   1     -22.959  -0.270 -11.905  0.00  0.00     0.008 A 
ATOM      2  C08 AXI d   1     -21.591  -0.542 -12.267  0.00  0.00    -0.065 A 
ATOM      3  C09 AXI d   1     -20.775   0.457 -12.895  0.00  0.00    -0.067 A 
ATOM      4  C12 AXI d   1     -23.512   1.033 -12.184  0.00  0.00    -0.036 A 
ATOM      5  C11 AXI d   1     -22.684   2.004 -12.808  0.00  0.00     0.090 A 
ATOM      6  N15 AXI d   1     -22.918   3.313 -13.193  0.00  0.00    -0.174 NA
ATOM      7  N14 AXI d   1     -21.872   3.847 -13.731  0.00  0.00    -0.277 N 
ATOM      8  C13 AXI d   1     -20.895   3.007 -13.759  0.00  0.00     0.062 A 
ATOM      9  C10 AXI d   1     -21.364   1.741 -13.156  0.00  0.00     0.022 A 
ATOM     10  H9  AXI d   1     -21.171  -1.520 -12.061  0.00  0.00     0.085 H 
ATOM     11  H10 AXI d   1     -19.746   0.249 -13.164  0.00  0.00     0.085 H 
ATOM     12  H11 AXI d   1     -24.538   1.266 -11.923  0.00  0.00     0.089 H 
ATOM     13  H12 AXI d   1     -21.825   4.812 -14.089  0.00  0.00     0.189 HD
ENDROOT
BRANCH   1  14
ATOM     14  S24 AXI d   1     -23.902  -1.516 -11.133  0.00  0.00    -0.089 SA
BRANCH  14  15
ATOM     15  C18 AXI d   1     -25.398  -1.648 -12.044  0.00  0.00     0.021 A 
ATOM     16  C23 AXI d   1     -26.661  -1.921 -11.407  0.00  0.00     0.049 A 
ATOM     17  C22 AXI d   1     -27.843  -2.016 -12.228  0.00  0.00    -0.066 A 
ATOM     18  C21 AXI d   1     -27.785  -1.845 -13.635  0.00  0.00    -0.082 A 
ATOM     19  H5  AXI d   1     -28.798  -2.223 -11.759  0.00  0.00     0.085 H 
ATOM     20  C20 AXI d   1     -26.539  -1.573 -14.263  0.00  0.00    -0.082 A 
ATOM     21  H6  AXI d   1     -28.688  -1.921 -14.230  0.00  0.00     0.083 H 
ATOM     22  C19 AXI d   1     -25.362  -1.478 -13.474  0.00  0.00    -0.065 A 
ATOM     23  H7  AXI d   1     -26.488  -1.439 -15.338  0.00  0.00     0.083 H 
ATOM     24  H8  AXI d   1     -24.415  -1.273 -13.959  0.00  0.00     0.085 H 
BRANCH  16  25
ATOM     25  C80 AXI d   1     -26.813  -2.112  -9.925  0.00  0.00     0.252 C 
ATOM     26  O81 AXI d   1     -26.050  -1.540  -9.129  0.00  0.00    -0.268 OA
ATOM     27  N82 AXI d   1     -27.794  -2.903  -9.473  0.00  0.00    -0.361 N 
ATOM     28  H1  AXI d   1     -28.384  -3.344 -10.149  0.00  0.00     0.162 HD
BRANCH  27  29
ATOM     29  C88 AXI d   1     -28.062  -3.167  -8.066  0.00  0.00    -0.018 C 
ATOM     30  H2  AXI d   1     -28.921  -3.848  -7.978  0.00  0.00     0.056 H 
ATOM     31  H3  AXI d   1     -28.290  -2.221  -7.552  0.00  0.00     0.056 H 
ATOM     32  H4  AXI d   1     -27.177  -3.631  -7.605  0.00  0.00     0.056 H 
ENDBRANCH  27  29
ENDBRANCH  16  25
ENDBRANCH  14  15
ENDBRANCH   1  14
BRANCH   8  33
ATOM     33  C16 AXI d   1     -19.565   3.359 -14.326  0.00  0.00    -0.053 C 
ATOM     34  C17 AXI d   1     -18.334   2.766 -13.999  0.00  0.00    -0.053 C 
ATOM     35  H14 AXI d   1     -18.348   1.959 -13.267  0.00  0.00     0.087 H 
ATOM     36  H13 AXI d   1     -19.544   4.155 -15.068  0.00  0.00     0.087 H 
BRANCH  34  37
ATOM     37  C02 AXI d   1     -17.005   3.150 -14.572  0.00  0.00     0.056 A 
ATOM     38  N03 AXI d   1     -16.098   2.140 -14.754  0.00  0.00    -0.261 NA
ATOM     39  C04 AXI d   1     -14.863   2.437 -15.268  0.00  0.00     0.003 A 
ATOM     40  C05 AXI d   1     -14.473   3.760 -15.624  0.00  0.00    -0.066 A 
ATOM     41  H15 AXI d   1     -14.152   1.631 -15.410  0.00  0.00     0.114 H 
ATOM     42  C06 AXI d   1     -15.411   4.817 -15.437  0.00  0.00    -0.079 A 
ATOM     43  H16 AXI d   1     -13.487   3.958 -16.027  0.00  0.00     0.085 H 
ATOM     44  C01 AXI d   1     -16.698   4.518 -14.905  0.00  0.00    -0.055 A 
ATOM     45  H17 AXI d   1     -15.148   5.836 -15.697  0.00  0.00     0.083 H 
ATOM     46  H18 AXI d   1     -17.431   5.303 -14.754  0.00  0.00     0.087 H 
ENDBRANCH  34  37
ENDBRANCH   8  33
TORSDOF 6
