REMARK  5 active torsions:
REMARK  status: ('A' for Active; 'I' for Inactive)
REMARK    1  A    between atoms: C1_1  and  C4_4 
REMARK    2  A    between atoms: C2_2  and  O16_11 
REMARK    3  A    between atoms: C4_4  and  N5_5 
REMARK    4  A    between atoms: N5_5  and  C9_8 
REMARK    5  A    between atoms: N5_5  and  C14_13 
ROOT
ATOM      1  C4  P84 d   1      90.715  97.095 -45.476  0.00  0.00     0.109 C 
ATOM      2  H1  P84 d   1      89.633  97.200 -45.310  0.00  0.00     0.083 H 
ATOM      3  H2  P84 d   1      90.926  97.135 -46.555  0.00  0.00     0.083 H 
ENDROOT
BRANCH   1   4
ATOM      4  C1  P84 d   1      91.150  95.734 -44.953  0.00  0.00     0.003 A 
ATOM      5  C2  P84 d   1      91.511  95.543 -43.614  0.00  0.00     0.090 A 
ATOM      6  C3  P84 d   1      91.883  94.283 -43.152  0.00  0.00     0.041 A 
ATOM      7  C6  P84 d   1      91.896  93.176 -44.013  0.00  0.00    -0.048 A 
ATOM      8  I15 P84 d   1      92.385  94.074 -41.117  0.00  0.00    -0.042 I 
ATOM      9  C10 P84 d   1      91.536  93.348 -45.351  0.00  0.00     0.008 A 
ATOM     10  H4  P84 d   1      92.182  92.198 -43.644  0.00  0.00     0.087 H 
ATOM     11  C8  P84 d   1      91.167  94.618 -45.816  0.00  0.00    -0.057 A 
ATOM     12  I17 P84 d   1      91.536  91.734 -46.682  0.00  0.00    -0.045 I 
ATOM     13  H5  P84 d   1      90.890  94.745 -46.856  0.00  0.00     0.086 H 
BRANCH   5  14
ATOM     14  O16 P84 d   1      91.524  96.627 -42.780  0.00  0.00    -0.359 OA
ATOM     15  H9  P84 d   1      92.405  96.761 -42.451  0.00  0.00     0.217 HD
ENDBRANCH   5  14
ENDBRANCH   1   4
BRANCH   1  16
ATOM     16  N5  P84 d   1      91.397  98.231 -44.827  0.00  0.00    -0.075 N 
ATOM     17  H3  P84 d   1      91.447  98.001 -43.847  0.00  0.00     0.279 HD
BRANCH  16  18
ATOM     18  C9  P84 d   1      92.791  98.432 -45.271  0.00  0.00     0.066 C 
ATOM     19  H6  P84 d   1      93.224  99.294 -44.742  0.00  0.00     0.068 H 
ATOM     20  H7  P84 d   1      92.807  98.621 -46.354  0.00  0.00     0.068 H 
ATOM     21  H8  P84 d   1      93.381  97.531 -45.048  0.00  0.00     0.068 H 
ENDBRANCH  16  18
BRANCH  16  22
ATOM     22  C14 P84 d   1      90.614  99.473 -44.925  0.00  0.00     0.066 C 
ATOM     23  H10 P84 d   1      89.584  99.285 -44.587  0.00  0.00     0.068 H 
ATOM     24  H11 P84 d   1      90.600  99.816 -45.970  0.00  0.00     0.068 H 
ATOM     25  H12 P84 d   1      91.072 100.246 -44.291  0.00  0.00     0.068 H 
ENDBRANCH  16  22
ENDBRANCH   1  16
TORSDOF 5
