REMARK  8 active torsions:
REMARK  status: ('A' for Active; 'I' for Inactive)
REMARK    1  A    between atoms: C2_6  and  C1_2 
REMARK    2  A    between atoms: N1_3  and  C2_6 
REMARK    3  A    between atoms: C7_11  and  O1_4 
REMARK    4  A    between atoms: C10_13  and  N2_7 
REMARK    5  A    between atoms: N2_7  and  C11_14 
REMARK    6  A    between atoms: N2_7  and  C13_16 
REMARK    7  A    between atoms: C11_14  and  C12_15 
REMARK    8  A    between atoms: C13_16  and  C14_17 
ROOT
ATOM      1  N1  P86 d   1      90.498  98.381 -44.691  0.00  0.00    -0.067 N 
ATOM      2  C03 P86 d   1      89.543  99.545 -44.717  0.00  0.00     0.086 C 
ATOM      3  C8  P86 d   1      90.175 100.731 -44.005  0.00  0.00    -0.015 C 
ATOM      4  C10 P86 d   1      91.430 101.081 -44.802  0.00  0.00     0.107 C 
ATOM      5  C15 P86 d   1      92.451  99.940 -44.695  0.00  0.00    -0.015 C 
ATOM      6  C16 P86 d   1      91.821  98.707 -45.322  0.00  0.00     0.086 C 
ATOM      7  H1  P86 d   1      90.671  98.160 -43.723  0.00  0.00     0.280 HD
ATOM      8  H7  P86 d   1      88.609  99.266 -44.207  0.00  0.00     0.076 H 
ATOM      9  H8  P86 d   1      89.324  99.817 -45.760  0.00  0.00     0.076 H 
ATOM     10  H10 P86 d   1      90.441 100.460 -42.973  0.00  0.00     0.038 H 
ATOM     11  H11 P86 d   1      89.480 101.584 -43.992  0.00  0.00     0.038 H 
ATOM     12  H12 P86 d   1      91.123 101.135 -45.857  0.00  0.00     0.084 H 
ATOM     13  H23 P86 d   1      92.688  99.745 -43.639  0.00  0.00     0.038 H 
ATOM     14  H24 P86 d   1      93.372 100.207 -45.234  0.00  0.00     0.038 H 
ATOM     15  H25 P86 d   1      91.669  98.891 -46.396  0.00  0.00     0.076 H 
ATOM     16  H26 P86 d   1      92.500  97.852 -45.189  0.00  0.00     0.076 H 
ENDROOT
BRANCH   4  17
ATOM     17  N2  P86 d   1      92.032 102.438 -44.473  0.00  0.00    -0.067 N 
ATOM     18  H6  P86 d   1      91.271 103.096 -44.406  0.00  0.00     0.280 HD
BRANCH  17  19
ATOM     19  C11 P86 d   1      92.947 102.903 -45.593  0.00  0.00     0.081 C 
ATOM     20  H13 P86 d   1      92.621 102.429 -46.531  0.00  0.00     0.075 H 
ATOM     21  H14 P86 d   1      93.974 102.586 -45.360  0.00  0.00     0.075 H 
BRANCH  19  22
ATOM     22  C12 P86 d   1      92.939 104.410 -45.785  0.00  0.00    -0.053 C 
ATOM     23  H15 P86 d   1      93.619 104.678 -46.607  0.00  0.00     0.029 H 
ATOM     24  H16 P86 d   1      93.273 104.900 -44.858  0.00  0.00     0.029 H 
ATOM     25  H17 P86 d   1      91.919 104.743 -46.029  0.00  0.00     0.029 H 
ENDBRANCH  19  22
ENDBRANCH  17  19
BRANCH  17  26
ATOM     26  C13 P86 d   1      92.753 102.449 -43.143  0.00  0.00     0.081 C 
ATOM     27  H18 P86 d   1      93.818 102.237 -43.321  0.00  0.00     0.075 H 
ATOM     28  H19 P86 d   1      92.324 101.661 -42.506  0.00  0.00     0.075 H 
BRANCH  26  29
ATOM     29  C14 P86 d   1      92.640 103.779 -42.409  0.00  0.00    -0.053 C 
ATOM     30  H20 P86 d   1      93.184 103.719 -41.455  0.00  0.00     0.029 H 
ATOM     31  H21 P86 d   1      91.581 104.001 -42.214  0.00  0.00     0.029 H 
ATOM     32  H22 P86 d   1      93.074 104.578 -43.028  0.00  0.00     0.029 H 
ENDBRANCH  26  29
ENDBRANCH  17  26
ENDBRANCH   4  17
BRANCH   1  33
ATOM     33  C2  P86 d   1      89.905  97.166 -45.335  0.00  0.00     0.110 C 
ATOM     34  H4  P86 d   1      88.820  97.159 -45.151  0.00  0.00     0.083 H 
ATOM     35  H5  P86 d   1      90.093  97.209 -46.418  0.00  0.00     0.083 H 
BRANCH  33  36
ATOM     36  C1  P86 d   1      90.499  95.899 -44.788  0.00  0.00     0.003 A 
ATOM     37  C3  P86 d   1      90.579  94.767 -45.609  0.00  0.00    -0.057 A 
ATOM     38  C01 P86 d   1      91.068  93.555 -45.098  0.00  0.00     0.008 A 
ATOM     39  H9  P86 d   1      90.262  94.827 -46.644  0.00  0.00     0.086 H 
ATOM     40  C02 P86 d   1      91.481  93.457 -43.763  0.00  0.00    -0.048 A 
ATOM     41  I1  P86 d   1      91.181  91.888 -46.398  0.00  0.00    -0.045 I 
ATOM     42  C4  P86 d   1      91.396  94.604 -42.957  0.00  0.00     0.041 A 
ATOM     43  H3  P86 d   1      91.856  92.522 -43.363  0.00  0.00     0.087 H 
ATOM     44  C7  P86 d   1      90.909  95.837 -43.430  0.00  0.00     0.090 A 
ATOM     45  I2  P86 d   1      91.986  94.458 -40.927  0.00  0.00    -0.042 I 
BRANCH  44  46
ATOM     46  O1  P86 d   1      90.857  96.965 -42.659  0.00  0.00    -0.359 OA
ATOM     47  H2  P86 d   1      91.162  96.762 -41.782  0.00  0.00     0.217 HD
ENDBRANCH  44  46
ENDBRANCH  33  36
ENDBRANCH   1  33
TORSDOF 8
