REMARK  16 active torsions:
REMARK  status: ('A' for Active; 'I' for Inactive)
REMARK    1  A    between atoms: C01_1  and  C04_2 
REMARK    2  A    between atoms: C05_3  and  C06_4 
REMARK    3  A    between atoms: C06_4  and  N_5 
REMARK       I    between atoms: N_5  and  C07_25 
REMARK    4  A    between atoms: C2_10  and  C1_6 
REMARK    5  A    between atoms: N1_7  and  C2_10 
REMARK    6  A    between atoms: C7_15  and  O1_8 
REMARK    7  A    between atoms: C10_17  and  N2_11 
REMARK    8  A    between atoms: N2_11  and  C11_18 
REMARK    9  A    between atoms: N2_11  and  C13_20 
REMARK   10  A    between atoms: C11_18  and  C12_19 
REMARK   11  A    between atoms: C13_20  and  C14_21 
REMARK   12  A    between atoms: C07_25  and  O01_26 
REMARK   13  A    between atoms: O01_26  and  C08_27 
REMARK   14  A    between atoms: C08_27  and  C09_28 
REMARK   15  A    between atoms: C08_27  and  C17_29 
REMARK   16  A    between atoms: C08_27  and  C_30 
ROOT
ATOM      1  C2  P74 d   1      90.157  96.932 -45.528  0.00  0.00     0.110 C 
ATOM      2  H7  P74 d   1      89.060  96.882 -45.460  0.00  0.00     0.083 H 
ATOM      3  H8  P74 d   1      90.455  97.025 -46.583  0.00  0.00     0.083 H 
ENDROOT
BRANCH   1   4
ATOM      4  C1  P74 d   1      90.729  95.654 -44.980  0.00  0.00     0.003 A 
ATOM      5  C3  P74 d   1      90.882  94.567 -45.835  0.00  0.00    -0.054 A 
ATOM      6  C01 P74 d   1      91.392  93.353 -45.340  0.00  0.00     0.019 A 
ATOM      7  H12 P74 d   1      90.609  94.655 -46.880  0.00  0.00     0.086 H 
ATOM      8  C02 P74 d   1      91.776  93.222 -44.002  0.00  0.00    -0.046 A 
ATOM      9  C4  P74 d   1      91.611  94.326 -43.165  0.00  0.00     0.041 A 
ATOM     10  H6  P74 d   1      92.189  92.292 -43.627  0.00  0.00     0.087 H 
ATOM     11  C7  P74 d   1      91.098  95.553 -43.616  0.00  0.00     0.090 A 
ATOM     12  I2  P74 d   1      92.158  94.171 -41.110  0.00  0.00    -0.042 I 
BRANCH   6  13
ATOM     13  C04 P74 d   1      91.504  92.307 -46.302  0.00  0.00    -0.065 C 
ATOM     14  C05 P74 d   1      91.652  91.446 -47.117  0.00  0.00    -0.081 C 
BRANCH  14  15
ATOM     15  C06 P74 d   1      91.841  90.384 -48.110  0.00  0.00     0.053 C 
ATOM     16  H1  P74 d   1      91.129  89.567 -47.925  0.00  0.00     0.083 H 
ATOM     17  H2  P74 d   1      92.868  89.995 -48.052  0.00  0.00     0.083 H 
BRANCH  15  18
ATOM     18  N   P74 d   1      91.604  90.958 -49.416  0.00  0.00    -0.327 N 
ATOM     19  C07 P74 d   1      90.337  91.137 -49.894  0.00  0.00     0.362 C 
ATOM     20  O   P74 d   1      89.338  90.662 -49.376  0.00  0.00    -0.238 OA
ATOM     21  H3  P74 d   1      92.383  91.229 -49.981  0.00  0.00     0.165 HD
BRANCH  19  22
ATOM     22  O01 P74 d   1      90.397  91.960 -50.968  0.00  0.00    -0.294 OA
BRANCH  22  23
ATOM     23  C08 P74 d   1      89.196  92.536 -51.548  0.00  0.00     0.061 C 
BRANCH  23  24
ATOM     24  C09 P74 d   1      89.722  93.433 -52.675  0.00  0.00    -0.048 C 
ATOM     25  H30 P74 d   1      88.876  93.920 -53.181  0.00  0.00     0.031 H 
ATOM     26  H31 P74 d   1      90.280  92.822 -53.400  0.00  0.00     0.031 H 
ATOM     27  H32 P74 d   1      90.387  94.200 -52.253  0.00  0.00     0.031 H 
ENDBRANCH  23  24
BRANCH  23  28
ATOM     28  C17 P74 d   1      88.440  93.427 -50.553  0.00  0.00    -0.048 C 
ATOM     29  H33 P74 d   1      87.542  93.838 -51.038  0.00  0.00     0.031 H 
ATOM     30  H34 P74 d   1      89.092  94.252 -50.230  0.00  0.00     0.031 H 
ATOM     31  H35 P74 d   1      88.144  92.830 -49.678  0.00  0.00     0.031 H 
ENDBRANCH  23  28
BRANCH  23  32
ATOM     32  C   P74 d   1      88.293  91.446 -52.138  0.00  0.00    -0.048 C 
ATOM     33  H36 P74 d   1      87.393  91.909 -52.569  0.00  0.00     0.031 H 
ATOM     34  H37 P74 d   1      87.999  90.744 -51.344  0.00  0.00     0.031 H 
ATOM     35  H38 P74 d   1      88.839  90.903 -52.924  0.00  0.00     0.031 H 
ENDBRANCH  23  32
ENDBRANCH  22  23
ENDBRANCH  19  22
ENDBRANCH  15  18
ENDBRANCH  14  15
ENDBRANCH   6  13
BRANCH  11  36
ATOM     36  O1  P74 d   1      90.948  96.636 -42.808  0.00  0.00    -0.359 OA
ATOM     37  H5  P74 d   1      91.236  96.416 -41.929  0.00  0.00     0.217 HD
ENDBRANCH  11  36
ENDBRANCH   1   4
BRANCH   1  38
ATOM     38  N1  P74 d   1      90.622  98.137 -44.797  0.00  0.00    -0.067 N 
ATOM     39  C03 P74 d   1      89.602  99.234 -44.894  0.00  0.00     0.086 C 
ATOM     40  C8  P74 d   1      90.073 100.393 -44.035  0.00  0.00    -0.015 C 
ATOM     41  H10 P74 d   1      88.629  98.872 -44.530  0.00  0.00     0.076 H 
ATOM     42  H11 P74 d   1      89.504  99.561 -45.940  0.00  0.00     0.076 H 
ATOM     43  C10 P74 d   1      91.391 100.889 -44.611  0.00  0.00     0.107 C 
ATOM     44  H13 P74 d   1      90.220 100.056 -42.998  0.00  0.00     0.038 H 
ATOM     45  H14 P74 d   1      89.327 101.201 -44.055  0.00  0.00     0.038 H 
ATOM     46  C15 P74 d   1      92.448  99.775 -44.493  0.00  0.00    -0.015 C 
ATOM     47  H15 P74 d   1      91.254 101.145 -45.672  0.00  0.00     0.084 H 
ATOM     48  C16 P74 d   1      91.964  98.578 -45.290  0.00  0.00     0.086 C 
ATOM     49  H26 P74 d   1      92.576  99.493 -43.438  0.00  0.00     0.038 H 
ATOM     50  H27 P74 d   1      93.408 100.128 -44.897  0.00  0.00     0.038 H 
ATOM     51  H28 P74 d   1      91.888  98.855 -46.352  0.00  0.00     0.076 H 
ATOM     52  H29 P74 d   1      92.682  97.752 -45.177  0.00  0.00     0.076 H 
ATOM     53  H4  P74 d   1      90.719  97.892 -43.824  0.00  0.00     0.280 HD
BRANCH  43  54
ATOM     54  N2  P74 d   1      91.838 102.146 -43.841  0.00  0.00    -0.067 N 
ATOM     55  H9  P74 d   1      91.255 102.110 -43.020  0.00  0.00     0.280 HD
BRANCH  54  56
ATOM     56  C11 P74 d   1      93.261 102.078 -43.271  0.00  0.00     0.081 C 
ATOM     57  H16 P74 d   1      93.814 101.260 -43.756  0.00  0.00     0.075 H 
ATOM     58  H17 P74 d   1      93.216 101.898 -42.187  0.00  0.00     0.075 H 
BRANCH  56  59
ATOM     59  C12 P74 d   1      93.964 103.396 -43.539  0.00  0.00    -0.053 C 
ATOM     60  H18 P74 d   1      94.986 103.356 -43.133  0.00  0.00     0.029 H 
ATOM     61  H19 P74 d   1      93.409 104.213 -43.054  0.00  0.00     0.029 H 
ATOM     62  H20 P74 d   1      94.007 103.575 -44.623  0.00  0.00     0.029 H 
ENDBRANCH  56  59
ENDBRANCH  54  56
BRANCH  54  63
ATOM     63  C13 P74 d   1      91.515 103.518 -44.420  0.00  0.00     0.081 C 
ATOM     64  H21 P74 d   1      92.140 103.669 -45.313  0.00  0.00     0.075 H 
ATOM     65  H22 P74 d   1      91.766 104.277 -43.664  0.00  0.00     0.075 H 
BRANCH  63  66
ATOM     66  C14 P74 d   1      90.058 103.712 -44.822  0.00  0.00    -0.053 C 
ATOM     67  H23 P74 d   1      89.921 104.726 -45.227  0.00  0.00     0.029 H 
ATOM     68  H24 P74 d   1      89.414 103.579 -43.941  0.00  0.00     0.029 H 
ATOM     69  H25 P74 d   1      89.787 102.971 -45.589  0.00  0.00     0.029 H 
ENDBRANCH  63  66
ENDBRANCH  54  63
ENDBRANCH  43  54
ENDBRANCH   1  38
TORSDOF 16
