REMARK  12 active torsions:
REMARK  status: ('A' for Active; 'I' for Inactive)
REMARK    1  A    between atoms: C01_1  and  C04_2 
REMARK    2  A    between atoms: C05_3  and  C06_4 
REMARK    3  A    between atoms: C06_4  and  O_5 
REMARK    4  A    between atoms: O_5  and  C07_6 
REMARK    5  A    between atoms: C2_11  and  C1_7 
REMARK    6  A    between atoms: N1_8  and  C2_11 
REMARK    7  A    between atoms: C7_16  and  O1_9 
REMARK    8  A    between atoms: C10_18  and  N2_12 
REMARK    9  A    between atoms: N2_12  and  C11_19 
REMARK   10  A    between atoms: N2_12  and  C13_21 
REMARK   11  A    between atoms: C11_19  and  C12_20 
REMARK   12  A    between atoms: C13_21  and  C14_22 
ROOT
ATOM      1  N1  P51 d   1      90.832  98.245 -44.817  0.00  0.00    -0.067 N 
ATOM      2  C03 P51 d   1      89.798  99.340 -44.863  0.00  0.00     0.086 C 
ATOM      3  C8  P51 d   1      90.335 100.507 -44.057  0.00  0.00    -0.015 C 
ATOM      4  C10 P51 d   1      91.570 100.997 -44.802  0.00  0.00     0.107 C 
ATOM      5  C15 P51 d   1      92.674  99.933 -44.679  0.00  0.00    -0.015 C 
ATOM      6  C16 P51 d   1      92.156  98.685 -45.369  0.00  0.00     0.086 C 
ATOM      7  H3  P51 d   1      90.971  98.000 -43.849  0.00  0.00     0.280 HD
ATOM      8  H9  P51 d   1      88.854  98.984 -44.425  0.00  0.00     0.076 H 
ATOM      9  H10 P51 d   1      89.625  99.650 -45.904  0.00  0.00     0.076 H 
ATOM     10  H12 P51 d   1      90.606 100.179 -43.042  0.00  0.00     0.038 H 
ATOM     11  H13 P51 d   1      89.583 101.307 -43.995  0.00  0.00     0.038 H 
ATOM     12  H14 P51 d   1      91.315 101.126 -45.864  0.00  0.00     0.084 H 
ATOM     13  H25 P51 d   1      92.881  99.722 -43.619  0.00  0.00     0.038 H 
ATOM     14  H26 P51 d   1      93.594 100.283 -45.170  0.00  0.00     0.038 H 
ATOM     15  H27 P51 d   1      92.041  98.895 -46.443  0.00  0.00     0.076 H 
ATOM     16  H28 P51 d   1      92.886  97.874 -45.230  0.00  0.00     0.076 H 
ENDROOT
BRANCH   1  17
ATOM     17  C2  P51 d   1      90.353  97.031 -45.532  0.00  0.00     0.110 C 
ATOM     18  H6  P51 d   1      89.255  96.997 -45.470  0.00  0.00     0.083 H 
ATOM     19  H7  P51 d   1      90.659  97.100 -46.586  0.00  0.00     0.083 H 
BRANCH  17  20
ATOM     20  C1  P51 d   1      90.906  95.761 -44.955  0.00  0.00     0.003 A 
ATOM     21  C3  P51 d   1      91.074  94.664 -45.805  0.00  0.00    -0.054 A 
ATOM     22  C01 P51 d   1      91.577  93.452 -45.295  0.00  0.00     0.019 A 
ATOM     23  H11 P51 d   1      90.817  94.746 -46.855  0.00  0.00     0.086 H 
ATOM     24  C02 P51 d   1      91.922  93.336 -43.945  0.00  0.00    -0.046 A 
ATOM     25  C4  P51 d   1      91.743  94.453 -43.121  0.00  0.00     0.041 A 
ATOM     26  H5  P51 d   1      92.317  92.408 -43.548  0.00  0.00     0.087 H 
ATOM     27  C7  P51 d   1      91.239  95.680 -43.577  0.00  0.00     0.090 A 
ATOM     28  I2  P51 d   1      92.250  94.273 -41.069  0.00  0.00    -0.042 I 
BRANCH  22  29
ATOM     29  C04 P51 d   1      91.753  92.345 -46.188  0.00  0.00    -0.065 C 
ATOM     30  C05 P51 d   1      91.895  91.453 -46.972  0.00  0.00    -0.074 C 
BRANCH  30  31
ATOM     31  C06 P51 d   1      92.144  90.348 -47.919  0.00  0.00     0.081 C 
ATOM     32  H1  P51 d   1      92.579  89.497 -47.375  0.00  0.00     0.094 H 
ATOM     33  H2  P51 d   1      92.849  90.687 -48.693  0.00  0.00     0.094 H 
BRANCH  31  34
ATOM     34  O   P51 d   1      90.926  89.933 -48.543  0.00  0.00    -0.340 OA
BRANCH  34  35
ATOM     35  C07 P51 d   1      90.368  90.733 -49.510  0.00  0.00     0.070 A 
ATOM     36  C08 P51 d   1      89.107  90.313 -49.944  0.00  0.00    -0.051 A 
ATOM     37  C09 P51 d   1      88.420  91.030 -50.927  0.00  0.00    -0.080 A 
ATOM     38  H29 P51 d   1      88.659  89.424 -49.515  0.00  0.00     0.087 H 
ATOM     39  C17 P51 d   1      88.992  92.173 -51.482  0.00  0.00    -0.083 A 
ATOM     40  H30 P51 d   1      87.443  90.697 -51.258  0.00  0.00     0.083 H 
ATOM     41  C18 P51 d   1      90.254  92.596 -51.058  0.00  0.00    -0.080 A 
ATOM     42  H31 P51 d   1      88.459  92.733 -52.242  0.00  0.00     0.083 H 
ATOM     43  C   P51 d   1      90.938  91.877 -50.070  0.00  0.00    -0.051 A 
ATOM     44  H32 P51 d   1      90.704  93.481 -51.494  0.00  0.00     0.083 H 
ATOM     45  H33 P51 d   1      91.915  92.211 -49.739  0.00  0.00     0.087 H 
ENDBRANCH  34  35
ENDBRANCH  31  34
ENDBRANCH  30  31
ENDBRANCH  22  29
BRANCH  27  46
ATOM     46  O1  P51 d   1      91.079  96.761 -42.768  0.00  0.00    -0.359 OA
ATOM     47  H4  P51 d   1      91.347  96.536 -41.885  0.00  0.00     0.217 HD
ENDBRANCH  27  46
ENDBRANCH  17  20
ENDBRANCH   1  17
BRANCH   4  48
ATOM     48  N2  P51 d   1      92.058 102.350 -44.252  0.00  0.00    -0.067 N 
ATOM     49  H8  P51 d   1      92.535 102.808 -45.013  0.00  0.00     0.280 HD
BRANCH  48  50
ATOM     50  C11 P51 d   1      93.071 102.171 -43.114  0.00  0.00     0.081 C 
ATOM     51  H15 P51 d   1      93.804 101.397 -43.385  0.00  0.00     0.075 H 
ATOM     52  H16 P51 d   1      92.549 101.875 -42.192  0.00  0.00     0.075 H 
BRANCH  50  53
ATOM     53  C12 P51 d   1      93.777 103.497 -42.902  0.00  0.00    -0.053 C 
ATOM     54  H17 P51 d   1      94.511 103.396 -42.089  0.00  0.00     0.029 H 
ATOM     55  H18 P51 d   1      93.038 104.267 -42.635  0.00  0.00     0.029 H 
ATOM     56  H19 P51 d   1      94.294 103.790 -43.828  0.00  0.00     0.029 H 
ENDBRANCH  50  53
ENDBRANCH  48  50
BRANCH  48  57
ATOM     57  C13 P51 d   1      90.958 103.297 -43.789  0.00  0.00     0.081 C 
ATOM     58  H20 P51 d   1      91.421 104.115 -43.218  0.00  0.00     0.075 H 
ATOM     59  H21 P51 d   1      90.270 102.739 -43.137  0.00  0.00     0.075 H 
BRANCH  57  60
ATOM     60  C14 P51 d   1      90.154 103.902 -44.931  0.00  0.00    -0.053 C 
ATOM     61  H22 P51 d   1      89.383 104.571 -44.522  0.00  0.00     0.029 H 
ATOM     62  H23 P51 d   1      89.674 103.098 -45.508  0.00  0.00     0.029 H 
ATOM     63  H24 P51 d   1      90.825 104.474 -45.589  0.00  0.00     0.029 H 
ENDBRANCH  57  60
ENDBRANCH  48  57
ENDBRANCH   4  48
TORSDOF 12
