REMARK  12 active torsions:
REMARK  status: ('A' for Active; 'I' for Inactive)
REMARK    1  A    between atoms: C06_15  and  N_2 
REMARK    2  A    between atoms: N_2  and  C07_16 
REMARK    3  A    between atoms: C01_3  and  C04_12 
REMARK    4  A    between atoms: C2_8  and  C1_4 
REMARK    5  A    between atoms: N1_5  and  C2_8 
REMARK    6  A    between atoms: C7_17  and  O1_6 
REMARK    7  A    between atoms: C10_21  and  N2_9 
REMARK    8  A    between atoms: N2_9  and  C13_23 
REMARK    9  A    between atoms: N2_9  and  C11_30 
REMARK   10  A    between atoms: C05_14  and  C06_15 
REMARK   11  A    between atoms: C11_30  and  C12_22 
REMARK   12  A    between atoms: C13_23  and  C14_24 
ROOT
ATOM      1  N1  P96 d   1      90.683  98.253 -44.846  0.00  0.00    -0.067 N 
ATOM      2  C03 P96 d   1      89.640  99.332 -44.918  0.00  0.00     0.086 C 
ATOM      3  C8  P96 d   1      90.159 100.554 -44.179  0.00  0.00    -0.015 C 
ATOM      4  C10 P96 d   1      91.468 101.007 -44.821  0.00  0.00     0.107 C 
ATOM      5  C15 P96 d   1      92.533  99.911 -44.678  0.00  0.00    -0.015 C 
ATOM      6  C16 P96 d   1      92.046  98.639 -45.354  0.00  0.00     0.086 C 
ATOM      7  H3  P96 d   1      90.799  98.035 -43.869  0.00  0.00     0.280 HD
ATOM      8  H9  P96 d   1      88.710  98.981 -44.447  0.00  0.00     0.076 H 
ATOM      9  H10 P96 d   1      89.444  99.590 -45.969  0.00  0.00     0.076 H 
ATOM     10  H15 P96 d   1      90.335 100.299 -43.124  0.00  0.00     0.038 H 
ATOM     11  H16 P96 d   1      89.418 101.365 -44.242  0.00  0.00     0.038 H 
ATOM     12  H18 P96 d   1      91.281 101.150 -45.895  0.00  0.00     0.084 H 
ATOM     13  H27 P96 d   1      92.714  99.713 -43.611  0.00  0.00     0.038 H 
ATOM     14  H28 P96 d   1      93.468 100.244 -45.153  0.00  0.00     0.038 H 
ATOM     15  H29 P96 d   1      91.993  98.805 -46.440  0.00  0.00     0.076 H 
ATOM     16  H30 P96 d   1      92.754  97.824 -45.142  0.00  0.00     0.076 H 
ENDROOT
BRANCH   1  17
ATOM     17  C2  P96 d   1      90.181  96.999 -45.528  0.00  0.00     0.110 C 
ATOM     18  H6  P96 d   1      89.088  96.950 -45.410  0.00  0.00     0.083 H 
ATOM     19  H7  P96 d   1      90.432  97.058 -46.597  0.00  0.00     0.083 H 
BRANCH  17  20
ATOM     20  C1  P96 d   1      90.780  95.739 -44.964  0.00  0.00     0.003 A 
ATOM     21  C3  P96 d   1      90.995  94.644 -45.812  0.00  0.00    -0.054 A 
ATOM     22  C01 P96 d   1      91.533  93.455 -45.307  0.00  0.00     0.019 A 
ATOM     23  H11 P96 d   1      90.743  94.719 -46.864  0.00  0.00     0.086 H 
ATOM     24  C02 P96 d   1      91.881  93.366 -43.952  0.00  0.00    -0.046 A 
ATOM     25  C4  P96 d   1      91.678  94.458 -43.096  0.00  0.00     0.041 A 
ATOM     26  H5  P96 d   1      92.309  92.449 -43.564  0.00  0.00     0.087 H 
ATOM     27  C7  P96 d   1      91.124  95.634 -43.608  0.00  0.00     0.090 A 
ATOM     28  I2  P96 d   1      92.169  94.345 -41.029  0.00  0.00    -0.042 I 
BRANCH  22  29
ATOM     29  C04 P96 d   1      91.759  92.360 -46.196  0.00  0.00    -0.065 C 
ATOM     30  C05 P96 d   1      91.962  91.475 -46.983  0.00  0.00    -0.082 C 
BRANCH  30  31
ATOM     31  C06 P96 d   1      92.256  90.368 -47.904  0.00  0.00     0.048 C 
ATOM     32  H12 P96 d   1      92.994  90.709 -48.645  0.00  0.00     0.083 H 
ATOM     33  H13 P96 d   1      92.675  89.529 -47.329  0.00  0.00     0.083 H 
BRANCH  31  34
ATOM     34  N   P96 d   1      91.076  89.914 -48.597  0.00  0.00    -0.380 N 
ATOM     35  H2  P96 d   1      90.742  88.959 -48.405  0.00  0.00     0.160 HD
BRANCH  34  36
ATOM     36  C07 P96 d   1      90.362  90.681 -49.506  0.00  0.00     0.028 A 
ATOM     37  C   P96 d   1      90.885  91.802 -50.156  0.00  0.00    -0.058 A 
ATOM     38  C18 P96 d   1      90.128  92.544 -51.068  0.00  0.00    -0.081 A 
ATOM     39  H1  P96 d   1      91.905  92.105 -49.948  0.00  0.00     0.086 H 
ATOM     40  C17 P96 d   1      88.811  92.178 -51.339  0.00  0.00    -0.083 A 
ATOM     41  H32 P96 d   1      90.565  93.403 -51.564  0.00  0.00     0.083 H 
ATOM     42  C09 P96 d   1      88.267  91.068 -50.703  0.00  0.00    -0.081 A 
ATOM     43  H31 P96 d   1      88.216  92.753 -52.039  0.00  0.00     0.083 H 
ATOM     44  C08 P96 d   1      89.036  90.330 -49.796  0.00  0.00    -0.058 A 
ATOM     45  H17 P96 d   1      87.245  90.773 -50.910  0.00  0.00     0.083 H 
ATOM     46  H14 P96 d   1      88.597  89.468 -49.307  0.00  0.00     0.086 H 
ENDBRANCH  34  36
ENDBRANCH  31  34
ENDBRANCH  30  31
ENDBRANCH  22  29
BRANCH  27  47
ATOM     47  O1  P96 d   1      90.923  96.727 -42.795  0.00  0.00    -0.359 OA
ATOM     48  H4  P96 d   1      91.197  96.517 -41.910  0.00  0.00     0.217 HD
ENDBRANCH  27  47
ENDBRANCH  17  20
ENDBRANCH   1  17
BRANCH   4  49
ATOM     49  N2  P96 d   1      91.940 102.356 -44.257  0.00  0.00    -0.067 N 
ATOM     50  H8  P96 d   1      92.345 102.850 -45.037  0.00  0.00     0.280 HD
BRANCH  49  51
ATOM     51  C13 P96 d   1      93.026 102.273 -43.201  0.00  0.00     0.081 C 
ATOM     52  H22 P96 d   1      93.805 101.572 -43.535  0.00  0.00     0.075 H 
ATOM     53  H23 P96 d   1      92.589 101.914 -42.257  0.00  0.00     0.075 H 
BRANCH  51  54
ATOM     54  C14 P96 d   1      93.644 103.643 -42.980  0.00  0.00    -0.053 C 
ATOM     55  H24 P96 d   1      94.429 103.572 -42.213  0.00  0.00     0.029 H 
ATOM     56  H25 P96 d   1      92.867 104.346 -42.645  0.00  0.00     0.029 H 
ATOM     57  H26 P96 d   1      94.083 104.004 -43.922  0.00  0.00     0.029 H 
ENDBRANCH  51  54
ENDBRANCH  49  51
BRANCH  49  58
ATOM     58  C11 P96 d   1      90.776 103.216 -43.747  0.00  0.00     0.081 C 
ATOM     59  H33 P96 d   1      91.161 103.957 -43.031  0.00  0.00     0.075 H 
ATOM     60  H34 P96 d   1      90.041 102.569 -43.246  0.00  0.00     0.075 H 
BRANCH  58  61
ATOM     61  C12 P96 d   1      90.099 103.941 -44.899  0.00  0.00    -0.053 C 
ATOM     62  H19 P96 d   1      89.269 104.550 -44.512  0.00  0.00     0.029 H 
ATOM     63  H20 P96 d   1      89.709 103.205 -45.617  0.00  0.00     0.029 H 
ATOM     64  H21 P96 d   1      90.829 104.593 -45.402  0.00  0.00     0.029 H 
ENDBRANCH  58  61
ENDBRANCH  49  58
ENDBRANCH   4  49
TORSDOF 12
