REMARK  3 active torsions:
REMARK  status: ('A' for Active; 'I' for Inactive)
REMARK    1  A    between atoms: C1_6  and  C7_7 
REMARK    2  A    between atoms: C7_7  and  C8_8 
REMARK    3  A    between atoms: C8_8  and  C9_9 
ROOT
ATOM      1  C4  I2E d   1      16.648 -20.931  11.574  0.00  0.00     0.105 A 
ATOM      2  C5  I2E d   1      15.563 -21.339  10.801  0.00  0.00    -0.047 A 
ATOM      3  C6  I2E d   1      15.225 -22.690  10.863  0.00  0.00    -0.074 A 
ATOM      4  C3  I2E d   1      17.375 -21.761  12.375  0.00  0.00     0.105 A 
ATOM      5  C2  I2E d   1      17.074 -23.089  12.486  0.00  0.00    -0.042 A 
ATOM      6  C1  I2E d   1      15.989 -23.513  11.710  0.00  0.00    -0.055 A 
ATOM      7  C20 I2E d   1      18.372 -19.899  12.331  0.00  0.00     0.115 C 
ATOM      8  O4  I2E d   1      17.142 -19.646  11.667  0.00  0.00    -0.323 OA
ATOM      9  O3  I2E d   1      18.386 -21.130  13.037  0.00  0.00    -0.323 OA
ATOM     10  H1  I2E d   1      15.010 -20.641  10.183  0.00  0.00     0.087 H 
ATOM     11  H2  I2E d   1      14.404 -23.091  10.280  0.00  0.00     0.084 H 
ATOM     12  H3  I2E d   1      17.633 -23.763  13.126  0.00  0.00     0.088 H 
ATOM     13  H8  I2E d   1      18.557 -19.084  13.046  0.00  0.00     0.118 H 
ATOM     14  H9  I2E d   1      19.176 -19.918  11.581  0.00  0.00     0.118 H 
ENDROOT
BRANCH   6  15
ATOM     15  C7  I2E d   1      15.623 -24.935  11.842  0.00  0.00    -0.032 C 
ATOM     16  H4  I2E d   1      14.526 -25.017  11.822  0.00  0.00     0.040 H 
ATOM     17  H5  I2E d   1      16.002 -25.306  12.806  0.00  0.00     0.040 H 
BRANCH  15  18
ATOM     18  C8  I2E d   1      16.186 -25.792  10.746  0.00  0.00     0.019 C 
ATOM     19  H6  I2E d   1      16.683 -25.193   9.969  0.00  0.00     0.049 H 
ATOM     20  H7  I2E d   1      15.416 -26.428  10.284  0.00  0.00     0.049 H 
BRANCH  18  21
ATOM     21  C9  I2E d   1      17.182 -26.605  11.563  0.00  0.00     0.172 C 
ATOM     22  O1  I2E d   1      17.673 -27.495  10.818  0.00  0.00    -0.648 OA
ATOM     23  O2  I2E d   1      17.405 -26.302  12.784  0.00  0.00    -0.648 OA
ENDBRANCH  18  21
ENDBRANCH  15  18
ENDBRANCH   6  15
TORSDOF 3
