REMARK  1 active torsions:
REMARK  status: ('A' for Active; 'I' for Inactive)
REMARK    1  A    between atoms: C9_7  and  C10_8 
ROOT
ATOM      1  C6  AKH d   1     -15.513  20.268 -10.757  0.00  0.00    -0.070 A 
ATOM      2  C5  AKH d   1     -16.535  19.979 -11.669  0.00  0.00     0.001 A 
ATOM      3  C1  AKH d   1     -17.447  20.966 -12.354  0.00  0.00    -0.049 A 
ATOM      4  C2  AKH d   1     -18.289  20.001 -13.175  0.00  0.00     0.020 A 
ATOM      5  C7  AKH d   1     -14.774  19.229 -10.240  0.00  0.00    -0.081 A 
ATOM      6  C8  AKH d   1     -15.058  17.931 -10.655  0.00  0.00    -0.064 A 
ATOM      7  C9  AKH d   1     -16.066  17.614 -11.569  0.00  0.00     0.075 A 
ATOM      8  C4  AKH d   1     -16.820  18.679 -12.061  0.00  0.00     0.102 A 
ATOM      9  O3  AKH d   1     -17.876  18.615 -12.973  0.00  0.00    -0.321 OA
ATOM     10  H1  AKH d   1     -15.308  21.291 -10.464  0.00  0.00     0.084 H 
ATOM     11  H2  AKH d   1     -17.490  22.052 -12.282  0.00  0.00     0.087 H 
ATOM     12  H3  AKH d   1     -19.101  20.307 -13.833  0.00  0.00     0.123 H 
ATOM     13  H4  AKH d   1     -13.984  19.418  -9.522  0.00  0.00     0.083 H 
ATOM     14  H5  AKH d   1     -14.464  17.121 -10.246  0.00  0.00     0.085 H 
ENDROOT
BRANCH   7  15
ATOM     15  C10 AKH d   1     -16.324  16.175 -11.928  0.00  0.00     0.212 C 
ATOM     16  O11 AKH d   1     -17.072  15.914 -12.933  0.00  0.00    -0.644 OA
ATOM     17  O12 AKH d   1     -15.802  15.298 -11.161  0.00  0.00    -0.644 OA
ENDBRANCH   7  15
TORSDOF 1
