REMARK  1 active torsions:
REMARK  status: ('A' for Active; 'I' for Inactive)
REMARK    1  A    between atoms: CAC_9  and  CAH_10 
ROOT
ATOM      1  CAA ICO d   1     -16.746  18.167   1.283  0.00  0.00     0.009 A 
ATOM      2  CAD ICO d   1     -17.715  18.532   0.355  0.00  0.00    -0.070 A 
ATOM      3  CAI ICO d   1     -18.001  19.865   0.118  0.00  0.00    -0.082 A 
ATOM      4  CAJ ICO d   1     -17.333  20.864   0.790  0.00  0.00    -0.081 A 
ATOM      5  CAF ICO d   1     -16.354  20.538   1.716  0.00  0.00    -0.056 A 
ATOM      6  CAB ICO d   1     -16.078  19.195   1.953  0.00  0.00     0.043 A 
ATOM      7  NAE ICO d   1     -15.134  18.622   2.795  0.00  0.00    -0.364 N 
ATOM      8  CAG ICO d   1     -15.193  17.265   2.696  0.00  0.00    -0.005 A 
ATOM      9  CAC ICO d   1     -16.179  16.937   1.772  0.00  0.00     0.068 A 
ATOM     10  H1  ICO d   1     -18.253  17.764  -0.189  0.00  0.00     0.084 H 
ATOM     11  H2  ICO d   1     -18.762  20.127  -0.608  0.00  0.00     0.083 H 
ATOM     12  H3  ICO d   1     -17.572  21.903   0.595  0.00  0.00     0.083 H 
ATOM     13  H4  ICO d   1     -15.814  21.315   2.245  0.00  0.00     0.086 H 
ATOM     14  H5  ICO d   1     -14.487  19.144   3.403  0.00  0.00     0.165 HD
ATOM     15  H6  ICO d   1     -14.574  16.558   3.246  0.00  0.00     0.113 H 
ENDROOT
BRANCH   9  16
ATOM     16  CAH ICO d   1     -16.535  15.453   1.408  0.00  0.00     0.211 C 
ATOM     17  OAL ICO d   1     -17.408  15.207   0.502  0.00  0.00    -0.644 OA
ATOM     18  OAK ICO d   1     -15.957  14.548   2.092  0.00  0.00    -0.644 OA
ENDBRANCH   9  16
TORSDOF 1
