REMARK  2 active torsions:
REMARK  status: ('A' for Active; 'I' for Inactive)
REMARK    1  A    between atoms: N3_3  and  C3A_11 
REMARK    2  A    between atoms: C6_6  and  N6_7 
ROOT
ATOM      1  N9  ADK d   1      26.200 -21.496   1.634  0.00  0.00    -0.222 NA
ATOM      2  C4  ADK d   1      27.469 -21.456   1.943  0.00  0.00     0.164 A 
ATOM      3  N3  ADK d   1      28.333 -22.418   1.937  0.00  0.00    -0.329 N 
ATOM      4  C2  ADK d   1      29.647 -22.140   2.281  0.00  0.00     0.069 A 
ATOM      5  N1  ADK d   1      29.997 -20.924   2.659  0.00  0.00    -0.224 NA
ATOM      6  C6  ADK d   1      29.075 -19.894   2.701  0.00  0.00     0.155 A 
ATOM      7  C5  ADK d   1      27.807 -20.198   2.335  0.00  0.00     0.149 A 
ATOM      8  N7  ADK d   1      26.712 -19.490   2.234  0.00  0.00    -0.234 NA
ATOM      9  C8  ADK d   1      25.695 -20.268   1.841  0.00  0.00     0.089 A 
ATOM     10  H1  ADK d   1      30.396 -22.930   2.239  0.00  0.00     0.143 H 
ATOM     11  H4  ADK d   1      24.657 -19.964   1.714  0.00  0.00     0.146 H 
ENDROOT
BRANCH   3  12
ATOM     12  C3A ADK d   1      27.920 -23.835   1.519  0.00  0.00    -0.012 C 
ATOM     13  H5  ADK d   1      26.845 -23.850   1.287  0.00  0.00     0.057 H 
ATOM     14  H6  ADK d   1      28.127 -24.535   2.342  0.00  0.00     0.057 H 
ATOM     15  H7  ADK d   1      28.491 -24.136   0.629  0.00  0.00     0.057 H 
ENDBRANCH   3  12
BRANCH   6  16
ATOM     16  N6  ADK d   1      29.437 -18.627   3.051  0.00  0.00    -0.382 N 
ATOM     17  H2  ADK d   1      28.731 -17.878   3.075  0.00  0.00     0.157 HD
ATOM     18  H3  ADK d   1      30.417 -18.419   3.292  0.00  0.00     0.157 HD
ENDBRANCH   6  16
TORSDOF 2
