REMARK  2 active torsions:
REMARK  status: ('A' for Active; 'I' for Inactive)
REMARK    1  A    between atoms: N3_3  and  C3A_11 
REMARK    2  A    between atoms: C6_6  and  N6_7 
ROOT
ATOM      1  N9  ADK d   1      30.561 -19.825   2.766  0.00  0.00    -0.222 NA
ATOM      2  C4  ADK d   1      29.704 -20.815   2.476  0.00  0.00     0.164 A 
ATOM      3  N3  ADK d   1      29.906 -22.139   2.282  0.00  0.00    -0.329 N 
ATOM      4  C2  ADK d   1      28.836 -22.957   1.995  0.00  0.00     0.069 A 
ATOM      5  N1  ADK d   1      27.613 -22.481   1.908  0.00  0.00    -0.224 NA
ATOM      6  C6  ADK d   1      27.423 -21.134   2.120  0.00  0.00     0.155 A 
ATOM      7  C5  ADK d   1      28.463 -20.316   2.414  0.00  0.00     0.149 A 
ATOM      8  N7  ADK d   1      28.556 -19.010   2.666  0.00  0.00    -0.234 NA
ATOM      9  C8  ADK d   1      29.838 -18.690   2.894  0.00  0.00     0.089 A 
ATOM     10  H1  ADK d   1      29.006 -24.021   1.837  0.00  0.00     0.143 H 
ATOM     11  H4  ADK d   1      30.224 -17.701   3.137  0.00  0.00     0.146 H 
ENDROOT
BRANCH   3  12
ATOM     12  C3A ADK d   1      31.285 -22.735   2.344  0.00  0.00    -0.012 C 
ATOM     13  H5  ADK d   1      32.015 -21.947   2.583  0.00  0.00     0.057 H 
ATOM     14  H6  ADK d   1      31.535 -23.183   1.371  0.00  0.00     0.057 H 
ATOM     15  H7  ADK d   1      31.315 -23.510   3.124  0.00  0.00     0.057 H 
ENDBRANCH   3  12
BRANCH   6  16
ATOM     16  N6  ADK d   1      26.192 -20.644   2.052  0.00  0.00    -0.382 N 
ATOM     17  H2  ADK d   1      26.028 -19.639   2.207  0.00  0.00     0.157 HD
ATOM     18  H3  ADK d   1      25.400 -21.269   1.844  0.00  0.00     0.157 HD
ENDBRANCH   6  16
TORSDOF 2
