REMARK  7 active torsions:
REMARK  status: ('A' for Active; 'I' for Inactive)
REMARK    1  A    between atoms: N14_16  and  C10_5 
REMARK    2  A    between atoms: C5_7  and  S4_21 
REMARK    3  A    between atoms: C3_12  and  C2_9 
REMARK    4  A    between atoms: C17_13  and  C15_10 
REMARK       I    between atoms: C15_10  and  N14_16 
REMARK    5  A    between atoms: C18_14  and  C19_11 
REMARK    6  A    between atoms: S4_21  and  C3_12 
REMARK    7  A    between atoms: C17_13  and  C18_14 
ROOT
ATOM      1  C8  VAB d   1      21.777  -5.496   1.050  0.00  0.00    -0.052 A 
ATOM      2  C9  VAB d   1      20.489  -5.550   1.565  0.00  0.00    -0.055 A 
ATOM      3  C11 VAB d   1      19.770  -6.882  -0.327  0.00  0.00    -0.038 A 
ATOM      4  C7  VAB d   1      22.078  -6.134  -0.154  0.00  0.00     0.076 A 
ATOM      5  C10 VAB d   1      19.480  -6.233   0.888  0.00  0.00     0.036 A 
ATOM      6  C12 VAB d   1      21.062  -6.823  -0.820  0.00  0.00     0.038 A 
ATOM      7  C5  VAB d   1      23.251  -6.832  -1.873  0.00  0.00     0.136 A 
ATOM      8  N6  VAB d   1      23.321  -6.162  -0.780  0.00  0.00    -0.233 NA
ATOM      9  S13 VAB d   1      21.692  -7.517  -2.281  0.00  0.00    -0.061 SA
ATOM     10  H1  VAB d   1      22.551  -4.957   1.584  0.00  0.00     0.087 H 
ATOM     11  H2  VAB d   1      20.266  -5.056   2.504  0.00  0.00     0.087 H 
ATOM     12  H3  VAB d   1      18.997  -7.417  -0.866  0.00  0.00     0.089 H 
ENDROOT
BRANCH   5  13
ATOM     13  N14 VAB d   1      18.169  -6.260   1.456  0.00  0.00    -0.327 N 
ATOM     14  C15 VAB d   1      17.236  -7.247   1.308  0.00  0.00     0.222 C 
ATOM     15  O16 VAB d   1      17.525  -8.413   0.983  0.00  0.00    -0.273 OA
ATOM     16  H13 VAB d   1      17.908  -5.476   2.019  0.00  0.00     0.169 HD
BRANCH  14  17
ATOM     17  C17 VAB d   1      15.826  -6.818   1.564  0.00  0.00     0.018 C 
ATOM     18  H9  VAB d   1      15.225  -7.013   0.663  0.00  0.00     0.048 H 
ATOM     19  H10 VAB d   1      15.816  -5.740   1.785  0.00  0.00     0.048 H 
BRANCH  17  20
ATOM     20  C18 VAB d   1      15.208  -7.571   2.744  0.00  0.00     0.024 C 
ATOM     21  H11 VAB d   1      15.810  -8.474   2.922  0.00  0.00     0.049 H 
ATOM     22  H12 VAB d   1      15.258  -6.917   3.627  0.00  0.00     0.049 H 
BRANCH  20  23
ATOM     23  C19 VAB d   1      13.782  -7.996   2.565  0.00  0.00     0.172 C 
ATOM     24  O20 VAB d   1      13.047  -7.568   1.679  0.00  0.00    -0.648 OA
ATOM     25  O21 VAB d   1      13.388  -8.858   3.465  0.00  0.00    -0.648 OA
ENDBRANCH  20  23
ENDBRANCH  17  20
ENDBRANCH  14  17
ENDBRANCH   5  13
BRANCH   7  26
ATOM     26  S4  VAB d   1      24.638  -7.082  -2.902  0.00  0.00    -0.099 SA
BRANCH  26  27
ATOM     27  C3  VAB d   1      23.950  -7.687  -4.492  0.00  0.00    -0.003 C 
ATOM     28  H7  VAB d   1      24.566  -8.531  -4.835  0.00  0.00     0.055 H 
ATOM     29  H8  VAB d   1      22.921  -8.033  -4.313  0.00  0.00     0.055 H 
BRANCH  27  30
ATOM     30  C2  VAB d   1      23.917  -6.653  -5.583  0.00  0.00    -0.103 C 
ATOM     31  C1  VAB d   1      24.066  -6.922  -6.816  0.00  0.00    -0.124 C 
ATOM     32  H4  VAB d   1      24.031  -6.123  -7.556  0.00  0.00     0.066 H 
ATOM     33  H5  VAB d   1      24.229  -7.951  -7.133  0.00  0.00     0.066 H 
ATOM     34  H6  VAB d   1      23.756  -5.614  -5.300  0.00  0.00     0.076 H 
ENDBRANCH  27  30
ENDBRANCH  26  27
ENDBRANCH   7  26
TORSDOF 7
