REMARK  4 active torsions:
REMARK  status: ('A' for Active; 'I' for Inactive)
REMARK    1  A    between atoms: O7_14  and  C6_5 
REMARK    2  A    between atoms: C8_9  and  C9_7 
REMARK    3  A    between atoms: C8_9  and  C12_8 
REMARK    4  A    between atoms: C8_9  and  O7_14 
ROOT
ATOM      1  C1  2B4 d   1      14.906 -15.325   9.955  0.00  0.00    -0.049 A 
ATOM      2  C5  2B4 d   1      12.911 -14.379   8.999  0.00  0.00    -0.049 A 
ATOM      3  C2  2B4 d   1      15.681 -14.575   9.085  0.00  0.00    -0.064 A 
ATOM      4  C4  2B4 d   1      13.682 -13.634   8.128  0.00  0.00    -0.064 A 
ATOM      5  C6  2B4 d   1      13.528 -15.226   9.909  0.00  0.00     0.070 A 
ATOM      6  C3  2B4 d   1      15.065 -13.746   8.191  0.00  0.00     0.011 A 
ATOM      7 BR1  2B4 d   1      16.129 -12.718   7.008  0.00  0.00    -0.051 Br
ATOM      8  H1  2B4 d   1      15.379 -15.988  10.670  0.00  0.00     0.087 H 
ATOM      9  H2  2B4 d   1      11.830 -14.303   8.972  0.00  0.00     0.087 H 
ATOM     10  H3  2B4 d   1      16.762 -14.645   9.114  0.00  0.00     0.085 H 
ATOM     11  H4  2B4 d   1      13.215 -12.973   7.407  0.00  0.00     0.085 H 
ENDROOT
BRANCH   5  12
ATOM     12  O7  2B4 d   1      12.712 -15.927  10.765  0.00  0.00    -0.324 OA
BRANCH  12  13
ATOM     13  C8  2B4 d   1      12.970 -17.330  11.039  0.00  0.00     0.211 C 
ATOM     14  H5  2B4 d   1      13.952 -17.458  11.519  0.00  0.00     0.118 H 
BRANCH  13  15
ATOM     15  C9  2B4 d   1      12.948 -18.052   9.701  0.00  0.00     0.214 C 
ATOM     16  O10 2B4 d   1      12.117 -17.787   8.810  0.00  0.00    -0.646 OA
ATOM     17  O11 2B4 d   1      13.900 -18.920   9.603  0.00  0.00    -0.646 OA
ENDBRANCH  13  15
BRANCH  13  18
ATOM     18  C12 2B4 d   1      11.874 -17.839  11.967  0.00  0.00     0.214 C 
ATOM     19  O13 2B4 d   1      11.935 -18.917  12.544  0.00  0.00    -0.646 OA
ATOM     20  O14 2B4 d   1      10.880 -17.016  12.071  0.00  0.00    -0.646 OA
ENDBRANCH  13  18
ENDBRANCH  12  13
ENDBRANCH   5  12
TORSDOF 4
