REMARK  8 active torsions:
REMARK  status: ('A' for Active; 'I' for Inactive)
REMARK    1  A    between atoms: C1_1  and  O2_2 
REMARK    2  A    between atoms: O2_2  and  C3_3 
REMARK    3  A    between atoms: C6_6  and  C11_11 
REMARK    4  A    between atoms: C8_8  and  O9_9 
REMARK    5  A    between atoms: O9_9  and  C10_10 
REMARK    6  A    between atoms: C11_11  and  C12_12 
REMARK    7  A    between atoms: C12_12  and  C13_13 
REMARK    8  A    between atoms: C12_12  and  C16_16 
ROOT
ATOM      1  C3  88R d   1      14.890 -13.803   7.711  0.00  0.00     0.101 A 
ATOM      2  C4  88R d   1      15.669 -14.364   8.712  0.00  0.00    -0.048 A 
ATOM      3  C5  88R d   1      15.068 -14.880   9.870  0.00  0.00    -0.074 A 
ATOM      4  C6  88R d   1      13.688 -14.822  10.030  0.00  0.00    -0.054 A 
ATOM      5  C7  88R d   1      12.917 -14.275   9.014  0.00  0.00    -0.042 A 
ATOM      6  C8  88R d   1      13.494 -13.757   7.872  0.00  0.00     0.102 A 
ATOM      7  H4  88R d   1      16.746 -14.404   8.599  0.00  0.00     0.087 H 
ATOM      8  H5  88R d   1      15.682 -15.326  10.644  0.00  0.00     0.084 H 
ATOM      9  H6  88R d   1      11.838 -14.254   9.120  0.00  0.00     0.088 H 
ENDROOT
BRANCH   4  10
ATOM     10  C11 88R d   1      13.008 -15.402  11.226  0.00  0.00    -0.019 C 
ATOM     11  H10 88R d   1      12.248 -14.688  11.578  0.00  0.00     0.042 H 
ATOM     12  H11 88R d   1      13.758 -15.558  12.015  0.00  0.00     0.042 H 
BRANCH  10  13
ATOM     13  C12 88R d   1      12.320 -16.745  10.932  0.00  0.00     0.118 C 
ATOM     14  H12 88R d   1      11.664 -16.611  10.059  0.00  0.00     0.074 H 
BRANCH  13  15
ATOM     15  C13 88R d   1      13.341 -17.807  10.610  0.00  0.00     0.188 C 
ATOM     16  O14 88R d   1      14.399 -17.852  11.169  0.00  0.00    -0.647 OA
ATOM     17  O15 88R d   1      12.961 -18.680   9.696  0.00  0.00    -0.647 OA
ENDBRANCH  13  15
BRANCH  13  18
ATOM     18  C16 88R d   1      11.481 -17.202  12.095  0.00  0.00     0.188 C 
ATOM     19  O17 88R d   1      11.812 -18.168  12.768  0.00  0.00    -0.647 OA
ATOM     20  O18 88R d   1      10.397 -16.444  12.327  0.00  0.00    -0.647 OA
ENDBRANCH  13  18
ENDBRANCH  10  13
ENDBRANCH   4  10
BRANCH   6  21
ATOM     21  O9  88R d   1      12.793 -13.190   6.852  0.00  0.00    -0.353 OA
BRANCH  21  22
ATOM     22  C10 88R d   1      11.466 -12.683   7.147  0.00  0.00     0.010 C 
ATOM     23  H7  88R d   1      11.025 -12.257   6.234  0.00  0.00     0.066 H 
ATOM     24  H8  88R d   1      11.535 -11.903   7.919  0.00  0.00     0.066 H 
ATOM     25  H9  88R d   1      10.832 -13.505   7.512  0.00  0.00     0.066 H 
ENDBRANCH  21  22
ENDBRANCH   6  21
BRANCH   1  26
ATOM     26  O2  88R d   1      15.378 -13.287   6.540  0.00  0.00    -0.353 OA
BRANCH  26  27
ATOM     27  C1  88R d   1      16.331 -12.235   6.625  0.00  0.00     0.010 C 
ATOM     28  H1  88R d   1      16.628 -11.927   5.612  0.00  0.00     0.066 H 
ATOM     29  H2  88R d   1      17.216 -12.586   7.176  0.00  0.00     0.066 H 
ATOM     30  H3  88R d   1      15.886 -11.379   7.153  0.00  0.00     0.066 H 
ENDBRANCH  26  27
ENDBRANCH   1  26
TORSDOF 8
