REMARK  7 active torsions:
REMARK  status: ('A' for Active; 'I' for Inactive)
REMARK    1  A    between atoms: C2_4  and  C1_1 
REMARK    2  A    between atoms: N3_16  and  C2_4 
REMARK    3  A    between atoms: N11_17  and  C12_7 
REMARK    4  A    between atoms: C19_9  and  C21_12 
REMARK    5  A    between atoms: C8_13  and  C9_10 
REMARK       I    between atoms: C9_10  and  N11_17 
REMARK       I    between atoms: C4_11  and  N3_16 
REMARK       I    between atoms: N6_18  and  C4_11 
REMARK    6  A    between atoms: C7_14  and  C8_13 
REMARK    7  A    between atoms: C7_14  and  N6_18 
ROOT
ATOM      1  C9  88W d   1      17.464  -7.073   1.674  0.00  0.00     0.223 C 
ATOM      2  N11 88W d   1      18.362  -6.061   1.619  0.00  0.00    -0.327 N 
ATOM      3  O10 88W d   1      17.589  -8.143   1.062  0.00  0.00    -0.273 OA
ATOM      4  H17 88W d   1      18.100  -5.219   2.090  0.00  0.00     0.169 HD
ENDROOT
BRANCH   1   5
ATOM      5  C8  88W d   1      16.275  -6.785   2.572  0.00  0.00     0.024 C 
ATOM      6  H12 88W d   1      15.900  -5.776   2.346  0.00  0.00     0.049 H 
ATOM      7  H13 88W d   1      16.608  -6.826   3.620  0.00  0.00     0.049 H 
BRANCH   5   8
ATOM      8  C7  88W d   1      15.141  -7.776   2.385  0.00  0.00     0.005 C 
ATOM      9  H14 88W d   1      14.882  -7.825   1.317  0.00  0.00     0.064 H 
ATOM     10  H15 88W d   1      14.268  -7.432   2.959  0.00  0.00     0.064 H 
BRANCH   8  11
ATOM     11  N6  88W d   1      15.512  -9.110   2.843  0.00  0.00    -0.343 N 
ATOM     12  C4  88W d   1      15.077  -9.628   4.011  0.00  0.00     0.316 C 
ATOM     13  N3  88W d   1      15.546 -10.859   4.303  0.00  0.00    -0.344 N 
ATOM     14  O5  88W d   1      14.300  -9.020   4.758  0.00  0.00    -0.247 OA
ATOM     15  H16 88W d   1      16.210 -11.283   3.687  0.00  0.00     0.164 HD
ATOM     16  H18 88W d   1      16.114  -9.664   2.268  0.00  0.00     0.164 HD
BRANCH  13  17
ATOM     17  C2  88W d   1      15.113 -11.594   5.494  0.00  0.00    -0.006 C 
ATOM     18  H6  88W d   1      14.329 -11.013   6.002  0.00  0.00     0.063 H 
ATOM     19  H7  88W d   1      14.704 -12.566   5.180  0.00  0.00     0.063 H 
BRANCH  17  20
ATOM     20  C1  88W d   1      16.237 -11.833   6.457  0.00  0.00    -0.061 C 
ATOM     21  H1  88W d   1      15.860 -12.386   7.330  0.00  0.00     0.029 H 
ATOM     22  H2  88W d   1      16.651 -10.868   6.785  0.00  0.00     0.029 H 
ATOM     23  H3  88W d   1      17.025 -12.421   5.963  0.00  0.00     0.029 H 
ENDBRANCH  17  20
ENDBRANCH  13  17
ENDBRANCH   8  11
ENDBRANCH   5   8
ENDBRANCH   1   5
BRANCH   2  24
ATOM     24  C12 88W d   1      19.627  -6.044   0.979  0.00  0.00     0.036 A 
ATOM     25  C13 88W d   1      20.694  -5.369   1.583  0.00  0.00    -0.055 A 
ATOM     26  C14 88W d   1      21.971  -5.435   1.048  0.00  0.00    -0.052 A 
ATOM     27  H5  88W d   1      20.520  -4.787   2.481  0.00  0.00     0.087 H 
ATOM     28  C15 88W d   1      22.187  -6.164  -0.125  0.00  0.00     0.075 A 
ATOM     29  H4  88W d   1      22.795  -4.926   1.535  0.00  0.00     0.087 H 
ATOM     30  C16 88W d   1      21.103  -6.804  -0.738  0.00  0.00     0.037 A 
ATOM     31  N20 88W d   1      23.401  -6.291  -0.798  0.00  0.00    -0.245 NA
ATOM     32  C17 88W d   1      19.824  -6.759  -0.202  0.00  0.00    -0.038 A 
ATOM     33  S18 88W d   1      21.629  -7.568  -2.209  0.00  0.00    -0.073 SA
ATOM     34  H8  88W d   1      18.999  -7.267  -0.689  0.00  0.00     0.089 H 
ATOM     35  C19 88W d   1      23.258  -6.981  -1.905  0.00  0.00     0.072 A 
BRANCH  35  36
ATOM     36  C21 88W d   1      24.340  -7.237  -2.902  0.00  0.00    -0.029 C 
ATOM     37  H9  88W d   1      25.282  -6.798  -2.542  0.00  0.00     0.036 H 
ATOM     38  H10 88W d   1      24.067  -6.780  -3.865  0.00  0.00     0.036 H 
ATOM     39  H11 88W d   1      24.468  -8.322  -3.034  0.00  0.00     0.036 H 
ENDBRANCH  35  36
ENDBRANCH   2  24
TORSDOF 7
