REMARK  2 active torsions:
REMARK  status: ('A' for Active; 'I' for Inactive)
REMARK    1  A    between atoms: C6_7  and  O3_19 
REMARK    2  A    between atoms: O3_19  and  C16_20 
ROOT
ATOM      1  N1  IZN d   1      -5.198 -34.185 -25.669  0.00  0.00    -0.054 N 
ATOM      2  C1  IZN d   1      -5.832 -35.522 -25.669  0.00  0.00     0.088 C 
ATOM      3  C2  IZN d   1      -5.188 -36.403 -26.750  0.00  0.00    -0.019 C 
ATOM      4  C3  IZN d   1      -4.633 -31.041 -26.758  0.00  0.00    -0.096 C 
ATOM      5  C4  IZN d   1      -5.441 -33.438 -26.931  0.00  0.00     0.177 C 
ATOM      6  C5  IZN d   1      -6.863 -32.826 -27.000  0.00  0.00    -0.002 C 
ATOM      7  C6  IZN d   1      -6.935 -31.459 -27.738  0.00  0.00     0.043 C 
ATOM      8  C7  IZN d   1      -5.968 -30.427 -27.131  0.00  0.00    -0.025 C 
ATOM      9  C8  IZN d   1      -4.416 -32.372 -26.689  0.00  0.00    -0.042 C 
ATOM     10  C9  IZN d   1      -3.157 -33.101 -26.316  0.00  0.00    -0.019 C 
ATOM     11  C10 IZN d   1      -3.733 -34.162 -25.367  0.00  0.00     0.088 C 
ATOM     12  C11 IZN d   1      -5.060 -34.312 -28.151  0.00  0.00    -0.026 C 
ATOM     13  C12 IZN d   1      -4.943 -35.652 -28.044  0.00  0.00    -0.049 C 
ATOM     14  C13 IZN d   1      -4.562 -36.535 -29.213  0.00  0.00     0.049 C 
ATOM     15  C14 IZN d   1      -4.069 -34.520 -30.524  0.00  0.00     0.263 C 
ATOM     16  C15 IZN d   1      -4.794 -33.644 -29.493  0.00  0.00     0.039 C 
ATOM     17  O1  IZN d   1      -3.418 -34.027 -31.439  0.00  0.00    -0.265 OA
ATOM     18  O2  IZN d   1      -4.180 -35.861 -30.407  0.00  0.00    -0.317 OA
ATOM     19  H1  IZN d   1      -5.649 -33.669 -24.930  0.00  0.00     0.281 HD
ATOM     20  H2  IZN d   1      -6.907 -35.416 -25.877  0.00  0.00     0.076 H 
ATOM     21  H3  IZN d   1      -5.693 -35.992 -24.684  0.00  0.00     0.076 H 
ATOM     22  H4  IZN d   1      -5.856 -37.252 -26.956  0.00  0.00     0.042 H 
ATOM     23  H5  IZN d   1      -4.225 -36.777 -26.372  0.00  0.00     0.042 H 
ATOM     24  H6  IZN d   1      -3.804 -30.372 -26.533  0.00  0.00     0.077 H 
ATOM     25  H7  IZN d   1      -7.227 -32.682 -25.972  0.00  0.00     0.041 H 
ATOM     26  H8  IZN d   1      -7.519 -33.536 -27.525  0.00  0.00     0.041 H 
ATOM     27  H9  IZN d   1      -6.673 -31.612 -28.795  0.00  0.00     0.083 H 
ATOM     28  H10 IZN d   1      -5.797 -29.627 -27.866  0.00  0.00     0.042 H 
ATOM     29  H11 IZN d   1      -6.427 -30.001 -26.227  0.00  0.00     0.042 H 
ATOM     30  H12 IZN d   1      -2.440 -32.442 -25.804  0.00  0.00     0.042 H 
ATOM     31  H13 IZN d   1      -2.674 -33.557 -27.193  0.00  0.00     0.042 H 
ATOM     32  H14 IZN d   1      -3.281 -35.145 -25.564  0.00  0.00     0.076 H 
ATOM     33  H15 IZN d   1      -3.557 -33.881 -24.318  0.00  0.00     0.076 H 
ATOM     34  H16 IZN d   1      -5.427 -37.173 -29.449  0.00  0.00     0.082 H 
ATOM     35  H17 IZN d   1      -3.717 -37.165 -28.897  0.00  0.00     0.082 H 
ATOM     36  H18 IZN d   1      -4.179 -32.750 -29.313  0.00  0.00     0.054 H 
ATOM     37  H19 IZN d   1      -5.761 -33.343 -29.922  0.00  0.00     0.054 H 
ENDROOT
BRANCH   7  38
ATOM     38  O3  IZN d   1      -8.258 -30.958 -27.647  0.00  0.00    -0.390 OA
BRANCH  38  39
ATOM     39  C16 IZN d   1      -8.421 -29.622 -28.076  0.00  0.00     0.004 C 
ATOM     40  H20 IZN d   1      -9.475 -29.328 -27.967  0.00  0.00     0.066 H 
ATOM     41  H21 IZN d   1      -8.124 -29.537 -29.132  0.00  0.00     0.066 H 
ATOM     42  H22 IZN d   1      -7.791 -28.961 -27.463  0.00  0.00     0.066 H 
ENDBRANCH  38  39
ENDBRANCH   7  38
TORSDOF 2
