REMARK  3 active torsions:
REMARK  status: ('A' for Active; 'I' for Inactive)
REMARK    1  A    between atoms: C16_7  and  C12_9 
REMARK    2  A    between atoms: C11_15  and  C24_18 
REMARK    3  A    between atoms: C24_18  and  C25_19 
ROOT
ATOM      1  N23 4K0 d   1      19.429  80.596  -1.781  0.00  0.00    -0.191 NA
ATOM      2  C22 4K0 d   1      19.243  80.802  -0.655  0.00  0.00     0.099 C 
ATOM      3  C19 4K0 d   1      19.032  81.049   0.706  0.00  0.00     0.044 A 
ATOM      4  C20 4K0 d   1      19.503  82.260   1.298  0.00  0.00    -0.062 A 
ATOM      5  C18 4K0 d   1      18.346  80.094   1.526  0.00  0.00    -0.062 A 
ATOM      6  C17 4K0 d   1      18.138  80.348   2.921  0.00  0.00    -0.069 A 
ATOM      7  C16 4K0 d   1      18.611  81.568   3.527  0.00  0.00    -0.004 A 
ATOM      8  C21 4K0 d   1      19.296  82.518   2.689  0.00  0.00    -0.069 A 
ATOM      9  H1  4K0 d   1      20.022  82.990   0.688  0.00  0.00     0.085 H 
ATOM     10  H2  4K0 d   1      17.982  79.172   1.087  0.00  0.00     0.085 H 
ATOM     11  H3  4K0 d   1      17.619  79.615   3.528  0.00  0.00     0.085 H 
ATOM     12  H4  4K0 d   1      19.660  83.444   3.120  0.00  0.00     0.085 H 
ENDROOT
BRANCH   7  13
ATOM     13  C12 4K0 d   1      18.424  81.877   4.985  0.00  0.00     0.106 A 
ATOM     14  N15 4K0 d   1      18.848  83.092   5.440  0.00  0.00    -0.149 NA
ATOM     15  N7  4K0 d   1      18.677  83.327   6.709  0.00  0.00    -0.041 N 
ATOM     16  C8  4K0 d   1      18.106  82.445   7.606  0.00  0.00     0.769 A 
ATOM     17  C11 4K0 d   1      18.986  84.426   7.470  0.00  0.00     0.173 A 
ATOM     18  N14 4K0 d   1      17.656  81.218   7.246  0.00  0.00    -0.069 NA
ATOM     19  N9  4K0 d   1      18.094  82.997   8.772  0.00  0.00     0.047 NA
ATOM     20  C13 4K0 d   1      17.824  80.939   5.909  0.00  0.00     0.051 A 
ATOM     21  H5  4K0 d   1      17.492  79.973   5.531  0.00  0.00     0.119 H 
ATOM     22  N10 4K0 d   1      18.623  84.187   8.691  0.00  0.00    -0.117 NA
BRANCH  17  23
ATOM     23  C24 4K0 d   1      19.640  85.718   6.993  0.00  0.00     0.020 C 
ATOM     24  H6  4K0 d   1      19.306  86.546   7.635  0.00  0.00     0.052 H 
ATOM     25  H7  4K0 d   1      19.333  85.912   5.955  0.00  0.00     0.052 H 
BRANCH  23  26
ATOM     26  C25 4K0 d   1      21.162  85.628   7.051  0.00  0.00    -0.021 A 
ATOM     27  C26 4K0 d   1      21.956  85.759   8.185  0.00  0.00    -0.014 A 
ATOM     28  N27 4K0 d   1      23.288  85.617   7.823  0.00  0.00    -0.350 N 
ATOM     29  H8  4K0 d   1      21.591  85.943   9.194  0.00  0.00     0.112 H 
ATOM     30  C2  4K0 d   1      23.359  85.397   6.473  0.00  0.00     0.138 A 
ATOM     31  H11 4K0 d   1      24.092  85.669   8.465  0.00  0.00     0.166 HD
ATOM     32  C1  4K0 d   1      22.064  85.398   5.964  0.00  0.00     0.018 A 
ATOM     33  N3  4K0 d   1      24.491  85.210   5.733  0.00  0.00    -0.242 NA
ATOM     34  C6  4K0 d   1      21.856  85.187   4.565  0.00  0.00    -0.067 A 
ATOM     35  C5  4K0 d   1      23.026  84.984   3.751  0.00  0.00    -0.065 A 
ATOM     36  H9  4K0 d   1      20.860  85.180   4.136  0.00  0.00     0.085 H 
ATOM     37  C4  4K0 d   1      24.315  85.005   4.380  0.00  0.00     0.004 A 
ATOM     38  H10 4K0 d   1      22.935  84.819   2.684  0.00  0.00     0.085 H 
ATOM     39  H12 4K0 d   1      25.193  84.853   3.763  0.00  0.00     0.114 H 
ENDBRANCH  23  26
ENDBRANCH  17  23
ENDBRANCH   7  13
TORSDOF 3
