REMARK  4 active torsions:
REMARK  status: ('A' for Active; 'I' for Inactive)
REMARK    1  A    between atoms: C1_7  and  C18_4 
REMARK    2  A    between atoms: C10_18  and  C11_10 
REMARK    3  A    between atoms: C14_15  and  O17_16 
REMARK    4  A    between atoms: C10_18  and  C9_19 
ROOT
ATOM      1  N5  F47 d   1      18.226  10.799  39.210  0.00  0.00    -0.041 N 
ATOM      2  N7  F47 d   1      17.667  11.291  37.200  0.00  0.00     0.047 NA
ATOM      3  C1  F47 d   1      18.037  12.232  41.150  0.00  0.00     0.106 A 
ATOM      4  C2  F47 d   1      17.494  13.209  40.252  0.00  0.00     0.051 A 
ATOM      5  C6  F47 d   1      17.702  11.793  38.441  0.00  0.00     0.769 A 
ATOM      6  N3  F47 d   1      17.341  12.975  38.951  0.00  0.00    -0.069 NA
ATOM      7  C9  F47 d   1      18.495   9.748  38.478  0.00  0.00     0.173 A 
ATOM      8  N4  F47 d   1      18.401  11.027  40.629  0.00  0.00    -0.149 NA
ATOM      9  N8  F47 d   1      18.166  10.029  37.275  0.00  0.00    -0.117 NA
ATOM     10  H3  F47 d   1      17.196  14.178  40.649  0.00  0.00     0.119 H 
ENDROOT
BRANCH   7  11
ATOM     11  C10 F47 d   1      19.090   8.452  39.013  0.00  0.00     0.018 C 
ATOM     12  H9  F47 d   1      18.483   8.135  39.874  0.00  0.00     0.052 H 
ATOM     13  H10 F47 d   1      19.018   7.697  38.216  0.00  0.00     0.052 H 
BRANCH  11  14
ATOM     14  C11 F47 d   1      20.496   8.509  39.452  0.00  0.00    -0.051 A 
ATOM     15  C12 F47 d   1      21.588   8.496  38.489  0.00  0.00    -0.074 A 
ATOM     16  C13 F47 d   1      22.939   8.549  38.925  0.00  0.00    -0.051 A 
ATOM     17  H6  F47 d   1      21.368   8.445  37.429  0.00  0.00     0.084 H 
ATOM     18  C14 F47 d   1      23.272   8.614  40.271  0.00  0.00     0.065 A 
ATOM     19  H4  F47 d   1      23.732   8.538  38.186  0.00  0.00     0.087 H 
ATOM     20  C15 F47 d   1      22.199   8.629  41.238  0.00  0.00    -0.051 A 
ATOM     21  C16 F47 d   1      20.802   8.578  40.857  0.00  0.00    -0.074 A 
ATOM     22  H5  F47 d   1      22.449   8.681  42.291  0.00  0.00     0.087 H 
ATOM     23  H8  F47 d   1      20.016   8.591  41.603  0.00  0.00     0.084 H 
BRANCH  18  24
ATOM     24  O17 F47 d   1      24.622   8.661  40.630  0.00  0.00    -0.361 OA
ATOM     25  H7  F47 d   1      24.793   9.462  41.111  0.00  0.00     0.217 HD
ENDBRANCH  18  24
ENDBRANCH  11  14
ENDBRANCH   7  11
BRANCH   3  26
ATOM     26  C18 F47 d   1      18.229  12.483  42.627  0.00  0.00    -0.004 A 
ATOM     27  C23 F47 d   1      17.627  13.624  43.275  0.00  0.00    -0.068 A 
ATOM     28  C22 F47 d   1      17.858  13.796  44.644  0.00  0.00    -0.045 A 
ATOM     29  H1  F47 d   1      17.015  14.325  42.718  0.00  0.00     0.085 H 
ATOM     30  C21 F47 d   1      18.641  12.892  45.336  0.00  0.00     0.116 A 
ATOM     31  H2  F47 d   1      17.421  14.641  45.164  0.00  0.00     0.088 H 
ATOM     32  F24 F47 d   1      18.822  13.134  46.686  0.00  0.00    -0.206 F 
ATOM     33  C20 F47 d   1      19.249  11.759  44.733  0.00  0.00    -0.045 A 
ATOM     34  C19 F47 d   1      19.028  11.568  43.357  0.00  0.00    -0.068 A 
ATOM     35  H12 F47 d   1      19.857  11.071  45.309  0.00  0.00     0.088 H 
ATOM     36  H11 F47 d   1      19.471  10.717  42.853  0.00  0.00     0.085 H 
ENDBRANCH   3  26
TORSDOF 4
