REMARK  9 active torsions:
REMARK  status: ('A' for Active; 'I' for Inactive)
REMARK    1  A    between atoms: O41_41  and  C1_1 
REMARK    2  A    between atoms: C39_39  and  C7_7 
REMARK    3  A    between atoms: C9_9  and  O41_41 
REMARK    4  A    between atoms: C37_37  and  C13_13 
REMARK       I    between atoms: C34_34  and  N19_19 
REMARK    5  A    between atoms: C20_20  and  C37_37 
REMARK    6  A    between atoms: N22_22  and  C36_36 
REMARK       I    between atoms: N27_27  and  C34_34 
REMARK    7  A    between atoms: C28_28  and  C32_32 
REMARK    8  A    between atoms: C28_28  and  C33_33 
REMARK    9  A    between atoms: N38_38  and  C31_31 
REMARK       I    between atoms: N38_38  and  C39_39 
ROOT
ATOM      1  N19 N53 d   1      44.842  23.180  16.869  0.00  0.00    -0.227 NA
ATOM      2  C20 N53 d   1      45.540  23.891  15.784  0.00  0.00     0.030 C 
ATOM      3  C21 N53 d   1      45.197  23.190  14.421  0.00  0.00     0.098 C 
ATOM      4  N22 N53 d   1      43.737  23.292  14.211  0.00  0.00    -0.072 N 
ATOM      5  C23 N53 d   1      43.024  22.594  15.316  0.00  0.00     0.094 C 
ATOM      6  C24 N53 d   1      43.373  23.254  16.646  0.00  0.00     0.011 C 
ATOM      7  C25 N53 d   1      44.661  22.189  21.425  0.00  0.00     0.067 A 
ATOM      8  C26 N53 d   1      44.642  21.457  19.219  0.00  0.00     0.029 C 
ATOM      9  N27 N53 d   1      44.948  22.928  19.295  0.00  0.00    -0.320 N 
ATOM     10  C28 N53 d   1      45.081  23.445  20.692  0.00  0.00     0.074 C 
ATOM     11  N29 N53 d   1      44.417  21.967  22.720  0.00  0.00    -0.277 N 
ATOM     12  N30 N53 d   1      44.053  20.619  22.817  0.00  0.00    -0.156 NA
ATOM     13  C31 N53 d   1      44.080  20.082  21.578  0.00  0.00     0.160 A 
ATOM     14  C34 N53 d   1      45.073  23.735  18.223  0.00  0.00     0.300 C 
ATOM     15  O35 N53 d   1      45.393  24.922  18.354  0.00  0.00    -0.254 OA
ATOM     16  C42 N53 d   1      44.461  21.083  20.640  0.00  0.00     0.034 A 
ATOM     17  H15 N53 d   1      45.133  24.912  15.730  0.00  0.00     0.067 H 
ATOM     18  H16 N53 d   1      45.496  22.132  14.460  0.00  0.00     0.078 H 
ATOM     19  H17 N53 d   1      45.728  23.692  13.599  0.00  0.00     0.078 H 
ATOM     20  H18 N53 d   1      43.487  24.267  14.260  0.00  0.00     0.279 HD
ATOM     21  H19 N53 d   1      43.330  21.538  15.340  0.00  0.00     0.077 H 
ATOM     22  H20 N53 d   1      41.939  22.657  15.149  0.00  0.00     0.077 H 
ATOM     23  H21 N53 d   1      43.058  24.308  16.625  0.00  0.00     0.059 H 
ATOM     24  H22 N53 d   1      42.852  22.732  17.462  0.00  0.00     0.059 H 
ATOM     25  H23 N53 d   1      45.477  20.902  18.767  0.00  0.00     0.072 H 
ATOM     26  H24 N53 d   1      43.724  21.273  18.641  0.00  0.00     0.072 H 
ATOM     27  H25 N53 d   1      44.483  22.648  23.489  0.00  0.00     0.189 HD
ENDROOT
BRANCH  10  28
ATOM     28  C32 N53 d   1      46.521  23.895  21.031  0.00  0.00    -0.048 C 
ATOM     29  H26 N53 d   1      46.556  24.264  22.067  0.00  0.00     0.031 H 
ATOM     30  H27 N53 d   1      46.825  24.700  20.345  0.00  0.00     0.031 H 
ATOM     31  H28 N53 d   1      47.207  23.042  20.922  0.00  0.00     0.031 H 
ENDBRANCH  10  28
BRANCH  10  32
ATOM     32  C33 N53 d   1      44.083  24.567  21.054  0.00  0.00    -0.048 C 
ATOM     33  H29 N53 d   1      44.251  24.886  22.093  0.00  0.00     0.031 H 
ATOM     34  H30 N53 d   1      43.055  24.192  20.947  0.00  0.00     0.031 H 
ATOM     35  H31 N53 d   1      44.233  25.423  20.379  0.00  0.00     0.031 H 
ENDBRANCH  10  32
BRANCH  13  36
ATOM     36  N38 N53 d   1      43.726  18.676  21.241  0.00  0.00    -0.305 N 
ATOM     37  C39 N53 d   1      44.021  18.134  20.052  0.00  0.00     0.257 C 
ATOM     38  O40 N53 d   1      44.607  18.777  19.188  0.00  0.00    -0.267 OA
ATOM     39  H37 N53 d   1      43.253  18.119  21.924  0.00  0.00     0.170 HD
BRANCH  37  40
ATOM     40  C7  N53 d   1      43.617  16.738  19.868  0.00  0.00     0.035 A 
ATOM     41  C8  N53 d   1      43.566  16.178  18.560  0.00  0.00    -0.035 A 
ATOM     42  C9  N53 d   1      43.156  14.821  18.380  0.00  0.00     0.077 A 
ATOM     43  H6  N53 d   1      43.838  16.781  17.701  0.00  0.00     0.089 H 
ATOM     44  C10 N53 d   1      42.814  14.018  19.523  0.00  0.00    -0.050 A 
ATOM     45  C11 N53 d   1      42.888  14.568  20.833  0.00  0.00    -0.079 A 
ATOM     46  H7  N53 d   1      42.499  12.990  19.386  0.00  0.00     0.087 H 
ATOM     47  C12 N53 d   1      43.296  15.927  21.004  0.00  0.00    -0.068 A 
ATOM     48  H8  N53 d   1      42.637  13.961  21.695  0.00  0.00     0.083 H 
ATOM     49  H9  N53 d   1      43.363  16.347  22.001  0.00  0.00     0.085 H 
BRANCH  42  50
ATOM     50  O41 N53 d   1      43.040  14.409  16.985  0.00  0.00    -0.311 OA
BRANCH  50  51
ATOM     51  C1  N53 d   1      43.297  13.082  16.466  0.00  0.00     0.076 A 
ATOM     52  C2  N53 d   1      42.409  12.669  15.423  0.00  0.00    -0.050 A 
ATOM     53  C3  N53 d   1      42.641  11.442  14.734  0.00  0.00    -0.080 A 
ATOM     54  H1  N53 d   1      41.560  13.288  15.157  0.00  0.00     0.087 H 
ATOM     55  C4  N53 d   1      43.754  10.628  15.112  0.00  0.00    -0.083 A 
ATOM     56  H2  N53 d   1      41.981  11.130  13.933  0.00  0.00     0.083 H 
ATOM     57  C5  N53 d   1      44.633  11.013  16.168  0.00  0.00    -0.080 A 
ATOM     58  H3  N53 d   1      43.934   9.698  14.585  0.00  0.00     0.083 H 
ATOM     59  C6  N53 d   1      44.401  12.240  16.850  0.00  0.00    -0.050 A 
ATOM     60  H4  N53 d   1      45.467  10.379  16.447  0.00  0.00     0.083 H 
ATOM     61  H5  N53 d   1      45.056  12.542  17.660  0.00  0.00     0.087 H 
ENDBRANCH  50  51
ENDBRANCH  42  50
ENDBRANCH  37  40
ENDBRANCH  13  36
BRANCH   2  62
ATOM     62  C37 N53 d   1      47.055  24.034  16.110  0.00  0.00    -0.024 C 
ATOM     63  H35 N53 d   1      47.137  24.450  17.125  0.00  0.00     0.042 H 
ATOM     64  H36 N53 d   1      47.494  23.025  16.091  0.00  0.00     0.042 H 
BRANCH  62  65
ATOM     65  C13 N53 d   1      47.865  24.888  15.213  0.00  0.00    -0.057 A 
ATOM     66  C14 N53 d   1      47.302  25.977  14.467  0.00  0.00    -0.077 A 
ATOM     67  C15 N53 d   1      48.154  26.849  13.724  0.00  0.00    -0.082 A 
ATOM     68  H10 N53 d   1      46.230  26.137  14.468  0.00  0.00     0.084 H 
ATOM     69  C16 N53 d   1      49.565  26.619  13.719  0.00  0.00    -0.083 A 
ATOM     70  H11 N53 d   1      47.734  27.679  13.168  0.00  0.00     0.083 H 
ATOM     71  C17 N53 d   1      50.135  25.521  14.444  0.00  0.00    -0.082 A 
ATOM     72  H12 N53 d   1      50.213  27.284  13.159  0.00  0.00     0.083 H 
ATOM     73  C18 N53 d   1      49.277  24.649  15.186  0.00  0.00    -0.077 A 
ATOM     74  H13 N53 d   1      51.206  25.353  14.430  0.00  0.00     0.083 H 
ATOM     75  H14 N53 d   1      49.695  23.808  15.727  0.00  0.00     0.084 H 
ENDBRANCH  62  65
ENDBRANCH   2  62
BRANCH   4  76
ATOM     76  C36 N53 d   1      43.348  22.816  12.874  0.00  0.00     0.066 C 
ATOM     77  H32 N53 d   1      43.910  23.372  12.109  0.00  0.00     0.068 H 
ATOM     78  H33 N53 d   1      42.270  22.978  12.726  0.00  0.00     0.068 H 
ATOM     79  H34 N53 d   1      43.573  21.743  12.787  0.00  0.00     0.068 H 
ENDBRANCH   4  76
TORSDOF 9
