REMARK  6 active torsions:
REMARK  status: ('A' for Active; 'I' for Inactive)
REMARK    1  A    between atoms: O1_1  and  C1_2 
REMARK    2  A    between atoms: C1_2  and  C2_3 
REMARK    3  A    between atoms: C2_3  and  O2_4 
REMARK    4  A    between atoms: C2_3  and  C3_5 
REMARK    5  A    between atoms: C3_5  and  O1P_6 
REMARK    6  A    between atoms: O1P_6  and  P_10 
ROOT
ATOM      1  C2  G3P d   1      42.980  24.770 178.874  0.00  0.00     0.077 C 
ATOM      2  H4  G3P d   1      42.491  25.157 179.780  0.00  0.00     0.089 H 
ENDROOT
BRANCH   1   3
ATOM      3  C1  G3P d   1      44.461  25.003 178.972  0.00  0.00     0.042 C 
ATOM      4  H2  G3P d   1      44.840  24.387 179.801  0.00  0.00     0.078 H 
ATOM      5  H3  G3P d   1      44.913  24.665 178.028  0.00  0.00     0.078 H 
BRANCH   3   6
ATOM      6  O1  G3P d   1      44.884  26.318 179.196  0.00  0.00    -0.398 OA
ATOM      7  H1  G3P d   1      44.584  26.871 178.484  0.00  0.00     0.209 HD
ENDBRANCH   3   6
ENDBRANCH   1   3
BRANCH   1   8
ATOM      8  O2  G3P d   1      42.473  25.415 177.750  0.00  0.00    -0.391 OA
ATOM      9  H5  G3P d   1      42.640  26.348 177.819  0.00  0.00     0.210 HD
ENDBRANCH   1   8
BRANCH   1  10
ATOM     10  C3  G3P d   1      42.681  23.303 178.721  0.00  0.00     0.058 C 
ATOM     11  H6  G3P d   1      41.593  23.191 178.601  0.00  0.00     0.079 H 
ATOM     12  H7  G3P d   1      43.003  22.795 179.642  0.00  0.00     0.079 H 
BRANCH  10  13
ATOM     13  O1P G3P d   1      43.301  22.664 177.638  0.00  0.00    -0.280 OA
BRANCH  13  14
ATOM     14  P   G3P d   1      42.750  21.312 177.101  0.00  0.00     0.422 P 
ATOM     15  O4P G3P d   1      42.629  20.352 178.257  0.00  0.00    -0.617 OA
ATOM     16  O2P G3P d   1      43.783  20.774 176.120  0.00  0.00    -0.617 OA
ATOM     17  O3P G3P d   1      41.405  21.521 176.443  0.00  0.00    -0.617 OA
ENDBRANCH  13  14
ENDBRANCH  10  13
ENDBRANCH   1  10
TORSDOF 6
