REMARK  4 active torsions:
REMARK  status: ('A' for Active; 'I' for Inactive)
REMARK    1  A    between atoms: C1_1  and  C2_2 
REMARK    2  A    between atoms: C2_2  and  C1'_3 
REMARK    3  A    between atoms: C3'_5  and  O3'_6 
REMARK    4  A    between atoms: C6'_9  and  O6'_10 
ROOT
ATOM      1  C1' OMD d   1      17.380  42.601  -2.156  0.00  0.00    -0.012 A 
ATOM      2  C2' OMD d   1      17.630  41.567  -3.045  0.00  0.00    -0.042 A 
ATOM      3  C3' OMD d   1      18.292  41.839  -4.239  0.00  0.00     0.066 A 
ATOM      4  C4' OMD d   1      18.689  43.134  -4.539  0.00  0.00    -0.048 A 
ATOM      5  C5' OMD d   1      18.425  44.159  -3.648  0.00  0.00    -0.048 A 
ATOM      6  C6' OMD d   1      17.778  43.896  -2.450  0.00  0.00     0.072 A 
ATOM      7  H3  OMD d   1      17.313  40.557  -2.813  0.00  0.00     0.088 H 
ATOM      8  H5  OMD d   1      19.205  43.342  -5.469  0.00  0.00     0.087 H 
ATOM      9  H6  OMD d   1      18.725  45.173  -3.888  0.00  0.00     0.087 H 
ENDROOT
BRANCH   1  10
ATOM     10  C2  OMD d   1      16.675  42.348  -0.872  0.00  0.00     0.042 C 
ATOM     11  H1  OMD d   1      15.972  43.175  -0.691  0.00  0.00     0.056 H 
ATOM     12  H2  OMD d   1      16.116  41.405  -0.961  0.00  0.00     0.056 H 
BRANCH  10  13
ATOM     13  C1  OMD d   1      17.599  42.244   0.304  0.00  0.00     0.177 C 
ATOM     14  O1  OMD d   1      17.315  42.880   1.355  0.00  0.00    -0.648 OA
ATOM     15  O2  OMD d   1      18.630  41.515   0.263  0.00  0.00    -0.648 OA
ENDBRANCH  10  13
ENDBRANCH   1  10
BRANCH   6  16
ATOM     16  O6' OMD d   1      17.521  44.932  -1.562  0.00  0.00    -0.360 OA
ATOM     17  H7  OMD d   1      18.341  45.333  -1.299  0.00  0.00     0.217 HD
ENDBRANCH   6  16
BRANCH   3  18
ATOM     18  O3' OMD d   1      18.586  40.851  -5.146  0.00  0.00    -0.361 OA
ATOM     19  H4  OMD d   1      19.144  40.201  -4.735  0.00  0.00     0.217 HD
ENDBRANCH   3  18
TORSDOF 4
