REMARK  7 active torsions:
REMARK  status: ('A' for Active; 'I' for Inactive)
REMARK    1  A    between atoms: C1_1  and  C2_2 
REMARK    2  A    between atoms: C2_2  and  C3_3 
REMARK    3  A    between atoms: C2_2  and  C4_4 
REMARK    4  A    between atoms: C2_2  and  O5_5 
REMARK    5  A    between atoms: O5_5  and  C6_6 
REMARK       I    between atoms: C6_6  and  N8_8 
REMARK    6  A    between atoms: C10_10  and  N12_12 
REMARK    7  A    between atoms: N12_12  and  C13_13 
ROOT
ATOM      1  C6  TB7 d   1     -24.871   2.868  -0.051  0.00  0.00     0.341 C 
ATOM      2  O7  TB7 d   1     -24.078   2.057   0.397  0.00  0.00    -0.245 OA
ATOM      3  N8  TB7 d   1     -26.138   2.540  -0.508  0.00  0.00    -0.224 NA
ATOM      4  C9  TB7 d   1     -26.965   1.483   0.112  0.00  0.00     0.009 C 
ATOM      5  C10 TB7 d   1     -28.202   2.266  -0.341  0.00  0.00     0.050 C 
ATOM      6  C11 TB7 d   1     -27.295   3.468  -0.607  0.00  0.00     0.009 C 
ATOM      7  H10 TB7 d   1     -26.853   1.395   1.203  0.00  0.00     0.059 H 
ATOM      8  H11 TB7 d   1     -26.858   0.490  -0.348  0.00  0.00     0.059 H 
ATOM      9  H12 TB7 d   1     -28.708   1.856  -1.228  0.00  0.00     0.077 H 
ATOM     10  H13 TB7 d   1     -27.427   3.932  -1.596  0.00  0.00     0.059 H 
ATOM     11  H14 TB7 d   1     -27.326   4.246   0.170  0.00  0.00     0.059 H 
ENDROOT
BRANCH   5  12
ATOM     12  N12 TB7 d   1     -29.147   2.515   0.691  0.00  0.00    -0.219 N 
ATOM     13  H15 TB7 d   1     -29.019   3.298   1.347  0.00  0.00     0.178 HD
BRANCH  12  14
ATOM     14  C13 TB7 d   1     -30.246   1.676   0.791  0.00  0.00     0.683 A 
ATOM     15  N14 TB7 d   1     -31.086   2.053   1.802  0.00  0.00    -0.155 N 
ATOM     16  C15 TB7 d   1     -32.257   1.419   2.163  0.00  0.00     0.273 A 
ATOM     17  H16 TB7 d   1     -30.828   2.863   2.328  0.00  0.00     0.187 HD
ATOM     18  O16 TB7 d   1     -32.996   1.763   3.089  0.00  0.00    -0.267 OA
ATOM     19  C17 TB7 d   1     -32.565   0.246   1.329  0.00  0.00     0.079 A 
ATOM     20  C18 TB7 d   1     -33.703  -0.492   1.567  0.00  0.00    -0.062 A 
ATOM     21  C22 TB7 d   1     -31.705  -0.095   0.312  0.00  0.00     0.158 A 
ATOM     22  C19 TB7 d   1     -33.959  -1.586   0.754  0.00  0.00    -0.065 A 
ATOM     23  H17 TB7 d   1     -34.381  -0.225   2.369  0.00  0.00     0.085 H 
ATOM     24  C20 TB7 d   1     -33.048  -1.864  -0.251  0.00  0.00     0.004 A 
ATOM     25  H18 TB7 d   1     -34.840  -2.201   0.900  0.00  0.00     0.085 H 
ATOM     26  N21 TB7 d   1     -31.931  -1.145  -0.489  0.00  0.00    -0.242 NA
ATOM     27  H19 TB7 d   1     -33.245  -2.717  -0.890  0.00  0.00     0.114 H 
ATOM     28  N23 TB7 d   1     -30.535   0.649   0.050  0.00  0.00    -0.174 N 
ATOM     29  H20 TB7 d   1     -29.913   0.379  -0.725  0.00  0.00     0.186 HD
ENDBRANCH  12  14
ENDBRANCH   5  12
BRANCH   1  30
ATOM     30  O5  TB7 d   1     -24.627   4.220  -0.118  0.00  0.00    -0.298 OA
BRANCH  30  31
ATOM     31  C2  TB7 d   1     -23.280   4.688   0.089  0.00  0.00     0.061 C 
BRANCH  31  32
ATOM     32  C1  TB7 d   1     -22.244   3.884  -0.664  0.00  0.00    -0.048 C 
ATOM     33  H1  TB7 d   1     -21.244   4.294  -0.461  0.00  0.00     0.031 H 
ATOM     34  H2  TB7 d   1     -22.451   3.938  -1.743  0.00  0.00     0.031 H 
ATOM     35  H3  TB7 d   1     -22.284   2.835  -0.335  0.00  0.00     0.031 H 
ENDBRANCH  31  32
BRANCH  31  36
ATOM     36  C3  TB7 d   1     -23.291   6.044  -0.564  0.00  0.00    -0.048 C 
ATOM     37  H4  TB7 d   1     -24.029   6.687  -0.062  0.00  0.00     0.031 H 
ATOM     38  H5  TB7 d   1     -23.559   5.938  -1.625  0.00  0.00     0.031 H 
ATOM     39  H6  TB7 d   1     -22.293   6.499  -0.482  0.00  0.00     0.031 H 
ENDBRANCH  31  36
BRANCH  31  40
ATOM     40  C4  TB7 d   1     -22.925   4.829   1.580  0.00  0.00    -0.048 C 
ATOM     41  H7  TB7 d   1     -22.919   3.835   2.051  0.00  0.00     0.031 H 
ATOM     42  H8  TB7 d   1     -23.673   5.465   2.076  0.00  0.00     0.031 H 
ATOM     43  H9  TB7 d   1     -21.930   5.288   1.678  0.00  0.00     0.031 H 
ENDBRANCH  31  40
ENDBRANCH  30  31
ENDBRANCH   1  30
TORSDOF 7
