REMARK  11 active torsions:
REMARK  status: ('A' for Active; 'I' for Inactive)
REMARK    1  A    between atoms: C15_2  and  C2_3 
REMARK       I    between atoms: C15_2  and  N17_17 
REMARK    2  A    between atoms: C3_4  and  O13_5 
REMARK    3  A    between atoms: O13_5  and  C14_6 
REMARK    4  A    between atoms: C5_8  and  N10_9 
REMARK    5  A    between atoms: N10_9  and  C12_10 
REMARK    6  A    between atoms: N10_9  and  C11_11 
REMARK    7  A    between atoms: C6_12  and  N7_13 
REMARK    8  A    between atoms: N17_17  and  C18_18 
REMARK    9  A    between atoms: C18_18  and  C05_19 
REMARK   10  A    between atoms: N09_23  and  C10_24 
REMARK   11  A    between atoms: C10_24  and  C13_25 
ROOT
ATOM      1  O16 C56 d   1      29.876  21.636  10.122  0.00  0.00    -0.268 OA
ATOM      2  C15 C56 d   1      30.687  22.527  10.367  0.00  0.00     0.254 C 
ATOM      3  N17 C56 d   1      30.417  23.379  11.471  0.00  0.00    -0.355 N 
ATOM      4  H12 C56 d   1      31.077  24.095  11.698  0.00  0.00     0.162 HD
ENDROOT
BRANCH   2   5
ATOM      5  C2  C56 d   1      31.914  22.663   9.482  0.00  0.00     0.067 A 
ATOM      6  C3  C56 d   1      33.016  23.561   9.715  0.00  0.00     0.086 A 
ATOM      7  C4  C56 d   1      34.108  23.642   8.846  0.00  0.00    -0.022 A 
ATOM      8  C5  C56 d   1      34.255  22.858   7.657  0.00  0.00     0.065 A 
ATOM      9  H4  C56 d   1      34.896  24.346   9.089  0.00  0.00     0.091 H 
ATOM     10  C6  C56 d   1      33.149  21.970   7.441  0.00  0.00     0.130 A 
ATOM     11  C1  C56 d   1      32.052  21.909   8.341  0.00  0.00    -0.031 A 
ATOM     12  H11 C56 d   1      31.257  21.209   8.109  0.00  0.00     0.089 H 
BRANCH   6  13
ATOM     13  O13 C56 d   1      32.901  24.318  10.832  0.00  0.00    -0.355 OA
BRANCH  13  14
ATOM     14  C14 C56 d   1      33.914  25.219  11.232  0.00  0.00     0.010 C 
ATOM     15  H1  C56 d   1      33.610  25.724  12.161  0.00  0.00     0.066 H 
ATOM     16  H2  C56 d   1      34.071  25.968  10.442  0.00  0.00     0.066 H 
ATOM     17  H3  C56 d   1      34.849  24.666  11.405  0.00  0.00     0.066 H 
ENDBRANCH  13  14
ENDBRANCH   6  13
BRANCH   8  18
ATOM     18  N10 C56 d   1      35.404  23.103   6.894  0.00  0.00    -0.387 N 
BRANCH  18  19
ATOM     19  C12 C56 d   1      36.366  24.169   7.273  0.00  0.00    -0.019 C 
ATOM     20  H5  C56 d   1      37.191  24.194   6.546  0.00  0.00     0.056 H 
ATOM     21  H6  C56 d   1      36.767  23.961   8.276  0.00  0.00     0.056 H 
ATOM     22  H7  C56 d   1      35.852  25.142   7.278  0.00  0.00     0.056 H 
ENDBRANCH  18  19
BRANCH  18  23
ATOM     23  C11 C56 d   1      35.829  22.570   5.575  0.00  0.00    -0.019 C 
ATOM     24  H8  C56 d   1      35.137  21.775   5.261  0.00  0.00     0.056 H 
ATOM     25  H9  C56 d   1      36.846  22.160   5.656  0.00  0.00     0.056 H 
ATOM     26  H10 C56 d   1      35.819  23.380   4.831  0.00  0.00     0.056 H 
ENDBRANCH  18  23
ENDBRANCH   8  18
BRANCH  10  27
ATOM     27  N7  C56 d   1      32.942  21.003   6.337  0.00  0.00    -0.113 N 
ATOM     28  O9  C56 d   1      33.856  20.332   5.912  0.00  0.00    -0.532 OA
ATOM     29  O8  C56 d   1      31.799  20.717   6.045  0.00  0.00    -0.532 OA
ENDBRANCH  10  27
ENDBRANCH   2   5
BRANCH   3  30
ATOM     30  C18 C56 d   1      29.187  23.248  12.306  0.00  0.00     0.022 C 
ATOM     31  H13 C56 d   1      28.355  22.975  11.640  0.00  0.00     0.067 H 
ATOM     32  H14 C56 d   1      28.984  24.228  12.763  0.00  0.00     0.067 H 
BRANCH  30  33
ATOM     33  C05 C56 d   1      29.251  22.171  13.472  0.00  0.00     0.119 C 
ATOM     34  C06 C56 d   1      27.961  22.232  14.361  0.00  0.00    -0.035 C 
ATOM     35  C07 C56 d   1      27.453  20.803  14.525  0.00  0.00    -0.040 C 
ATOM     36  H16 C56 d   1      27.195  22.849  13.870  0.00  0.00     0.036 H 
ATOM     37  H17 C56 d   1      28.202  22.661  15.345  0.00  0.00     0.036 H 
ATOM     38  C08 C56 d   1      28.163  20.007  13.428  0.00  0.00     0.084 C 
ATOM     39  H18 C56 d   1      26.362  20.762  14.389  0.00  0.00     0.035 H 
ATOM     40  H19 C56 d   1      27.714  20.411  15.519  0.00  0.00     0.035 H 
ATOM     41  N09 C56 d   1      29.283  20.811  12.833  0.00  0.00    -0.066 N 
ATOM     42  H20 C56 d   1      27.440  19.755  12.639  0.00  0.00     0.076 H 
ATOM     43  H21 C56 d   1      28.572  19.082  13.860  0.00  0.00     0.076 H 
ATOM     44  H22 C56 d   1      29.081  20.959  11.857  0.00  0.00     0.280 HD
ATOM     45  H15 C56 d   1      30.146  22.335  14.090  0.00  0.00     0.087 H 
BRANCH  41  46
ATOM     46  C10 C56 d   1      30.534  19.995  12.869  0.00  0.00     0.081 C 
ATOM     47  H23 C56 d   1      30.618  19.548  13.871  0.00  0.00     0.075 H 
ATOM     48  H24 C56 d   1      31.384  20.671  12.696  0.00  0.00     0.075 H 
BRANCH  46  49
ATOM     49  C13 C56 d   1      30.614  18.870  11.846  0.00  0.00    -0.053 C 
ATOM     50  H25 C56 d   1      31.570  18.338  11.960  0.00  0.00     0.029 H 
ATOM     51  H26 C56 d   1      30.548  19.291  10.832  0.00  0.00     0.029 H 
ATOM     52  H27 C56 d   1      29.782  18.169  12.007  0.00  0.00     0.029 H 
ENDBRANCH  46  49
ENDBRANCH  41  46
ENDBRANCH  30  33
ENDBRANCH   3  30
TORSDOF 11
