REMARK  11 active torsions:
REMARK  status: ('A' for Active; 'I' for Inactive)
REMARK    1  A    between atoms: C15_2  and  C2_3 
REMARK       I    between atoms: N17_17  and  C15_2 
REMARK    2  A    between atoms: C3_4  and  O13_5 
REMARK    3  A    between atoms: O13_5  and  C14_6 
REMARK    4  A    between atoms: C5_8  and  N10_9 
REMARK    5  A    between atoms: N10_9  and  C12_10 
REMARK    6  A    between atoms: N10_9  and  C11_11 
REMARK    7  A    between atoms: C6_12  and  N7_13 
REMARK    8  A    between atoms: C18_18  and  N17_17 
REMARK    9  A    between atoms: C05_21  and  C18_18 
REMARK   10  A    between atoms: N09_22  and  C10_23 
REMARK   11  A    between atoms: C10_23  and  C13_25 
ROOT
ATOM      1  O16 C57 d   1      30.577  21.024  11.177  0.00  0.00    -0.268 OA
ATOM      2  C15 C57 d   1      30.989  22.137  10.971  0.00  0.00     0.254 C 
ATOM      3  N17 C57 d   1      30.546  23.225  11.811  0.00  0.00    -0.355 N 
ATOM      4  H12 C57 d   1      30.901  24.143  11.632  0.00  0.00     0.162 HD
ENDROOT
BRANCH   2   5
ATOM      5  C2  C57 d   1      31.996  22.347   9.860  0.00  0.00     0.067 A 
ATOM      6  C3  C57 d   1      33.062  23.284   9.976  0.00  0.00     0.086 A 
ATOM      7  C4  C57 d   1      34.010  23.451   8.912  0.00  0.00    -0.022 A 
ATOM      8  C5  C57 d   1      33.926  22.692   7.760  0.00  0.00     0.065 A 
ATOM      9  H4  C57 d   1      34.803  24.183   9.013  0.00  0.00     0.091 H 
ATOM     10  C6  C57 d   1      32.829  21.727   7.636  0.00  0.00     0.130 A 
ATOM     11  C1  C57 d   1      31.902  21.570   8.693  0.00  0.00    -0.031 A 
ATOM     12  H11 C57 d   1      31.107  20.839   8.601  0.00  0.00     0.089 H 
BRANCH   6  13
ATOM     13  O13 C57 d   1      33.206  24.065  11.101  0.00  0.00    -0.355 OA
BRANCH  13  14
ATOM     14  C14 C57 d   1      34.216  25.017  11.132  0.00  0.00     0.010 C 
ATOM     15  H1  C57 d   1      34.190  25.548  12.095  0.00  0.00     0.066 H 
ATOM     16  H2  C57 d   1      34.067  25.736  10.313  0.00  0.00     0.066 H 
ATOM     17  H3  C57 d   1      35.191  24.521  11.012  0.00  0.00     0.066 H 
ENDBRANCH  13  14
ENDBRANCH   6  13
BRANCH   8  18
ATOM     18  N10 C57 d   1      34.989  22.992   6.727  0.00  0.00    -0.387 N 
BRANCH  18  19
ATOM     19  C12 C57 d   1      36.095  23.885   7.085  0.00  0.00    -0.019 C 
ATOM     20  H5  C57 d   1      36.772  23.994   6.225  0.00  0.00     0.056 H 
ATOM     21  H6  C57 d   1      36.649  23.460   7.935  0.00  0.00     0.056 H 
ATOM     22  H7  C57 d   1      35.695  24.871   7.364  0.00  0.00     0.056 H 
ENDBRANCH  18  19
BRANCH  18  23
ATOM     23  C11 C57 d   1      34.940  22.444   5.350  0.00  0.00    -0.019 C 
ATOM     24  H8  C57 d   1      34.056  21.798   5.244  0.00  0.00     0.056 H 
ATOM     25  H9  C57 d   1      35.849  21.856   5.157  0.00  0.00     0.056 H 
ATOM     26  H10 C57 d   1      34.878  23.271   4.628  0.00  0.00     0.056 H 
ENDBRANCH  18  23
ENDBRANCH   8  18
BRANCH  10  27
ATOM     27  N7  C57 d   1      32.613  20.868   6.504  0.00  0.00    -0.113 N 
ATOM     28  O9  C57 d   1      31.570  21.030   5.733  0.00  0.00    -0.532 OA
ATOM     29  O8  C57 d   1      33.413  19.952   6.259  0.00  0.00    -0.532 OA
ENDBRANCH  10  27
ENDBRANCH   2   5
BRANCH   3  30
ATOM     30  C18 C57 d   1      29.599  23.042  12.914  0.00  0.00     0.022 C 
ATOM     31  H13 C57 d   1      29.567  24.001  13.452  0.00  0.00     0.067 H 
ATOM     32  H14 C57 d   1      30.035  22.270  13.566  0.00  0.00     0.067 H 
BRANCH  30  33
ATOM     33  C05 C57 d   1      28.147  22.635  12.688  0.00  0.00     0.119 C 
ATOM     34  C06 C57 d   1      27.482  22.380  13.992  0.00  0.00    -0.035 C 
ATOM     35  C07 C57 d   1      27.736  20.942  14.246  0.00  0.00    -0.040 C 
ATOM     36  H17 C57 d   1      27.924  23.002  14.785  0.00  0.00     0.036 H 
ATOM     37  H18 C57 d   1      26.403  22.581  13.927  0.00  0.00     0.036 H 
ATOM     38  C08 C57 d   1      27.842  20.328  12.894  0.00  0.00     0.084 C 
ATOM     39  H15 C57 d   1      26.904  20.495  14.810  0.00  0.00     0.035 H 
ATOM     40  H16 C57 d   1      28.673  20.807  14.807  0.00  0.00     0.035 H 
ATOM     41  N09 C57 d   1      27.942  21.406  11.937  0.00  0.00    -0.066 N 
ATOM     42  H23 C57 d   1      26.948  19.722  12.685  0.00  0.00     0.076 H 
ATOM     43  H24 C57 d   1      28.738  19.692  12.839  0.00  0.00     0.076 H 
ATOM     44  H20 C57 d   1      28.864  21.276  11.550  0.00  0.00     0.280 HD
ATOM     45  H19 C57 d   1      27.645  23.461  12.163  0.00  0.00     0.087 H 
BRANCH  41  46
ATOM     46  C10 C57 d   1      27.164  21.227  10.724  0.00  0.00     0.081 C 
ATOM     47  H21 C57 d   1      26.132  21.539  10.943  0.00  0.00     0.075 H 
ATOM     48  H22 C57 d   1      27.178  20.155  10.477  0.00  0.00     0.075 H 
BRANCH  46  49
ATOM     49  C13 C57 d   1      27.623  21.994   9.477  0.00  0.00    -0.053 C 
ATOM     50  H25 C57 d   1      26.949  21.767   8.638  0.00  0.00     0.029 H 
ATOM     51  H26 C57 d   1      28.648  21.690   9.216  0.00  0.00     0.029 H 
ATOM     52  H27 C57 d   1      27.602  23.074   9.683  0.00  0.00     0.029 H 
ENDBRANCH  46  49
ENDBRANCH  41  46
ENDBRANCH  30  33
ENDBRANCH   3  30
TORSDOF 11
