REMARK  8 active torsions:
REMARK  status: ('A' for Active; 'I' for Inactive)
REMARK    1  A    between atoms: CAW_1  and  CAX_2 
REMARK    2  A    between atoms: CAX_2  and  CAV_3 
REMARK    3  A    between atoms: CAV_3  and  CAU_4 
REMARK    4  A    between atoms: CAU_4  and  NAQ_5 
REMARK    5  A    between atoms: CAI_13  and  NAJ_14 
REMARK    6  A    between atoms: NAJ_14  and  CAB_15 
REMARK    7  A    between atoms: NAJ_14  and  SAK_16 
REMARK    8  A    between atoms: SAK_16  and  CAL_19 
ROOT
ATOM      1  NAQ HNR d   1      38.067   3.698  10.009  0.00  0.00    -0.285 N 
ATOM      2  CAR HNR d   1      37.095   3.444   9.019  0.00  0.00     0.135 A 
ATOM      3  NAS HNR d   1      36.889   4.358   8.069  0.00  0.00    -0.285 NA
ATOM      4  CAP HNR d   1      38.321   2.772  11.027  0.00  0.00     0.330 A 
ATOM      5  OAO HNR d   1      39.173   2.996  11.885  0.00  0.00    -0.246 OA
ATOM      6  NAG HNR d   1      37.604   1.606  11.074  0.00  0.00    -0.277 N 
ATOM      7  CAH HNR d   1      36.629   1.341  10.123  0.00  0.00     0.256 A 
ATOM      8  OAA HNR d   1      36.024   0.275  10.244  0.00  0.00    -0.270 OA
ATOM      9  CAI HNR d   1      36.355   2.253   9.080  0.00  0.00     0.155 A 
ATOM     10  H10 HNR d   1      36.199   4.194   7.353  0.00  0.00     0.188 HD
ATOM     11  H11 HNR d   1      37.784   0.941  11.799  0.00  0.00     0.173 HD
ATOM     12  H12 HNR d   1      35.593   2.752   9.697  0.00  0.00     0.101 H 
ENDROOT
BRANCH   9  13
ATOM     13  NAJ HNR d   1      35.423   1.955   8.169  0.00  0.00    -0.290 N 
BRANCH  13  14
ATOM     14  CAB HNR d   1      35.747   0.915   7.167  0.00  0.00    -0.007 C 
ATOM     15  H13 HNR d   1      36.805   0.629   7.264  0.00  0.00     0.057 H 
ATOM     16  H14 HNR d   1      35.565   1.310   6.157  0.00  0.00     0.057 H 
ATOM     17  H15 HNR d   1      35.112   0.033   7.336  0.00  0.00     0.057 H 
ENDBRANCH  13  14
BRANCH  13  18
ATOM     18  SAK HNR d   1      33.899   2.579   8.259  0.00  0.00     0.261 S 
ATOM     19  OAT HNR d   1      33.942   4.002   8.439  0.00  0.00    -0.200 OA
ATOM     20  OAC HNR d   1      33.065   2.220   7.075  0.00  0.00    -0.200 OA
BRANCH  18  21
ATOM     21  CAL HNR d   1      33.157   1.850   9.677  0.00  0.00     0.079 A 
ATOM     22  CAM HNR d   1      33.452   2.314  10.940  0.00  0.00    -0.060 A 
ATOM     23  CAN HNR d   1      32.843   1.732  12.049  0.00  0.00    -0.082 A 
ATOM     24  H16 HNR d   1      34.155   3.129  11.070  0.00  0.00     0.085 H 
ATOM     25  CAF HNR d   1      31.949   0.678  11.907  0.00  0.00    -0.083 A 
ATOM     26  H17 HNR d   1      33.070   2.108  13.040  0.00  0.00     0.083 H 
ATOM     27  CAE HNR d   1      31.680   0.212  10.640  0.00  0.00    -0.082 A 
ATOM     28  H18 HNR d   1      31.474   0.233  12.774  0.00  0.00     0.083 H 
ATOM     29  CAD HNR d   1      32.268   0.799   9.534  0.00  0.00    -0.060 A 
ATOM     30  H19 HNR d   1      31.001  -0.623  10.508  0.00  0.00     0.083 H 
ATOM     31  H20 HNR d   1      32.029   0.431   8.543  0.00  0.00     0.085 H 
ENDBRANCH  18  21
ENDBRANCH  13  18
ENDBRANCH   9  13
BRANCH   1  32
ATOM     32  CAU HNR d   1      38.828   4.944   9.988  0.00  0.00     0.006 C 
ATOM     33  H8  HNR d   1      39.758   4.827  10.564  0.00  0.00     0.065 H 
ATOM     34  H9  HNR d   1      39.071   5.219   8.951  0.00  0.00     0.065 H 
BRANCH  32  35
ATOM     35  CAV HNR d   1      37.953   6.019  10.622  0.00  0.00    -0.050 C 
ATOM     36  H6  HNR d   1      37.761   6.803   9.875  0.00  0.00     0.035 H 
ATOM     37  H7  HNR d   1      37.000   5.562  10.928  0.00  0.00     0.035 H 
BRANCH  35  38
ATOM     38  CAX HNR d   1      38.600   6.656  11.840  0.00  0.00    -0.067 C 
ATOM     39  H4  HNR d   1      38.693   5.895  12.629  0.00  0.00     0.032 H 
ATOM     40  H5  HNR d   1      39.600   7.018  11.560  0.00  0.00     0.032 H 
BRANCH  38  41
ATOM     41  CAW HNR d   1      37.778   7.844  12.390  0.00  0.00    -0.076 C 
ATOM     42  H1  HNR d   1      38.288   8.268  13.268  0.00  0.00     0.027 H 
ATOM     43  H2  HNR d   1      36.777   7.494  12.681  0.00  0.00     0.027 H 
ATOM     44  H3  HNR d   1      37.684   8.616  11.612  0.00  0.00     0.027 H 
ENDBRANCH  38  41
ENDBRANCH  35  38
ENDBRANCH  32  35
ENDBRANCH   1  32
TORSDOF 8
