REMARK  7 active torsions:
REMARK  status: ('A' for Active; 'I' for Inactive)
REMARK    1  A    between atoms: N12_26  and  C2_2 
REMARK       I    between atoms: C13_5  and  N12_26 
REMARK       I    between atoms: N14_27  and  C13_5 
REMARK    2  A    between atoms: C16_6  and  N14_27 
REMARK    3  A    between atoms: O22_12  and  C19_9 
REMARK    4  A    between atoms: C23_29  and  O22_12 
REMARK    5  A    between atoms: C29_31  and  C27_15 
REMARK    6  A    between atoms: N30_17  and  C31_18 
REMARK       I    between atoms: N30_17  and  C29_31 
REMARK    7  A    between atoms: C6_20  and  C7_21 
ROOT
ATOM      1  C16 BAX d   1     -25.341  -1.759 -12.256  0.00  0.00     0.036 A 
ATOM      2  C17 BAX d   1     -25.465  -1.340 -13.576  0.00  0.00    -0.054 A 
ATOM      3  C18 BAX d   1     -24.343  -0.872 -14.261  0.00  0.00    -0.048 A 
ATOM      4  C19 BAX d   1     -23.112  -0.822 -13.604  0.00  0.00     0.076 A 
ATOM      5  C20 BAX d   1     -22.959  -1.234 -12.287  0.00  0.00    -0.048 A 
ATOM      6  C21 BAX d   1     -24.084  -1.701 -11.617  0.00  0.00    -0.054 A 
ATOM      7  H4  BAX d   1     -26.429  -1.377 -14.071  0.00  0.00     0.087 H 
ATOM      8  H5  BAX d   1     -24.426  -0.550 -15.293  0.00  0.00     0.087 H 
ATOM      9  H6  BAX d   1     -21.993  -1.193 -11.797  0.00  0.00     0.087 H 
ATOM     10  H7  BAX d   1     -23.994  -2.026 -10.587  0.00  0.00     0.087 H 
ENDROOT
BRANCH   1  11
ATOM     11  N14 BAX d   1     -26.506  -2.223 -11.611  0.00  0.00    -0.309 N 
ATOM     12  C13 BAX d   1     -26.747  -2.075 -10.251  0.00  0.00     0.325 C 
ATOM     13  N12 BAX d   1     -27.828  -2.830  -9.815  0.00  0.00    -0.309 N 
ATOM     14  O15 BAX d   1     -26.069  -1.375  -9.521  0.00  0.00    -0.247 OA
ATOM     15  H15 BAX d   1     -28.310  -3.393 -10.487  0.00  0.00     0.170 HD
ATOM     16  H16 BAX d   1     -27.199  -2.685 -12.165  0.00  0.00     0.170 HD
BRANCH  13  17
ATOM     17  C2  BAX d   1     -28.285  -2.851  -8.488  0.00  0.00     0.037 A 
ATOM     18  C1  BAX d   1     -28.055  -1.789  -7.594  0.00  0.00    -0.041 A 
ATOM     19  C6  BAX d   1     -28.518  -1.838  -6.274  0.00  0.00     0.071 A 
ATOM     20  H1  BAX d   1     -27.509  -0.916  -7.934  0.00  0.00     0.088 H 
ATOM     21  C5  BAX d   1     -29.237  -2.975  -5.867  0.00  0.00     0.049 A 
ATOM     22  C4  BAX d   1     -29.467  -4.049  -6.742  0.00  0.00    -0.059 A 
ATOM     23 CL11 BAX d   1     -29.841  -3.103  -4.255  0.00  0.00    -0.083 Cl
ATOM     24  C3  BAX d   1     -28.991  -3.977  -8.056  0.00  0.00    -0.055 A 
ATOM     25  H3  BAX d   1     -30.008  -4.925  -6.403  0.00  0.00     0.086 H 
ATOM     26  H2  BAX d   1     -29.171  -4.798  -8.741  0.00  0.00     0.087 H 
BRANCH  19  27
ATOM     27  C7  BAX d   1     -28.240  -0.676  -5.351  0.00  0.00     0.419 C 
ATOM     28  F8  BAX d   1     -27.463  -1.049  -4.310  0.00  0.00    -0.166 F 
ATOM     29  F9  BAX d   1     -29.358  -0.102  -4.830  0.00  0.00    -0.166 F 
ATOM     30  F10 BAX d   1     -27.559   0.341  -5.933  0.00  0.00    -0.166 F 
ENDBRANCH  19  27
ENDBRANCH  13  17
ENDBRANCH   1  11
BRANCH   4  31
ATOM     31  O22 BAX d   1     -22.013  -0.372 -14.299  0.00  0.00    -0.311 OA
BRANCH  31  32
ATOM     32  C23 BAX d   1     -21.706   0.972 -14.335  0.00  0.00     0.079 A 
ATOM     33  C24 BAX d   1     -22.543   2.048 -13.990  0.00  0.00    -0.033 A 
ATOM     34  C25 BAX d   1     -21.992   3.328 -14.116  0.00  0.00     0.006 A 
ATOM     35  H8  BAX d   1     -23.559   1.894 -13.645  0.00  0.00     0.090 H 
ATOM     36  N26 BAX d   1     -20.726   3.561 -14.550  0.00  0.00    -0.255 NA
ATOM     37  H9  BAX d   1     -22.609   4.180 -13.853  0.00  0.00     0.114 H 
ATOM     38  C27 BAX d   1     -19.937   2.495 -14.861  0.00  0.00     0.126 A 
ATOM     39  C28 BAX d   1     -20.398   1.184 -14.778  0.00  0.00    -0.017 A 
ATOM     40  H10 BAX d   1     -19.760   0.351 -15.050  0.00  0.00     0.091 H 
BRANCH  38  41
ATOM     41  C29 BAX d   1     -18.534   2.702 -15.341  0.00  0.00     0.269 C 
ATOM     42  N30 BAX d   1     -18.033   3.988 -15.404  0.00  0.00    -0.360 N 
ATOM     43  H11 BAX d   1     -18.609   4.756 -15.124  0.00  0.00     0.162 HD
ATOM     44  O32 BAX d   1     -17.877   1.720 -15.690  0.00  0.00    -0.266 OA
BRANCH  42  45
ATOM     45  C31 BAX d   1     -16.677   4.242 -15.873  0.00  0.00    -0.018 C 
ATOM     46  H12 BAX d   1     -16.476   5.323 -15.846  0.00  0.00     0.056 H 
ATOM     47  H13 BAX d   1     -16.571   3.875 -16.905  0.00  0.00     0.056 H 
ATOM     48  H14 BAX d   1     -15.960   3.720 -15.223  0.00  0.00     0.056 H 
ENDBRANCH  42  45
ENDBRANCH  38  41
ENDBRANCH  31  32
ENDBRANCH   4  31
TORSDOF 7
