REMARK  9 active torsions:
REMARK  status: ('A' for Active; 'I' for Inactive)
REMARK    1  A    between atoms: C1_1  and  O34_21 
REMARK    2  A    between atoms: C6_6  and  O33_20 
REMARK    3  A    between atoms: O11_11  and  C10_10 
REMARK    4  A    between atoms: C12_12  and  O11_11 
REMARK    5  A    between atoms: N28_19  and  C15_14 
REMARK       I    between atoms: C35_22  and  N28_19 
REMARK    6  A    between atoms: O33_20  and  C49_31 
REMARK    7  A    between atoms: O34_21  and  C53_32 
REMARK       I    between atoms: N37_24  and  C35_22 
REMARK    8  A    between atoms: C38_25  and  N37_24 
REMARK    9  A    between atoms: C30_27  and  C40_26 
ROOT
ATOM      1  C12 AV9 d   1     -22.729  -0.567 -13.281  0.00  0.00     0.077 A 
ATOM      2  C13 AV9 d   1     -24.017  -0.644 -13.930  0.00  0.00    -0.027 A 
ATOM      3  C15 AV9 d   1     -24.919  -1.703 -11.899  0.00  0.00     0.058 A 
ATOM      4  C16 AV9 d   1     -23.620  -1.613 -11.292  0.00  0.00    -0.053 A 
ATOM      5  C17 AV9 d   1     -22.535  -1.049 -11.975  0.00  0.00    -0.048 A 
ATOM      6  C11 AV9 d   1     -25.112  -1.214 -13.228  0.00  0.00     0.063 A 
ATOM      7 CL4  AV9 d   1     -26.660  -1.299 -14.003  0.00  0.00    -0.082 Cl
ATOM      8  H5  AV9 d   1     -24.146  -0.272 -14.940  0.00  0.00     0.090 H 
ATOM      9  H6  AV9 d   1     -23.477  -1.989 -10.286  0.00  0.00     0.087 H 
ATOM     10  H7  AV9 d   1     -21.561  -0.985 -11.504  0.00  0.00     0.087 H 
ENDROOT
BRANCH   1  11
ATOM     11  O11 AV9 d   1     -21.643  -0.017 -13.910  0.00  0.00    -0.310 OA
BRANCH  11  12
ATOM     12  C10 AV9 d   1     -21.493   1.384 -14.043  0.00  0.00     0.090 A 
ATOM     13  C4  AV9 d   1     -20.190   1.809 -14.475  0.00  0.00     0.029 A 
ATOM     14  C3  AV9 d   1     -19.979   3.235 -14.638  0.00  0.00     0.072 A 
ATOM     15  C5  AV9 d   1     -19.114   0.904 -14.744  0.00  0.00    -0.033 A 
ATOM     16  C2  AV9 d   1     -18.714   3.685 -15.063  0.00  0.00    -0.019 A 
ATOM     17  N7  AV9 d   1     -20.964   4.145 -14.390  0.00  0.00    -0.260 NA
ATOM     18  C1  AV9 d   1     -17.630   2.779 -15.334  0.00  0.00     0.103 A 
ATOM     19  H1  AV9 d   1     -18.552   4.749 -15.190  0.00  0.00     0.091 H 
ATOM     20  C6  AV9 d   1     -17.832   1.368 -15.169  0.00  0.00     0.102 A 
ATOM     21  C8  AV9 d   1     -22.189   3.707 -13.977  0.00  0.00     0.005 A 
ATOM     22  C9  AV9 d   1     -22.509   2.363 -13.789  0.00  0.00    -0.032 A 
ATOM     23  H3  AV9 d   1     -22.957   4.447 -13.784  0.00  0.00     0.114 H 
ATOM     24  H4  AV9 d   1     -23.498   2.067 -13.460  0.00  0.00     0.090 H 
ATOM     25  H2  AV9 d   1     -19.276  -0.161 -14.622  0.00  0.00     0.089 H 
BRANCH  18  26
ATOM     26  O34 AV9 d   1     -16.362   3.156 -15.751  0.00  0.00    -0.353 OA
BRANCH  26  27
ATOM     27  C53 AV9 d   1     -16.074   4.553 -15.939  0.00  0.00     0.010 C 
ATOM     28  H17 AV9 d   1     -15.031   4.671 -16.268  0.00  0.00     0.066 H 
ATOM     29  H18 AV9 d   1     -16.222   5.089 -14.990  0.00  0.00     0.066 H 
ATOM     30  H19 AV9 d   1     -16.749   4.967 -16.703  0.00  0.00     0.066 H 
ENDBRANCH  26  27
ENDBRANCH  18  26
BRANCH  20  31
ATOM     31  O33 AV9 d   1     -16.735   0.553 -15.441  0.00  0.00    -0.353 OA
BRANCH  31  32
ATOM     32  C49 AV9 d   1     -16.861  -0.868 -15.291  0.00  0.00     0.010 C 
ATOM     33  H14 AV9 d   1     -15.905  -1.350 -15.546  0.00  0.00     0.066 H 
ATOM     34  H15 AV9 d   1     -17.649  -1.239 -15.963  0.00  0.00     0.066 H 
ATOM     35  H16 AV9 d   1     -17.125  -1.105 -14.250  0.00  0.00     0.066 H 
ENDBRANCH  31  32
ENDBRANCH  20  31
ENDBRANCH  11  12
ENDBRANCH   1  11
BRANCH   3  36
ATOM     36  N28 AV9 d   1     -26.006  -2.272 -11.188  0.00  0.00    -0.307 N 
ATOM     37  C35 AV9 d   1     -26.277  -1.953  -9.848  0.00  0.00     0.326 C 
ATOM     38  O36 AV9 d   1     -25.607  -1.162  -9.185  0.00  0.00    -0.247 OA
ATOM     39  N37 AV9 d   1     -27.393  -2.663  -9.384  0.00  0.00    -0.291 N 
ATOM     40  H9  AV9 d   1     -27.848  -3.281 -10.025  0.00  0.00     0.172 HD
ATOM     41  H8  AV9 d   1     -26.601  -2.924 -11.658  0.00  0.00     0.170 HD
BRANCH  39  42
ATOM     42  C38 AV9 d   1     -27.919  -2.571  -8.088  0.00  0.00     0.161 A 
ATOM     43  C43 AV9 d   1     -27.470  -1.767  -6.995  0.00  0.00    -0.006 A 
ATOM     44  C30 AV9 d   1     -28.317  -2.051  -5.975  0.00  0.00     0.078 A 
ATOM     45  H13 AV9 d   1     -26.629  -1.075  -6.984  0.00  0.00     0.093 H 
ATOM     46  O25 AV9 d   1     -29.229  -2.965  -6.398  0.00  0.00    -0.216 OA
ATOM     47  N21 AV9 d   1     -28.985  -3.295  -7.725  0.00  0.00    -0.110 NA
BRANCH  44  48
ATOM     48  C40 AV9 d   1     -28.419  -1.580  -4.583  0.00  0.00    -0.029 C 
ATOM     49  H10 AV9 d   1     -27.622  -0.849  -4.384  0.00  0.00     0.036 H 
ATOM     50  H11 AV9 d   1     -28.312  -2.434  -3.898  0.00  0.00     0.036 H 
ATOM     51  H12 AV9 d   1     -29.399  -1.105  -4.427  0.00  0.00     0.036 H 
ENDBRANCH  44  48
ENDBRANCH  39  42
ENDBRANCH   3  36
TORSDOF 9
