REMARK  6 active torsions:
REMARK  status: ('A' for Active; 'I' for Inactive)
REMARK    1  A    between atoms: CAV_6  and  CAU_7 
REMARK    2  A    between atoms: CAU_7  and  NAN_8 
REMARK    3  A    between atoms: CAF_16  and  NAG_17 
REMARK    4  A    between atoms: NAG_17  and  CAB_18 
REMARK    5  A    between atoms: NAG_17  and  SAH_19 
REMARK    6  A    between atoms: SAH_19  and  CAI_22 
ROOT
ATOM      1  NAN N6A d   1      35.094 -20.256  56.944  0.00  0.00    -0.281 N 
ATOM      2  CAO N6A d   1      34.150 -19.881  57.889  0.00  0.00     0.136 A 
ATOM      3  NAP N6A d   1      33.772 -20.621  58.910  0.00  0.00    -0.285 NA
ATOM      4  CAM N6A d   1      35.385 -19.421  55.944  0.00  0.00     0.330 A 
ATOM      5  OAL N6A d   1      36.207 -19.745  55.085  0.00  0.00    -0.246 OA
ATOM      6  NAD N6A d   1      34.747 -18.159  55.861  0.00  0.00    -0.277 N 
ATOM      7  CAE N6A d   1      33.775 -17.775  56.819  0.00  0.00     0.256 A 
ATOM      8  OAA N6A d   1      33.196 -16.685  56.726  0.00  0.00    -0.270 OA
ATOM      9  CAF N6A d   1      33.486 -18.684  57.835  0.00  0.00     0.155 A 
ATOM     10  H8  N6A d   1      33.078 -20.275  59.554  0.00  0.00     0.188 HD
ATOM     11  H9  N6A d   1      34.985 -17.532  55.119  0.00  0.00     0.173 HD
ATOM     12  H10 N6A d   1      32.669 -19.130  57.249  0.00  0.00     0.101 H 
ENDROOT
BRANCH   9  13
ATOM     13  NAG N6A d   1      32.625 -18.324  58.833  0.00  0.00    -0.290 N 
BRANCH  13  14
ATOM     14  CAB N6A d   1      33.142 -17.334  59.798  0.00  0.00    -0.007 C 
ATOM     15  H11 N6A d   1      34.214 -17.169  59.615  0.00  0.00     0.057 H 
ATOM     16  H12 N6A d   1      32.998 -17.710  60.822  0.00  0.00     0.057 H 
ATOM     17  H13 N6A d   1      32.599 -16.385  59.676  0.00  0.00     0.057 H 
ENDBRANCH  13  14
BRANCH  13  18
ATOM     18  SAH N6A d   1      31.026 -18.752  58.895  0.00  0.00     0.261 S 
ATOM     19  OAQ N6A d   1      30.766 -20.276  58.931  0.00  0.00    -0.200 OA
ATOM     20  OAC N6A d   1      30.436 -18.149  60.126  0.00  0.00    -0.200 OA
BRANCH  18  21
ATOM     21  CAI N6A d   1      30.282 -18.068  57.567  0.00  0.00     0.079 A 
ATOM     22  CAJ N6A d   1      30.443 -18.651  56.330  0.00  0.00    -0.060 A 
ATOM     23  CAK N6A d   1      29.821 -18.087  55.218  0.00  0.00    -0.082 A 
ATOM     24  H14 N6A d   1      31.050 -19.543  56.222  0.00  0.00     0.085 H 
ATOM     25  CAT N6A d   1      29.057 -16.936  55.389  0.00  0.00    -0.083 A 
ATOM     26  H15 N6A d   1      29.930 -18.536  54.238  0.00  0.00     0.083 H 
ATOM     27  CAS N6A d   1      28.905 -16.343  56.637  0.00  0.00    -0.082 A 
ATOM     28  H16 N6A d   1      28.569 -16.492  54.529  0.00  0.00     0.083 H 
ATOM     29  CAR N6A d   1      29.507 -16.913  57.726  0.00  0.00    -0.060 A 
ATOM     30  H17 N6A d   1      28.316 -15.439  56.746  0.00  0.00     0.083 H 
ATOM     31  H18 N6A d   1      29.384 -16.472  58.708  0.00  0.00     0.085 H 
ENDBRANCH  18  21
ENDBRANCH  13  18
ENDBRANCH   9  13
BRANCH   1  32
ATOM     32  CAU N6A d   1      35.811 -21.599  56.998  0.00  0.00     0.029 C 
ATOM     33  H6  N6A d   1      36.813 -21.487  56.559  0.00  0.00     0.072 H 
ATOM     34  H7  N6A d   1      35.903 -21.913  58.048  0.00  0.00     0.072 H 
BRANCH  32  35
ATOM     35  CAV N6A d   1      35.115 -22.576  56.293  0.00  0.00    -0.040 A 
ATOM     36  CAW N6A d   1      34.553 -23.637  56.957  0.00  0.00    -0.075 A 
ATOM     37  CAX N6A d   1      33.825 -24.625  56.281  0.00  0.00    -0.082 A 
ATOM     38  H1  N6A d   1      34.675 -23.713  58.031  0.00  0.00     0.084 H 
ATOM     39  CBA N6A d   1      33.663 -24.554  54.900  0.00  0.00    -0.083 A 
ATOM     40  H2  N6A d   1      33.386 -25.447  56.835  0.00  0.00     0.083 H 
ATOM     41  CAZ N6A d   1      34.240 -23.494  54.225  0.00  0.00    -0.082 A 
ATOM     42  H3  N6A d   1      33.099 -25.311  54.367  0.00  0.00     0.083 H 
ATOM     43  CAY N6A d   1      34.950 -22.520  54.907  0.00  0.00    -0.075 A 
ATOM     44  H4  N6A d   1      34.135 -23.425  53.148  0.00  0.00     0.083 H 
ATOM     45  H5  N6A d   1      35.387 -21.697  54.354  0.00  0.00     0.084 H 
ENDBRANCH  32  35
ENDBRANCH   1  32
TORSDOF 6
