REMARK  11 active torsions:
REMARK  status: ('A' for Active; 'I' for Inactive)
REMARK    1  A    between atoms: O6_1  and  C6_2 
REMARK    2  A    between atoms: C6_2  and  C5_3 
REMARK    3  A    between atoms: C4_5  and  O4_6 
REMARK    4  A    between atoms: C3_7  and  O3_8 
REMARK    5  A    between atoms: C2_9  and  O2_10 
REMARK    6  A    between atoms: C1_11  and  O1_12 
REMARK    7  A    between atoms: O1_12  and  C7_13 
REMARK    8  A    between atoms: C7_13  and  C8_14 
REMARK    9  A    between atoms: C9_15  and  C10_16 
REMARK   10  A    between atoms: C13_19  and  O7_20 
REMARK   11  A    between atoms: O7_20  and  C16_21 
ROOT
ATOM      1  C5  HNV d   1     -14.371   1.908 -11.260  0.00  0.00     0.089 C 
ATOM      2  O5  HNV d   1     -12.997   1.630 -11.374  0.00  0.00    -0.348 OA
ATOM      3  C4  HNV d   1     -15.052   0.797 -10.452  0.00  0.00     0.090 C 
ATOM      4  C3  HNV d   1     -14.776  -0.477 -11.026  0.00  0.00     0.092 C 
ATOM      5  C2  HNV d   1     -13.393  -0.746 -11.246  0.00  0.00     0.110 C 
ATOM      6  C1  HNV d   1     -12.730   0.400 -11.993  0.00  0.00     0.159 C 
ATOM      7  H4  HNV d   1     -14.829   1.946 -12.260  0.00  0.00     0.090 H 
ATOM      8  H5  HNV d   1     -14.633   0.804  -9.435  0.00  0.00     0.091 H 
ATOM      9  H7  HNV d   1     -15.271  -0.500 -12.008  0.00  0.00     0.091 H 
ATOM     10  H9  HNV d   1     -13.306  -1.675 -11.829  0.00  0.00     0.094 H 
ATOM     11  H11 HNV d   1     -11.642   0.239 -11.963  0.00  0.00     0.133 H 
ENDROOT
BRANCH   6  12
ATOM     12  O1  HNV d   1     -13.116   0.405 -13.302  0.00  0.00    -0.347 OA
BRANCH  12  13
ATOM     13  C7  HNV d   1     -12.485   1.336 -14.079  0.00  0.00     0.077 C 
ATOM     14  H12 HNV d   1     -11.444   1.010 -14.222  0.00  0.00     0.094 H 
ATOM     15  H13 HNV d   1     -12.498   2.294 -13.539  0.00  0.00     0.094 H 
BRANCH  13  16
ATOM     16  C8  HNV d   1     -13.082   1.556 -15.413  0.00  0.00    -0.075 C 
ATOM     17  C9  HNV d   1     -13.546   1.727 -16.512  0.00  0.00    -0.065 C 
BRANCH  17  18
ATOM     18  C10 HNV d   1     -14.092   1.921 -17.871  0.00  0.00     0.018 A 
ATOM     19  C15 HNV d   1     -15.374   1.501 -18.187  0.00  0.00    -0.062 A 
ATOM     20  C14 HNV d   1     -15.866   1.708 -19.469  0.00  0.00    -0.049 A 
ATOM     21  H14 HNV d   1     -15.989   1.014 -17.439  0.00  0.00     0.085 H 
ATOM     22  C13 HNV d   1     -15.057   2.336 -20.411  0.00  0.00     0.068 A 
ATOM     23  H15 HNV d   1     -16.867   1.385 -19.732  0.00  0.00     0.087 H 
ATOM     24  C12 HNV d   1     -13.781   2.750 -20.082  0.00  0.00    -0.049 A 
ATOM     25  C11 HNV d   1     -13.288   2.554 -18.807  0.00  0.00    -0.062 A 
ATOM     26  H19 HNV d   1     -13.162   3.232 -20.830  0.00  0.00     0.087 H 
ATOM     27  H20 HNV d   1     -12.291   2.889 -18.543  0.00  0.00     0.085 H 
BRANCH  22  28
ATOM     28  O7  HNV d   1     -15.508   2.554 -21.694  0.00  0.00    -0.356 OA
BRANCH  28  29
ATOM     29  C16 HNV d   1     -16.831   2.294 -21.994  0.00  0.00     0.010 C 
ATOM     30  H16 HNV d   1     -17.018   2.521 -23.054  0.00  0.00     0.066 H 
ATOM     31  H17 HNV d   1     -17.480   2.921 -21.364  0.00  0.00     0.066 H 
ATOM     32  H18 HNV d   1     -17.049   1.233 -21.803  0.00  0.00     0.066 H 
ENDBRANCH  28  29
ENDBRANCH  22  28
ENDBRANCH  17  18
ENDBRANCH  13  16
ENDBRANCH  12  13
ENDBRANCH   6  12
BRANCH   5  33
ATOM     33  O2  HNV d   1     -12.658  -0.873 -10.028  0.00  0.00    -0.388 OA
ATOM     34  H10 HNV d   1     -13.017  -1.588  -9.516  0.00  0.00     0.210 HD
ENDBRANCH   5  33
BRANCH   1  35
ATOM     35  C6  HNV d   1     -14.487   3.242 -10.621  0.00  0.00     0.043 C 
ATOM     36  H2  HNV d   1     -14.033   3.986 -11.292  0.00  0.00     0.078 H 
ATOM     37  H3  HNV d   1     -15.555   3.470 -10.491  0.00  0.00     0.078 H 
BRANCH  35  38
ATOM     38  O6  HNV d   1     -13.870   3.338  -9.387  0.00  0.00    -0.398 OA
ATOM     39  H1  HNV d   1     -13.987   4.216  -9.043  0.00  0.00     0.209 HD
ENDBRANCH  35  38
ENDBRANCH   1  35
BRANCH   4  40
ATOM     40  O3  HNV d   1     -15.358  -1.563 -10.191  0.00  0.00    -0.390 OA
ATOM     41  H8  HNV d   1     -15.165  -2.404 -10.588  0.00  0.00     0.210 HD
ENDBRANCH   4  40
BRANCH   3  42
ATOM     42  O4  HNV d   1     -16.459   1.059 -10.350  0.00  0.00    -0.390 OA
ATOM     43  H6  HNV d   1     -16.594   1.892  -9.914  0.00  0.00     0.210 HD
ENDBRANCH   3  42
TORSDOF 11
