REMARK  10 active torsions:
REMARK  status: ('A' for Active; 'I' for Inactive)
REMARK    1  A    between atoms: C6_2  and  O6_1 
REMARK    2  A    between atoms: C5_3  and  C6_2 
REMARK    3  A    between atoms: C4_5  and  O4_6 
REMARK    4  A    between atoms: C3_7  and  O3_8 
REMARK    5  A    between atoms: C2_9  and  O2_10 
REMARK    6  A    between atoms: C7_12  and  O7_11 
REMARK    7  A    between atoms: C8_13  and  C7_12 
REMARK    8  A    between atoms: C10_15  and  C9_14 
REMARK    9  A    between atoms: O1_19  and  C13_18 
REMARK   10  A    between atoms: O1_19  and  C1_20 
ROOT
ATOM      1  C5  HNW d   1      16.654   1.005  11.368  0.00  0.00     0.089 C 
ATOM      2  O5  HNW d   1      15.369   0.342  11.644  0.00  0.00    -0.348 OA
ATOM      3  C4  HNW d   1      17.494   0.188  10.369  0.00  0.00     0.090 C 
ATOM      4  C3  HNW d   1      17.590  -1.168  10.777  0.00  0.00     0.092 C 
ATOM      5  C2  HNW d   1      16.268  -1.786  11.021  0.00  0.00     0.110 C 
ATOM      6  C1  HNW d   1      15.480  -0.981  12.077  0.00  0.00     0.164 C 
ATOM      7  H4  HNW d   1      17.224   1.069  12.307  0.00  0.00     0.090 H 
ATOM      8  H5  HNW d   1      17.025   0.226   9.374  0.00  0.00     0.091 H 
ATOM      9  H7  HNW d   1      18.156  -1.189  11.720  0.00  0.00     0.091 H 
ATOM     10  H9  HNW d   1      16.420  -2.808  11.398  0.00  0.00     0.094 H 
ATOM     11  H16 HNW d   1      14.473  -1.400  12.220  0.00  0.00     0.134 H 
ENDROOT
BRANCH   6  12
ATOM     12  O1  HNW d   1      16.218  -1.115  13.237  0.00  0.00    -0.318 OA
BRANCH  12  13
ATOM     13  C13 HNW d   1      15.792  -0.475  14.398  0.00  0.00     0.072 A 
ATOM     14  C14 HNW d   1      16.657  -0.466  15.416  0.00  0.00    -0.049 A 
ATOM     15  C15 HNW d   1      16.331   0.159  16.635  0.00  0.00    -0.062 A 
ATOM     16  H15 HNW d   1      17.622  -0.946  15.302  0.00  0.00     0.087 H 
ATOM     17  C10 HNW d   1      15.089   0.733  16.754  0.00  0.00     0.018 A 
ATOM     18  H14 HNW d   1      17.039   0.186  17.455  0.00  0.00     0.085 H 
ATOM     19  C11 HNW d   1      14.216   0.724  15.730  0.00  0.00    -0.062 A 
ATOM     20  C12 HNW d   1      14.546   0.106  14.523  0.00  0.00    -0.049 A 
ATOM     21  H18 HNW d   1      13.249   1.200  15.844  0.00  0.00     0.085 H 
ATOM     22  H17 HNW d   1      13.839   0.083  13.701  0.00  0.00     0.087 H 
BRANCH  17  23
ATOM     23  C9  HNW d   1      14.725   1.395  18.003  0.00  0.00    -0.065 C 
ATOM     24  C8  HNW d   1      14.440   1.921  19.058  0.00  0.00    -0.075 C 
BRANCH  24  25
ATOM     25  C7  HNW d   1      14.019   2.662  20.330  0.00  0.00     0.071 C 
ATOM     26  H12 HNW d   1      14.194   3.736  20.170  0.00  0.00     0.093 H 
ATOM     27  H13 HNW d   1      12.944   2.485  20.485  0.00  0.00     0.093 H 
BRANCH  25  28
ATOM     28  O7  HNW d   1      14.686   2.287  21.487  0.00  0.00    -0.389 OA
ATOM     29  H11 HNW d   1      15.617   2.444  21.380  0.00  0.00     0.210 HD
ENDBRANCH  25  28
ENDBRANCH  24  25
ENDBRANCH  17  23
ENDBRANCH  12  13
ENDBRANCH   6  12
BRANCH   5  30
ATOM     30  O2  HNW d   1      15.563  -1.847   9.856  0.00  0.00    -0.388 OA
ATOM     31  H10 HNW d   1      16.042  -2.370   9.224  0.00  0.00     0.210 HD
ENDBRANCH   5  30
BRANCH   1  32
ATOM     32  C6  HNW d   1      16.379   2.361  10.911  0.00  0.00     0.043 C 
ATOM     33  H2  HNW d   1      15.825   2.881  11.706  0.00  0.00     0.078 H 
ATOM     34  H3  HNW d   1      17.343   2.865  10.746  0.00  0.00     0.078 H 
BRANCH  32  35
ATOM     35  O6  HNW d   1      15.634   2.459   9.732  0.00  0.00    -0.398 OA
ATOM     36  H1  HNW d   1      15.506   3.375   9.515  0.00  0.00     0.209 HD
ENDBRANCH  32  35
ENDBRANCH   1  32
BRANCH   4  37
ATOM     37  O3  HNW d   1      18.298  -1.971   9.805  0.00  0.00    -0.390 OA
ATOM     38  H8  HNW d   1      18.343  -2.869  10.110  0.00  0.00     0.210 HD
ENDBRANCH   4  37
BRANCH   3  39
ATOM     39  O4  HNW d   1      18.783   0.805  10.315  0.00  0.00    -0.390 OA
ATOM     40  H6  HNW d   1      18.690   1.704  10.023  0.00  0.00     0.210 HD
ENDBRANCH   3  39
TORSDOF 10
