REMARK  9 active torsions:
REMARK  status: ('A' for Active; 'I' for Inactive)
REMARK    1  A    between atoms: O6_1  and  C6_2 
REMARK    2  A    between atoms: C6_2  and  C5_3 
REMARK    3  A    between atoms: C4_5  and  O4_6 
REMARK    4  A    between atoms: C3_7  and  O3_8 
REMARK    5  A    between atoms: C2_9  and  O2_10 
REMARK    6  A    between atoms: C1_11  and  O1_12 
REMARK    7  A    between atoms: O1_12  and  C7_13 
REMARK    8  A    between atoms: C7_13  and  C8_14 
REMARK    9  A    between atoms: C9_15  and  C10_16 
ROOT
ATOM      1  C5  FVQ d   1     -15.204   2.490 -11.506  0.00  0.00     0.089 C 
ATOM      2  O5  FVQ d   1     -13.729   2.232 -11.509  0.00  0.00    -0.348 OA
ATOM      3  C4  FVQ d   1     -15.988   1.395 -10.858  0.00  0.00     0.090 C 
ATOM      4  C3  FVQ d   1     -15.670   0.089 -11.438  0.00  0.00     0.092 C 
ATOM      5  C2  FVQ d   1     -14.187  -0.141 -11.547  0.00  0.00     0.110 C 
ATOM      6  C1  FVQ d   1     -13.446   1.010 -12.148  0.00  0.00     0.159 C 
ATOM      7  H4  FVQ d   1     -15.555   2.597 -12.543  0.00  0.00     0.090 H 
ATOM      8  H5  FVQ d   1     -15.670   1.345  -9.806  0.00  0.00     0.091 H 
ATOM      9  H7  FVQ d   1     -16.106   0.050 -12.447  0.00  0.00     0.091 H 
ATOM     10  H9  FVQ d   1     -14.024  -1.028 -12.177  0.00  0.00     0.094 H 
ATOM     11  H11 FVQ d   1     -12.365   0.818 -12.076  0.00  0.00     0.133 H 
ENDROOT
BRANCH   6  12
ATOM     12  O1  FVQ d   1     -13.817   1.090 -13.473  0.00  0.00    -0.347 OA
BRANCH  12  13
ATOM     13  C7  FVQ d   1     -13.069   2.018 -14.287  0.00  0.00     0.077 C 
ATOM     14  H12 FVQ d   1     -12.027   1.674 -14.359  0.00  0.00     0.094 H 
ATOM     15  H13 FVQ d   1     -13.095   3.011 -13.816  0.00  0.00     0.094 H 
BRANCH  13  16
ATOM     16  C8  FVQ d   1     -13.636   2.113 -15.637  0.00  0.00    -0.075 C 
ATOM     17  C9  FVQ d   1     -14.117   2.293 -16.722  0.00  0.00    -0.063 C 
BRANCH  17  18
ATOM     18  C10 FVQ d   1     -14.698   2.579 -18.073  0.00  0.00     0.035 A 
ATOM     19  C15 FVQ d   1     -13.836   3.159 -19.053  0.00  0.00    -0.062 A 
ATOM     20  C14 FVQ d   1     -14.375   3.450 -20.312  0.00  0.00    -0.065 A 
ATOM     21  H14 FVQ d   1     -12.796   3.368 -18.829  0.00  0.00     0.085 H 
ATOM     22  C13 FVQ d   1     -15.725   3.138 -20.546  0.00  0.00     0.002 A 
ATOM     23  H15 FVQ d   1     -13.767   3.904 -21.086  0.00  0.00     0.085 H 
ATOM     24  N12 FVQ d   1     -16.517   2.588 -19.580  0.00  0.00    -0.272 NA
ATOM     25  H16 FVQ d   1     -16.150   3.340 -21.523  0.00  0.00     0.114 H 
ATOM     26  C11 FVQ d   1     -16.019   2.304 -18.344  0.00  0.00     0.020 A 
ATOM     27  H17 FVQ d   1     -16.655   1.867 -17.583  0.00  0.00     0.117 H 
ENDBRANCH  17  18
ENDBRANCH  13  16
ENDBRANCH  12  13
ENDBRANCH   6  12
BRANCH   5  28
ATOM     28  O2  FVQ d   1     -13.657  -0.371 -10.286  0.00  0.00    -0.388 OA
ATOM     29  H10 FVQ d   1     -14.069  -1.138  -9.906  0.00  0.00     0.210 HD
ENDBRANCH   5  28
BRANCH   1  30
ATOM     30  C6  FVQ d   1     -15.385   3.732 -10.803  0.00  0.00     0.043 C 
ATOM     31  H2  FVQ d   1     -15.111   4.536 -11.502  0.00  0.00     0.078 H 
ATOM     32  H3  FVQ d   1     -16.455   3.806 -10.560  0.00  0.00     0.078 H 
BRANCH  30  33
ATOM     33  O6  FVQ d   1     -14.667   3.978  -9.589  0.00  0.00    -0.398 OA
ATOM     34  H1  FVQ d   1     -14.898   4.837  -9.254  0.00  0.00     0.209 HD
ENDBRANCH  30  33
ENDBRANCH   1  30
BRANCH   4  35
ATOM     35  O3  FVQ d   1     -16.212  -0.944 -10.673  0.00  0.00    -0.390 OA
ATOM     36  H8  FVQ d   1     -15.992  -1.779 -11.069  0.00  0.00     0.210 HD
ENDBRANCH   4  35
BRANCH   3  37
ATOM     37  O4  FVQ d   1     -17.414   1.757 -10.845  0.00  0.00    -0.390 OA
ATOM     38  H6  FVQ d   1     -17.530   2.563 -10.356  0.00  0.00     0.210 HD
ENDBRANCH   3  37
TORSDOF 9
