REMARK  10 active torsions:
REMARK  status: ('A' for Active; 'I' for Inactive)
REMARK    1  A    between atoms: O2_1  and  C2_2 
REMARK    2  A    between atoms: C3_3  and  O3_4 
REMARK    3  A    between atoms: C4_5  and  O4_6 
REMARK    4  A    between atoms: C5_7  and  C6_9 
REMARK    5  A    between atoms: C6_9  and  O6_10 
REMARK    6  A    between atoms: C1_11  and  O1_12 
REMARK    7  A    between atoms: O1_12  and  C7_13 
REMARK    8  A    between atoms: C7_13  and  C8_14 
REMARK    9  A    between atoms: C9_15  and  C10_16 
REMARK   10  A    between atoms: C13_19  and  C16_22 
ROOT
ATOM      1  C7  FYZ d   1       4.667 -12.638 -14.876  0.00  0.00     0.077 C 
ATOM      2  H12 FYZ d   1       5.663 -12.213 -14.685  0.00  0.00     0.094 H 
ATOM      3  H13 FYZ d   1       3.900 -11.873 -14.689  0.00  0.00     0.094 H 
ENDROOT
BRANCH   1   4
ATOM      4  O1  FYZ d   1       4.452 -13.741 -13.964  0.00  0.00    -0.347 OA
BRANCH   4   5
ATOM      5  C1  FYZ d   1       3.766 -13.268 -12.800  0.00  0.00     0.159 C 
ATOM      6  C2  FYZ d   1       3.925 -14.350 -11.751  0.00  0.00     0.110 C 
ATOM      7  C3  FYZ d   1       3.212 -15.636 -12.145  0.00  0.00     0.092 C 
ATOM      8  H2  FYZ d   1       4.994 -14.567 -11.610  0.00  0.00     0.094 H 
ATOM      9  C4  FYZ d   1       1.754 -15.341 -12.491  0.00  0.00     0.090 C 
ATOM     10  H3  FYZ d   1       3.707 -16.045 -13.038  0.00  0.00     0.091 H 
ATOM     11  C5  FYZ d   1       1.674 -14.208 -13.537  0.00  0.00     0.089 C 
ATOM     12  H5  FYZ d   1       1.243 -14.999 -11.579  0.00  0.00     0.091 H 
ATOM     13  O5  FYZ d   1       2.379 -13.056 -13.098  0.00  0.00    -0.348 OA
ATOM     14  H7  FYZ d   1       2.125 -14.569 -14.473  0.00  0.00     0.090 H 
ATOM     15  H11 FYZ d   1       4.213 -12.327 -12.448  0.00  0.00     0.133 H 
BRANCH   6  16
ATOM     16  O2  FYZ d   1       3.366 -13.832 -10.524  0.00  0.00    -0.388 OA
ATOM     17  H1  FYZ d   1       3.474 -14.474  -9.832  0.00  0.00     0.210 HD
ENDBRANCH   6  16
BRANCH   7  18
ATOM     18  O3  FYZ d   1       3.289 -16.624 -11.094  0.00  0.00    -0.390 OA
ATOM     19  H4  FYZ d   1       4.200 -16.826 -10.917  0.00  0.00     0.210 HD
ENDBRANCH   7  18
BRANCH   9  20
ATOM     20  O4  FYZ d   1       1.109 -16.521 -12.940  0.00  0.00    -0.390 OA
ATOM     21  H6  FYZ d   1       0.204 -16.325 -13.152  0.00  0.00     0.210 HD
ENDBRANCH   9  20
BRANCH  11  22
ATOM     22  C6  FYZ d   1       0.234 -13.804 -13.807  0.00  0.00     0.043 C 
ATOM     23  H8  FYZ d   1      -0.323 -14.687 -14.154  0.00  0.00     0.078 H 
ATOM     24  H9  FYZ d   1       0.223 -13.032 -14.591  0.00  0.00     0.078 H 
BRANCH  22  25
ATOM     25  O6  FYZ d   1      -0.406 -13.286 -12.644  0.00  0.00    -0.398 OA
ATOM     26  H10 FYZ d   1      -1.301 -13.047 -12.856  0.00  0.00     0.209 HD
ENDBRANCH  22  25
ENDBRANCH  11  22
ENDBRANCH   4   5
ENDBRANCH   1   4
BRANCH   1  27
ATOM     27  C8  FYZ d   1       4.592 -13.044 -16.293  0.00  0.00    -0.075 C 
ATOM     28  C9  FYZ d   1       4.540 -13.369 -17.427  0.00  0.00    -0.065 C 
BRANCH  28  29
ATOM     29  C10 FYZ d   1       4.512 -13.781 -18.659  0.00  0.00     0.017 A 
ATOM     30  C11 FYZ d   1       5.439 -14.757 -19.046  0.00  0.00    -0.064 A 
ATOM     31  C12 FYZ d   1       5.435 -15.249 -20.356  0.00  0.00    -0.071 A 
ATOM     32  H14 FYZ d   1       6.161 -15.132 -18.329  0.00  0.00     0.085 H 
ATOM     33  C13 FYZ d   1       4.499 -14.783 -21.272  0.00  0.00    -0.026 A 
ATOM     34  H15 FYZ d   1       6.162 -15.994 -20.657  0.00  0.00     0.084 H 
ATOM     35  C14 FYZ d   1       3.594 -13.782 -20.892  0.00  0.00    -0.071 A 
ATOM     36  C15 FYZ d   1       3.583 -13.285 -19.579  0.00  0.00    -0.064 A 
ATOM     37  H16 FYZ d   1       2.895 -13.387 -21.620  0.00  0.00     0.084 H 
ATOM     38  H17 FYZ d   1       2.865 -12.528 -19.283  0.00  0.00     0.085 H 
BRANCH  33  39
ATOM     39  C16 FYZ d   1       4.559 -15.308 -22.674  0.00  0.00    -0.026 A 
ATOM     40  C21 FYZ d   1       5.665 -16.067 -23.052  0.00  0.00    -0.072 A 
ATOM     41  C20 FYZ d   1       5.756 -16.560 -24.362  0.00  0.00    -0.082 A 
ATOM     42  H18 FYZ d   1       6.452 -16.276 -22.336  0.00  0.00     0.084 H 
ATOM     43  C19 FYZ d   1       4.738 -16.260 -25.265  0.00  0.00    -0.083 A 
ATOM     44  H19 FYZ d   1       6.603 -17.164 -24.667  0.00  0.00     0.083 H 
ATOM     45  C18 FYZ d   1       3.641 -15.490 -24.900  0.00  0.00    -0.082 A 
ATOM     46  H20 FYZ d   1       4.804 -16.637 -26.279  0.00  0.00     0.083 H 
ATOM     47  C17 FYZ d   1       3.558 -15.001 -23.589  0.00  0.00    -0.072 A 
ATOM     48  H21 FYZ d   1       2.860 -15.270 -25.619  0.00  0.00     0.083 H 
ATOM     49  H22 FYZ d   1       2.717 -14.386 -23.290  0.00  0.00     0.084 H 
ENDBRANCH  33  39
ENDBRANCH  28  29
ENDBRANCH   1  27
TORSDOF 10
