REMARK  17 active torsions:
REMARK  status: ('A' for Active; 'I' for Inactive)
REMARK    1  A    between atoms: C14_1  and  C15_3 
REMARK    2  A    between atoms: C14_1  and  C13_6 
REMARK    3  A    between atoms: C15_3  and  O8_4 
REMARK    4  A    between atoms: O8_4  and  C16_5 
REMARK    5  A    between atoms: C13_6  and  C12_7 
REMARK    6  A    between atoms: C12_7  and  C11_8 
REMARK    7  A    between atoms: C11_8  and  C10_9 
REMARK    8  A    between atoms: C10_9  and  C9_10 
REMARK    9  A    between atoms: C9_10  and  C8_11 
REMARK   10  A    between atoms: C8_11  and  C7_12 
REMARK   11  A    between atoms: C7_12  and  O1_13 
REMARK   12  A    between atoms: O1_13  and  C1_14 
REMARK   13  A    between atoms: C2_15  and  O2_16 
REMARK   14  A    between atoms: C3_17  and  O3_18 
REMARK   15  A    between atoms: C4_19  and  O4_20 
REMARK   16  A    between atoms: C5_21  and  C6_23 
REMARK   17  A    between atoms: C6_23  and  O6_24 
ROOT
ATOM      1  C8  XNS d   1      15.320 -66.050  22.222  0.00  0.00    -0.045 C 
ATOM      2  H16 XNS d   1      14.446 -66.589  22.615  0.00  0.00     0.036 H 
ATOM      3  H17 XNS d   1      15.290 -66.056  21.122  0.00  0.00     0.036 H 
ENDROOT
BRANCH   1   4
ATOM      4  C9  XNS d   1      16.602 -66.754  22.696  0.00  0.00    -0.063 C 
ATOM      5  H14 XNS d   1      16.641 -66.694  23.794  0.00  0.00     0.033 H 
ATOM      6  H15 XNS d   1      16.548 -67.809  22.389  0.00  0.00     0.033 H 
BRANCH   4   7
ATOM      7  C10 XNS d   1      17.906 -66.157  22.136  0.00  0.00    -0.065 C 
ATOM      8  H12 XNS d   1      17.959 -66.322  21.050  0.00  0.00     0.033 H 
ATOM      9  H13 XNS d   1      17.946 -65.078  22.346  0.00  0.00     0.033 H 
BRANCH   7  10
ATOM     10  C11 XNS d   1      19.081 -66.875  22.837  0.00  0.00    -0.065 C 
ATOM     11  H10 XNS d   1      19.006 -66.696  23.920  0.00  0.00     0.033 H 
ATOM     12  H11 XNS d   1      19.003 -67.954  22.638  0.00  0.00     0.033 H 
BRANCH  10  13
ATOM     13  C12 XNS d   1      20.452 -66.386  22.353  0.00  0.00    -0.065 C 
ATOM     14  H8  XNS d   1      20.490 -65.293  22.469  0.00  0.00     0.033 H 
ATOM     15  H9  XNS d   1      21.226 -66.849  22.983  0.00  0.00     0.033 H 
BRANCH  13  16
ATOM     16  C13 XNS d   1      20.756 -66.728  20.882  0.00  0.00    -0.057 C 
ATOM     17  H6  XNS d   1      19.975 -66.312  20.229  0.00  0.00     0.033 H 
ATOM     18  H7  XNS d   1      21.734 -66.315  20.593  0.00  0.00     0.033 H 
BRANCH  16  19
ATOM     19  C14 XNS d   1      20.777 -68.268  20.767  0.00  0.00     0.016 C 
ATOM     20  H1  XNS d   1      21.509 -68.658  21.489  0.00  0.00     0.048 H 
ATOM     21  H2  XNS d   1      19.776 -68.647  21.019  0.00  0.00     0.048 H 
BRANCH  19  22
ATOM     22  C15 XNS d   1      21.156 -68.792  19.358  0.00  0.00     0.258 C 
ATOM     23  O7  XNS d   1      20.903 -68.154  18.335  0.00  0.00    -0.265 OA
BRANCH  22  24
ATOM     24  O8  XNS d   1      21.815 -69.993  19.354  0.00  0.00    -0.326 OA
BRANCH  24  25
ATOM     25  C16 XNS d   1      22.147 -70.398  18.020  0.00  0.00     0.013 C 
ATOM     26  H3  XNS d   1      22.674 -71.363  18.050  0.00  0.00     0.067 H 
ATOM     27  H4  XNS d   1      22.797 -69.640  17.558  0.00  0.00     0.067 H 
ATOM     28  H5  XNS d   1      21.226 -70.502  17.428  0.00  0.00     0.067 H 
ENDBRANCH  24  25
ENDBRANCH  22  24
ENDBRANCH  19  22
ENDBRANCH  16  19
ENDBRANCH  13  16
ENDBRANCH  10  13
ENDBRANCH   7  10
ENDBRANCH   4   7
ENDBRANCH   1   4
BRANCH   1  29
ATOM     29  C7  XNS d   1      15.281 -64.575  22.727  0.00  0.00     0.023 C 
ATOM     30  H18 XNS d   1      16.142 -64.020  22.326  0.00  0.00     0.074 H 
ATOM     31  H19 XNS d   1      15.313 -64.556  23.826  0.00  0.00     0.074 H 
BRANCH  29  32
ATOM     32  O1  XNS d   1      14.062 -63.980  22.266  0.00  0.00    -0.359 OA
BRANCH  32  33
ATOM     33  C1  XNS d   1      13.698 -62.598  22.593  0.00  0.00     0.158 C 
ATOM     34  C2  XNS d   1      12.379 -62.317  21.905  0.00  0.00     0.110 C 
ATOM     35  C3  XNS d   1      12.579 -62.381  20.395  0.00  0.00     0.092 C 
ATOM     36  H21 XNS d   1      11.628 -63.051  22.233  0.00  0.00     0.094 H 
ATOM     37  C4  XNS d   1      13.606 -61.315  20.055  0.00  0.00     0.090 C 
ATOM     38  H23 XNS d   1      12.927 -63.379  20.090  0.00  0.00     0.091 H 
ATOM     39  C5  XNS d   1      14.892 -61.575  20.766  0.00  0.00     0.089 C 
ATOM     40  H25 XNS d   1      13.222 -60.318  20.316  0.00  0.00     0.091 H 
ATOM     41  O5  XNS d   1      14.670 -61.564  22.190  0.00  0.00    -0.348 OA
ATOM     42  H27 XNS d   1      15.266 -62.568  20.475  0.00  0.00     0.090 H 
ATOM     43  H20 XNS d   1      13.567 -62.528  23.683  0.00  0.00     0.133 H 
BRANCH  34  44
ATOM     44  O2  XNS d   1      11.926 -60.999  22.163  0.00  0.00    -0.388 OA
ATOM     45  H22 XNS d   1      11.099 -60.857  21.718  0.00  0.00     0.210 HD
ENDBRANCH  34  44
BRANCH  35  46
ATOM     46  O3  XNS d   1      11.351 -62.051  19.720  0.00  0.00    -0.390 OA
ATOM     47  H24 XNS d   1      10.676 -62.670  19.973  0.00  0.00     0.210 HD
ENDBRANCH  35  46
BRANCH  37  48
ATOM     48  O4  XNS d   1      13.867 -61.412  18.649  0.00  0.00    -0.390 OA
ATOM     49  H26 XNS d   1      14.508 -60.756  18.401  0.00  0.00     0.210 HD
ENDBRANCH  37  48
BRANCH  39  50
ATOM     50  C6  XNS d   1      15.929 -60.527  20.369  0.00  0.00     0.043 C 
ATOM     51  H28 XNS d   1      16.072 -60.551  19.279  0.00  0.00     0.078 H 
ATOM     52  H29 XNS d   1      16.883 -60.751  20.869  0.00  0.00     0.078 H 
BRANCH  50  53
ATOM     53  O6  XNS d   1      15.486 -59.232  20.758  0.00  0.00    -0.398 OA
ATOM     54  H30 XNS d   1      16.137 -58.587  20.507  0.00  0.00     0.209 HD
ENDBRANCH  50  53
ENDBRANCH  39  50
ENDBRANCH  32  33
ENDBRANCH  29  32
ENDBRANCH   1  29
TORSDOF 17
