REMARK  12 active torsions:
REMARK  status: ('A' for Active; 'I' for Inactive)
REMARK    1  A    between atoms: O42_1  and  C41_2 
REMARK    2  A    between atoms: C41_2  and  C39_3 
REMARK    3  A    between atoms: N36_7  and  C35_8 
REMARK    4  A    between atoms: C35_8  and  C34_9 
REMARK    5  A    between atoms: C34_9  and  C16_10 
REMARK    6  A    between atoms: C13_13  and  O1_16 
REMARK    7  A    between atoms: O1_16  and  C1_17 
REMARK    8  A    between atoms: C2_18  and  O2_19 
REMARK    9  A    between atoms: C3_20  and  O3_21 
REMARK   10  A    between atoms: C4_22  and  O4_23 
REMARK   11  A    between atoms: C5_24  and  C6_26 
REMARK   12  A    between atoms: C6_26  and  O6_27 
ROOT
ATOM      1  C16 J73 d   1     -66.371 -18.187 -22.443  0.00  0.00    -0.056 A 
ATOM      2  C17 J73 d   1     -65.291 -17.563 -23.082  0.00  0.00    -0.074 A 
ATOM      3  C18 J73 d   1     -64.003 -18.096 -23.103  0.00  0.00    -0.050 A 
ATOM      4  C13 J73 d   1     -63.811 -19.319 -22.435  0.00  0.00     0.072 A 
ATOM      5  C14 J73 d   1     -64.938 -19.970 -21.790  0.00  0.00    -0.050 A 
ATOM      6  C15 J73 d   1     -66.182 -19.433 -21.781  0.00  0.00    -0.074 A 
ATOM      7  H9  J73 d   1     -65.466 -16.619 -23.585  0.00  0.00     0.084 H 
ATOM      8  H10 J73 d   1     -63.188 -17.592 -23.610  0.00  0.00     0.087 H 
ATOM      9  H11 J73 d   1     -64.778 -20.922 -21.297  0.00  0.00     0.087 H 
ATOM     10  H12 J73 d   1     -67.005 -19.935 -21.286  0.00  0.00     0.084 H 
ENDROOT
BRANCH   4  11
ATOM     11  O1  J73 d   1     -62.636 -19.988 -22.350  0.00  0.00    -0.318 OA
BRANCH  11  12
ATOM     12  C1  J73 d   1     -61.319 -19.426 -22.567  0.00  0.00     0.164 C 
ATOM     13  C2  J73 d   1     -60.520 -20.471 -21.842  0.00  0.00     0.110 C 
ATOM     14  C3  J73 d   1     -60.642 -20.256 -20.359  0.00  0.00     0.092 C 
ATOM     15  H14 J73 d   1     -60.946 -21.459 -22.070  0.00  0.00     0.094 H 
ATOM     16  C4  J73 d   1     -60.242 -18.965 -19.973  0.00  0.00     0.090 C 
ATOM     17  H16 J73 d   1     -61.704 -20.353 -20.089  0.00  0.00     0.091 H 
ATOM     18  C5  J73 d   1     -61.132 -17.945 -20.625  0.00  0.00     0.089 C 
ATOM     19  H18 J73 d   1     -59.202 -18.797 -20.291  0.00  0.00     0.091 H 
ATOM     20  O5  J73 d   1     -61.112 -18.142 -22.101  0.00  0.00    -0.348 OA
ATOM     21  H20 J73 d   1     -62.157 -18.065 -20.244  0.00  0.00     0.090 H 
ATOM     22  H13 J73 d   1     -61.078 -19.426 -23.640  0.00  0.00     0.134 H 
BRANCH  13  23
ATOM     23  O2  J73 d   1     -59.173 -20.454 -22.336  0.00  0.00    -0.388 OA
ATOM     24  H15 J73 d   1     -58.662 -21.113 -21.881  0.00  0.00     0.210 HD
ENDBRANCH  13  23
BRANCH  14  25
ATOM     25  O3  J73 d   1     -59.939 -21.296 -19.707  0.00  0.00    -0.390 OA
ATOM     26  H17 J73 d   1     -60.317 -22.133 -19.950  0.00  0.00     0.210 HD
ENDBRANCH  14  25
BRANCH  16  27
ATOM     27  O4  J73 d   1     -60.327 -18.836 -18.587  0.00  0.00    -0.390 OA
ATOM     28  H19 J73 d   1     -60.055 -17.962 -18.334  0.00  0.00     0.210 HD
ENDBRANCH  16  27
BRANCH  18  29
ATOM     29  C6  J73 d   1     -60.662 -16.564 -20.358  0.00  0.00     0.043 C 
ATOM     30  H21 J73 d   1     -60.714 -16.391 -19.273  0.00  0.00     0.078 H 
ATOM     31  H22 J73 d   1     -61.341 -15.869 -20.873  0.00  0.00     0.078 H 
BRANCH  29  32
ATOM     32  O6  J73 d   1     -59.368 -16.286 -20.774  0.00  0.00    -0.398 OA
ATOM     33  H23 J73 d   1     -59.155 -15.384 -20.563  0.00  0.00     0.209 HD
ENDBRANCH  29  32
ENDBRANCH  18  29
ENDBRANCH  11  12
ENDBRANCH   4  11
BRANCH   1  34
ATOM     34  C34 J73 d   1     -67.698 -17.558 -22.473  0.00  0.00    -0.025 C 
ATOM     35  H7  J73 d   1     -68.295 -18.056 -23.251  0.00  0.00     0.042 H 
ATOM     36  H8  J73 d   1     -68.172 -17.712 -21.492  0.00  0.00     0.042 H 
BRANCH  34  37
ATOM     37  C35 J73 d   1     -67.689 -16.076 -22.763  0.00  0.00     0.017 C 
ATOM     38  H5  J73 d   1     -66.711 -15.692 -22.439  0.00  0.00     0.067 H 
ATOM     39  H6  J73 d   1     -67.785 -15.962 -23.853  0.00  0.00     0.067 H 
BRANCH  37  40
ATOM     40  N36 J73 d   1     -68.695 -15.230 -22.160  0.00  0.00    -0.283 N 
ATOM     41  N37 J73 d   1     -68.862 -13.881 -22.412  0.00  0.00     0.004 NA
ATOM     42  N38 J73 d   1     -69.944 -13.435 -21.636  0.00  0.00    -0.161 NA
ATOM     43  C39 J73 d   1     -70.422 -14.502 -20.925  0.00  0.00     0.092 A 
ATOM     44  C40 J73 d   1     -69.635 -15.632 -21.253  0.00  0.00     0.022 A 
ATOM     45  H4  J73 d   1     -69.757 -16.638 -20.855  0.00  0.00     0.116 H 
BRANCH  43  46
ATOM     46  C41 J73 d   1     -71.571 -14.494 -19.957  0.00  0.00     0.059 C 
ATOM     47  H2  J73 d   1     -72.078 -15.465 -20.059  0.00  0.00     0.083 H 
ATOM     48  H3  J73 d   1     -71.136 -14.412 -18.950  0.00  0.00     0.083 H 
BRANCH  46  49
ATOM     49  O42 J73 d   1     -72.505 -13.567 -20.044  0.00  0.00    -0.395 OA
ATOM     50  H1  J73 d   1     -73.152 -13.706 -19.363  0.00  0.00     0.209 HD
ENDBRANCH  46  49
ENDBRANCH  43  46
ENDBRANCH  37  40
ENDBRANCH  34  37
ENDBRANCH   1  34
TORSDOF 12
