REMARK  2 active torsions:
REMARK  status: ('A' for Active; 'I' for Inactive)
REMARK    1  A    between atoms: C1_2  and  C2_4 
REMARK       I    between atoms: N6_5  and  C7_6 
REMARK    2  A    between atoms: C7_6  and  C8_8 
ROOT
ATOM      1  C2  N7P d   1      17.317  15.583  56.139  0.00  0.00     0.098 C 
ATOM      2  N6  N7P d   1      18.645  15.435  56.632  0.00  0.00    -0.338 N 
ATOM      3  C7  N7P d   1      19.388  16.475  57.378  0.00  0.00     0.216 C 
ATOM      4  O9  N7P d   1      20.537  16.237  57.754  0.00  0.00    -0.274 OA
ATOM      5  C5  N7P d   1      19.159  14.144  56.302  0.00  0.00    -0.001 C 
ATOM      6  C4  N7P d   1      18.219  13.570  55.298  0.00  0.00    -0.048 C 
ATOM      7  C3  N7P d   1      16.915  14.270  55.566  0.00  0.00    -0.035 C 
ATOM      8  H   N7P d   1      17.293  16.357  55.358  0.00  0.00     0.089 H 
ATOM      9  H   N7P d   1      19.196  13.507  57.198  0.00  0.00     0.064 H 
ATOM     10  H   N7P d   1      20.168  14.233  55.873  0.00  0.00     0.064 H 
ATOM     11  H   N7P d   1      18.114  12.484  55.439  0.00  0.00     0.035 H 
ATOM     12  H   N7P d   1      18.568  13.775  54.275  0.00  0.00     0.035 H 
ATOM     13  H   N7P d   1      16.348  14.408  54.634  0.00  0.00     0.036 H 
ATOM     14  H   N7P d   1      16.307  13.700  56.284  0.00  0.00     0.036 H 
ENDROOT
BRANCH   1  15
ATOM     15  C1  N7P d   1      16.394  15.963  57.230  0.00  0.00     0.196 C 
ATOM     16  O10 N7P d   1      16.545  15.585  58.454  0.00  0.00    -0.646 OA
ATOM     17  O11 N7P d   1      15.430  16.702  56.937  0.00  0.00    -0.646 OA
ENDBRANCH   1  15
BRANCH   3  18
ATOM     18  C8  N7P d   1      18.741  17.779  57.655  0.00  0.00    -0.003 C 
ATOM     19  H   N7P d   1      19.436  18.422  58.215  0.00  0.00     0.040 H 
ATOM     20  H   N7P d   1      17.831  17.617  58.251  0.00  0.00     0.040 H 
ATOM     21  H   N7P d   1      18.476  18.266  56.705  0.00  0.00     0.040 H 
ENDBRANCH   3  18
TORSDOF 2
