REMARK  11 active torsions:
REMARK  status: ('A' for Active; 'I' for Inactive)
REMARK    1  A    between atoms: N1_1  and  C2_2 
REMARK       I    between atoms: N1_1  and  C3_3 
REMARK    2  A    between atoms: N1_1  and  C4_4 
REMARK    3  A    between atoms: C3_3  and  C7_7 
REMARK    4  A    between atoms: C4_4  and  C9_9 
REMARK    5  A    between atoms: C7_7  and  N10_10 
REMARK    6  A    between atoms: C7_7  and  C11_11 
REMARK    7  A    between atoms: N10_10  and  S14_14 
REMARK    8  A    between atoms: C11_11  and  C15_15 
REMARK    9  A    between atoms: S14_14  and  C16_16 
REMARK       I    between atoms: C15_15  and  N19_19 
REMARK   10  A    between atoms: N19_19  and  C23_23 
REMARK   11  A    between atoms: C23_23  and  C26_26 
REMARK       I    between atoms: N33_33  and  C37_37 
REMARK       I    between atoms: C37_37  and  N38_38 
ROOT
ATOM      1  C7  N5N d   1      16.946 -15.160  22.165  0.00  0.00     0.105 C 
ATOM      2  H8  N5N d   1      17.973 -15.516  21.994  0.00  0.00     0.089 H 
ENDROOT
BRANCH   1   3
ATOM      3  C3  N5N d   1      16.879 -13.615  22.019  0.00  0.00     0.244 C 
ATOM      4  N1  N5N d   1      17.737 -12.975  21.127  0.00  0.00    -0.336 N 
ATOM      5  O8  N5N d   1      16.058 -12.975  22.691  0.00  0.00    -0.271 OA
BRANCH   4   6
ATOM      6  C2  N5N d   1      18.683 -13.722  20.352  0.00  0.00     0.015 A 
ATOM      7  C5  N5N d   1      20.070 -13.147  20.065  0.00  0.00    -0.044 A 
ATOM      8  C6  N5N d   1      19.920 -14.328  20.977  0.00  0.00    -0.044 A 
ATOM      9  H4  N5N d   1      20.355 -12.167  20.476  0.00  0.00     0.036 H 
ATOM     10  H5  N5N d   1      20.523 -13.274  19.071  0.00  0.00     0.036 H 
ATOM     11  H6  N5N d   1      20.268 -15.319  20.651  0.00  0.00     0.036 H 
ATOM     12  H7  N5N d   1      20.101 -14.213  22.056  0.00  0.00     0.036 H 
ATOM     13  H1  N5N d   1      18.145 -14.276  19.568  0.00  0.00     0.072 H 
ENDBRANCH   4   6
BRANCH   4  14
ATOM     14  C4  N5N d   1      17.659 -11.582  20.844  0.00  0.00     0.078 C 
ATOM     15  H2  N5N d   1      18.632 -11.168  20.540  0.00  0.00     0.081 H 
ATOM     16  H3  N5N d   1      17.267 -11.009  21.698  0.00  0.00     0.081 H 
BRANCH  14  17
ATOM     17  C9  N5N d   1      16.666 -11.627  19.679  0.00  0.00     0.191 C 
ATOM     18  O12 N5N d   1      16.590 -10.557  18.856  0.00  0.00    -0.647 OA
ATOM     19  O13 N5N d   1      15.920 -12.553  19.365  0.00  0.00    -0.647 OA
ENDBRANCH  14  17
ENDBRANCH   4  14
ENDBRANCH   1   3
BRANCH   1  20
ATOM     20  N10 N5N d   1      16.485 -15.646  23.411  0.00  0.00    -0.301 N 
ATOM     21  H9  N5N d   1      15.630 -15.325  23.819  0.00  0.00     0.173 HD
BRANCH  20  22
ATOM     22  S14 N5N d   1      17.412 -16.746  24.138  0.00  0.00     0.259 S 
ATOM     23  O17 N5N d   1      16.688 -17.072  25.291  0.00  0.00    -0.201 OA
ATOM     24  O18 N5N d   1      17.662 -17.684  23.135  0.00  0.00    -0.201 OA
BRANCH  22  25
ATOM     25  C16 N5N d   1      18.743 -15.826  24.575  0.00  0.00     0.080 A 
ATOM     26  C21 N5N d   1      20.040 -16.017  24.153  0.00  0.00    -0.050 A 
ATOM     27  C24 N5N d   1      21.057 -15.140  24.618  0.00  0.00    -0.025 A 
ATOM     28  H13 N5N d   1      20.282 -16.827  23.474  0.00  0.00     0.087 H 
ATOM     29  C27 N5N d   1      20.748 -14.080  25.510  0.00  0.00    -0.026 A 
ATOM     30  C28 N5N d   1      22.399 -15.294  24.212  0.00  0.00    -0.072 A 
ATOM     31  C25 N5N d   1      19.433 -13.899  25.925  0.00  0.00    -0.071 A 
ATOM     32  C31 N5N d   1      21.761 -13.202  25.970  0.00  0.00    -0.072 A 
ATOM     33  C22 N5N d   1      18.475 -14.750  25.465  0.00  0.00    -0.059 A 
ATOM     34  H17 N5N d   1      19.175 -13.094  26.603  0.00  0.00     0.084 H 
ATOM     35  H14 N5N d   1      17.453 -14.599  25.795  0.00  0.00     0.085 H 
ATOM     36  C35 N5N d   1      23.047 -13.379  25.547  0.00  0.00    -0.082 A 
ATOM     37  H24 N5N d   1      21.517 -12.396  26.652  0.00  0.00     0.084 H 
ATOM     38  C32 N5N d   1      23.363 -14.435  24.658  0.00  0.00    -0.082 A 
ATOM     39  H28 N5N d   1      23.827 -12.710  25.892  0.00  0.00     0.083 H 
ATOM     40  H25 N5N d   1      24.387 -14.564  24.326  0.00  0.00     0.083 H 
ATOM     41  H19 N5N d   1      22.668 -16.101  23.540  0.00  0.00     0.084 H 
ENDBRANCH  22  25
ENDBRANCH  20  22
ENDBRANCH   1  20
BRANCH   1  42
ATOM     42  C11 N5N d   1      15.977 -15.656  21.055  0.00  0.00     0.037 C 
ATOM     43  H10 N5N d   1      16.081 -16.748  20.971  0.00  0.00     0.051 H 
ATOM     44  H11 N5N d   1      16.272 -15.185  20.106  0.00  0.00     0.051 H 
BRANCH  42  45
ATOM     45  C15 N5N d   1      14.484 -15.331  21.312  0.00  0.00     0.220 C 
ATOM     46  N19 N5N d   1      13.887 -14.227  20.723  0.00  0.00    -0.361 N 
ATOM     47  H12 N5N d   1      14.449 -13.632  20.149  0.00  0.00     0.162 HD
ATOM     48  O20 N5N d   1      13.786 -16.085  22.030  0.00  0.00    -0.274 OA
BRANCH  46  49
ATOM     49  C23 N5N d   1      12.499 -13.898  20.899  0.00  0.00    -0.000 C 
ATOM     50  H15 N5N d   1      12.089 -14.572  21.665  0.00  0.00     0.064 H 
ATOM     51  H16 N5N d   1      11.988 -14.077  19.942  0.00  0.00     0.064 H 
BRANCH  49  52
ATOM     52  C26 N5N d   1      12.190 -12.450  21.333  0.00  0.00    -0.023 C 
ATOM     53  C29 N5N d   1      12.576 -12.316  22.809  0.00  0.00     0.016 C 
ATOM     54  N33 N5N d   1      12.438 -10.966  23.338  0.00  0.00    -0.218 N 
ATOM     55  H20 N5N d   1      13.626 -12.626  22.921  0.00  0.00     0.065 H 
ATOM     56  H21 N5N d   1      11.931 -12.985  23.397  0.00  0.00     0.065 H 
ATOM     57  C36 N5N d   1      13.038  -9.916  22.512  0.00  0.00     0.012 C 
ATOM     58  C37 N5N d   1      11.225 -10.771  24.116  0.00  0.00     0.667 C 
ATOM     59  C34 N5N d   1      12.688 -10.032  21.030  0.00  0.00    -0.049 C 
ATOM     60  H29 N5N d   1      14.132  -9.973  22.617  0.00  0.00     0.065 H 
ATOM     61  H30 N5N d   1      12.685  -8.941  22.878  0.00  0.00     0.065 H 
ATOM     62  C30 N5N d   1      12.971 -11.434  20.502  0.00  0.00    -0.057 C 
ATOM     63  H26 N5N d   1      11.620  -9.807  20.896  0.00  0.00     0.035 H 
ATOM     64  H27 N5N d   1      13.290  -9.307  20.462  0.00  0.00     0.035 H 
ATOM     65  H22 N5N d   1      12.658 -11.501  19.450  0.00  0.00     0.033 H 
ATOM     66  H23 N5N d   1      14.048 -11.646  20.579  0.00  0.00     0.033 H 
ATOM     67  N38 N5N d   1      10.460 -11.953  24.333  0.00  0.00    -0.235 N 
ATOM     68  N39 N5N d   1      10.886  -9.605  24.572  0.00  0.00    -0.235 N 
ATOM     69  H31 N5N d   1       9.585 -11.908  24.874  0.00  0.00     0.174 HD
ATOM     70  H32 N5N d   1      10.782 -12.853  23.949  0.00  0.00     0.174 HD
ATOM     71  H33 N5N d   1      11.480  -8.785  24.383  0.00  0.00     0.174 HD
ATOM     72  H34 N5N d   1      10.023  -9.499  25.124  0.00  0.00     0.174 HD
ATOM     73  H18 N5N d   1      11.114 -12.256  21.212  0.00  0.00     0.044 H 
ENDBRANCH  49  52
ENDBRANCH  46  49
ENDBRANCH  42  45
ENDBRANCH   1  42
TORSDOF 11
