REMARK  10 active torsions:
REMARK  status: ('A' for Active; 'I' for Inactive)
REMARK    1  A    between atoms: N3B_8  and  PG_1 
REMARK    2  A    between atoms: PB_5  and  N3B_8 
REMARK    3  A    between atoms: O3A_12  and  PB_5 
REMARK    4  A    between atoms: PA_9  and  O3A_12 
REMARK    5  A    between atoms: PA_9  and  O5'_13 
REMARK    6  A    between atoms: O5'_13  and  C5'_14 
REMARK    7  A    between atoms: C5'_14  and  C4'_15 
REMARK    8  A    between atoms: C3'_17  and  O3'_18 
REMARK    9  A    between atoms: C2'_19  and  O2'_20 
REMARK   10  A    between atoms: C1'_21  and  N9_22 
ROOT
ATOM      1  C4' ANP d   1     -23.935   0.641 -17.980  0.00  0.00     0.089 C 
ATOM      2  O4' ANP d   1     -23.255   1.014 -16.787  0.00  0.00    -0.353 OA
ATOM      3  C3' ANP d   1     -24.754   1.863 -18.372  0.00  0.00     0.091 C 
ATOM      4  C2' ANP d   1     -25.056   2.533 -17.043  0.00  0.00     0.105 C 
ATOM      5  C1' ANP d   1     -23.876   2.135 -16.167  0.00  0.00     0.139 C 
ATOM      6  H4  ANP d   1     -24.610  -0.205 -17.785  0.00  0.00     0.090 H 
ATOM      7  H5  ANP d   1     -24.143   2.540 -18.987  0.00  0.00     0.091 H 
ATOM      8  H7  ANP d   1     -25.134   3.624 -17.161  0.00  0.00     0.093 H 
ATOM      9  H9  ANP d   1     -24.216   1.875 -15.153  0.00  0.00     0.122 H 
ENDROOT
BRANCH   1  10
ATOM     10  C5' ANP d   1     -22.921   0.221 -19.037  0.00  0.00     0.058 C 
ATOM     11  H2  ANP d   1     -22.349  -0.645 -18.673  0.00  0.00     0.079 H 
ATOM     12  H3  ANP d   1     -23.448  -0.051 -19.963  0.00  0.00     0.079 H 
BRANCH  10  13
ATOM     13  O5' ANP d   1     -22.036   1.298 -19.295  0.00  0.00    -0.287 OA
BRANCH  13  14
ATOM     14  PA  ANP d   1     -21.690   1.730 -20.800  0.00  0.00     0.417 P 
ATOM     15  O1A ANP d   1     -22.968   1.925 -21.576  0.00  0.00    -0.624 OA
ATOM     16  O2A ANP d   1     -20.655   2.825 -20.730  0.00  0.00    -0.624 OA
BRANCH  14  17
ATOM     17  O3A ANP d   1     -20.982   0.368 -21.289  0.00  0.00    -0.186 OA
BRANCH  17  18
ATOM     18  PB  ANP d   1     -20.366   0.199 -22.766  0.00  0.00     0.379 P 
ATOM     19  O1B ANP d   1     -20.066  -1.233 -22.966  0.00  0.00    -0.629 OA
ATOM     20  O2B ANP d   1     -18.979   1.011 -22.829  0.00  0.00    -0.629 OA
BRANCH  18  21
ATOM     21  N3B ANP d   1     -21.558   0.874 -23.823  0.00  0.00    -0.218 N 
ATOM     22  H1  ANP d   1     -21.970   1.748 -23.567  0.00  0.00     0.179 HD
BRANCH  21  23
ATOM     23  PG  ANP d   1     -22.081   0.134 -25.291  0.00  0.00     0.381 P 
ATOM     24  O1G ANP d   1     -22.975  -1.174 -25.072  0.00  0.00    -0.622 OA
ATOM     25  O2G ANP d   1     -22.892   1.288 -26.073  0.00  0.00    -0.622 OA
ATOM     26  O3G ANP d   1     -20.856  -0.277 -26.033  0.00  0.00    -0.622 OA
ENDBRANCH  21  23
ENDBRANCH  18  21
ENDBRANCH  17  18
ENDBRANCH  14  17
ENDBRANCH  13  14
ENDBRANCH  10  13
ENDBRANCH   1  10
BRANCH   3  27
ATOM     27  O3' ANP d   1     -25.910   1.502 -19.141  0.00  0.00    -0.390 OA
ATOM     28  H6  ANP d   1     -26.396   2.286 -19.367  0.00  0.00     0.210 HD
ENDBRANCH   3  27
BRANCH   5  29
ATOM     29  N9  ANP d   1     -22.919   3.261 -16.110  0.00  0.00    -0.294 N 
ATOM     30  C8  ANP d   1     -21.972   3.566 -17.018  0.00  0.00     0.071 A 
ATOM     31  N7  ANP d   1     -21.285   4.659 -16.634  0.00  0.00    -0.236 NA
ATOM     32  H10 ANP d   1     -21.788   3.007 -17.934  0.00  0.00     0.144 H 
ATOM     33  C5  ANP d   1     -21.795   5.071 -15.464  0.00  0.00     0.149 A 
ATOM     34  C6  ANP d   1     -21.529   6.161 -14.503  0.00  0.00     0.155 A 
ATOM     35  C4  ANP d   1     -22.876   4.143 -15.128  0.00  0.00     0.167 A 
ATOM     36  N6  ANP d   1     -20.563   7.079 -14.718  0.00  0.00    -0.382 N 
ATOM     37  N1  ANP d   1     -22.298   6.214 -13.393  0.00  0.00    -0.222 NA
ATOM     38  H11 ANP d   1     -20.401   7.827 -14.029  0.00  0.00     0.157 HD
ATOM     39  H12 ANP d   1     -19.988   7.031 -15.571  0.00  0.00     0.157 HD
ATOM     40  C2  ANP d   1     -23.283   5.324 -13.160  0.00  0.00     0.091 A 
ATOM     41  N3  ANP d   1     -23.576   4.304 -13.985  0.00  0.00    -0.222 NA
ATOM     42  H13 ANP d   1     -23.872   5.437 -12.257  0.00  0.00     0.146 H 
ENDBRANCH   5  29
BRANCH   4  43
ATOM     43  O2' ANP d   1     -26.232   2.019 -16.428  0.00  0.00    -0.388 OA
ATOM     44  H8  ANP d   1     -26.976   2.159 -17.002  0.00  0.00     0.210 HD
ENDBRANCH   4  43
TORSDOF 10
