REMARK  5 active torsions:
REMARK  status: ('A' for Active; 'I' for Inactive)
REMARK    1  A    between atoms: C3_3  and  O3_10 
REMARK    2  A    between atoms: C4_4  and  O4_12 
REMARK    3  A    between atoms: C5_5  and  C6_6 
REMARK    4  A    between atoms: C6_6  and  O6_14 
REMARK    5  A    between atoms: C2_13  and  O2_11 
ROOT
ATOM      1  C1  MVL d   1       2.840 -31.805 -19.899  0.00  0.00     0.138 A 
ATOM      2  N10 MVL d   1       4.166 -31.929 -19.744  0.00  0.00    -0.332 N 
ATOM      3  C3  MVL d   1       2.733 -30.042 -18.203  0.00  0.00     0.093 C 
ATOM      4  C4  MVL d   1       4.209 -29.760 -18.524  0.00  0.00     0.085 C 
ATOM      5  C5  MVL d   1       5.002 -30.995 -18.929  0.00  0.00     0.065 C 
ATOM      6  C7  MVL d   1       3.499 -33.617 -20.967  0.00  0.00     0.019 A 
ATOM      7  C8  MVL d   1       4.582 -33.043 -20.407  0.00  0.00    -0.001 A 
ATOM      8  N1  MVL d   1       2.441 -32.839 -20.641  0.00  0.00    -0.243 NA
ATOM      9  C2  MVL d   1       2.027 -30.676 -19.381  0.00  0.00     0.119 C 
ATOM     10  H1  MVL d   1       2.241 -29.089 -17.960  0.00  0.00     0.091 H 
ATOM     11  H2  MVL d   1       4.677 -29.329 -17.626  0.00  0.00     0.090 H 
ATOM     12  H3  MVL d   1       5.863 -30.674 -19.534  0.00  0.00     0.080 H 
ATOM     13  H6  MVL d   1       3.479 -34.528 -21.564  0.00  0.00     0.117 H 
ATOM     14  H7  MVL d   1       5.607 -33.405 -20.473  0.00  0.00     0.113 H 
ATOM     15  H11 MVL d   1       1.920 -29.928 -20.181  0.00  0.00     0.099 H 
ENDROOT
BRANCH   5  16
ATOM     16  C6  MVL d   1       5.516 -31.726 -17.683  0.00  0.00     0.038 C 
ATOM     17  H4  MVL d   1       4.655 -32.004 -17.057  0.00  0.00     0.077 H 
ATOM     18  H5  MVL d   1       6.174 -31.046 -17.121  0.00  0.00     0.077 H 
BRANCH  16  19
ATOM     19  O6  MVL d   1       6.248 -32.908 -18.007  0.00  0.00    -0.399 OA
ATOM     20  H12 MVL d   1       5.686 -33.505 -18.487  0.00  0.00     0.209 HD
ENDBRANCH  16  19
ENDBRANCH   5  16
BRANCH   4  21
ATOM     21  O4  MVL d   1       4.284 -28.817 -19.592  0.00  0.00    -0.391 OA
ATOM     22  H10 MVL d   1       3.794 -28.037 -19.359  0.00  0.00     0.210 HD
ENDBRANCH   4  21
BRANCH   3  23
ATOM     23  O3  MVL d   1       2.614 -30.924 -17.092  0.00  0.00    -0.390 OA
ATOM     24  H8  MVL d   1       3.023 -30.529 -16.331  0.00  0.00     0.210 HD
ENDBRANCH   3  23
BRANCH   9  25
ATOM     25  O2  MVL d   1       0.730 -31.092 -18.974  0.00  0.00    -0.385 OA
ATOM     26  H9  MVL d   1       0.281 -31.491 -19.710  0.00  0.00     0.210 HD
ENDBRANCH   9  25
TORSDOF 5
