REMARK  2 active torsions:
REMARK  status: ('A' for Active; 'I' for Inactive)
REMARK    1  A    between atoms: C7_1  and  C8_3 
REMARK       I    between atoms: C7_1  and  N_4 
REMARK    2  A    between atoms: CA_5  and  C_9 
ROOT
ATOM      1  C7  N8P d   1     -93.614   9.581 -19.785  0.00  0.00     0.216 C 
ATOM      2  O9  N8P d   1     -92.432   9.750 -20.118  0.00  0.00    -0.274 OA
ATOM      3  N   N8P d   1     -94.129   8.262 -19.664  0.00  0.00    -0.338 N 
ATOM      4  CA  N8P d   1     -95.468   7.941 -19.257  0.00  0.00     0.098 C 
ATOM      5  CB  N8P d   1     -95.469   6.459 -19.016  0.00  0.00    -0.035 C 
ATOM      6  CG  N8P d   1     -94.385   5.931 -19.863  0.00  0.00    -0.048 C 
ATOM      7  CD  N8P d   1     -93.365   7.046 -19.891  0.00  0.00    -0.001 C 
ATOM      8  H   N8P d   1     -95.690   8.469 -18.318  0.00  0.00     0.089 H 
ATOM      9  H   N8P d   1     -96.435   6.021 -19.308  0.00  0.00     0.036 H 
ATOM     10  H   N8P d   1     -95.272   6.240 -17.956  0.00  0.00     0.036 H 
ATOM     11  H   N8P d   1     -94.752   5.712 -20.876  0.00  0.00     0.035 H 
ATOM     12  H   N8P d   1     -93.955   5.019 -19.424  0.00  0.00     0.035 H 
ATOM     13  H   N8P d   1     -92.617   6.905 -19.097  0.00  0.00     0.064 H 
ATOM     14  H   N8P d   1     -92.860   7.083 -20.868  0.00  0.00     0.064 H 
ENDROOT
BRANCH   1  15
ATOM     15  C8  N8P d   1     -94.509  10.726 -19.499  0.00  0.00    -0.003 C 
ATOM     16  H   N8P d   1     -95.506  10.352 -19.224  0.00  0.00     0.040 H 
ATOM     17  H   N8P d   1     -94.589  11.361 -20.393  0.00  0.00     0.040 H 
ATOM     18  H   N8P d   1     -94.096  11.315 -18.667  0.00  0.00     0.040 H 
ENDBRANCH   1  15
BRANCH   4  19
ATOM     19  C   N8P d   1     -96.534   8.313 -20.261  0.00  0.00     0.196 C 
ATOM     20  O   N8P d   1     -96.203   8.626 -21.436  0.00  0.00    -0.646 OA
ATOM     21  OXT N8P d   1     -97.741   8.287 -19.910  0.00  0.00    -0.646 OA
ENDBRANCH   4  19
TORSDOF 2
