REMARK  5 active torsions:
REMARK  status: ('A' for Active; 'I' for Inactive)
REMARK    1  A    between atoms: O4_1  and  C4_2 
REMARK    2  A    between atoms: C3_3  and  O3_5 
REMARK    3  A    between atoms: C5_4  and  C6_13 
REMARK    4  A    between atoms: C7_9  and  C8_10 
REMARK    5  A    between atoms: C6_13  and  O6_14 
ROOT
ATOM      1  C4  NGW d   1      15.318  29.814  25.709  0.00  0.00     0.089 C 
ATOM      2  C3  NGW d   1      14.936  29.245  24.349  0.00  0.00     0.093 C 
ATOM      3  C5  NGW d   1      16.718  30.487  25.609  0.00  0.00     0.087 C 
ATOM      4  C2  NGW d   1      16.026  28.239  23.943  0.00  0.00     0.163 C 
ATOM      5  N2  NGW d   1      15.927  27.829  22.527  0.00  0.00    -0.052 N 
ATOM      6  C1  NGW d   1      17.492  28.771  24.072  0.00  0.00     0.115 C 
ATOM      7  C7  NGW d   1      16.334  28.953  21.668  0.00  0.00     0.145 C 
ATOM      8  S1  NGW d   1      17.656  29.798  22.556  0.00  0.00    -0.102 SA
ATOM      9  O5  NGW d   1      17.718  29.525  25.262  0.00  0.00    -0.363 OA
ATOM     10  H2  NGW d   1      15.338  29.010  26.460  0.00  0.00     0.091 H 
ATOM     11  H3  NGW d   1      14.842  30.049  23.604  0.00  0.00     0.090 H 
ATOM     12  H4  NGW d   1      16.654  31.248  24.817  0.00  0.00     0.090 H 
ATOM     13  H6  NGW d   1      15.909  27.355  24.588  0.00  0.00     0.094 H 
ATOM     14  H7  NGW d   1      14.976  27.571  22.316  0.00  0.00     0.279 HD
ATOM     15  H8  NGW d   1      16.533  27.041  22.361  0.00  0.00     0.279 HD
ATOM     16  H9  NGW d   1      18.206  27.934  24.052  0.00  0.00     0.104 H 
ATOM     17  H10 NGW d   1      15.486  29.648  21.573  0.00  0.00     0.101 H 
ENDROOT
BRANCH   3  18
ATOM     18  C6  NGW d   1      17.252  31.169  26.891  0.00  0.00     0.043 C 
ATOM     19  H14 NGW d   1      16.615  32.030  27.142  0.00  0.00     0.078 H 
ATOM     20  H15 NGW d   1      18.283  31.513  26.722  0.00  0.00     0.078 H 
BRANCH  18  21
ATOM     21  O6  NGW d   1      17.233  30.229  27.973  0.00  0.00    -0.398 OA
ATOM     22  H16 NGW d   1      17.784  29.486  27.755  0.00  0.00     0.209 HD
ENDBRANCH  18  21
ENDBRANCH   3  18
BRANCH   1  23
ATOM     23  O4  NGW d   1      14.368  30.806  26.080  0.00  0.00    -0.390 OA
ATOM     24  H1  NGW d   1      14.601  31.165  26.928  0.00  0.00     0.210 HD
ENDBRANCH   1  23
BRANCH   2  25
ATOM     25  O3  NGW d   1      13.705  28.515  24.469  0.00  0.00    -0.391 OA
ATOM     26  H5  NGW d   1      13.465  28.159  23.621  0.00  0.00     0.210 HD
ENDBRANCH   2  25
BRANCH   7  27
ATOM     27  C8  NGW d   1      16.700  28.504  20.253  0.00  0.00    -0.041 C 
ATOM     28  H11 NGW d   1      16.995  29.379  19.656  0.00  0.00     0.031 H 
ATOM     29  H12 NGW d   1      15.831  28.018  19.786  0.00  0.00     0.031 H 
ATOM     30  H13 NGW d   1      17.537  27.792  20.299  0.00  0.00     0.031 H 
ENDBRANCH   7  27
TORSDOF 5
