REMARK  9 active torsions:
REMARK  status: ('A' for Active; 'I' for Inactive)
REMARK    1  A    between atoms: CAH_1  and  CAG_2 
REMARK       I    between atoms: CAG_2  and  NAI_4 
REMARK    2  A    between atoms: NAI_4  and  CAB_5 
REMARK    3  A    between atoms: CAC_6  and  OAJ_7 
REMARK    4  A    between atoms: CAD_8  and  OAK_9 
REMARK    5  A    between atoms: CAE_10  and  CAF_11 
REMARK    6  A    between atoms: CAF_11  and  OAM_12 
REMARK    7  A    between atoms: NAY_15  and  OAQ_16 
REMARK    8  A    between atoms: OAQ_16  and  CAP_17 
REMARK       I    between atoms: CAP_17  and  NAO_19 
REMARK    9  A    between atoms: NAO_19  and  CAS_20 
ROOT
ATOM      1  CAB OAN d   1      15.767  27.932  24.374  0.00  0.00     0.105 C 
ATOM      2  CAC OAN d   1      14.826  29.154  24.597  0.00  0.00     0.089 C 
ATOM      3  CAD OAN d   1      15.111  29.754  25.962  0.00  0.00     0.090 C 
ATOM      4  CAE OAN d   1      16.517  30.337  25.887  0.00  0.00     0.094 C 
ATOM      5  OAL OAN d   1      17.489  29.222  25.696  0.00  0.00    -0.324 OA
ATOM      6  CAA OAN d   1      17.084  28.071  25.121  0.00  0.00     0.194 C 
ATOM      7  NAY OAN d   1      17.870  27.035  25.218  0.00  0.00    -0.100 NA
ATOM      8  H5  OAN d   1      15.265  27.040  24.777  0.00  0.00     0.090 H 
ATOM      9  H6  OAN d   1      15.010  29.909  23.818  0.00  0.00     0.090 H 
ATOM     10  H8  OAN d   1      15.036  28.990  26.750  0.00  0.00     0.091 H 
ATOM     11  H10 OAN d   1      16.567  31.044  25.046  0.00  0.00     0.091 H 
ENDROOT
BRANCH   1  12
ATOM     12  NAI OAN d   1      15.924  27.741  22.932  0.00  0.00    -0.347 N 
ATOM     13  CAG OAN d   1      16.678  28.557  22.185  0.00  0.00     0.214 C 
ATOM     14  OAN OAN d   1      17.319  29.478  22.670  0.00  0.00    -0.274 OA
ATOM     15  H4  OAN d   1      15.453  26.977  22.491  0.00  0.00     0.163 HD
BRANCH  13  16
ATOM     16  CAH OAN d   1      16.644  28.300  20.680  0.00  0.00    -0.003 C 
ATOM     17  H1  OAN d   1      16.009  27.426  20.471  0.00  0.00     0.040 H 
ATOM     18  H2  OAN d   1      17.665  28.107  20.318  0.00  0.00     0.040 H 
ATOM     19  H3  OAN d   1      16.234  29.182  20.166  0.00  0.00     0.040 H 
ENDBRANCH  13  16
ENDBRANCH   1  12
BRANCH   7  20
ATOM     20  OAQ OAN d   1      19.021  27.328  25.937  0.00  0.00    -0.153 OA
BRANCH  20  21
ATOM     21  CAP OAN d   1      19.606  26.277  26.562  0.00  0.00     0.389 C 
ATOM     22  OAR OAN d   1      19.050  25.181  26.652  0.00  0.00    -0.236 OA
ATOM     23  NAO OAN d   1      20.827  26.584  26.981  0.00  0.00    -0.301 N 
ATOM     24  H14 OAN d   1      21.147  27.499  26.735  0.00  0.00     0.171 HD
BRANCH  23  25
ATOM     25  CAS OAN d   1      21.717  25.824  27.706  0.00  0.00     0.036 A 
ATOM     26  CAT OAN d   1      22.687  26.488  28.429  0.00  0.00    -0.057 A 
ATOM     27  CAU OAN d   1      23.651  25.866  29.202  0.00  0.00    -0.081 A 
ATOM     28  H15 OAN d   1      22.694  27.571  28.388  0.00  0.00     0.086 H 
ATOM     29  CAV OAN d   1      23.648  24.471  29.254  0.00  0.00    -0.083 A 
ATOM     30  H16 OAN d   1      24.386  26.444  29.750  0.00  0.00     0.083 H 
ATOM     31  CAW OAN d   1      22.678  23.771  28.544  0.00  0.00    -0.081 A 
ATOM     32  H17 OAN d   1      24.391  23.941  29.839  0.00  0.00     0.083 H 
ATOM     33  CAX OAN d   1      21.715  24.456  27.789  0.00  0.00    -0.057 A 
ATOM     34  H18 OAN d   1      22.666  22.688  28.575  0.00  0.00     0.083 H 
ATOM     35  H19 OAN d   1      20.954  23.893  27.261  0.00  0.00     0.086 H 
ENDBRANCH  23  25
ENDBRANCH  20  21
ENDBRANCH   7  20
BRANCH   2  36
ATOM     36  OAJ OAN d   1      13.456  28.720  24.530  0.00  0.00    -0.390 OA
ATOM     37  H7  OAN d   1      13.287  28.340  23.676  0.00  0.00     0.210 HD
ENDBRANCH   2  36
BRANCH   4  38
ATOM     38  CAF OAN d   1      16.950  31.022  27.151  0.00  0.00     0.044 C 
ATOM     39  H11 OAN d   1      16.265  31.859  27.350  0.00  0.00     0.078 H 
ATOM     40  H12 OAN d   1      17.970  31.408  27.010  0.00  0.00     0.078 H 
BRANCH  38  41
ATOM     41  OAM OAN d   1      16.944  30.144  28.287  0.00  0.00    -0.398 OA
ATOM     42  H13 OAN d   1      16.065  29.810  28.423  0.00  0.00     0.209 HD
ENDBRANCH  38  41
ENDBRANCH   4  38
BRANCH   3  43
ATOM     43  OAK OAN d   1      14.217  30.820  26.214  0.00  0.00    -0.390 OA
ATOM     44  H9  OAN d   1      14.401  31.191  27.069  0.00  0.00     0.210 HD
ENDBRANCH   3  43
TORSDOF 9
