REMARK  9 active torsions:
REMARK  status: ('A' for Active; 'I' for Inactive)
REMARK    1  A    between atoms: CAH_1  and  CAG_2 
REMARK       I    between atoms: CAG_2  and  NAI_4 
REMARK    2  A    between atoms: NAI_4  and  CAB_5 
REMARK    3  A    between atoms: CAC_6  and  OAJ_7 
REMARK    4  A    between atoms: CAD_8  and  OAK_9 
REMARK    5  A    between atoms: CAE_10  and  CAF_11 
REMARK    6  A    between atoms: CAF_11  and  OAM_12 
REMARK    7  A    between atoms: NAY_15  and  OAQ_16 
REMARK    8  A    between atoms: OAQ_16  and  CAP_17 
REMARK       I    between atoms: CAP_17  and  NAO_19 
REMARK    9  A    between atoms: NAO_19  and  CAS_20 
ROOT
ATOM      1  CAB OAN d   1      37.088  16.663 -20.513  0.00  0.00     0.105 C 
ATOM      2  CAC OAN d   1      36.155  17.834 -20.777  0.00  0.00     0.089 C 
ATOM      3  CAD OAN d   1      35.609  17.721 -22.193  0.00  0.00     0.090 C 
ATOM      4  CAE OAN d   1      34.694  16.508 -22.247  0.00  0.00     0.094 C 
ATOM      5  OAL OAN d   1      35.453  15.326 -21.963  0.00  0.00    -0.324 OA
ATOM      6  CAA OAN d   1      36.665  15.449 -21.356  0.00  0.00     0.194 C 
ATOM      7  NAY OAN d   1      37.482  14.423 -21.540  0.00  0.00    -0.100 NA
ATOM      8  H5  OAN d   1      38.111  16.946 -20.803  0.00  0.00     0.090 H 
ATOM      9  H6  OAN d   1      35.322  17.819 -20.059  0.00  0.00     0.090 H 
ATOM     10  H8  OAN d   1      36.440  17.598 -22.904  0.00  0.00     0.091 H 
ATOM     11  H10 OAN d   1      33.911  16.628 -21.483  0.00  0.00     0.091 H 
ENDROOT
BRANCH   1  12
ATOM     12  NAI OAN d   1      37.072  16.367 -19.073  0.00  0.00    -0.347 N 
ATOM     13  CAG OAN d   1      36.089  15.687 -18.495  0.00  0.00     0.214 C 
ATOM     14  OAN OAN d   1      35.134  15.216 -19.105  0.00  0.00    -0.274 OA
ATOM     15  H4  OAN d   1      37.831  16.690 -18.507  0.00  0.00     0.163 HD
BRANCH  13  16
ATOM     16  CAH OAN d   1      36.229  15.499 -16.976  0.00  0.00    -0.003 C 
ATOM     17  H1  OAN d   1      37.147  15.995 -16.628  0.00  0.00     0.040 H 
ATOM     18  H2  OAN d   1      36.281  14.425 -16.743  0.00  0.00     0.040 H 
ATOM     19  H3  OAN d   1      35.359  15.942 -16.470  0.00  0.00     0.040 H 
ENDBRANCH  13  16
ENDBRANCH   1  12
BRANCH   7  20
ATOM     20  OAQ OAN d   1      36.951  13.431 -22.306  0.00  0.00    -0.153 OA
BRANCH  20  21
ATOM     21  CAP OAN d   1      37.885  12.674 -22.932  0.00  0.00     0.389 C 
ATOM     22  OAR OAN d   1      39.095  12.800 -22.714  0.00  0.00    -0.236 OA
ATOM     23  NAO OAN d   1      37.398  11.768 -23.776  0.00  0.00    -0.301 N 
ATOM     24  H14 OAN d   1      38.027  11.146 -24.243  0.00  0.00     0.171 HD
BRANCH  23  25
ATOM     25  CAS OAN d   1      36.078  11.671 -24.014  0.00  0.00     0.036 A 
ATOM     26  CAT OAN d   1      35.304  10.723 -23.358  0.00  0.00    -0.057 A 
ATOM     27  CAU OAN d   1      33.946  10.624 -23.623  0.00  0.00    -0.081 A 
ATOM     28  H15 OAN d   1      35.763  10.057 -22.636  0.00  0.00     0.086 H 
ATOM     29  CAV OAN d   1      33.340  11.480 -24.541  0.00  0.00    -0.083 A 
ATOM     30  H16 OAN d   1      33.352   9.875 -23.112  0.00  0.00     0.083 H 
ATOM     31  CAW OAN d   1      34.107  12.429 -25.201  0.00  0.00    -0.081 A 
ATOM     32  H17 OAN d   1      32.277  11.405 -24.738  0.00  0.00     0.083 H 
ATOM     33  CAX OAN d   1      35.472  12.518 -24.938  0.00  0.00    -0.057 A 
ATOM     34  H18 OAN d   1      33.646  13.098 -25.918  0.00  0.00     0.083 H 
ATOM     35  H19 OAN d   1      36.070  13.256 -25.459  0.00  0.00     0.086 H 
ENDBRANCH  23  25
ENDBRANCH  20  21
ENDBRANCH   7  20
BRANCH   2  36
ATOM     36  OAJ OAN d   1      36.893  19.039 -20.626  0.00  0.00    -0.390 OA
ATOM     37  H7  OAN d   1      37.237  19.090 -19.742  0.00  0.00     0.210 HD
ENDBRANCH   2  36
BRANCH   4  38
ATOM     38  CAF OAN d   1      34.015  16.338 -23.627  0.00  0.00     0.044 C 
ATOM     39  H11 OAN d   1      33.423  17.236 -23.858  0.00  0.00     0.078 H 
ATOM     40  H12 OAN d   1      33.354  15.459 -23.605  0.00  0.00     0.078 H 
BRANCH  38  41
ATOM     41  OAM OAN d   1      35.019  16.156 -24.629  0.00  0.00    -0.398 OA
ATOM     42  H13 OAN d   1      35.589  16.916 -24.646  0.00  0.00     0.209 HD
ENDBRANCH  38  41
ENDBRANCH   4  38
BRANCH   3  43
ATOM     43  OAK OAN d   1      34.866  18.883 -22.529  0.00  0.00    -0.390 OA
ATOM     44  H9  OAN d   1      34.532  18.799 -23.414  0.00  0.00     0.210 HD
ENDBRANCH   3  43
TORSDOF 9
