REMARK  5 active torsions:
REMARK  status: ('A' for Active; 'I' for Inactive)
REMARK    1  A    between atoms: O4_1  and  C4_2 
REMARK    2  A    between atoms: C3_3  and  O3_5 
REMARK    3  A    between atoms: C5_4  and  C6_13 
REMARK    4  A    between atoms: C7_9  and  C8_10 
REMARK    5  A    between atoms: C6_13  and  O6_14 
ROOT
ATOM      1  C4  NGW d   1     -32.690 -22.550 -52.967  0.00  0.00     0.089 C 
ATOM      2  C3  NGW d   1     -31.736 -22.296 -54.122  0.00  0.00     0.093 C 
ATOM      3  C5  NGW d   1     -33.140 -24.003 -52.978  0.00  0.00     0.087 C 
ATOM      4  C2  NGW d   1     -32.410 -22.643 -55.480  0.00  0.00     0.163 C 
ATOM      5  N2  NGW d   1     -31.429 -22.680 -56.589  0.00  0.00    -0.052 N 
ATOM      6  C1  NGW d   1     -33.072 -24.047 -55.460  0.00  0.00     0.115 C 
ATOM      7  C7  NGW d   1     -30.510 -23.816 -56.348  0.00  0.00     0.145 C 
ATOM      8  S1  NGW d   1     -31.627 -25.138 -55.786  0.00  0.00    -0.102 SA
ATOM      9  O5  NGW d   1     -33.814 -24.372 -54.212  0.00  0.00    -0.363 OA
ATOM     10  H2  NGW d   1     -33.570 -21.897 -53.060  0.00  0.00     0.091 H 
ATOM     11  H3  NGW d   1     -30.862 -22.953 -54.002  0.00  0.00     0.090 H 
ATOM     12  H4  NGW d   1     -32.251 -24.637 -52.845  0.00  0.00     0.090 H 
ATOM     13  H6  NGW d   1     -33.174 -21.880 -55.691  0.00  0.00     0.094 H 
ATOM     14  H7  NGW d   1     -30.908 -21.818 -56.614  0.00  0.00     0.279 HD
ATOM     15  H8  NGW d   1     -31.909 -22.808 -57.466  0.00  0.00     0.279 HD
ATOM     16  H9  NGW d   1     -33.789 -24.126 -56.291  0.00  0.00     0.104 H 
ATOM     17  H10 NGW d   1     -29.787 -23.568 -55.557  0.00  0.00     0.101 H 
ENDROOT
BRANCH   3  18
ATOM     18  C6  NGW d   1     -34.153 -24.297 -51.856  0.00  0.00     0.043 C 
ATOM     19  H14 NGW d   1     -33.682 -24.105 -50.881  0.00  0.00     0.078 H 
ATOM     20  H15 NGW d   1     -34.463 -25.351 -51.912  0.00  0.00     0.078 H 
BRANCH  18  21
ATOM     21  O6  NGW d   1     -35.300 -23.460 -51.999  0.00  0.00    -0.398 OA
ATOM     22  H16 NGW d   1     -35.034 -22.549 -51.949  0.00  0.00     0.209 HD
ENDBRANCH  18  21
ENDBRANCH   3  18
BRANCH   1  23
ATOM     23  O4  NGW d   1     -31.998 -22.253 -51.756  0.00  0.00    -0.390 OA
ATOM     24  H1  NGW d   1     -32.576 -22.405 -51.017  0.00  0.00     0.210 HD
ENDBRANCH   1  23
BRANCH   2  25
ATOM     25  O3  NGW d   1     -31.280 -20.930 -54.071  0.00  0.00    -0.391 OA
ATOM     26  H5  NGW d   1     -30.683 -20.769 -54.792  0.00  0.00     0.210 HD
ENDBRANCH   2  25
BRANCH   7  27
ATOM     27  C8  NGW d   1     -29.736 -24.180 -57.623  0.00  0.00    -0.041 C 
ATOM     28  H11 NGW d   1     -29.063 -25.025 -57.415  0.00  0.00     0.031 H 
ATOM     29  H12 NGW d   1     -29.145 -23.313 -57.953  0.00  0.00     0.031 H 
ATOM     30  H13 NGW d   1     -30.445 -24.463 -58.414  0.00  0.00     0.031 H 
ENDBRANCH   7  27
TORSDOF 5
