REMARK  9 active torsions:
REMARK  status: ('A' for Active; 'I' for Inactive)
REMARK    1  A    between atoms: CAH_1  and  CAG_2 
REMARK       I    between atoms: CAG_2  and  NAI_4 
REMARK    2  A    between atoms: NAI_4  and  CAB_5 
REMARK    3  A    between atoms: CAC_6  and  OAJ_7 
REMARK    4  A    between atoms: CAD_8  and  OAK_9 
REMARK    5  A    between atoms: CAE_10  and  CAF_11 
REMARK    6  A    between atoms: CAF_11  and  OAM_12 
REMARK    7  A    between atoms: NAY_15  and  OAQ_16 
REMARK    8  A    between atoms: OAQ_16  and  CAP_17 
REMARK       I    between atoms: CAP_17  and  NAO_19 
REMARK    9  A    between atoms: NAO_19  and  CAS_20 
ROOT
ATOM      1  CAB OAN d   1      20.640  36.336  55.107  0.00  0.00     0.105 C 
ATOM      2  CAC OAN d   1      19.881  36.517  53.774  0.00  0.00     0.089 C 
ATOM      3  CAD OAN d   1      20.780  36.185  52.583  0.00  0.00     0.090 C 
ATOM      4  CAE OAN d   1      21.244  34.731  52.686  0.00  0.00     0.094 C 
ATOM      5  OAL OAN d   1      22.014  34.516  53.843  0.00  0.00    -0.324 OA
ATOM      6  CAA OAN d   1      21.824  35.354  54.934  0.00  0.00     0.194 C 
ATOM      7  NAY OAN d   1      22.752  35.268  55.892  0.00  0.00    -0.100 NA
ATOM      8  H5  OAN d   1      21.042  37.311  55.421  0.00  0.00     0.090 H 
ATOM      9  H6  OAN d   1      19.055  35.790  53.770  0.00  0.00     0.090 H 
ATOM     10  H8  OAN d   1      21.653  36.855  52.572  0.00  0.00     0.091 H 
ATOM     11  H10 OAN d   1      20.348  34.093  52.692  0.00  0.00     0.091 H 
ENDROOT
BRANCH   1  12
ATOM     12  NAI OAN d   1      19.699  35.861  56.133  0.00  0.00    -0.347 N 
ATOM     13  CAG OAN d   1      19.233  34.611  56.218  0.00  0.00     0.214 C 
ATOM     14  OAN OAN d   1      19.506  33.689  55.436  0.00  0.00    -0.274 OA
ATOM     15  H4  OAN d   1      19.385  36.521  56.816  0.00  0.00     0.163 HD
BRANCH  13  16
ATOM     16  CAH OAN d   1      18.233  34.406  57.362  0.00  0.00    -0.003 C 
ATOM     17  H1  OAN d   1      18.134  35.340  57.934  0.00  0.00     0.040 H 
ATOM     18  H2  OAN d   1      18.594  33.606  58.026  0.00  0.00     0.040 H 
ATOM     19  H3  OAN d   1      17.254  34.124  56.947  0.00  0.00     0.040 H 
ENDBRANCH  13  16
ENDBRANCH   1  12
BRANCH   7  20
ATOM     20  OAQ OAN d   1      23.779  34.393  55.605  0.00  0.00    -0.153 OA
BRANCH  20  21
ATOM     21  CAP OAN d   1      24.900  34.616  56.348  0.00  0.00     0.389 C 
ATOM     22  OAR OAN d   1      25.744  33.726  56.479  0.00  0.00    -0.236 OA
ATOM     23  NAO OAN d   1      25.001  35.820  56.917  0.00  0.00    -0.301 N 
ATOM     24  H14 OAN d   1      24.281  36.480  56.703  0.00  0.00     0.171 HD
BRANCH  23  25
ATOM     25  CAS OAN d   1      25.974  36.234  57.750  0.00  0.00     0.036 A 
ATOM     26  CAT OAN d   1      25.623  36.492  59.091  0.00  0.00    -0.057 A 
ATOM     27  CAU OAN d   1      26.570  36.928  60.010  0.00  0.00    -0.081 A 
ATOM     28  H15 OAN d   1      24.597  36.348  59.410  0.00  0.00     0.086 H 
ATOM     29  CAV OAN d   1      27.879  37.122  59.579  0.00  0.00    -0.083 A 
ATOM     30  H16 OAN d   1      26.295  37.113  61.042  0.00  0.00     0.083 H 
ATOM     31  CAW OAN d   1      28.249  36.874  58.241  0.00  0.00    -0.081 A 
ATOM     32  H17 OAN d   1      28.626  37.469  60.283  0.00  0.00     0.083 H 
ATOM     33  CAX OAN d   1      27.299  36.426  57.313  0.00  0.00    -0.057 A 
ATOM     34  H18 OAN d   1      29.275  37.031  57.928  0.00  0.00     0.083 H 
ATOM     35  H19 OAN d   1      27.577  36.232  56.283  0.00  0.00     0.086 H 
ENDBRANCH  23  25
ENDBRANCH  20  21
ENDBRANCH   7  20
BRANCH   2  36
ATOM     36  OAJ OAN d   1      19.289  37.825  53.657  0.00  0.00    -0.390 OA
ATOM     37  H7  OAN d   1      18.673  37.957  54.368  0.00  0.00     0.210 HD
ENDBRANCH   2  36
BRANCH   4  38
ATOM     38  CAF OAN d   1      22.189  34.263  51.622  0.00  0.00     0.044 C 
ATOM     39  H11 OAN d   1      21.749  34.456  50.633  0.00  0.00     0.078 H 
ATOM     40  H12 OAN d   1      22.367  33.184  51.740  0.00  0.00     0.078 H 
BRANCH  38  41
ATOM     41  OAM OAN d   1      23.427  34.961  51.733  0.00  0.00    -0.398 OA
ATOM     42  H13 OAN d   1      23.274  35.893  51.630  0.00  0.00     0.209 HD
ENDBRANCH  38  41
ENDBRANCH   4  38
BRANCH   3  43
ATOM     43  OAK OAN d   1      20.026  36.353  51.399  0.00  0.00    -0.390 OA
ATOM     44  H9  OAN d   1      20.570  36.151  50.647  0.00  0.00     0.210 HD
ENDBRANCH   3  43
TORSDOF 9
