REMARK  9 active torsions:
REMARK  status: ('A' for Active; 'I' for Inactive)
REMARK    1  A    between atoms: CAH_1  and  CAG_2 
REMARK       I    between atoms: CAG_2  and  NAI_4 
REMARK    2  A    between atoms: NAI_4  and  CAB_5 
REMARK    3  A    between atoms: CAC_6  and  OAJ_7 
REMARK    4  A    between atoms: CAD_8  and  OAK_9 
REMARK    5  A    between atoms: CAE_10  and  CAF_11 
REMARK    6  A    between atoms: CAF_11  and  OAM_12 
REMARK    7  A    between atoms: NAY_15  and  OAQ_16 
REMARK    8  A    between atoms: OAQ_16  and  CAP_17 
REMARK       I    between atoms: CAP_17  and  NAO_19 
REMARK    9  A    between atoms: NAO_19  and  CAS_20 
ROOT
ATOM      1  CAB OAN d   1     -23.738  36.624  -9.940  0.00  0.00     0.105 C 
ATOM      2  CAC OAN d   1     -24.493  36.862 -11.249  0.00  0.00     0.089 C 
ATOM      3  CAD OAN d   1     -23.587  36.655 -12.454  0.00  0.00     0.090 C 
ATOM      4  CAE OAN d   1     -23.100  35.198 -12.479  0.00  0.00     0.094 C 
ATOM      5  OAL OAN d   1     -22.472  34.793 -11.233  0.00  0.00    -0.324 OA
ATOM      6  CAA OAN d   1     -22.632  35.561 -10.112  0.00  0.00     0.194 C 
ATOM      7  NAY OAN d   1     -21.785  35.351  -9.127  0.00  0.00    -0.100 NA
ATOM      8  H5  OAN d   1     -23.249  37.567  -9.653  0.00  0.00     0.090 H 
ATOM      9  H6  OAN d   1     -25.328  36.149 -11.310  0.00  0.00     0.090 H 
ATOM     10  H8  OAN d   1     -22.725  37.336 -12.405  0.00  0.00     0.091 H 
ATOM     11  H10 OAN d   1     -23.996  34.576 -12.618  0.00  0.00     0.091 H 
ENDROOT
BRANCH   1  12
ATOM     12  NAI OAN d   1     -24.696  36.268  -8.872  0.00  0.00    -0.347 N 
ATOM     13  CAG OAN d   1     -25.178  35.042  -8.658  0.00  0.00     0.214 C 
ATOM     14  OAN OAN d   1     -24.867  34.055  -9.309  0.00  0.00    -0.274 OA
ATOM     15  H4  OAN d   1     -25.006  37.000  -8.265  0.00  0.00     0.163 HD
BRANCH  13  16
ATOM     16  CAH OAN d   1     -26.175  34.919  -7.496  0.00  0.00    -0.003 C 
ATOM     17  H1  OAN d   1     -26.326  35.907  -7.037  0.00  0.00     0.040 H 
ATOM     18  H2  OAN d   1     -25.777  34.222  -6.744  0.00  0.00     0.040 H 
ATOM     19  H3  OAN d   1     -27.136  34.540  -7.875  0.00  0.00     0.040 H 
ENDBRANCH  13  16
ENDBRANCH   1  12
BRANCH   7  20
ATOM     20  OAQ OAN d   1     -20.832  34.401  -9.349  0.00  0.00    -0.153 OA
BRANCH  20  21
ATOM     21  CAP OAN d   1     -19.647  34.630  -8.709  0.00  0.00     0.389 C 
ATOM     22  OAR OAN d   1     -18.742  33.797  -8.785  0.00  0.00    -0.236 OA
ATOM     23  NAO OAN d   1     -19.542  35.781  -8.027  0.00  0.00    -0.301 N 
ATOM     24  H14 OAN d   1     -20.322  36.406  -8.061  0.00  0.00     0.171 HD
BRANCH  23  25
ATOM     25  CAS OAN d   1     -18.479  36.164  -7.303  0.00  0.00     0.036 A 
ATOM     26  CAT OAN d   1     -18.697  36.572  -5.987  0.00  0.00    -0.057 A 
ATOM     27  CAU OAN d   1     -17.631  36.985  -5.188  0.00  0.00    -0.081 A 
ATOM     28  H15 OAN d   1     -19.703  36.568  -5.582  0.00  0.00     0.086 H 
ATOM     29  CAV OAN d   1     -16.336  36.989  -5.703  0.00  0.00    -0.083 A 
ATOM     30  H16 OAN d   1     -17.810  37.303  -4.167  0.00  0.00     0.083 H 
ATOM     31  CAW OAN d   1     -16.107  36.583  -7.025  0.00  0.00    -0.081 A 
ATOM     32  H17 OAN d   1     -15.506  37.306  -5.082  0.00  0.00     0.083 H 
ATOM     33  CAX OAN d   1     -17.176  36.173  -7.827  0.00  0.00    -0.057 A 
ATOM     34  H18 OAN d   1     -15.100  36.587  -7.426  0.00  0.00     0.083 H 
ATOM     35  H19 OAN d   1     -17.000  35.863  -8.851  0.00  0.00     0.086 H 
ENDBRANCH  23  25
ENDBRANCH  20  21
ENDBRANCH   7  20
BRANCH   2  36
ATOM     36  OAJ OAN d   1     -25.015  38.197 -11.259  0.00  0.00    -0.390 OA
ATOM     37  H7  OAN d   1     -25.607  38.310 -10.525  0.00  0.00     0.210 HD
ENDBRANCH   2  36
BRANCH   4  38
ATOM     38  CAF OAN d   1     -22.134  34.864 -13.620  0.00  0.00     0.044 C 
ATOM     39  H11 OAN d   1     -22.598  35.137 -14.579  0.00  0.00     0.078 H 
ATOM     40  H12 OAN d   1     -21.920  33.785 -13.610  0.00  0.00     0.078 H 
BRANCH  38  41
ATOM     41  OAM OAN d   1     -20.910  35.589 -13.465  0.00  0.00    -0.398 OA
ATOM     42  H13 OAN d   1     -20.506  35.353 -12.638  0.00  0.00     0.209 HD
ENDBRANCH  38  41
ENDBRANCH   4  38
BRANCH   3  43
ATOM     43  OAK OAN d   1     -24.357  36.921 -13.618  0.00  0.00    -0.390 OA
ATOM     44  H9  OAN d   1     -23.816  36.799 -14.389  0.00  0.00     0.210 HD
ENDBRANCH   3  43
TORSDOF 9
