REMARK  3 active torsions:
REMARK  status: ('A' for Active; 'I' for Inactive)
REMARK    1  A    between atoms: OAK_14  and  C2_2 
REMARK    2  A    between atoms: C9_8  and  N8_7 
REMARK    3  A    between atoms: C11_10  and  OAK_14 
ROOT
ATOM      1  C9  54F d   1      23.647  17.095  10.052  0.00  0.00     0.028 C 
ATOM      2  C10 54F d   1      23.608  16.731  11.401  0.00  0.00    -0.025 C 
ATOM      3  C11 54F d   1      22.429  16.794  12.129  0.00  0.00     0.080 C 
ATOM      4  C12 54F d   1      21.260  17.082  11.438  0.00  0.00    -0.050 C 
ATOM      5  C13 54F d   1      21.289  17.469  10.098  0.00  0.00    -0.078 C 
ATOM      6  C14 54F d   1      22.496  17.525   9.410  0.00  0.00    -0.058 C 
ATOM      7  H7  54F d   1      24.516  16.393  11.887  0.00  0.00     0.091 H 
ATOM      8  H8  54F d   1      20.307  17.005  11.949  0.00  0.00     0.087 H 
ATOM      9  H9  54F d   1      20.366  17.727   9.591  0.00  0.00     0.083 H 
ATOM     10  H10 54F d   1      22.536  17.897   8.393  0.00  0.00     0.086 H 
ENDROOT
BRANCH   3  11
ATOM     11  OAK 54F d   1      22.330  16.254  13.401  0.00  0.00    -0.292 OA
BRANCH  11  12
ATOM     12  C2  54F d   1      22.215  17.022  14.525  0.00  0.00     0.169 C 
ATOM     13  N1  54F d   1      22.581  18.324  14.576  0.00  0.00    -0.237 NA
ATOM     14  C6  54F d   1      22.506  19.050  15.750  0.00  0.00     0.005 C 
ATOM     15  C5  54F d   1      22.242  18.387  16.956  0.00  0.00    -0.066 C 
ATOM     16  H4  54F d   1      22.650  20.124  15.738  0.00  0.00     0.114 H 
ATOM     17  C4  54F d   1      21.948  17.037  16.921  0.00  0.00    -0.077 C 
ATOM     18  H3  54F d   1      22.268  18.923  17.898  0.00  0.00     0.085 H 
ATOM     19  C3  54F d   1      21.912  16.360  15.705  0.00  0.00    -0.032 C 
ATOM     20  H2  54F d   1      21.745  16.504  17.843  0.00  0.00     0.083 H 
ATOM     21  H1  54F d   1      21.646  15.309  15.681  0.00  0.00     0.090 H 
ENDBRANCH  11  12
ENDBRANCH   3  11
BRANCH   1  22
ATOM     22  N8  54F d   1      24.790  17.073   9.364  0.00  0.00    -0.399 N 
ATOM     23  H5  54F d   1      25.659  16.758   9.819  0.00  0.00     0.156 HD
ATOM     24  H6  54F d   1      24.804  17.371   8.378  0.00  0.00     0.156 HD
ENDBRANCH   1  22
TORSDOF 3
