REMARK  14 active torsions:
REMARK  status: ('A' for Active; 'I' for Inactive)
REMARK    1  A    between atoms: C6_6  and  N6_7 
REMARK    2  A    between atoms: C1'_11  and  N9_10 
REMARK    3  A    between atoms: C2'_12  and  O2'_13 
REMARK    4  A    between atoms: C3'_14  and  O3'_15 
REMARK    5  A    between atoms: C5'_18  and  C4'_17 
REMARK    6  A    between atoms: O5'_19  and  C5'_18 
REMARK    7  A    between atoms: PA_20  and  O5'_19 
REMARK    8  A    between atoms: O3A_23  and  PA_20 
REMARK    9  A    between atoms: PB_24  and  O3A_23 
REMARK   10  A    between atoms: O5N_27  and  PB_24 
REMARK   11  A    between atoms: C5N_28  and  O5N_27 
REMARK   12  A    between atoms: C4N_35  and  C5N_28 
REMARK   13  A    between atoms: C2N_32  and  O2N_31 
REMARK   14  A    between atoms: C3N_34  and  O3N_33 
ROOT
ATOM      1  C5' A1R d   1      29.276  -2.983   3.593  0.00  0.00     0.058 C 
ATOM      2  H11 A1R d   1      30.282  -2.835   4.011  0.00  0.00     0.079 H 
ATOM      3  H12 A1R d   1      28.678  -3.596   4.284  0.00  0.00     0.079 H 
ENDROOT
BRANCH   1   4
ATOM      4  C4' A1R d   1      29.383  -3.687   2.256  0.00  0.00     0.089 C 
ATOM      5  C3' A1R d   1      29.936  -2.866   1.091  0.00  0.00     0.091 C 
ATOM      6  C2' A1R d   1      29.432  -3.650  -0.110  0.00  0.00     0.105 C 
ATOM      7  H8  A1R d   1      29.538  -1.840   1.093  0.00  0.00     0.091 H 
ATOM      8  C1' A1R d   1      28.063  -4.137   0.387  0.00  0.00     0.139 C 
ATOM      9  H6  A1R d   1      29.351  -3.015  -1.004  0.00  0.00     0.093 H 
ATOM     10  O4' A1R d   1      28.076  -4.089   1.802  0.00  0.00    -0.353 OA
ATOM     11  H5  A1R d   1      27.932  -5.179   0.059  0.00  0.00     0.122 H 
ATOM     12  H10 A1R d   1      30.021  -4.571   2.398  0.00  0.00     0.090 H 
BRANCH   5  13
ATOM     13  O3' A1R d   1      31.351  -2.827   1.148  0.00  0.00    -0.390 OA
ATOM     14  H9  A1R d   1      31.689  -3.713   1.210  0.00  0.00     0.210 HD
ENDBRANCH   5  13
BRANCH   6  15
ATOM     15  O2' A1R d   1      30.251  -4.790  -0.384  0.00  0.00    -0.388 OA
ATOM     16  H7  A1R d   1      31.102  -4.501  -0.693  0.00  0.00     0.210 HD
ENDBRANCH   6  15
BRANCH   8  17
ATOM     17  N9  A1R d   1      26.914  -3.364  -0.098  0.00  0.00    -0.294 N 
ATOM     18  C4  A1R d   1      25.696  -3.867  -0.460  0.00  0.00     0.167 A 
ATOM     19  N3  A1R d   1      25.300  -5.142  -0.421  0.00  0.00    -0.222 NA
ATOM     20  C5  A1R d   1      24.944  -2.780  -0.869  0.00  0.00     0.149 A 
ATOM     21  C2  A1R d   1      24.035  -5.270  -0.826  0.00  0.00     0.091 A 
ATOM     22  N1  A1R d   1      23.195  -4.318  -1.249  0.00  0.00    -0.222 NA
ATOM     23  H1  A1R d   1      23.635  -6.277  -0.810  0.00  0.00     0.146 H 
ATOM     24  C6  A1R d   1      23.621  -3.039  -1.291  0.00  0.00     0.155 A 
ATOM     25  N7  A1R d   1      25.685  -1.614  -0.781  0.00  0.00    -0.236 NA
ATOM     26  C8  A1R d   1      26.829  -2.016  -0.306  0.00  0.00     0.071 A 
ATOM     27  H4  A1R d   1      27.651  -1.334  -0.092  0.00  0.00     0.144 H 
BRANCH  24  28
ATOM     28  N6  A1R d   1      22.771  -2.107  -1.731  0.00  0.00    -0.382 N 
ATOM     29  H2  A1R d   1      23.066  -1.121  -1.775  0.00  0.00     0.157 HD
ATOM     30  H3  A1R d   1      21.821  -2.374  -2.026  0.00  0.00     0.157 HD
ENDBRANCH  24  28
ENDBRANCH   8  17
ENDBRANCH   1   4
BRANCH   1  31
ATOM     31  O5' A1R d   1      28.644  -1.715   3.413  0.00  0.00    -0.287 OA
BRANCH  31  32
ATOM     32  PA  A1R d   1      28.931  -0.529   4.398  0.00  0.00     0.417 P 
ATOM     33  O1A A1R d   1      28.059   0.602   4.048  0.00  0.00    -0.624 OA
ATOM     34  O2A A1R d   1      30.407  -0.202   4.339  0.00  0.00    -0.624 OA
BRANCH  32  35
ATOM     35  O3A A1R d   1      28.619  -1.195   5.811  0.00  0.00    -0.180 OA
BRANCH  35  36
ATOM     36  PB  A1R d   1      29.419  -1.267   7.197  0.00  0.00     0.417 P 
ATOM     37  O1B A1R d   1      28.527  -1.988   8.181  0.00  0.00    -0.624 OA
ATOM     38  O2B A1R d   1      30.788  -1.796   6.984  0.00  0.00    -0.624 OA
BRANCH  36  39
ATOM     39  O5N A1R d   1      29.539   0.253   7.592  0.00  0.00    -0.287 OA
BRANCH  39  40
ATOM     40  C5N A1R d   1      28.619   0.837   8.519  0.00  0.00     0.060 C 
ATOM     41  H13 A1R d   1      28.741   0.370   9.508  0.00  0.00     0.078 H 
ATOM     42  H14 A1R d   1      27.588   0.684   8.166  0.00  0.00     0.078 H 
BRANCH  40  43
ATOM     43  C4N A1R d   1      28.913   2.323   8.614  0.00  0.00     0.149 C 
ATOM     44  N4N A1R d   1      28.778   2.986   7.304  0.00  0.00    -0.064 N 
ATOM     45  C1N A1R d   1      27.521   3.757   7.300  0.00  0.00     0.108 C 
ATOM     46  H15 A1R d   1      29.558   3.606   7.154  0.00  0.00     0.277 HD
ATOM     47  H16 A1R d   1      28.755   2.293   6.572  0.00  0.00     0.277 HD
ATOM     48  C2N A1R d   1      26.812   3.382   8.587  0.00  0.00     0.085 C 
ATOM     49  H17 A1R d   1      26.906   3.486   6.429  0.00  0.00     0.079 H 
ATOM     50  H18 A1R d   1      27.732   4.836   7.278  0.00  0.00     0.079 H 
ATOM     51  C3N A1R d   1      27.958   3.100   9.525  0.00  0.00     0.091 C 
ATOM     52  H20 A1R d   1      26.200   2.478   8.454  0.00  0.00     0.089 H 
ATOM     53  H22 A1R d   1      27.625   2.485  10.374  0.00  0.00     0.090 H 
ATOM     54  H23 A1R d   1      29.942   2.438   8.986  0.00  0.00     0.091 H 
BRANCH  48  55
ATOM     55  O2N A1R d   1      25.976   4.440   8.989  0.00  0.00    -0.391 OA
ATOM     56  H19 A1R d   1      25.533   4.203   9.795  0.00  0.00     0.210 HD
ENDBRANCH  48  55
BRANCH  51  57
ATOM     57  O3N A1R d   1      28.576   4.260  10.016  0.00  0.00    -0.391 OA
ATOM     58  H21 A1R d   1      27.939   4.780  10.492  0.00  0.00     0.210 HD
ENDBRANCH  51  57
ENDBRANCH  40  43
ENDBRANCH  39  40
ENDBRANCH  36  39
ENDBRANCH  35  36
ENDBRANCH  32  35
ENDBRANCH  31  32
ENDBRANCH   1  31
TORSDOF 14
