REMARK  0 active torsions:
REMARK  status: ('A' for Active; 'I' for Inactive)
ROOT
ATOM      1  C1  LZ1 d   1      19.167   7.725  -2.112  0.00  0.00     0.061 A 
ATOM      2  C2  LZ1 d   1      20.226   7.081  -2.733  0.00  0.00     0.011 A 
ATOM      3  C3  LZ1 d   1      20.340   5.698  -2.695  0.00  0.00    -0.069 A 
ATOM      4  C4  LZ1 d   1      19.370   4.963  -2.019  0.00  0.00    -0.082 A 
ATOM      5  C5  LZ1 d   1      18.308   5.607  -1.409  0.00  0.00    -0.081 A 
ATOM      6  C6  LZ1 d   1      18.194   6.987  -1.449  0.00  0.00    -0.055 A 
ATOM      7  N   LZ1 d   1      19.333   9.027  -2.329  0.00  0.00    -0.278 N 
ATOM      8  C9  LZ1 d   1      20.967   8.041  -3.271  0.00  0.00     0.034 A 
ATOM      9  N2  LZ1 d   1      20.364   9.198  -2.996  0.00  0.00    -0.186 NA
ATOM     10  H1  LZ1 d   1      21.170   5.199  -3.183  0.00  0.00     0.085 H 
ATOM     11  H2  LZ1 d   1      19.447   3.883  -1.970  0.00  0.00     0.083 H 
ATOM     12  H3  LZ1 d   1      17.555   5.023  -0.892  0.00  0.00     0.083 H 
ATOM     13  H4  LZ1 d   1      17.358   7.484  -0.970  0.00  0.00     0.087 H 
ATOM     14  H5  LZ1 d   1      18.706   9.773  -1.996  0.00  0.00     0.189 HD
ATOM     15  H6  LZ1 d   1      21.892   7.909  -3.831  0.00  0.00     0.118 H 
ENDROOT
TORSDOF 0
