REMARK  1 active torsions:
REMARK  status: ('A' for Active; 'I' for Inactive)
REMARK    1  A    between atoms: C2_3  and  O1_2 
ROOT
ATOM      1  C1  03V d   1      22.413   7.602  -3.483  0.00  0.00    -0.050 A 
ATOM      2  C2  03V d   1      22.575   6.223  -3.530  0.00  0.00     0.066 A 
ATOM      3  C3  03V d   1      21.588   5.384  -3.018  0.00  0.00    -0.040 A 
ATOM      4  C4  03V d   1      20.438   5.943  -2.462  0.00  0.00    -0.023 A 
ATOM      5  C5  03V d   1      20.282   7.324  -2.415  0.00  0.00    -0.026 A 
ATOM      6  C7  03V d   1      21.267   8.157  -2.928  0.00  0.00    -0.070 A 
ATOM      7  C8  03V d   1      19.139   7.887  -1.859  0.00  0.00    -0.072 A 
ATOM      8  C9  03V d   1      18.149   7.068  -1.345  0.00  0.00    -0.082 A 
ATOM      9  C10 03V d   1      18.308   5.694  -1.383  0.00  0.00    -0.082 A 
ATOM     10  C11 03V d   1      19.440   5.124  -1.934  0.00  0.00    -0.072 A 
ATOM     11  H1  03V d   1      23.186   8.249  -3.882  0.00  0.00     0.087 H 
ATOM     12  H3  03V d   1      21.713   4.308  -3.051  0.00  0.00     0.089 H 
ATOM     13  H4  03V d   1      21.143   9.233  -2.896  0.00  0.00     0.085 H 
ATOM     14  H5  03V d   1      19.024   8.964  -1.828  0.00  0.00     0.084 H 
ATOM     15  H6  03V d   1      17.253   7.501  -0.915  0.00  0.00     0.083 H 
ATOM     16  H7  03V d   1      17.533   5.055  -0.975  0.00  0.00     0.083 H 
ATOM     17  H8  03V d   1      19.552   4.046  -1.956  0.00  0.00     0.084 H 
ENDROOT
BRANCH   2  18
ATOM     18  O1  03V d   1      23.705   5.695  -4.078  0.00  0.00    -0.361 OA
ATOM     19  H2  03V d   1      23.663   4.747  -4.035  0.00  0.00     0.217 HD
ENDBRANCH   2  18
TORSDOF 1
