REMARK  1 active torsions:
REMARK  status: ('A' for Active; 'I' for Inactive)
REMARK    1  A    between atoms: O1_1  and  C1_2 
ROOT
ATOM      1  C1  1NP d   1      19.227   8.028  -2.133  0.00  0.00     0.076 A 
ATOM      2  C8A 1NP d   1      20.293   7.351  -2.693  0.00  0.00     0.007 A 
ATOM      3  C8  1NP d   1      21.282   8.090  -3.337  0.00  0.00    -0.070 A 
ATOM      4  C7  1NP d   1      22.358   7.425  -3.906  0.00  0.00    -0.082 A 
ATOM      5  C2  1NP d   1      18.215   7.328  -1.488  0.00  0.00    -0.050 A 
ATOM      6  C3  1NP d   1      18.292   5.944  -1.413  0.00  0.00    -0.080 A 
ATOM      7  C4  1NP d   1      19.354   5.255  -1.974  0.00  0.00    -0.072 A 
ATOM      8  C4A 1NP d   1      20.366   5.968  -2.622  0.00  0.00    -0.023 A 
ATOM      9  C5  1NP d   1      21.446   5.303  -3.196  0.00  0.00    -0.072 A 
ATOM     10  C6  1NP d   1      22.440   6.041  -3.834  0.00  0.00    -0.082 A 
ATOM     11  H2  1NP d   1      21.212   9.170  -3.393  0.00  0.00     0.085 H 
ATOM     12  H3  1NP d   1      23.137   7.987  -4.408  0.00  0.00     0.083 H 
ATOM     13  H4  1NP d   1      17.376   7.856  -1.049  0.00  0.00     0.087 H 
ATOM     14  H5  1NP d   1      17.508   5.393  -0.907  0.00  0.00     0.083 H 
ATOM     15  H6  1NP d   1      19.400   4.174  -1.911  0.00  0.00     0.084 H 
ATOM     16  H7  1NP d   1      21.513   4.222  -3.147  0.00  0.00     0.084 H 
ATOM     17  H8  1NP d   1      23.286   5.530  -4.279  0.00  0.00     0.083 H 
ENDROOT
BRANCH   1  18
ATOM     18  O1  1NP d   1      19.183   9.379  -2.230  0.00  0.00    -0.360 OA
ATOM     19  H1  1NP d   1      18.398   9.701  -1.802  0.00  0.00     0.217 HD
ENDBRANCH   1  18
TORSDOF 1
