REMARK  1 active torsions:
REMARK  status: ('A' for Active; 'I' for Inactive)
REMARK    1  A    between atoms: C7_10  and  N2_5 
ROOT
ATOM      1  C1  ABV d   1      18.562   5.381  -1.692  0.00  0.00    -0.064 A 
ATOM      2  N1  ABV d   1      20.338   8.185  -3.052  0.00  0.00    -0.224 NA
ATOM      3  S1  ABV d   1      18.214   8.134  -1.770  0.00  0.00    -0.051 SA
ATOM      4  C2  ABV d   1      19.344   4.306  -2.055  0.00  0.00    -0.082 A 
ATOM      5  C3  ABV d   1      20.510   4.505  -2.785  0.00  0.00    -0.081 A 
ATOM      6  C4  ABV d   1      20.897   5.790  -3.144  0.00  0.00    -0.054 A 
ATOM      7  C5  ABV d   1      20.113   6.882  -2.783  0.00  0.00     0.076 A 
ATOM      8  C6  ABV d   1      18.937   6.652  -2.049  0.00  0.00     0.037 A 
ATOM      9  C7  ABV d   1      19.392   8.990  -2.572  0.00  0.00     0.165 A 
ATOM     10  H1  ABV d   1      17.652   5.223  -1.125  0.00  0.00     0.085 H 
ATOM     11  H2  ABV d   1      19.049   3.303  -1.770  0.00  0.00     0.083 H 
ATOM     12  H5  ABV d   1      21.119   3.656  -3.075  0.00  0.00     0.083 H 
ATOM     13  H6  ABV d   1      21.811   5.942  -3.706  0.00  0.00     0.087 H 
ENDROOT
BRANCH   9  14
ATOM     14  N2  ABV d   1      19.378  10.308  -2.702  0.00  0.00    -0.378 N 
ATOM     15  H3  ABV d   1      20.137  10.783  -3.211  0.00  0.00     0.158 HD
ATOM     16  H4  ABV d   1      18.608  10.858  -2.294  0.00  0.00     0.158 HD
ENDBRANCH   9  14
TORSDOF 1
