REMARK  3 active torsions:
REMARK  status: ('A' for Active; 'I' for Inactive)
REMARK    1  A    between atoms: CAJ_1  and  OAM_2 
REMARK    2  A    between atoms: OAM_2  and  CAI_3 
REMARK    3  A    between atoms: CAI_3  and  CAG_5 
ROOT
ATOM      1  CAG 4ME d   1      20.766   6.014  -2.860  0.00  0.00     0.052 A 
ATOM      2  CAB 4ME d   1      19.858   5.127  -2.303  0.00  0.00    -0.066 A 
ATOM      3  CAA 4ME d   1      18.722   5.615  -1.676  0.00  0.00    -0.080 A 
ATOM      4  CAC 4ME d   1      18.472   6.965  -1.599  0.00  0.00    -0.056 A 
ATOM      5  CAH 4ME d   1      19.386   7.853  -2.155  0.00  0.00     0.043 A 
ATOM      6  CAF 4ME d   1      20.527   7.378  -2.792  0.00  0.00     0.008 A 
ATOM      7  CAD 4ME d   1      21.204   8.438  -3.228  0.00  0.00    -0.055 A 
ATOM      8  CAE 4ME d   1      20.517   9.528  -2.889  0.00  0.00    -0.022 A 
ATOM      9  NAK 4ME d   1      19.405   9.172  -2.236  0.00  0.00    -0.365 N 
ATOM     10  H4  4ME d   1      20.035   4.059  -2.357  0.00  0.00     0.085 H 
ATOM     11  H5  4ME d   1      18.017   4.918  -1.238  0.00  0.00     0.083 H 
ATOM     12  H6  4ME d   1      17.576   7.332  -1.112  0.00  0.00     0.086 H 
ATOM     13  H7  4ME d   1      22.151   8.418  -3.766  0.00  0.00     0.087 H 
ATOM     14  H8  4ME d   1      20.815  10.552  -3.110  0.00  0.00     0.111 H 
ATOM     15  H9  4ME d   1      18.690   9.813  -1.862  0.00  0.00     0.165 HD
ENDROOT
BRANCH   1  16
ATOM     16  CAI 4ME d   1      22.001   5.439  -3.539  0.00  0.00     0.293 C 
ATOM     17  OAL 4ME d   1      22.840   6.166  -4.071  0.00  0.00    -0.259 OA
BRANCH  16  18
ATOM     18  OAM 4ME d   1      22.138   4.096  -3.524  0.00  0.00    -0.322 OA
BRANCH  18  19
ATOM     19  CAJ 4ME d   1      23.326   3.658  -4.188  0.00  0.00     0.013 C 
ATOM     20  H1  4ME d   1      23.386   2.561  -4.146  0.00  0.00     0.067 H 
ATOM     21  H2  4ME d   1      24.206   4.093  -3.691  0.00  0.00     0.067 H 
ATOM     22  H3  4ME d   1      23.300   3.983  -5.238  0.00  0.00     0.067 H 
ENDBRANCH  18  19
ENDBRANCH  16  18
ENDBRANCH   1  16
TORSDOF 3
