REMARK  17 active torsions:
REMARK  status: ('A' for Active; 'I' for Inactive)
REMARK    1  A    between atoms: C_1  and  CH3_3 
REMARK       I    between atoms: C_1  and  N_4 
REMARK    2  A    between atoms: N_4  and  CA_5 
REMARK    3  A    between atoms: CA_5  and  C_6 
REMARK    4  A    between atoms: CA_5  and  CB_8 
REMARK       I    between atoms: C_6  and  N_15 
REMARK    5  A    between atoms: CB_8  and  CG_9 
REMARK    6  A    between atoms: N_15  and  CA_16 
REMARK    7  A    between atoms: CA_16  and  C_17 
REMARK    8  A    between atoms: CA_16  and  CB_19 
REMARK       I    between atoms: C_17  and  N_25 
REMARK    9  A    between atoms: CB_19  and  CG_20 
REMARK   10  A    between atoms: N_25  and  CA_26 
REMARK   11  A    between atoms: CA_26  and  C_27 
REMARK   12  A    between atoms: CA_26  and  CB_29 
REMARK       I    between atoms: C_27  and  N_32 
REMARK   13  A    between atoms: CB_29  and  OG1_30 
REMARK   14  A    between atoms: CB_29  and  CG2_31 
REMARK   15  A    between atoms: N_32  and  CA_33 
REMARK   16  A    between atoms: CA_33  and  C_34 
REMARK   17  A    between atoms: CA_33  and  CB_36 
REMARK       I    between atoms: C_34  and  N_37 
ROOT
ATOM      1  CA  HIS d   1      26.018   2.567  44.230  0.00  0.00     0.094 C 
ATOM      2  H14 HIS d   1      26.617   1.807  44.754  0.00  0.00     0.088 H 
ENDROOT
BRANCH   1   3
ATOM      3  N   HIS d   1      25.938   2.230  42.809  0.00  0.00    -0.346 N 
ATOM      4  C   PHE d   1      26.753   1.325  42.280  0.00  0.00     0.241 C 
ATOM      5  O   PHE d   1      27.698   0.816  42.909  0.00  0.00    -0.271 OA
ATOM      6  H13 HIS d   1      25.262   2.686  42.230  0.00  0.00     0.163 HD
BRANCH   4   7
ATOM      7  CA  PHE d   1      26.492   0.970  40.814  0.00  0.00     0.093 C 
ATOM      8  H5  PHE d   1      25.915   1.787  40.357  0.00  0.00     0.088 H 
BRANCH   7   9
ATOM      9  N   PHE d   1      27.733   0.824  40.086  0.00  0.00    -0.348 N 
ATOM     10  C   ACE d   1      28.497   1.837  39.710  0.00  0.00     0.214 C 
ATOM     11  O   ACE d   1      28.137   2.962  40.054  0.00  0.00    -0.274 OA
ATOM     12  H4  PHE d   1      28.033  -0.101  39.852  0.00  0.00     0.163 HD
BRANCH  10  13
ATOM     13  CH3 ACE d   1      29.852   1.541  39.135  0.00  0.00    -0.003 C 
ATOM     14  H1  ACE d   1      29.928   0.467  38.910  0.00  0.00     0.040 H 
ATOM     15  H2  ACE d   1      30.628   1.819  39.864  0.00  0.00     0.040 H 
ATOM     16  H3  ACE d   1      29.993   2.120  38.211  0.00  0.00     0.040 H 
ENDBRANCH  10  13
ENDBRANCH   7   9
BRANCH   7  17
ATOM     17  CB  PHE d   1      25.671  -0.320  40.719  0.00  0.00    -0.014 C 
ATOM     18  H6  PHE d   1      24.832  -0.252  41.428  0.00  0.00     0.043 H 
ATOM     19  H7  PHE d   1      26.318  -1.165  40.996  0.00  0.00     0.043 H 
BRANCH  17  20
ATOM     20  CG  PHE d   1      25.116  -0.576  39.351  0.00  0.00    -0.056 A 
ATOM     21  CD1 PHE d   1      23.877  -0.070  39.000  0.00  0.00    -0.077 A 
ATOM     22  CE1 PHE d   1      23.352  -0.291  37.751  0.00  0.00    -0.082 A 
ATOM     23  H8  PHE d   1      23.313   0.509  39.722  0.00  0.00     0.084 H 
ATOM     24  CZ  PHE d   1      24.082  -1.001  36.823  0.00  0.00    -0.083 A 
ATOM     25  H10 PHE d   1      22.370   0.090  37.497  0.00  0.00     0.083 H 
ATOM     26  CE2 PHE d   1      25.319  -1.513  37.163  0.00  0.00    -0.082 A 
ATOM     27  H12 PHE d   1      23.686  -1.158  35.826  0.00  0.00     0.083 H 
ATOM     28  CD2 PHE d   1      25.835  -1.293  38.423  0.00  0.00    -0.077 A 
ATOM     29  H11 PHE d   1      25.885  -2.088  36.439  0.00  0.00     0.083 H 
ATOM     30  H9  PHE d   1      26.811  -1.687  38.683  0.00  0.00     0.084 H 
ENDBRANCH  17  20
ENDBRANCH   7  17
ENDBRANCH   4   7
ENDBRANCH   1   3
BRANCH   1  31
ATOM     31  C   HIS d   1      24.619   2.606  44.781  0.00  0.00     0.241 C 
ATOM     32  O   HIS d   1      23.673   2.953  44.079  0.00  0.00    -0.271 OA
ATOM     33  N   THR d   1      24.483   2.299  46.064  0.00  0.00    -0.344 N 
ATOM     34  H20 THR d   1      25.281   2.011  46.593  0.00  0.00     0.163 HD
BRANCH  33  35
ATOM     35  CA  THR d   1      23.186   2.378  46.703  0.00  0.00     0.113 C 
ATOM     36  H21 THR d   1      22.508   1.700  46.164  0.00  0.00     0.091 H 
BRANCH  35  37
ATOM     37  C   THR d   1      22.616   3.800  46.586  0.00  0.00     0.243 C 
ATOM     38  O   THR d   1      23.358   4.789  46.645  0.00  0.00    -0.271 OA
ATOM     39  N   ALA d   1      21.299   3.903  46.420  0.00  0.00    -0.346 N 
ATOM     40  H27 ALA d   1      20.757   3.083  46.237  0.00  0.00     0.163 HD
BRANCH  39  41
ATOM     41  CA  ALA d   1      20.640   5.201  46.502  0.00  0.00     0.086 C 
ATOM     42  H28 ALA d   1      21.330   5.957  46.099  0.00  0.00     0.086 H 
BRANCH  41  43
ATOM     43  C   ALA d   1      20.329   5.578  47.973  0.00  0.00     0.237 C 
ATOM     44  O   ALA d   1      19.887   6.686  48.256  0.00  0.00    -0.271 OA
ATOM     45  N   NH2 d   1      20.556   4.649  48.896  0.00  0.00    -0.368 N 
ATOM     46  H32 NH2 d   1      20.371   4.845  49.859  0.00  0.00     0.159 HD
ATOM     47  H33 NH2 d   1      20.912   3.754  48.627  0.00  0.00     0.159 HD
ENDBRANCH  41  43
BRANCH  41  48
ATOM     48  CB  ALA d   1      19.367   5.217  45.643  0.00  0.00    -0.049 C 
ATOM     49  H29 ALA d   1      18.886   6.203  45.719  0.00  0.00     0.030 H 
ATOM     50  H30 ALA d   1      18.673   4.442  46.001  0.00  0.00     0.030 H 
ATOM     51  H31 ALA d   1      19.630   5.017  44.594  0.00  0.00     0.030 H 
ENDBRANCH  41  48
ENDBRANCH  39  41
ENDBRANCH  35  37
BRANCH  35  52
ATOM     52  CB  THR d   1      23.235   1.907  48.181  0.00  0.00     0.060 C 
ATOM     53  H22 THR d   1      23.652   0.890  48.219  0.00  0.00     0.086 H 
BRANCH  52  54
ATOM     54  OG1 THR d   1      21.908   1.898  48.699  0.00  0.00    -0.393 OA
ATOM     55  H23 THR d   1      21.373   1.303  48.187  0.00  0.00     0.210 HD
ENDBRANCH  52  54
BRANCH  52  56
ATOM     56  CG2 THR d   1      24.086   2.817  49.032  0.00  0.00    -0.050 C 
ATOM     57  H24 THR d   1      24.094   2.449  50.068  0.00  0.00     0.031 H 
ATOM     58  H25 THR d   1      23.671   3.835  49.008  0.00  0.00     0.031 H 
ATOM     59  H26 THR d   1      25.114   2.830  48.640  0.00  0.00     0.031 H 
ENDBRANCH  52  56
ENDBRANCH  35  52
ENDBRANCH  33  35
ENDBRANCH   1  31
BRANCH   1  60
ATOM     60  CB  HIS d   1      26.624   3.944  44.458  0.00  0.00     0.004 C 
ATOM     61  H15 HIS d   1      26.659   4.131  45.541  0.00  0.00     0.046 H 
ATOM     62  H16 HIS d   1      25.975   4.691  43.978  0.00  0.00     0.046 H 
BRANCH  60  63
ATOM     63  CG  HIS d   1      27.998   4.098  43.912  0.00  0.00     0.053 A 
ATOM     64  ND1 HIS d   1      29.121   3.589  44.528  0.00  0.00    -0.247 NA
ATOM     65  CE1 HIS d   1      30.187   3.889  43.808  0.00  0.00     0.064 A 
ATOM     66  NE2 HIS d   1      29.795   4.569  42.747  0.00  0.00    -0.359 N 
ATOM     67  H18 HIS d   1      31.215   3.621  44.049  0.00  0.00     0.143 H 
ATOM     68  CD2 HIS d   1      28.429   4.715  42.792  0.00  0.00     0.002 A 
ATOM     69  H19 HIS d   1      30.412   4.931  42.006  0.00  0.00     0.166 HD
ATOM     70  H17 HIS d   1      27.810   5.232  42.060  0.00  0.00     0.114 H 
ENDBRANCH  60  63
ENDBRANCH   1  60
TORSDOF 17
