REMARK  1 active torsions:
REMARK  status: ('A' for Active; 'I' for Inactive)
REMARK    1  A    between atoms: O10_1  and  C5_2 
ROOT
ATOM      1  C5  5H1 d   1       9.665  16.852  22.404  0.00  0.00     0.066 A 
ATOM      2  C6  5H1 d   1      10.378  17.785  21.656  0.00  0.00    -0.049 A 
ATOM      3  C7  5H1 d   1      10.882  17.428  20.412  0.00  0.00    -0.054 A 
ATOM      4  C8  5H1 d   1      10.674  16.138  19.925  0.00  0.00     0.042 A 
ATOM      5  N1  5H1 d   1      11.035  15.537  18.793  0.00  0.00    -0.365 N 
ATOM      6  C4  5H1 d   1       9.460  15.563  21.913  0.00  0.00    -0.039 A 
ATOM      7  C9  5H1 d   1       9.967  15.210  20.673  0.00  0.00    -0.005 A 
ATOM      8  C3  5H1 d   1       9.928  14.083  19.969  0.00  0.00    -0.056 A 
ATOM      9  C2  5H1 d   1      10.579  14.285  18.823  0.00  0.00    -0.022 A 
ATOM     10  H2  5H1 d   1      10.539  18.785  22.043  0.00  0.00     0.087 H 
ATOM     11  H3  5H1 d   1      11.435  18.150  19.822  0.00  0.00     0.087 H 
ATOM     12  H4  5H1 d   1      11.573  15.966  18.027  0.00  0.00     0.165 HD
ATOM     13  H5  5H1 d   1       8.906  14.839  22.500  0.00  0.00     0.089 H 
ATOM     14  H6  5H1 d   1       9.447  13.155  20.275  0.00  0.00     0.086 H 
ATOM     15  H7  5H1 d   1      10.716  13.544  18.036  0.00  0.00     0.111 H 
ENDROOT
BRANCH   1  16
ATOM     16  O10 5H1 d   1       9.168  17.198  23.619  0.00  0.00    -0.361 OA
ATOM     17  H1  5H1 d   1       8.564  17.924  23.518  0.00  0.00     0.217 HD
ENDBRANCH   1  16
TORSDOF 1
