REMARK  1 active torsions:
REMARK  status: ('A' for Active; 'I' for Inactive)
REMARK    1  A    between atoms: C5_1  and  CAJ_10 
ROOT
ATOM      1  C5  5MI d   1       5.327   6.815  -1.077  0.00  0.00    -0.061 A 
ATOM      2  C6  5MI d   1       4.414   6.133  -1.870  0.00  0.00    -0.075 A 
ATOM      3  C7  5MI d   1       4.686   4.832  -2.277  0.00  0.00    -0.056 A 
ATOM      4  C8  5MI d   1       5.874   4.221  -1.892  0.00  0.00     0.042 A 
ATOM      5  N1  5MI d   1       6.382   3.017  -2.131  0.00  0.00    -0.365 N 
ATOM      6  C4  5MI d   1       6.514   6.200  -0.691  0.00  0.00    -0.065 A 
ATOM      7  C9  5MI d   1       6.785   4.898  -1.102  0.00  0.00    -0.008 A 
ATOM      8  C3  5MI d   1       7.814   4.085  -0.892  0.00  0.00    -0.056 A 
ATOM      9  C2  5MI d   1       7.567   2.942  -1.524  0.00  0.00    -0.022 A 
ATOM     10  H1  5MI d   1       3.491   6.614  -2.171  0.00  0.00     0.084 H 
ATOM     11  H2  5MI d   1       3.974   4.295  -2.893  0.00  0.00     0.087 H 
ATOM     12  H3  5MI d   1       5.939   2.272  -2.687  0.00  0.00     0.165 HD
ATOM     13  H4  5MI d   1       7.226   6.734  -0.072  0.00  0.00     0.085 H 
ATOM     14  H5  5MI d   1       8.703   4.314  -0.306  0.00  0.00     0.086 H 
ATOM     15  H6  5MI d   1       8.230   2.078  -1.543  0.00  0.00     0.111 H 
ENDROOT
BRANCH   1  16
ATOM     16  CAJ 5MI d   1       5.019   8.244  -0.631  0.00  0.00    -0.051 C 
ATOM     17  H7  5MI d   1       4.043   8.551  -1.034  0.00  0.00     0.033 H 
ATOM     18  H8  5MI d   1       5.800   8.922  -1.006  0.00  0.00     0.033 H 
ATOM     19  H9  5MI d   1       4.992   8.287   0.468  0.00  0.00     0.033 H 
ENDBRANCH   1  16
TORSDOF 1
