REMARK  7 active torsions:
REMARK  status: ('A' for Active; 'I' for Inactive)
REMARK    1  A    between atoms: O01_1  and  C02_2 
REMARK    2  A    between atoms: C02_2  and  C03_3 
REMARK    3  A    between atoms: C03_3  and  C04_4 
REMARK    4  A    between atoms: C06_6  and  C07_7 
REMARK    5  A    between atoms: C11_11  and  O12_12 
REMARK    6  A    between atoms: O12_12  and  C13_13 
REMARK    7  A    between atoms: C13_13  and  C14_14 
ROOT
ATOM      1  C07 SW4 d   1      15.274  26.564  20.460  0.00  0.00    -0.033 A 
ATOM      2  C08 SW4 d   1      14.899  25.229  20.609  0.00  0.00     0.008 A 
ATOM      3  N09 SW4 d   1      15.077  24.378  19.552  0.00  0.00    -0.270 NA
ATOM      4  C10 SW4 d   1      15.617  24.800  18.379  0.00  0.00     0.034 A 
ATOM      5  C11 SW4 d   1      15.991  26.163  18.210  0.00  0.00     0.086 A 
ATOM      6  C18 SW4 d   1      15.816  27.032  19.268  0.00  0.00    -0.042 A 
ATOM      7  H10 SW4 d   1      14.476  24.873  21.541  0.00  0.00     0.115 H 
ATOM      8  H11 SW4 d   1      15.764  24.096  17.568  0.00  0.00     0.119 H 
ATOM      9  H21 SW4 d   1      16.099  28.074  19.170  0.00  0.00     0.088 H 
ENDROOT
BRANCH   1  10
ATOM     10  C06 SW4 d   1      15.132  27.670  21.510  0.00  0.00    -0.023 A 
ATOM     11  C04 SW4 d   1      15.331  29.033  22.070  0.00  0.00    -0.044 A 
ATOM     12  C05 SW4 d   1      16.220  27.911  22.509  0.00  0.00    -0.053 A 
ATOM     13  H6  SW4 d   1      15.699  29.895  21.494  0.00  0.00     0.041 H 
ATOM     14  H7  SW4 d   1      16.133  27.505  23.528  0.00  0.00     0.034 H 
ATOM     15  H8  SW4 d   1      17.273  27.887  22.193  0.00  0.00     0.034 H 
ATOM     16  H9  SW4 d   1      14.182  27.321  21.941  0.00  0.00     0.048 H 
BRANCH  11  17
ATOM     17  C03 SW4 d   1      14.227  29.362  23.010  0.00  0.00    -0.041 C 
ATOM     18  H4  SW4 d   1      13.278  29.028  22.565  0.00  0.00     0.036 H 
ATOM     19  H5  SW4 d   1      14.399  28.823  23.953  0.00  0.00     0.036 H 
BRANCH  17  20
ATOM     20  C02 SW4 d   1      14.120  30.849  23.316  0.00  0.00     0.017 C 
ATOM     21  H2  SW4 d   1      13.541  30.960  24.245  0.00  0.00     0.073 H 
ATOM     22  H3  SW4 d   1      15.139  31.234  23.470  0.00  0.00     0.073 H 
BRANCH  20  23
ATOM     23  O01 SW4 d   1      13.519  31.626  22.352  0.00  0.00    -0.401 OA
ATOM     24  H1  SW4 d   1      13.504  32.531  22.641  0.00  0.00     0.209 HD
ENDBRANCH  20  23
ENDBRANCH  17  20
ENDBRANCH  11  17
ENDBRANCH   1  10
BRANCH   5  25
ATOM     25  O12 SW4 d   1      16.542  26.709  17.007  0.00  0.00    -0.348 OA
BRANCH  25  26
ATOM     26  C13 SW4 d   1      17.453  27.752  17.064  0.00  0.00     0.053 C 
ATOM     27  H12 SW4 d   1      18.215  27.504  17.818  0.00  0.00     0.078 H 
ATOM     28  H13 SW4 d   1      16.917  28.662  17.370  0.00  0.00     0.078 H 
BRANCH  26  29
ATOM     29  C14 SW4 d   1      18.154  28.032  15.755  0.00  0.00     0.124 C 
ATOM     30  C15 SW4 d   1      17.386  27.430  14.662  0.00  0.00    -0.014 C 
ATOM     31  C16 SW4 d   1      18.287  26.264  14.699  0.00  0.00     0.084 C 
ATOM     32  H15 SW4 d   1      17.419  27.997  13.720  0.00  0.00     0.038 H 
ATOM     33  H16 SW4 d   1      16.340  27.202  14.916  0.00  0.00     0.038 H 
ATOM     34  N17 SW4 d   1      19.194  27.020  15.554  0.00  0.00    -0.069 N 
ATOM     35  H17 SW4 d   1      18.711  25.988  13.722  0.00  0.00     0.075 H 
ATOM     36  H18 SW4 d   1      17.854  25.372  15.176  0.00  0.00     0.075 H 
ATOM     37  H19 SW4 d   1      19.466  26.536  16.395  0.00  0.00     0.277 HD
ATOM     38  H20 SW4 d   1      20.016  27.362  15.082  0.00  0.00     0.277 HD
ATOM     39  H14 SW4 d   1      18.449  29.085  15.638  0.00  0.00     0.087 H 
ENDBRANCH  26  29
ENDBRANCH  25  26
ENDBRANCH   5  25
TORSDOF 7
