REMARK  2 active torsions:
REMARK  status: ('A' for Active; 'I' for Inactive)
REMARK    1  A    between atoms: C1_1  and  C2_4 
REMARK    2  A    between atoms: C2_4  and  C3_6 
ROOT
ATOM      1  C2  PYR d   1     -47.298 -31.803 -17.825  0.00  0.00     0.223 C 
ATOM      2  O3  PYR d   1     -46.599 -32.296 -18.811  0.00  0.00    -0.213 OA
ENDROOT
BRANCH   1   3
ATOM      3  C1  PYR d   1     -48.587 -31.339 -18.092  0.00  0.00     0.216 C 
ATOM      4  O1  PYR d   1     -49.279 -30.775 -17.139  0.00  0.00    -0.646 OA
ATOM      5  O2  PYR d   1     -49.107 -31.481 -19.295  0.00  0.00    -0.646 OA
ENDBRANCH   1   3
BRANCH   1   6
ATOM      6  C3  PYR d   1     -46.736 -31.789 -16.437  0.00  0.00    -0.032 C 
ATOM      7  H1  PYR d   1     -45.714 -32.195 -16.451  0.00  0.00     0.032 H 
ATOM      8  H2  PYR d   1     -47.367 -32.406 -15.780  0.00  0.00     0.032 H 
ATOM      9  H3  PYR d   1     -46.715 -30.756 -16.061  0.00  0.00     0.032 H 
ENDBRANCH   1   6
TORSDOF 2
