REMARK  3 active torsions:
REMARK  status: ('A' for Active; 'I' for Inactive)
REMARK    1  A    between atoms: C4_1  and  C3_2 
REMARK    2  A    between atoms: C3_2  and  C2_3 
REMARK    3  A    between atoms: C2_3  and  C1_5 
ROOT
ATOM      1  C3  2KT d   1     -20.983  -6.660   9.528  0.00  0.00    -0.003 C 
ATOM      2  H4  2KT d   1     -21.153  -7.731   9.346  0.00  0.00     0.044 H 
ATOM      3  H5  2KT d   1     -21.685  -6.303  10.296  0.00  0.00     0.044 H 
ENDROOT
BRANCH   1   4
ATOM      4  C4  2KT d   1     -21.268  -5.926   8.264  0.00  0.00    -0.070 C 
ATOM      5  H1  2KT d   1     -22.308  -6.111   7.959  0.00  0.00     0.028 H 
ATOM      6  H2  2KT d   1     -20.587  -6.277   7.475  0.00  0.00     0.028 H 
ATOM      7  H3  2KT d   1     -21.119  -4.848   8.425  0.00  0.00     0.028 H 
ENDBRANCH   1   4
BRANCH   1   8
ATOM      8  C2  2KT d   1     -19.609  -6.496  10.052  0.00  0.00     0.224 C 
ATOM      9  O3  2KT d   1     -18.794  -5.976   9.293  0.00  0.00    -0.286 OA
BRANCH   8  10
ATOM     10  C1  2KT d   1     -19.311  -6.952  11.464  0.00  0.00     0.246 C 
ATOM     11  O1  2KT d   1     -18.163  -6.877  11.993  0.00  0.00    -0.642 OA
ATOM     12  O2  2KT d   1     -20.214  -7.525  12.126  0.00  0.00    -0.642 OA
ENDBRANCH   8  10
ENDBRANCH   1   8
TORSDOF 3
