REMARK  3 active torsions:
REMARK  status: ('A' for Active; 'I' for Inactive)
REMARK    1  A    between atoms: C1_1  and  C2_4 
REMARK    2  A    between atoms: C2_4  and  O3_5 
REMARK    3  A    between atoms: C2_4  and  C3_6 
ROOT
ATOM      1  C2  PYR d   1      29.400  47.063  52.230  0.00  0.00     0.115 C 
ATOM      2  H1  PYR d   1      28.487  47.082  51.617  0.00  0.00     0.099 H 
ENDROOT
BRANCH   1   3
ATOM      3  C1  PYR d   1      29.736  45.806  51.716  0.00  0.00     0.202 C 
ATOM      4  O1  PYR d   1      30.449  45.725  50.638  0.00  0.00    -0.646 OA
ATOM      5  O2  PYR d   1      29.321  44.714  52.305  0.00  0.00    -0.646 OA
ENDBRANCH   1   3
BRANCH   1   6
ATOM      6  O3  PYR d   1      29.811  48.166  51.626  0.00  0.00    -0.385 OA
ATOM      7  H2  PYR d   1      29.471  48.186  50.739  0.00  0.00     0.210 HD
ENDBRANCH   1   6
BRANCH   1   8
ATOM      8  C3  PYR d   1      28.574  47.084  53.467  0.00  0.00    -0.043 C 
ATOM      9  H3  PYR d   1      28.383  48.126  53.763  0.00  0.00     0.031 H 
ATOM     10  H4  PYR d   1      29.111  46.566  54.275  0.00  0.00     0.031 H 
ATOM     11  H5  PYR d   1      27.617  46.575  53.278  0.00  0.00     0.031 H 
ENDBRANCH   1   8
TORSDOF 3
