REMARK  6 active torsions:
REMARK  status: ('A' for Active; 'I' for Inactive)
REMARK    1  A    between atoms: CAU_11  and  CAL_12 
REMARK    2  A    between atoms: CAL_12  and  CAX_13 
REMARK    3  A    between atoms: CAY_14  and  OAF_15 
REMARK    4  A    between atoms: CAY_14  and  CAN_16 
REMARK    5  A    between atoms: CAW_21  and  OAE_22 
REMARK    6  A    between atoms: CAV_23  and  OAD_24 
ROOT
ATOM      1  CAX 2HN d   1      28.862  44.757   7.158  0.00  0.00     0.050 C 
ATOM      2  CAY 2HN d   1      29.169  43.263   7.171  0.00  0.00     0.158 C 
ATOM      3  CAO 2HN d   1      28.233  45.169   8.485  0.00  0.00     0.165 C 
ATOM      4  OAB 2HN d   1      27.345  46.020   8.459  0.00  0.00    -0.294 OA
ATOM      5  CAW 2HN d   1      28.822  44.609   9.805  0.00  0.00     0.118 C 
ATOM      6  CAV 2HN d   1      29.046  43.085   9.691  0.00  0.00     0.070 C 
ATOM      7  CAM 2HN d   1      29.909  42.786   8.455  0.00  0.00     0.001 C 
ATOM      8  H3  2HN d   1      28.151  44.961   6.344  0.00  0.00     0.058 H 
ATOM      9  H5  2HN d   1      29.808  45.078   9.942  0.00  0.00     0.099 H 
ATOM     10  H7  2HN d   1      28.082  42.560   9.612  0.00  0.00     0.087 H 
ATOM     11  H9  2HN d   1      30.869  43.316   8.542  0.00  0.00     0.042 H 
ATOM     12  H10 2HN d   1      30.093  41.703   8.390  0.00  0.00     0.042 H 
ENDROOT
BRANCH   1  13
ATOM     13  CAL 2HN d   1      30.123  45.593   6.931  0.00  0.00    -0.022 C 
ATOM     14  H1  2HN d   1      30.741  45.549   7.840  0.00  0.00     0.041 H 
ATOM     15  H2  2HN d   1      30.681  45.162   6.087  0.00  0.00     0.041 H 
BRANCH  13  16
ATOM     16  CAU 2HN d   1      29.828  47.038   6.622  0.00  0.00     0.026 A 
ATOM     17  CAT 2HN d   1      29.681  47.470   5.303  0.00  0.00     0.167 A 
ATOM     18  FAK 2HN d   1      29.775  46.621   4.274  0.00  0.00    -0.202 F 
ATOM     19  CAR 2HN d   1      29.428  48.787   5.015  0.00  0.00     0.197 A 
ATOM     20  FAI 2HN d   1      29.307  49.193   3.737  0.00  0.00    -0.199 F 
ATOM     21  CAP 2HN d   1      29.319  49.666   6.074  0.00  0.00     0.199 A 
ATOM     22  FAG 2HN d   1      29.087  50.961   5.940  0.00  0.00    -0.199 F 
ATOM     23  CAQ 2HN d   1      29.462  49.270   7.357  0.00  0.00     0.197 A 
ATOM     24  FAH 2HN d   1      29.322  50.197   8.303  0.00  0.00    -0.199 F 
ATOM     25  CAS 2HN d   1      29.721  47.965   7.663  0.00  0.00     0.167 A 
ATOM     26  FAJ 2HN d   1      29.846  47.652   8.978  0.00  0.00    -0.202 F 
ENDBRANCH  13  16
ENDBRANCH   1  13
BRANCH   2  27
ATOM     27  OAF 2HN d   1      27.884  42.635   7.022  0.00  0.00    -0.378 OA
ATOM     28  H4  2HN d   1      27.491  42.911   6.202  0.00  0.00     0.211 HD
ENDBRANCH   2  27
BRANCH   2  29
ATOM     29  CAN 2HN d   1      30.022  42.949   5.932  0.00  0.00     0.210 C 
ATOM     30  OAC 2HN d   1      29.386  42.938   4.876  0.00  0.00    -0.646 OA
ATOM     31  OAA 2HN d   1      31.275  42.834   6.050  0.00  0.00    -0.646 OA
ENDBRANCH   2  29
BRANCH   5  32
ATOM     32  OAE 2HN d   1      28.044  44.934  10.962  0.00  0.00    -0.385 OA
ATOM     33  H6  2HN d   1      27.991  45.878  11.052  0.00  0.00     0.210 HD
ENDBRANCH   5  32
BRANCH   6  34
ATOM     34  OAD 2HN d   1      29.746  42.672  10.872  0.00  0.00    -0.392 OA
ATOM     35  H8  2HN d   1      29.222  42.878  11.637  0.00  0.00     0.210 HD
ENDBRANCH   6  34
TORSDOF 6
