REMARK  8 active torsions:
REMARK  status: ('A' for Active; 'I' for Inactive)
REMARK    1  A    between atoms: OAN_2  and  CAA_1 
REMARK    2  A    between atoms: CAR_3  and  OAN_2 
REMARK    3  A    between atoms: CAL_9  and  CAQ_8 
REMARK    4  A    between atoms: CAU_13  and  CAL_9 
REMARK    5  A    between atoms: CAT_12  and  OAF_14 
REMARK    6  A    between atoms: CAS_15  and  OAE_16 
REMARK    7  A    between atoms: CAV_18  and  CAO_19 
REMARK    8  A    between atoms: CAV_18  and  OAG_22 
ROOT
ATOM      1  CAP 3DQ d   1      22.937  47.605 -13.711  0.00  0.00     0.165 C 
ATOM      2  OAC 3DQ d   1      23.016  46.776 -14.613  0.00  0.00    -0.294 OA
ATOM      3  CAT 3DQ d   1      21.620  48.105 -13.151  0.00  0.00     0.118 C 
ATOM      4  CAU 3DQ d   1      24.204  48.172 -13.177  0.00  0.00     0.050 C 
ATOM      5  CAS 3DQ d   1      21.637  48.159 -11.619  0.00  0.00     0.070 C 
ATOM      6  CAM 3DQ d   1      22.849  48.992 -11.086  0.00  0.00     0.001 C 
ATOM      7  CAV 3DQ d   1      24.160  48.356 -11.634  0.00  0.00     0.158 C 
ATOM      8  H10 3DQ d   1      21.485  49.136 -13.509  0.00  0.00     0.099 H 
ATOM      9  H11 3DQ d   1      25.054  47.516 -13.414  0.00  0.00     0.058 H 
ATOM     10  H13 3DQ d   1      21.684  47.141 -11.206  0.00  0.00     0.087 H 
ATOM     11  H15 3DQ d   1      22.858  48.973  -9.986  0.00  0.00     0.042 H 
ATOM     12  H16 3DQ d   1      22.767  50.032 -11.434  0.00  0.00     0.042 H 
ENDROOT
BRANCH   4  13
ATOM     13  CAL 3DQ d   1      24.299  49.468 -13.989  0.00  0.00    -0.028 C 
ATOM     14  H8  3DQ d   1      23.357  50.016 -13.842  0.00  0.00     0.041 H 
ATOM     15  H9  3DQ d   1      25.133  50.054 -13.575  0.00  0.00     0.041 H 
BRANCH  13  16
ATOM     16  CAQ 3DQ d   1      24.531  49.352 -15.514  0.00  0.00    -0.057 A 
ATOM     17  CAI 3DQ d   1      23.468  49.363 -16.453  0.00  0.00    -0.074 A 
ATOM     18  CAK 3DQ d   1      23.708  49.295 -17.841  0.00  0.00    -0.050 A 
ATOM     19  H5  3DQ d   1      22.447  49.425 -16.095  0.00  0.00     0.084 H 
ATOM     20  CAR 3DQ d   1      25.034  49.236 -18.302  0.00  0.00     0.068 A 
ATOM     21  H4  3DQ d   1      22.881  49.288 -18.542  0.00  0.00     0.087 H 
ATOM     22  CAJ 3DQ d   1      26.088  49.220 -17.390  0.00  0.00    -0.050 A 
ATOM     23  CAH 3DQ d   1      25.834  49.286 -16.015  0.00  0.00    -0.074 A 
ATOM     24  H6  3DQ d   1      27.109  49.156 -17.747  0.00  0.00     0.087 H 
ATOM     25  H7  3DQ d   1      26.668  49.286 -15.322  0.00  0.00     0.084 H 
BRANCH  20  26
ATOM     26  OAN 3DQ d   1      25.316  49.170 -19.640  0.00  0.00    -0.356 OA
BRANCH  26  27
ATOM     27  CAA 3DQ d   1      26.142  50.160 -20.262  0.00  0.00     0.010 C 
ATOM     28  H1  3DQ d   1      26.247  49.930 -21.332  0.00  0.00     0.066 H 
ATOM     29  H2  3DQ d   1      27.135  50.160 -19.788  0.00  0.00     0.066 H 
ATOM     30  H3  3DQ d   1      25.679  51.151 -20.144  0.00  0.00     0.066 H 
ENDBRANCH  26  27
ENDBRANCH  20  26
ENDBRANCH  13  16
ENDBRANCH   4  13
BRANCH   7  31
ATOM     31  CAO 3DQ d   1      25.390  49.126 -11.196  0.00  0.00     0.210 C 
ATOM     32  OAB 3DQ d   1      25.281  50.285 -10.725  0.00  0.00    -0.646 OA
ATOM     33  OAD 3DQ d   1      26.472  48.544 -11.341  0.00  0.00    -0.646 OA
ENDBRANCH   7  31
BRANCH   7  34
ATOM     34  OAG 3DQ d   1      24.275  47.125 -10.926  0.00  0.00    -0.378 OA
ATOM     35  H17 3DQ d   1      25.061  46.671 -11.208  0.00  0.00     0.211 HD
ENDBRANCH   7  34
BRANCH   3  36
ATOM     36  OAF 3DQ d   1      20.514  47.333 -13.651  0.00  0.00    -0.385 OA
ATOM     37  H12 3DQ d   1      20.485  47.400 -14.598  0.00  0.00     0.210 HD
ENDBRANCH   3  36
BRANCH   5  38
ATOM     38  OAE 3DQ d   1      20.434  48.791 -11.242  0.00  0.00    -0.392 OA
ATOM     39  H14 3DQ d   1      19.697  48.283 -11.561  0.00  0.00     0.210 HD
ENDBRANCH   5  38
TORSDOF 8
