REMARK  6 active torsions:
REMARK  status: ('A' for Active; 'I' for Inactive)
REMARK    1  A    between atoms: CAU_11  and  CAL_12 
REMARK    2  A    between atoms: CAL_12  and  CAX_13 
REMARK    3  A    between atoms: CAY_14  and  OAF_15 
REMARK    4  A    between atoms: CAY_14  and  CAN_16 
REMARK    5  A    between atoms: CAW_21  and  OAE_22 
REMARK    6  A    between atoms: CAV_23  and  OAD_24 
ROOT
ATOM      1  CAX 2HN d   1      24.180  47.940 -13.124  0.00  0.00     0.050 C 
ATOM      2  CAY 2HN d   1      24.123  48.159 -11.604  0.00  0.00     0.158 C 
ATOM      3  CAO 2HN d   1      22.863  47.347 -13.521  0.00  0.00     0.165 C 
ATOM      4  OAB 2HN d   1      22.915  46.394 -14.289  0.00  0.00    -0.294 OA
ATOM      5  CAW 2HN d   1      21.528  47.944 -13.000  0.00  0.00     0.118 C 
ATOM      6  CAV 2HN d   1      21.560  48.041 -11.475  0.00  0.00     0.070 C 
ATOM      7  CAM 2HN d   1      22.826  48.858 -11.116  0.00  0.00     0.001 C 
ATOM      8  H3  2HN d   1      25.009  47.258 -13.362  0.00  0.00     0.058 H 
ATOM      9  H5  2HN d   1      21.451  48.971 -13.386  0.00  0.00     0.099 H 
ATOM     10  H7  2HN d   1      21.569  47.048 -11.002  0.00  0.00     0.087 H 
ATOM     11  H9  2HN d   1      22.756  49.849 -11.589  0.00  0.00     0.042 H 
ATOM     12  H10 2HN d   1      22.875  48.976 -10.024  0.00  0.00     0.042 H 
ENDROOT
BRANCH   1  13
ATOM     13  CAL 2HN d   1      24.322  49.218 -13.943  0.00  0.00    -0.022 C 
ATOM     14  H1  2HN d   1      23.410  49.818 -13.804  0.00  0.00     0.041 H 
ATOM     15  H2  2HN d   1      25.190  49.776 -13.561  0.00  0.00     0.041 H 
BRANCH  13  16
ATOM     16  CAU 2HN d   1      24.524  48.991 -15.463  0.00  0.00     0.026 A 
ATOM     17  CAT 2HN d   1      25.803  48.867 -16.005  0.00  0.00     0.167 A 
ATOM     18  FAK 2HN d   1      26.888  48.907 -15.210  0.00  0.00    -0.202 F 
ATOM     19  CAR 2HN d   1      25.991  48.698 -17.364  0.00  0.00     0.197 A 
ATOM     20  FAI 2HN d   1      27.212  48.584 -17.874  0.00  0.00    -0.199 F 
ATOM     21  CAP 2HN d   1      24.928  48.645 -18.227  0.00  0.00     0.199 A 
ATOM     22  FAG 2HN d   1      25.112  48.468 -19.532  0.00  0.00    -0.199 F 
ATOM     23  CAQ 2HN d   1      23.664  48.741 -17.726  0.00  0.00     0.197 A 
ATOM     24  FAH 2HN d   1      22.645  48.683 -18.581  0.00  0.00    -0.199 F 
ATOM     25  CAS 2HN d   1      23.467  48.923 -16.381  0.00  0.00     0.167 A 
ATOM     26  FAJ 2HN d   1      22.197  49.015 -15.989  0.00  0.00    -0.202 F 
ENDBRANCH  13  16
ENDBRANCH   1  13
BRANCH   2  27
ATOM     27  OAF 2HN d   1      24.226  46.921 -10.917  0.00  0.00    -0.378 OA
ATOM     28  H4  2HN d   1      25.051  46.505 -11.138  0.00  0.00     0.211 HD
ENDBRANCH   2  27
BRANCH   2  29
ATOM     29  CAN 2HN d   1      25.351  48.974 -11.269  0.00  0.00     0.210 C 
ATOM     30  OAC 2HN d   1      26.423  48.366 -11.294  0.00  0.00    -0.646 OA
ATOM     31  OAA 2HN d   1      25.192  50.164 -10.983  0.00  0.00    -0.646 OA
ENDBRANCH   2  29
BRANCH   5  32
ATOM     32  OAE 2HN d   1      20.405  47.226 -13.512  0.00  0.00    -0.385 OA
ATOM     33  H6  2HN d   1      20.407  47.271 -14.461  0.00  0.00     0.210 HD
ENDBRANCH   5  32
BRANCH   6  34
ATOM     34  OAD 2HN d   1      20.430  48.793 -11.082  0.00  0.00    -0.392 OA
ATOM     35  H8  2HN d   1      19.641  48.352 -11.373  0.00  0.00     0.210 HD
ENDBRANCH   6  34
TORSDOF 6
