REMARK  10 active torsions:
REMARK  status: ('A' for Active; 'I' for Inactive)
REMARK    1  A    between atoms: C2_4  and  C1_3 
REMARK    2  A    between atoms: C3_5  and  C2_4 
REMARK    3  A    between atoms: C3_5  and  N5_6 
REMARK    4  A    between atoms: C15_13  and  C3_5 
REMARK    5  A    between atoms: N5_6  and  C8_7 
REMARK    6  A    between atoms: C8_7  and  C10_8 
REMARK    7  A    between atoms: C8_7  and  C11_9 
REMARK    8  A    between atoms: C11_9  and  C12_10 
REMARK       I    between atoms: C12_10  and  N14_12 
REMARK    9  A    between atoms: C20_17  and  O21_18 
REMARK   10  A    between atoms: O21_18  and  C22_19 
ROOT
ATOM      1  C3  4VA d   1       0.212  13.994 -42.242  0.00  0.00     0.130 C 
ATOM      2  H6  4VA d   1      -0.695  14.607 -42.130  0.00  0.00     0.092 H 
ENDROOT
BRANCH   1   3
ATOM      3  C2  4VA d   1       0.337  13.597 -43.710  0.00  0.00    -0.038 C 
ATOM      4  H4  4VA d   1       1.354  13.216 -43.882  0.00  0.00     0.035 H 
ATOM      5  H5  4VA d   1      -0.393  12.801 -43.919  0.00  0.00     0.035 H 
BRANCH   3   6
ATOM      6  C1  4VA d   1       0.090  14.723 -44.653  0.00  0.00    -0.074 C 
ATOM      7  H1  4VA d   1       0.197  14.365 -45.688  0.00  0.00     0.027 H 
ATOM      8  H2  4VA d   1       0.819  15.525 -44.466  0.00  0.00     0.027 H 
ATOM      9  H3  4VA d   1      -0.928  15.111 -44.502  0.00  0.00     0.027 H 
ENDBRANCH   3   6
ENDBRANCH   1   3
BRANCH   1  10
ATOM     10  N5  4VA d   1       0.039  12.745 -41.416  0.00  0.00    -0.062 N 
ATOM     11  H7  4VA d   1       0.274  12.977 -40.464  0.00  0.00     0.278 HD
ATOM     12  H8  4VA d   1       0.690  12.059 -41.765  0.00  0.00     0.278 HD
BRANCH  10  13
ATOM     13  C8  4VA d   1      -1.328  12.108 -41.403  0.00  0.00     0.107 C 
ATOM     14  H9  4VA d   1      -1.655  11.947 -42.441  0.00  0.00     0.084 H 
BRANCH  13  15
ATOM     15  C10 4VA d   1      -1.266  10.750 -40.712  0.00  0.00    -0.049 C 
ATOM     16  H10 4VA d   1      -2.267  10.295 -40.708  0.00  0.00     0.030 H 
ATOM     17  H11 4VA d   1      -0.919  10.881 -39.676  0.00  0.00     0.030 H 
ATOM     18  H12 4VA d   1      -0.567  10.095 -41.253  0.00  0.00     0.030 H 
ENDBRANCH  13  15
BRANCH  13  19
ATOM     19  C11 4VA d   1      -2.304  13.067 -40.737  0.00  0.00     0.035 C 
ATOM     20  H13 4VA d   1      -3.315  12.636 -40.788  0.00  0.00     0.050 H 
ATOM     21  H14 4VA d   1      -2.285  14.025 -41.278  0.00  0.00     0.050 H 
BRANCH  19  22
ATOM     22  C12 4VA d   1      -1.957  13.317 -39.299  0.00  0.00     0.217 C 
ATOM     23  O13 4VA d   1      -0.803  13.417 -38.953  0.00  0.00    -0.274 OA
ATOM     24  N14 4VA d   1      -2.978  13.406 -38.456  0.00  0.00    -0.370 N 
ATOM     25  H15 4VA d   1      -2.811  13.572 -37.484  0.00  0.00     0.159 HD
ATOM     26  H16 4VA d   1      -3.914  13.307 -38.793  0.00  0.00     0.159 HD
ENDBRANCH  19  22
ENDBRANCH  13  19
ENDBRANCH  10  13
ENDBRANCH   1  10
BRANCH   1  27
ATOM     27  C15 4VA d   1       1.384  14.828 -41.774  0.00  0.00     0.014 A 
ATOM     28  C16 4VA d   1       1.190  16.143 -41.394  0.00  0.00    -0.070 A 
ATOM     29  C17 4VA d   1       2.252  16.907 -40.978  0.00  0.00    -0.058 A 
ATOM     30  H17 4VA d   1       0.195  16.573 -41.425  0.00  0.00     0.084 H 
ATOM     31  C18 4VA d   1       3.516  16.362 -40.935  0.00  0.00     0.071 A 
ATOM     32  H18 4VA d   1       2.096  17.939 -40.684  0.00  0.00     0.086 H 
ATOM     33 CL   4VA d   1       4.822  17.354 -40.395  0.00  0.00    -0.081 Cl
ATOM     34  C20 4VA d   1       3.726  15.048 -41.297  0.00  0.00     0.137 A 
ATOM     35  C28 4VA d   1       2.675  14.301 -41.721  0.00  0.00     0.160 A 
ATOM     36  F   4VA d   1       2.887  13.028 -42.083  0.00  0.00    -0.202 F 
BRANCH  34  37
ATOM     37  O21 4VA d   1       4.977  14.501 -41.276  0.00  0.00    -0.306 OA
BRANCH  37  38
ATOM     38  C22 4VA d   1       5.670  14.238 -40.119  0.00  0.00     0.076 A 
ATOM     39  C23 4VA d   1       5.031  14.255 -38.895  0.00  0.00    -0.050 A 
ATOM     40  C24 4VA d   1       5.737  13.982 -37.754  0.00  0.00    -0.080 A 
ATOM     41  H19 4VA d   1       3.973  14.484 -38.838  0.00  0.00     0.087 H 
ATOM     42  C25 4VA d   1       7.088  13.681 -37.826  0.00  0.00    -0.083 A 
ATOM     43  H20 4VA d   1       5.238  14.001 -36.792  0.00  0.00     0.083 H 
ATOM     44  C26 4VA d   1       7.727  13.660 -39.041  0.00  0.00    -0.080 A 
ATOM     45  H21 4VA d   1       7.642  13.461 -36.920  0.00  0.00     0.083 H 
ATOM     46  C27 4VA d   1       7.026  13.940 -40.188  0.00  0.00    -0.050 A 
ATOM     47  H22 4VA d   1       8.783  13.423 -39.095  0.00  0.00     0.083 H 
ATOM     48  H23 4VA d   1       7.530  13.929 -41.148  0.00  0.00     0.087 H 
ENDBRANCH  37  38
ENDBRANCH  34  37
ENDBRANCH   1  27
TORSDOF 10
