REMARK  4 active torsions:
REMARK  status: ('A' for Active; 'I' for Inactive)
REMARK    1  A    between atoms: O12_14  and  C3_5 
REMARK    2  A    between atoms: C7_7  and  C2_8 
REMARK    3  A    between atoms: C2_8  and  N3_9 
REMARK    4  A    between atoms: C11_12  and  O12_14 
ROOT
ATOM      1  C6  PW1 d   1       1.689  16.241 -41.657  0.00  0.00    -0.069 A 
ATOM      2  C5  PW1 d   1       2.625  17.205 -41.370  0.00  0.00    -0.042 A 
ATOM      3  C4  PW1 d   1       3.939  16.851 -41.238  0.00  0.00     0.153 A 
ATOM      4  F   PW1 d   1       4.846  17.807 -40.957  0.00  0.00    -0.203 F 
ATOM      5  C3  PW1 d   1       4.374  15.555 -41.382  0.00  0.00     0.153 A 
ATOM      6  C8  PW1 d   1       3.418  14.595 -41.671  0.00  0.00     0.161 A 
ATOM      7  C7  PW1 d   1       2.077  14.916 -41.811  0.00  0.00     0.009 A 
ATOM      8  F2  PW1 d   1       3.804  13.314 -41.819  0.00  0.00    -0.202 F 
ATOM      9  H1  PW1 d   1       0.646  16.515 -41.764  0.00  0.00     0.084 H 
ATOM     10  H2  PW1 d   1       2.324  18.239 -41.249  0.00  0.00     0.088 H 
ENDROOT
BRANCH   5  11
ATOM     11  O12 PW1 d   1       5.726  15.259 -41.236  0.00  0.00    -0.304 OA
BRANCH  11  12
ATOM     12  C11 PW1 d   1       6.232  14.685 -40.072  0.00  0.00     0.076 A 
ATOM     13  C12 PW1 d   1       7.589  14.417 -40.123  0.00  0.00    -0.050 A 
ATOM     14  C13 PW1 d   1       8.220  13.848 -39.038  0.00  0.00    -0.080 A 
ATOM     15  H9  PW1 d   1       8.155  14.655 -41.016  0.00  0.00     0.087 H 
ATOM     16  C14 PW1 d   1       7.499  13.545 -37.901  0.00  0.00    -0.083 A 
ATOM     17  H8  PW1 d   1       9.283  13.638 -39.078  0.00  0.00     0.083 H 
ATOM     18  C9  PW1 d   1       6.147  13.811 -37.848  0.00  0.00    -0.080 A 
ATOM     19  H12 PW1 d   1       7.996  13.097 -37.048  0.00  0.00     0.083 H 
ATOM     20  C10 PW1 d   1       5.510  14.380 -38.930  0.00  0.00    -0.050 A 
ATOM     21  H11 PW1 d   1       5.584  13.572 -36.953  0.00  0.00     0.083 H 
ATOM     22  H10 PW1 d   1       4.447  14.588 -38.887  0.00  0.00     0.087 H 
ENDBRANCH  11  12
ENDBRANCH   5  11
BRANCH   7  23
ATOM     23  C2  PW1 d   1       1.033  13.867 -42.127  0.00  0.00     0.106 C 
ATOM     24  H3  PW1 d   1       0.043  14.347 -42.133  0.00  0.00     0.082 H 
ATOM     25  H4  PW1 d   1       1.062  13.096 -41.343  0.00  0.00     0.082 H 
BRANCH  23  26
ATOM     26  N3  PW1 d   1       1.249  13.216 -43.438  0.00  0.00    -0.075 N 
ATOM     27  H5  PW1 d   1       0.528  12.530 -43.595  0.00  0.00     0.274 HD
ATOM     28  H6  PW1 d   1       2.150  12.764 -43.444  0.00  0.00     0.274 HD
ATOM     29  H7  PW1 d   1       1.216  13.911 -44.168  0.00  0.00     0.274 HD
ENDBRANCH  23  26
ENDBRANCH   7  23
TORSDOF 4
