REMARK  10 active torsions:
REMARK  status: ('A' for Active; 'I' for Inactive)
REMARK    1  A    between atoms: C1_1  and  C2_4 
REMARK    2  A    between atoms: C4_6  and  N4_20 
REMARK    3  A    between atoms: C5_7  and  N5_8 
REMARK       I    between atoms: N5_8  and  C10_9 
REMARK    4  A    between atoms: C10_9  and  C11_11 
REMARK    5  A    between atoms: C6_12  and  O7_14 
REMARK    6  A    between atoms: O7_14  and  C8_15 
REMARK    7  A    between atoms: C8_15  and  C9_16 
REMARK    8  A    between atoms: C8_15  and  C81_17 
REMARK    9  A    between atoms: C9_16  and  C91_19 
REMARK   10  A    between atoms: C81_17  and  C82_18 
ROOT
ATOM      1  C2  G39 d   1      29.372  -6.982  12.171  0.00  0.00     0.035 C 
ATOM      2  C3  G39 d   1      30.780  -6.954  12.695  0.00  0.00    -0.024 C 
ATOM      3  C4  G39 d   1      31.062  -7.839  13.868  0.00  0.00     0.122 C 
ATOM      4  C5  G39 d   1      30.177  -9.036  13.898  0.00  0.00     0.064 C 
ATOM      5  C6  G39 d   1      28.745  -8.633  14.039  0.00  0.00     0.061 C 
ATOM      6  C7  G39 d   1      28.326  -7.559  13.085  0.00  0.00    -0.026 C 
ATOM      7  H1  G39 d   1      29.380  -7.586  11.252  0.00  0.00     0.056 H 
ATOM      8  H2  G39 d   1      31.008  -5.920  12.992  0.00  0.00     0.037 H 
ATOM      9  H3  G39 d   1      31.450  -7.257  11.877  0.00  0.00     0.037 H 
ATOM     10  H4  G39 d   1      30.892  -7.259  14.787  0.00  0.00     0.087 H 
ATOM     11  H5  G39 d   1      30.308  -9.609  12.968  0.00  0.00     0.079 H 
ATOM     12  H10 G39 d   1      28.611  -8.242  15.058  0.00  0.00     0.086 H 
ATOM     13  H11 G39 d   1      27.531  -7.977  12.450  0.00  0.00     0.038 H 
ATOM     14  H12 G39 d   1      27.920  -6.730  13.683  0.00  0.00     0.038 H 
ENDROOT
BRANCH   5  15
ATOM     15  O7  G39 d   1      27.912  -9.756  13.885  0.00  0.00    -0.379 OA
BRANCH  15  16
ATOM     16  C8  G39 d   1      27.136 -10.216  14.968  0.00  0.00     0.038 C 
ATOM     17  H13 G39 d   1      27.859 -10.385  15.779  0.00  0.00     0.083 H 
BRANCH  16  18
ATOM     18  C9  G39 d   1      26.161  -9.181  15.529  0.00  0.00    -0.044 C 
ATOM     19  H14 G39 d   1      26.752  -8.303  15.828  0.00  0.00     0.036 H 
ATOM     20  H15 G39 d   1      25.688  -9.624  16.418  0.00  0.00     0.036 H 
BRANCH  18  21
ATOM     21  C91 G39 d   1      25.059  -8.695  14.630  0.00  0.00    -0.074 C 
ATOM     22  H21 G39 d   1      24.444  -7.959  15.169  0.00  0.00     0.027 H 
ATOM     23  H22 G39 d   1      24.431  -9.546  14.326  0.00  0.00     0.027 H 
ATOM     24  H23 G39 d   1      25.495  -8.224  13.737  0.00  0.00     0.027 H 
ENDBRANCH  18  21
ENDBRANCH  16  18
BRANCH  16  25
ATOM     25  C81 G39 d   1      26.508 -11.576  14.716  0.00  0.00    -0.044 C 
ATOM     26  H16 G39 d   1      25.958 -11.516  13.765  0.00  0.00     0.036 H 
ATOM     27  H17 G39 d   1      25.802 -11.773  15.537  0.00  0.00     0.036 H 
BRANCH  25  28
ATOM     28  C82 G39 d   1      27.442 -12.756  14.627  0.00  0.00    -0.074 C 
ATOM     29  H18 G39 d   1      26.860 -13.671  14.443  0.00  0.00     0.027 H 
ATOM     30  H19 G39 d   1      27.996 -12.857  15.572  0.00  0.00     0.027 H 
ATOM     31  H20 G39 d   1      28.151 -12.601  13.801  0.00  0.00     0.027 H 
ENDBRANCH  25  28
ENDBRANCH  16  25
ENDBRANCH  15  16
ENDBRANCH   5  15
BRANCH   4  32
ATOM     32  N5  G39 d   1      30.529  -9.866  15.046  0.00  0.00    -0.352 N 
ATOM     33  C10 G39 d   1      30.997 -11.222  14.876  0.00  0.00     0.214 C 
ATOM     34  O10 G39 d   1      31.111 -11.698  13.761  0.00  0.00    -0.274 OA
ATOM     35  H6  G39 d   1      30.445  -9.489  15.968  0.00  0.00     0.163 HD
BRANCH  33  36
ATOM     36  C11 G39 d   1      31.345 -12.041  16.093  0.00  0.00    -0.003 C 
ATOM     37  H7  G39 d   1      31.680 -13.040  15.779  0.00  0.00     0.040 H 
ATOM     38  H8  G39 d   1      30.458 -12.138  16.736  0.00  0.00     0.040 H 
ATOM     39  H9  G39 d   1      32.151 -11.543  16.652  0.00  0.00     0.040 H 
ENDBRANCH  33  36
ENDBRANCH   4  32
BRANCH   3  40
ATOM     40  N4  G39 d   1      32.455  -8.269  13.831  0.00  0.00    -0.073 N 
ATOM     41  H24 G39 d   1      33.056  -7.460  13.811  0.00  0.00     0.274 HD
ATOM     42  H25 G39 d   1      32.613  -8.826  13.006  0.00  0.00     0.274 HD
ATOM     43  H26 G39 d   1      32.659  -8.818  14.651  0.00  0.00     0.274 HD
ENDBRANCH   3  40
BRANCH   1  44
ATOM     44  C1  G39 d   1      28.934  -5.565  11.832  0.00  0.00     0.177 C 
ATOM     45  O1A G39 d   1      29.784  -4.673  11.603  0.00  0.00    -0.648 OA
ATOM     46  O1B G39 d   1      27.701  -5.285  11.791  0.00  0.00    -0.648 OA
ENDBRANCH   1  44
TORSDOF 10
