REMARK  9 active torsions:
REMARK  status: ('A' for Active; 'I' for Inactive)
REMARK    1  A    between atoms: C2_2  and  O8_8 
REMARK    2  A    between atoms: C3_3  and  C19_19 
REMARK    3  A    between atoms: C4_4  and  O9_9 
REMARK    4  A    between atoms: C6_6  and  O7_7 
REMARK    5  A    between atoms: O9_9  and  C10_10 
REMARK    6  A    between atoms: C13_13  and  N16_16 
REMARK    7  A    between atoms: C22_22  and  C24_24 
REMARK       I    between atoms: C24_24  and  N26_26 
REMARK    8  A    between atoms: N26_26  and  C27_27 
REMARK    9  A    between atoms: N30_30  and  C33_33 
ROOT
ATOM      1  C19 9UN d   1       4.391   4.141  11.594  0.00  0.00     0.119 A 
ATOM      2  O20 9UN d   1       4.163   4.895  12.670  0.00  0.00    -0.212 OA
ATOM      3  N21 9UN d   1       2.736   5.306  12.681  0.00  0.00    -0.122 NA
ATOM      4  C22 9UN d   1       2.212   4.735  11.603  0.00  0.00     0.154 A 
ATOM      5  C23 9UN d   1       3.191   4.040  10.893  0.00  0.00    -0.012 A 
ATOM      6  H9  9UN d   1       3.043   3.510   9.953  0.00  0.00     0.091 H 
ENDROOT
BRANCH   1   7
ATOM      7  C3  9UN d   1       5.693   3.570  11.241  0.00  0.00     0.067 A 
ATOM      8  C2  9UN d   1       6.814   4.337  11.423  0.00  0.00     0.084 A 
ATOM      9  C1  9UN d   1       8.057   3.837  11.051  0.00  0.00    -0.018 A 
ATOM     10  C6  9UN d   1       8.146   2.529  10.598  0.00  0.00     0.071 A 
ATOM     11  H1  9UN d   1       8.942   4.459  11.114  0.00  0.00     0.092 H 
ATOM     12  C5  9UN d   1       7.019   1.721  10.456  0.00  0.00    -0.017 A 
ATOM     13  C4  9UN d   1       5.774   2.276  10.782  0.00  0.00     0.094 A 
ATOM     14  H2  9UN d   1       7.103   0.699  10.105  0.00  0.00     0.092 H 
BRANCH   8  15
ATOM     15  O8  9UN d   1       6.720   5.628  11.866  0.00  0.00    -0.360 OA
ATOM     16  H4  9UN d   1       7.590   6.003  11.933  0.00  0.00     0.217 HD
ENDBRANCH   8  15
BRANCH  10  17
ATOM     17  O7  9UN d   1       9.340   2.001  10.255  0.00  0.00    -0.361 OA
ATOM     18  H3  9UN d   1      10.023   2.646  10.396  0.00  0.00     0.217 HD
ENDBRANCH  10  17
BRANCH  13  19
ATOM     19  O9  9UN d   1       4.644   1.550  10.718  0.00  0.00    -0.310 OA
BRANCH  19  20
ATOM     20  C10 9UN d   1       4.416   0.723   9.672  0.00  0.00     0.076 A 
ATOM     21  C11 9UN d   1       3.937  -0.533  10.052  0.00  0.00    -0.048 A 
ATOM     22  C12 9UN d   1       3.635  -1.433   9.045  0.00  0.00    -0.048 A 
ATOM     23  H5  9UN d   1       3.807  -0.793  11.096  0.00  0.00     0.087 H 
ATOM     24  C13 9UN d   1       3.885  -1.089   7.739  0.00  0.00     0.103 A 
ATOM     25  H6  9UN d   1       3.206  -2.399   9.284  0.00  0.00     0.087 H 
ATOM     26  C14 9UN d   1       4.359   0.172   7.352  0.00  0.00    -0.048 A 
ATOM     27  C15 9UN d   1       4.648   1.109   8.346  0.00  0.00    -0.048 A 
ATOM     28  H7  9UN d   1       4.498   0.414   6.305  0.00  0.00     0.087 H 
ATOM     29  H8  9UN d   1       5.035   2.092   8.102  0.00  0.00     0.087 H 
BRANCH  24  30
ATOM     30  N16 9UN d   1       3.542  -2.066   6.805  0.00  0.00    -0.116 N 
ATOM     31  O17 9UN d   1       3.018  -1.662   5.777  0.00  0.00    -0.532 OA
ATOM     32  O18 9UN d   1       3.725  -3.257   7.045  0.00  0.00    -0.532 OA
ENDBRANCH  24  30
ENDBRANCH  19  20
ENDBRANCH  13  19
ENDBRANCH   1   7
BRANCH   4  33
ATOM     33  C24 9UN d   1       0.781   4.847  11.211  0.00  0.00     0.272 C 
ATOM     34  O25 9UN d   1       0.490   4.725  10.021  0.00  0.00    -0.266 OA
ATOM     35  N26 9UN d   1      -0.090   5.050  12.209  0.00  0.00    -0.351 N 
ATOM     36  H10 9UN d   1       0.259   5.136  13.142  0.00  0.00     0.163 HD
BRANCH  35  37
ATOM     37  C27 9UN d   1      -1.529   5.151  11.985  0.00  0.00     0.015 C 
ATOM     38  C28 9UN d   1      -2.155   5.723  13.290  0.00  0.00    -0.023 C 
ATOM     39  C29 9UN d   1      -3.692   5.572  13.166  0.00  0.00     0.085 C 
ATOM     40  H12 9UN d   1      -1.889   6.784  13.402  0.00  0.00     0.038 H 
ATOM     41  H13 9UN d   1      -1.790   5.159  14.161  0.00  0.00     0.038 H 
ATOM     42  N30 9UN d   1      -4.049   4.142  13.009  0.00  0.00    -0.075 N 
ATOM     43  H14 9UN d   1      -4.044   6.134  12.288  0.00  0.00     0.076 H 
ATOM     44  H15 9UN d   1      -4.172   5.970  14.072  0.00  0.00     0.076 H 
ATOM     45  C31 9UN d   1      -3.529   3.644  11.736  0.00  0.00     0.085 C 
ATOM     46  H16 9UN d   1      -3.650   3.615  13.770  0.00  0.00     0.279 HD
ATOM     47  C32 9UN d   1      -1.997   3.710  11.765  0.00  0.00    -0.023 C 
ATOM     48  H17 9UN d   1      -3.910   4.266  10.913  0.00  0.00     0.076 H 
ATOM     49  H18 9UN d   1      -3.851   2.603  11.588  0.00  0.00     0.076 H 
ATOM     50  H19 9UN d   1      -1.623   3.078  12.584  0.00  0.00     0.038 H 
ATOM     51  H20 9UN d   1      -1.600   3.342  10.807  0.00  0.00     0.038 H 
ATOM     52  H11 9UN d   1      -1.769   5.788  11.121  0.00  0.00     0.072 H 
BRANCH  42  53
ATOM     53  C33 9UN d   1      -5.542   3.960  13.001  0.00  0.00     0.066 C 
ATOM     54  H21 9UN d   1      -5.961   4.327  13.949  0.00  0.00     0.068 H 
ATOM     55  H22 9UN d   1      -5.781   2.893  12.883  0.00  0.00     0.068 H 
ATOM     56  H23 9UN d   1      -5.976   4.527  12.164  0.00  0.00     0.068 H 
ENDBRANCH  42  53
ENDBRANCH  35  37
ENDBRANCH   4  33
TORSDOF 9
