REMARK  10 active torsions:
REMARK  status: ('A' for Active; 'I' for Inactive)
REMARK    1  A    between atoms: C1_1  and  C2_4 
REMARK    2  A    between atoms: C4_6  and  N4_20 
REMARK    3  A    between atoms: C5_7  and  N5_8 
REMARK       I    between atoms: N5_8  and  C10_9 
REMARK    4  A    between atoms: C10_9  and  C11_11 
REMARK    5  A    between atoms: C6_12  and  O7_14 
REMARK    6  A    between atoms: O7_14  and  C8_15 
REMARK    7  A    between atoms: C8_15  and  C9_16 
REMARK    8  A    between atoms: C8_15  and  C81_17 
REMARK    9  A    between atoms: C9_16  and  C91_19 
REMARK   10  A    between atoms: C81_17  and  C82_18 
ROOT
ATOM      1  C2  G39 d   1      25.564  20.502 -40.519  0.00  0.00     0.035 C 
ATOM      2  C3  G39 d   1      24.832  19.193 -40.758  0.00  0.00    -0.024 C 
ATOM      3  C4  G39 d   1      23.338  19.509 -40.711  0.00  0.00     0.122 C 
ATOM      4  C5  G39 d   1      22.997  20.506 -41.810  0.00  0.00     0.064 C 
ATOM      5  C6  G39 d   1      23.824  21.786 -41.706  0.00  0.00     0.061 C 
ATOM      6  C7  G39 d   1      25.328  21.574 -41.538  0.00  0.00    -0.026 C 
ATOM      7  H1  G39 d   1      25.076  20.893 -39.614  0.00  0.00     0.056 H 
ATOM      8  H2  G39 d   1      25.090  18.466 -39.974  0.00  0.00     0.037 H 
ATOM      9  H3  G39 d   1      25.102  18.782 -41.742  0.00  0.00     0.037 H 
ATOM     10  H4  G39 d   1      23.145  20.016 -39.754  0.00  0.00     0.087 H 
ATOM     11  H5  G39 d   1      23.216  20.030 -42.777  0.00  0.00     0.079 H 
ATOM     12  H10 G39 d   1      23.472  22.311 -40.806  0.00  0.00     0.086 H 
ATOM     13  H11 G39 d   1      25.766  21.270 -42.500  0.00  0.00     0.038 H 
ATOM     14  H12 G39 d   1      25.796  22.511 -41.202  0.00  0.00     0.038 H 
ENDROOT
BRANCH   5  15
ATOM     15  O7  G39 d   1      23.606  22.625 -42.795  0.00  0.00    -0.379 OA
BRANCH  15  16
ATOM     16  C8  G39 d   1      22.862  23.800 -42.589  0.00  0.00     0.038 C 
ATOM     17  H13 G39 d   1      21.912  23.447 -42.161  0.00  0.00     0.083 H 
BRANCH  16  18
ATOM     18  C9  G39 d   1      22.463  24.449 -43.916  0.00  0.00    -0.044 C 
ATOM     19  H14 G39 d   1      23.367  24.878 -44.372  0.00  0.00     0.036 H 
ATOM     20  H15 G39 d   1      21.744  25.253 -43.700  0.00  0.00     0.036 H 
BRANCH  18  21
ATOM     21  C91 G39 d   1      21.829  23.509 -44.924  0.00  0.00    -0.074 C 
ATOM     22  H21 G39 d   1      21.579  24.067 -45.839  0.00  0.00     0.027 H 
ATOM     23  H22 G39 d   1      20.912  23.077 -44.496  0.00  0.00     0.027 H 
ATOM     24  H23 G39 d   1      22.536  22.702 -45.168  0.00  0.00     0.027 H 
ENDBRANCH  18  21
ENDBRANCH  16  18
BRANCH  16  25
ATOM     25  C81 G39 d   1      23.402  24.772 -41.514  0.00  0.00    -0.044 C 
ATOM     26  H16 G39 d   1      23.538  24.198 -40.585  0.00  0.00     0.036 H 
ATOM     27  H17 G39 d   1      22.640  25.550 -41.356  0.00  0.00     0.036 H 
BRANCH  25  28
ATOM     28  C82 G39 d   1      24.728  25.478 -41.820  0.00  0.00    -0.074 C 
ATOM     29  H18 G39 d   1      24.996  26.135 -40.980  0.00  0.00     0.027 H 
ATOM     30  H19 G39 d   1      24.621  26.078 -42.736  0.00  0.00     0.027 H 
ATOM     31  H20 G39 d   1      25.519  24.727 -41.964  0.00  0.00     0.027 H 
ENDBRANCH  25  28
ENDBRANCH  16  25
ENDBRANCH  15  16
ENDBRANCH   5  15
BRANCH   4  32
ATOM     32  N5  G39 d   1      21.573  20.863 -41.776  0.00  0.00    -0.352 N 
ATOM     33  C10 G39 d   1      20.654  20.406 -42.790  0.00  0.00     0.214 C 
ATOM     34  O10 G39 d   1      21.042  19.708 -43.707  0.00  0.00    -0.274 OA
ATOM     35  H6  G39 d   1      21.232  21.437 -41.032  0.00  0.00     0.163 HD
BRANCH  33  36
ATOM     36  C11 G39 d   1      19.197  20.814 -42.696  0.00  0.00    -0.003 C 
ATOM     37  H7  G39 d   1      18.640  20.383 -43.541  0.00  0.00     0.040 H 
ATOM     38  H8  G39 d   1      19.121  21.911 -42.727  0.00  0.00     0.040 H 
ATOM     39  H9  G39 d   1      18.773  20.444 -41.751  0.00  0.00     0.040 H 
ENDBRANCH  33  36
ENDBRANCH   4  32
BRANCH   3  40
ATOM     40  N4  G39 d   1      22.517  18.316 -40.706  0.00  0.00    -0.073 N 
ATOM     41  H24 G39 d   1      22.806  17.712 -39.952  0.00  0.00     0.274 HD
ATOM     42  H25 G39 d   1      22.622  17.832 -41.584  0.00  0.00     0.274 HD
ATOM     43  H26 G39 d   1      21.551  18.573 -40.578  0.00  0.00     0.274 HD
ENDBRANCH   3  40
BRANCH   1  44
ATOM     44  C1  G39 d   1      27.027  20.398 -40.115  0.00  0.00     0.177 C 
ATOM     45  O1A G39 d   1      27.507  19.326 -39.670  0.00  0.00    -0.648 OA
ATOM     46  O1B G39 d   1      27.732  21.437 -40.184  0.00  0.00    -0.648 OA
ENDBRANCH   1  44
TORSDOF 10
