REMARK  18 active torsions:
REMARK  status: ('A' for Active; 'I' for Inactive)
REMARK    1  A    between atoms: C2_14  and  C3_15 
REMARK    2  A    between atoms: C3_15  and  C4_16 
REMARK    3  A    between atoms: C4_16  and  C5_17 
REMARK    4  A    between atoms: C5_17  and  N2_21 
REMARK    5  A    between atoms: C6_18  and  C7_19 
REMARK       I    between atoms: N2_21  and  C6_18 
REMARK    6  A    between atoms: N2_21  and  O2_23 
REMARK    7  A    between atoms: C2_26  and  C3_27 
REMARK    8  A    between atoms: C3_27  and  C4_28 
REMARK    9  A    between atoms: C4_28  and  C5_29 
REMARK   10  A    between atoms: C5_29  and  N2_33 
REMARK   11  A    between atoms: C6_30  and  C7_31 
REMARK       I    between atoms: N2_33  and  C6_30 
REMARK   12  A    between atoms: N2_33  and  O2_35 
REMARK   13  A    between atoms: C2_38  and  C3_39 
REMARK   14  A    between atoms: C3_39  and  C4_40 
REMARK   15  A    between atoms: C4_40  and  C5_41 
REMARK   16  A    between atoms: C5_41  and  N2_45 
REMARK   17  A    between atoms: C6_42  and  C7_43 
REMARK       I    between atoms: N2_45  and  C6_42 
REMARK   18  A    between atoms: N2_45  and  O2_47 
ROOT
ATOM      1  N   GLY d   1      -0.725  14.620   3.300  0.00  0.00    -0.351 N 
ATOM      2  CA  GLY d   1      -0.600  16.065   3.345  0.00  0.00     0.069 C 
ATOM      3  C   GLY d   1       0.636  16.458   2.552  0.00  0.00     0.235 C 
ATOM      4  O   GLY d   1       1.472  15.602   2.288  0.00  0.00    -0.272 OA
ATOM      5  N   GLY d   1       1.120  17.751   2.214  0.00  0.00    -0.351 N 
ATOM      6  CA  GLY d   1       2.383  17.864   1.486  0.00  0.00     0.069 C 
ATOM      7  C   GLY d   1       3.624  17.492   2.291  0.00  0.00     0.235 C 
ATOM      8  O   GLY d   1       3.618  17.493   3.528  0.00  0.00    -0.272 OA
ATOM      9  N   GLY d   1       4.361  16.605   1.593  0.00  0.00    -0.351 N 
ATOM     10  CA  GLY d   1       5.600  15.944   1.958  0.00  0.00     0.069 C 
ATOM     11  C   GLY d   1       5.353  14.509   2.397  0.00  0.00     0.236 C 
ATOM     12  O   GLY d   1       6.284  13.717   2.549  0.00  0.00    -0.272 OA
ATOM     13  H1  GLY d   1       0.065  14.007   3.319  0.00  0.00     0.163 HD
ATOM     14  H2  GLY d   1      -0.495  16.398   4.388  0.00  0.00     0.078 H 
ATOM     15  H3  GLY d   1      -1.492  16.530   2.900  0.00  0.00     0.078 H 
ATOM     16  H4  GLY d   1       0.606  18.570   2.470  0.00  0.00     0.163 HD
ATOM     17  H5  GLY d   1       2.493  18.906   1.151  0.00  0.00     0.078 H 
ATOM     18  H6  GLY d   1       2.333  17.201   0.610  0.00  0.00     0.078 H 
ATOM     19  H7  GLY d   1       4.001  16.368   0.691  0.00  0.00     0.163 HD
ATOM     20  H8  GLY d   1       6.070  16.496   2.785  0.00  0.00     0.078 H 
ATOM     21  H9  GLY d   1       6.274  15.942   1.089  0.00  0.00     0.078 H 
ATOM     22  C1  AHO d   1       2.599  12.221   1.897  0.00  0.00     0.241 C 
ATOM     23  C2  AHO d   1       3.753  12.784   2.676  0.00  0.00     0.089 C 
ATOM     24  N1  AHO d   1       3.857  14.179   2.324  0.00  0.00    -0.346 N 
ATOM     25  O1  AHO d   1       2.208  12.807   0.873  0.00  0.00    -0.271 OA
ATOM     26  C1  AHO d   1      -0.563  11.557   1.614  0.00  0.00     0.241 C 
ATOM     27  C2  AHO d   1       0.641  10.674   1.418  0.00  0.00     0.089 C 
ATOM     28  N1  AHO d   1       1.698  11.151   2.294  0.00  0.00    -0.346 N 
ATOM     29  O1  AHO d   1      -1.388  11.721   0.718  0.00  0.00    -0.271 OA
ATOM     30  C1  AHO d   1      -2.083  14.144   3.226  0.00  0.00     0.240 C 
ATOM     31  C2  AHO d   1      -2.183  12.647   3.157  0.00  0.00     0.089 C 
ATOM     32  N1  AHO d   1      -0.891  12.030   2.954  0.00  0.00    -0.346 N 
ATOM     33  O1  AHO d   1      -3.094  14.830   3.388  0.00  0.00    -0.271 OA
ATOM     34  H10 AHO d   1       4.672  12.274   2.353  0.00  0.00     0.087 H 
ATOM     35  H20 AHO d   1       3.111  14.800   2.083  0.00  0.00     0.163 HD
ATOM     36  H22 AHO d   1       0.972  10.732   0.371  0.00  0.00     0.087 H 
ATOM     37  H32 AHO d   1       1.809  10.732   3.195  0.00  0.00     0.163 HD
ATOM     38  H34 AHO d   1      -2.852  12.370   2.329  0.00  0.00     0.087 H 
ATOM     39  H44 AHO d   1      -0.243  11.931   3.709  0.00  0.00     0.163 HD
ENDROOT
BRANCH  23  40
ATOM     40  C3  AHO d   1       3.620  12.569   4.161  0.00  0.00    -0.036 C 
ATOM     41  H11 AHO d   1       4.623  12.685   4.598  0.00  0.00     0.036 H 
ATOM     42  H12 AHO d   1       3.272  11.536   4.311  0.00  0.00     0.036 H 
BRANCH  40  43
ATOM     43  C4  AHO d   1       2.688  13.471   4.934  0.00  0.00    -0.045 C 
ATOM     44  H13 AHO d   1       1.677  13.346   4.519  0.00  0.00     0.035 H 
ATOM     45  H14 AHO d   1       3.021  14.508   4.782  0.00  0.00     0.035 H 
BRANCH  43  46
ATOM     46  C5  AHO d   1       2.612  13.224   6.414  0.00  0.00     0.024 C 
ATOM     47  H15 AHO d   1       1.946  13.968   6.875  0.00  0.00     0.068 H 
ATOM     48  H16 AHO d   1       3.618  13.310   6.851  0.00  0.00     0.068 H 
BRANCH  46  49
ATOM     49  N2  AHO d   1       2.093  11.898   6.659  0.00  0.00    -0.229 N 
ATOM     50  C6  AHO d   1       2.775  10.919   7.440  0.00  0.00     0.239 C 
ATOM     51  O3  AHO d   1       2.270   9.820   7.538  0.00  0.00    -0.272 OA
BRANCH  50  52
ATOM     52  C7  AHO d   1       4.084  11.209   8.105  0.00  0.00    -0.001 C 
ATOM     53  H17 AHO d   1       4.424  10.316   8.650  0.00  0.00     0.040 H 
ATOM     54  H18 AHO d   1       3.960  12.044   8.810  0.00  0.00     0.040 H 
ATOM     55  H19 AHO d   1       4.830  11.480   7.343  0.00  0.00     0.040 H 
ENDBRANCH  50  52
BRANCH  49  56
ATOM     56  O2  AHO d   1       0.952  11.580   6.103  0.00  0.00    -0.285 OA
ATOM     57  H21 AHO d   1       1.083  10.849   5.511  0.00  0.00     0.245 HD
ENDBRANCH  49  56
ENDBRANCH  46  49
ENDBRANCH  43  46
ENDBRANCH  40  43
ENDBRANCH  23  40
BRANCH  27  58
ATOM     58  C3  AHO d   1       0.312   9.241   1.757  0.00  0.00    -0.036 C 
ATOM     59  H23 AHO d   1      -0.548   8.950   1.136  0.00  0.00     0.036 H 
ATOM     60  H24 AHO d   1       0.022   9.217   2.818  0.00  0.00     0.036 H 
BRANCH  58  61
ATOM     61  C4  AHO d   1       1.375   8.194   1.563  0.00  0.00    -0.045 C 
ATOM     62  H25 AHO d   1       1.850   8.406   0.594  0.00  0.00     0.035 H 
ATOM     63  H26 AHO d   1       0.856   7.226   1.513  0.00  0.00     0.035 H 
BRANCH  61  64
ATOM     64  C5  AHO d   1       2.487   8.032   2.558  0.00  0.00     0.024 C 
ATOM     65  H27 AHO d   1       3.269   8.775   2.344  0.00  0.00     0.068 H 
ATOM     66  H28 AHO d   1       2.907   7.020   2.462  0.00  0.00     0.068 H 
BRANCH  64  67
ATOM     67  N2  AHO d   1       2.020   8.220   3.912  0.00  0.00    -0.229 N 
ATOM     68  C6  AHO d   1       1.583   7.145   4.764  0.00  0.00     0.239 C 
ATOM     69  O3  AHO d   1       1.184   7.406   5.903  0.00  0.00    -0.272 OA
BRANCH  68  70
ATOM     70  C7  AHO d   1       1.636   5.704   4.324  0.00  0.00    -0.001 C 
ATOM     71  H29 AHO d   1       1.255   5.060   5.130  0.00  0.00     0.040 H 
ATOM     72  H30 AHO d   1       2.676   5.428   4.096  0.00  0.00     0.040 H 
ATOM     73  H31 AHO d   1       1.016   5.572   3.425  0.00  0.00     0.040 H 
ENDBRANCH  68  70
BRANCH  67  74
ATOM     74  O2  AHO d   1       1.960   9.444   4.354  0.00  0.00    -0.285 OA
ATOM     75  H33 AHO d   1       1.059   9.659   4.565  0.00  0.00     0.245 HD
ENDBRANCH  67  74
ENDBRANCH  64  67
ENDBRANCH  61  64
ENDBRANCH  58  61
ENDBRANCH  27  58
BRANCH  31  76
ATOM     76  C3  AHO d   1      -2.735  12.130   4.453  0.00  0.00    -0.036 C 
ATOM     77  H35 AHO d   1      -3.538  12.802   4.788  0.00  0.00     0.036 H 
ATOM     78  H36 AHO d   1      -1.929  12.120   5.202  0.00  0.00     0.036 H 
BRANCH  76  79
ATOM     79  C4  AHO d   1      -3.289  10.745   4.323  0.00  0.00    -0.045 C 
ATOM     80  H37 AHO d   1      -2.698  10.211   3.564  0.00  0.00     0.035 H 
ATOM     81  H38 AHO d   1      -4.332  10.826   3.985  0.00  0.00     0.035 H 
BRANCH  79  82
ATOM     82  C5  AHO d   1      -3.271   9.941   5.569  0.00  0.00     0.024 C 
ATOM     83  H39 AHO d   1      -3.804   8.996   5.386  0.00  0.00     0.068 H 
ATOM     84  H40 AHO d   1      -3.786  10.506   6.360  0.00  0.00     0.068 H 
BRANCH  82  85
ATOM     85  N2  AHO d   1      -1.938   9.639   6.013  0.00  0.00    -0.229 N 
ATOM     86  C6  AHO d   1      -1.622   9.512   7.391  0.00  0.00     0.239 C 
ATOM     87  O3  AHO d   1      -0.481   9.246   7.735  0.00  0.00    -0.272 OA
BRANCH  86  88
ATOM     88  C7  AHO d   1      -2.716   9.637   8.402  0.00  0.00    -0.001 C 
ATOM     89  H41 AHO d   1      -2.298   9.513   9.412  0.00  0.00     0.040 H 
ATOM     90  H42 AHO d   1      -3.473   8.860   8.221  0.00  0.00     0.040 H 
ATOM     91  H43 AHO d   1      -3.182  10.630   8.317  0.00  0.00     0.040 H 
ENDBRANCH  86  88
BRANCH  85  92
ATOM     92  O2  AHO d   1      -0.979   9.524   5.144  0.00  0.00    -0.285 OA
ATOM     93  H45 AHO d   1      -0.324  10.193   5.306  0.00  0.00     0.245 HD
ENDBRANCH  85  92
ENDBRANCH  82  85
ENDBRANCH  79  82
ENDBRANCH  76  79
ENDBRANCH  31  76
TORSDOF 18
