REMARK  9 active torsions:
REMARK  status: ('A' for Active; 'I' for Inactive)
REMARK    1  A    between atoms: N01_1  and  C02_2 
REMARK    2  A    between atoms: C03_3  and  C04_4 
REMARK    3  A    between atoms: C05_5  and  C06_6 
REMARK       I    between atoms: C06_6  and  N07_7 
REMARK    4  A    between atoms: C08_8  and  C09_9 
REMARK       I    between atoms: C09_9  and  N10_10 
REMARK    5  A    between atoms: N10_10  and  C11_11 
REMARK    6  A    between atoms: C11_11  and  C12_12 
REMARK    7  A    between atoms: C15_15  and  C16_16 
REMARK    8  A    between atoms: C17_17  and  C18_18 
REMARK    9  A    between atoms: C26_26  and  O27_27 
ROOT
ATOM      1  C06 TG0 d   1      -7.011  35.123  -0.603  0.00  0.00     0.255 C 
ATOM      2  N07 TG0 d   1      -7.455  34.119   0.346  0.00  0.00    -0.332 N 
ATOM      3  C08 TG0 d   1      -7.694  34.362   1.765  0.00  0.00     0.094 C 
ATOM      4  C25 TG0 d   1      -8.028  33.051   2.394  0.00  0.00    -0.012 C 
ATOM      5  C26 TG0 d   1      -8.568  32.301   1.246  0.00  0.00     0.053 C 
ATOM      6  C28 TG0 d   1      -7.738  32.705   0.056  0.00  0.00     0.023 C 
ATOM      7  O29 TG0 d   1      -6.835  36.295  -0.260  0.00  0.00    -0.267 OA
ATOM      8  H6  TG0 d   1      -8.529  35.069   1.881  0.00  0.00     0.088 H 
ATOM      9  H18 TG0 d   1      -8.781  33.167   3.188  0.00  0.00     0.040 H 
ATOM     10  H19 TG0 d   1      -7.132  32.564   2.806  0.00  0.00     0.040 H 
ATOM     11  H20 TG0 d   1      -8.480  31.219   1.423  0.00  0.00     0.085 H 
ATOM     12  H22 TG0 d   1      -6.811  32.116  -0.003  0.00  0.00     0.068 H 
ATOM     13  H23 TG0 d   1      -8.303  32.595  -0.881  0.00  0.00     0.068 H 
ENDROOT
BRANCH   3  14
ATOM     14  C09 TG0 d   1      -6.461  34.910   2.474  0.00  0.00     0.241 C 
ATOM     15  N10 TG0 d   1      -6.659  35.847   3.549  0.00  0.00    -0.355 N 
ATOM     16  H7  TG0 d   1      -7.572  36.166   3.804  0.00  0.00     0.162 HD
ATOM     17  O24 TG0 d   1      -5.317  34.545   2.171  0.00  0.00    -0.271 OA
BRANCH  15  18
ATOM     18  C11 TG0 d   1      -5.472  36.308   4.246  0.00  0.00     0.019 C 
ATOM     19  H8  TG0 d   1      -5.622  37.342   4.592  0.00  0.00     0.071 H 
ATOM     20  H9  TG0 d   1      -4.605  36.269   3.570  0.00  0.00     0.071 H 
BRANCH  18  21
ATOM     21  C12 TG0 d   1      -5.233  35.392   5.445  0.00  0.00    -0.040 A 
ATOM     22  C13 TG0 d   1      -3.981  35.437   6.088  0.00  0.00    -0.074 A 
ATOM     23  C14 TG0 d   1      -3.769  34.618   7.206  0.00  0.00    -0.071 A 
ATOM     24  H10 TG0 d   1      -3.197  36.092   5.726  0.00  0.00     0.084 H 
ATOM     25  C15 TG0 d   1      -4.781  33.751   7.665  0.00  0.00    -0.017 A 
ATOM     26  H11 TG0 d   1      -2.817  34.652   7.723  0.00  0.00     0.084 H 
ATOM     27  C22 TG0 d   1      -6.010  33.679   6.999  0.00  0.00    -0.071 A 
ATOM     28  C23 TG0 d   1      -6.251  34.539   5.926  0.00  0.00    -0.074 A 
ATOM     29  H16 TG0 d   1      -6.764  32.966   7.312  0.00  0.00     0.084 H 
ATOM     30  H17 TG0 d   1      -7.229  34.552   5.458  0.00  0.00     0.084 H 
BRANCH  25  31
ATOM     31  C16 TG0 d   1      -4.574  32.924   8.912  0.00  0.00     0.036 A 
ATOM     32  C17 TG0 d   1      -4.037  33.418  10.152  0.00  0.00     0.044 A 
ATOM     33  N19 TG0 d   1      -4.042  32.335  11.146  0.00  0.00    -0.274 NA
ATOM     34  C20 TG0 d   1      -4.593  31.166  10.652  0.00  0.00     0.112 A 
ATOM     35  S21 TG0 d   1      -5.032  31.383   9.102  0.00  0.00    -0.096 SA
ATOM     36  H15 TG0 d   1      -4.714  30.242  11.215  0.00  0.00     0.098 H 
BRANCH  32  37
ATOM     37  C18 TG0 d   1      -3.510  34.791  10.449  0.00  0.00    -0.035 C 
ATOM     38  H12 TG0 d   1      -3.175  34.837  11.496  0.00  0.00     0.035 H 
ATOM     39  H13 TG0 d   1      -4.306  35.532  10.287  0.00  0.00     0.035 H 
ATOM     40  H14 TG0 d   1      -2.663  35.011   9.783  0.00  0.00     0.035 H 
ENDBRANCH  32  37
ENDBRANCH  25  31
ENDBRANCH  18  21
ENDBRANCH  15  18
ENDBRANCH   3  14
BRANCH   1  41
ATOM     41  C05 TG0 d   1      -6.791  34.697  -2.038  0.00  0.00     0.040 A 
ATOM     42  C03 TG0 d   1      -5.626  33.980  -2.421  0.00  0.00    -0.020 A 
ATOM     43  C02 TG0 d   1      -5.500  33.622  -3.789  0.00  0.00     0.032 A 
ATOM     44  C32 TG0 d   1      -6.525  33.911  -4.687  0.00  0.00    -0.057 A 
ATOM     45  C31 TG0 d   1      -7.659  34.627  -4.292  0.00  0.00    -0.080 A 
ATOM     46  H26 TG0 d   1      -6.442  33.574  -5.714  0.00  0.00     0.086 H 
ATOM     47  C30 TG0 d   1      -7.817  34.977  -2.949  0.00  0.00    -0.067 A 
ATOM     48  H25 TG0 d   1      -8.409  34.908  -5.022  0.00  0.00     0.083 H 
ATOM     49  H24 TG0 d   1      -8.727  35.462  -2.615  0.00  0.00     0.085 H 
BRANCH  42  50
ATOM     50  C04 TG0 d   1      -4.544  33.659  -1.425  0.00  0.00    -0.048 C 
ATOM     51  H3  TG0 d   1      -3.738  33.103  -1.926  0.00  0.00     0.033 H 
ATOM     52  H4  TG0 d   1      -4.963  33.046  -0.613  0.00  0.00     0.033 H 
ATOM     53  H5  TG0 d   1      -4.140  34.593  -1.008  0.00  0.00     0.033 H 
ENDBRANCH  42  50
BRANCH  43  54
ATOM     54  N01 TG0 d   1      -4.361  32.901  -4.307  0.00  0.00    -0.399 N 
ATOM     55  H1  TG0 d   1      -4.314  32.663  -5.308  0.00  0.00     0.156 HD
ATOM     56  H2  TG0 d   1      -3.596  32.625  -3.675  0.00  0.00     0.156 HD
ENDBRANCH  43  54
ENDBRANCH   1  41
BRANCH   5  57
ATOM     57  O27 TG0 d   1      -9.910  32.630   1.031  0.00  0.00    -0.394 OA
ATOM     58  H21 TG0 d   1     -10.241  32.138   0.289  0.00  0.00     0.210 HD
ENDBRANCH   5  57
TORSDOF 9
