REMARK  23 active torsions:
REMARK  status: ('A' for Active; 'I' for Inactive)
REMARK    1  A    between atoms: N4B_18  and  C1A_1 
REMARK    2  A    between atoms: C2A_2  and  O2A_8 
REMARK    3  A    between atoms: C3A_3  and  O3A_9 
REMARK    4  A    between atoms: C4A_4  and  O4A_10 
REMARK    5  A    between atoms: C5A_5  and  C6A_6 
REMARK    6  A    between atoms: C6A_6  and  O6A_11 
REMARK    7  A    between atoms: O4C_30  and  C1B_12 
REMARK    8  A    between atoms: C2B_13  and  O2B_19 
REMARK    9  A    between atoms: C3B_14  and  O3B_20 
REMARK   10  A    between atoms: C4B_15  and  N4B_18 
REMARK   11  A    between atoms: C5B_16  and  C6B_17 
REMARK   12  A    between atoms: O4D_42  and  C1C_22 
REMARK   13  A    between atoms: C2C_23  and  O2C_28 
REMARK   14  A    between atoms: C3C_24  and  O3C_29 
REMARK   15  A    between atoms: C4C_25  and  O4C_30 
REMARK   16  A    between atoms: C5C_26  and  C6C_27 
REMARK   17  A    between atoms: C6C_27  and  O6C_32 
REMARK   18  A    between atoms: C1D_33  and  O1D_39 
REMARK   19  A    between atoms: C2D_34  and  O2D_40 
REMARK   20  A    between atoms: C3D_35  and  O3D_41 
REMARK   21  A    between atoms: C4D_36  and  O4D_42 
REMARK   22  A    between atoms: C5D_37  and  C6D_38 
REMARK   23  A    between atoms: C6D_38  and  O6D_44 
ROOT
ATOM      1  C1B ACR d   1      34.627  82.218  34.614  0.00  0.00     0.159 C 
ATOM      2  C2B ACR d   1      34.105  81.139  33.664  0.00  0.00     0.110 C 
ATOM      3  C3B ACR d   1      32.595  81.266  33.436  0.00  0.00     0.094 C 
ATOM      4  C4B ACR d   1      31.878  81.262  34.778  0.00  0.00     0.154 C 
ATOM      5  C5B ACR d   1      32.424  82.466  35.550  0.00  0.00     0.068 C 
ATOM      6  O5B ACR d   1      33.831  82.274  35.808  0.00  0.00    -0.351 OA
ATOM      7  H12 ACR d   1      35.674  82.004  34.875  0.00  0.00     0.133 H 
ATOM      8  H13 ACR d   1      34.320  80.150  34.094  0.00  0.00     0.094 H 
ATOM      9  H14 ACR d   1      32.386  82.214  32.918  0.00  0.00     0.090 H 
ATOM     10  H15 ACR d   1      32.180  80.357  35.325  0.00  0.00     0.092 H 
ATOM     11  H16 ACR d   1      32.290  83.365  34.930  0.00  0.00     0.086 H 
ENDROOT
BRANCH   1  12
ATOM     12  O4C ACR d   1      34.530  83.485  33.967  0.00  0.00    -0.348 OA
BRANCH  12  13
ATOM     13  C4C ACR d   1      35.750  84.224  33.980  0.00  0.00     0.096 C 
ATOM     14  C3C ACR d   1      36.174  84.458  32.529  0.00  0.00     0.092 C 
ATOM     15  C2C ACR d   1      37.272  85.515  32.489  0.00  0.00     0.110 C 
ATOM     16  H26 ACR d   1      35.314  84.810  31.940  0.00  0.00     0.091 H 
ATOM     17  C1C ACR d   1      36.632  86.724  33.141  0.00  0.00     0.159 C 
ATOM     18  H25 ACR d   1      38.147  85.184  33.068  0.00  0.00     0.094 H 
ATOM     19  O5C ACR d   1      36.621  86.450  34.535  0.00  0.00    -0.348 OA
ATOM     20  H24 ACR d   1      35.594  86.802  32.786  0.00  0.00     0.133 H 
ATOM     21  C5C ACR d   1      35.565  85.512  34.786  0.00  0.00     0.089 C 
ATOM     22  H28 ACR d   1      34.608  85.972  34.498  0.00  0.00     0.090 H 
ATOM     23  H27 ACR d   1      36.529  83.624  34.474  0.00  0.00     0.091 H 
BRANCH  14  24
ATOM     24  O3C ACR d   1      36.627  83.208  32.007  0.00  0.00    -0.390 OA
ATOM     25  H32 ACR d   1      35.921  82.574  32.049  0.00  0.00     0.210 HD
ENDBRANCH  14  24
BRANCH  15  26
ATOM     26  O2C ACR d   1      37.680  85.791  31.148  0.00  0.00    -0.388 OA
ATOM     27  H31 ACR d   1      36.936  86.109  30.651  0.00  0.00     0.210 HD
ENDBRANCH  15  26
BRANCH  17  28
ATOM     28  O4D ACR d   1      37.271  87.954  32.842  0.00  0.00    -0.348 OA
BRANCH  28  29
ATOM     29  C4D ACR d   1      36.418  88.747  32.021  0.00  0.00     0.096 C 
ATOM     30  C3D ACR d   1      37.062  88.882  30.639  0.00  0.00     0.092 C 
ATOM     31  C2D ACR d   1      36.593  90.087  29.829  0.00  0.00     0.110 C 
ATOM     32  H36 ACR d   1      38.150  88.963  30.777  0.00  0.00     0.091 H 
ATOM     33  C1D ACR d   1      35.744  91.027  30.672  0.00  0.00     0.156 C 
ATOM     34  H35 ACR d   1      37.479  90.641  29.486  0.00  0.00     0.094 H 
ATOM     35  O5D ACR d   1      36.427  91.185  31.910  0.00  0.00    -0.349 OA
ATOM     36  H34 ACR d   1      34.747  90.595  30.842  0.00  0.00     0.133 H 
ATOM     37  C5D ACR d   1      36.156  90.066  32.749  0.00  0.00     0.089 C 
ATOM     38  H38 ACR d   1      35.086  90.090  33.001  0.00  0.00     0.090 H 
ATOM     39  H37 ACR d   1      35.454  88.232  31.895  0.00  0.00     0.091 H 
BRANCH  30  40
ATOM     40  O3D ACR d   1      36.762  87.704  29.878  0.00  0.00    -0.390 OA
ATOM     41  H43 ACR d   1      37.111  86.942  30.325  0.00  0.00     0.210 HD
ENDBRANCH  30  40
BRANCH  31  42
ATOM     42  O2D ACR d   1      35.863  89.638  28.680  0.00  0.00    -0.388 OA
ATOM     43  H42 ACR d   1      35.109  89.134  28.962  0.00  0.00     0.210 HD
ENDBRANCH  31  42
BRANCH  33  44
ATOM     44  O1D ACR d   1      35.613  92.284  30.000  0.00  0.00    -0.369 OA
ATOM     45  H41 ACR d   1      35.121  92.885  30.547  0.00  0.00     0.212 HD
ENDBRANCH  33  44
BRANCH  37  46
ATOM     46  C6D ACR d   1      36.934  90.184  34.057  0.00  0.00     0.043 C 
ATOM     47  H39 ACR d   1      37.194  91.239  34.232  0.00  0.00     0.078 H 
ATOM     48  H40 ACR d   1      37.855  89.586  33.988  0.00  0.00     0.078 H 
BRANCH  46  49
ATOM     49  O6D ACR d   1      36.140  89.705  35.148  0.00  0.00    -0.398 OA
ATOM     50  H44 ACR d   1      35.916  88.794  34.999  0.00  0.00     0.209 HD
ENDBRANCH  46  49
ENDBRANCH  37  46
ENDBRANCH  28  29
ENDBRANCH  17  28
BRANCH  21  51
ATOM     51  C6C ACR d   1      35.535  85.186  36.278  0.00  0.00     0.043 C 
ATOM     52  H29 ACR d   1      36.565  85.066  36.646  0.00  0.00     0.078 H 
ATOM     53  H30 ACR d   1      34.978  84.251  36.436  0.00  0.00     0.078 H 
BRANCH  51  54
ATOM     54  O6C ACR d   1      34.898  86.242  36.993  0.00  0.00    -0.398 OA
ATOM     55  H33 ACR d   1      34.883  86.032  37.919  0.00  0.00     0.209 HD
ENDBRANCH  51  54
ENDBRANCH  21  51
ENDBRANCH  12  13
ENDBRANCH   1  12
BRANCH   2  56
ATOM     56  O2B ACR d   1      34.771  81.269  32.403  0.00  0.00    -0.388 OA
ATOM     57  H22 ACR d   1      34.473  80.583  31.817  0.00  0.00     0.210 HD
ENDBRANCH   2  56
BRANCH   3  58
ATOM     58  O3B ACR d   1      32.133  80.178  32.625  0.00  0.00    -0.391 OA
ATOM     59  H23 ACR d   1      32.587  80.191  31.791  0.00  0.00     0.210 HD
ENDBRANCH   3  58
BRANCH   5  60
ATOM     60  C6B ACR d   1      31.705  82.684  36.884  0.00  0.00    -0.050 C 
ATOM     61  H17 ACR d   1      32.136  83.558  37.394  0.00  0.00     0.031 H 
ATOM     62  H18 ACR d   1      31.828  81.793  37.517  0.00  0.00     0.031 H 
ATOM     63  H19 ACR d   1      30.635  82.858  36.700  0.00  0.00     0.031 H 
ENDBRANCH   5  60
BRANCH   4  64
ATOM     64  N4B ACR d   1      30.410  81.184  34.634  0.00  0.00    -0.056 N 
ATOM     65  H20 ACR d   1      30.007  81.757  35.358  0.00  0.00     0.278 HD
ATOM     66  H21 ACR d   1      30.176  81.569  33.732  0.00  0.00     0.278 HD
BRANCH  64  67
ATOM     67  C1A ACR d   1      29.775  79.854  34.722  0.00  0.00     0.146 C 
ATOM     68  C2A ACR d   1      28.237  79.744  34.684  0.00  0.00     0.093 C 
ATOM     69  C3A ACR d   1      27.573  80.272  35.964  0.00  0.00     0.091 C 
ATOM     70  H2  ACR d   1      28.008  78.669  34.643  0.00  0.00     0.090 H 
ATOM     71  C4A ACR d   1      27.998  79.403  37.136  0.00  0.00     0.086 C 
ATOM     72  H3  ACR d   1      27.892  81.311  36.132  0.00  0.00     0.091 H 
ATOM     73  C5A ACR d   1      29.486  79.114  37.105  0.00  0.00    -0.027 C 
ATOM     74  H4  ACR d   1      27.451  78.450  37.095  0.00  0.00     0.094 H 
ATOM     75  C7A ACR d   1      30.218  79.128  35.973  0.00  0.00    -0.064 C 
ATOM     76  H7  ACR d   1      31.167  78.595  35.959  0.00  0.00     0.080 H 
ATOM     77  H1  ACR d   1      30.147  79.293  33.852  0.00  0.00     0.095 H 
BRANCH  68  78
ATOM     78  O2A ACR d   1      27.677  80.317  33.495  0.00  0.00    -0.390 OA
ATOM     79  H8  ACR d   1      27.791  81.260  33.515  0.00  0.00     0.210 HD
ENDBRANCH  68  78
BRANCH  69  80
ATOM     80  O3A ACR d   1      26.129  80.221  35.886  0.00  0.00    -0.390 OA
ATOM     81  H9  ACR d   1      25.833  80.757  35.160  0.00  0.00     0.210 HD
ENDBRANCH  69  80
BRANCH  71  82
ATOM     82  O4A ACR d   1      27.664  80.093  38.345  0.00  0.00    -0.388 OA
ATOM     83  H10 ACR d   1      27.895  79.552  39.091  0.00  0.00     0.210 HD
ENDBRANCH  71  82
BRANCH  73  84
ATOM     84  C6A ACR d   1      30.197  78.774  38.393  0.00  0.00     0.039 C 
ATOM     85  H5  ACR d   1      29.719  79.300  39.233  0.00  0.00     0.081 H 
ATOM     86  H6  ACR d   1      31.253  79.074  38.326  0.00  0.00     0.081 H 
BRANCH  84  87
ATOM     87  O6A ACR d   1      30.107  77.361  38.592  0.00  0.00    -0.397 OA
ATOM     88  H11 ACR d   1      30.519  76.913  37.863  0.00  0.00     0.209 HD
ENDBRANCH  84  87
ENDBRANCH  73  84
ENDBRANCH  64  67
ENDBRANCH   4  64
TORSDOF 23
