REMARK  10 active torsions:
REMARK  status: ('A' for Active; 'I' for Inactive)
REMARK    1  A    between atoms: C1_1  and  C8_8 
REMARK    2  A    between atoms: C8_8  and  N7_7 
REMARK    3  A    between atoms: N7_7  and  C28_28 
REMARK    4  A    between atoms: C8_8  and  C9_9 
REMARK       I    between atoms: C9_9  and  N11_11 
REMARK    5  A    between atoms: C12_12  and  C13_13 
REMARK       I    between atoms: C13_13  and  N15_15 
REMARK    6  A    between atoms: N15_15  and  C16_16 
REMARK    7  A    between atoms: C16_16  and  C17_17 
REMARK    8  A    between atoms: C20_20  and  C23_23 
REMARK    9  A    between atoms: C23_23  and  N25_25 
REMARK   10  A    between atoms: C28_28  and  C29_29 
ROOT
ATOM      1  C9  MEL d   1      17.942 -13.373  22.263  0.00  0.00     0.251 C 
ATOM      2  O0  MEL d   1      16.893 -12.809  22.560  0.00  0.00    -0.271 OA
ATOM      3  N11 MEL d   1      18.735 -12.799  21.337  0.00  0.00    -0.337 N 
ATOM      4  C12 MEL d   1      18.502 -11.623  20.494  0.00  0.00     0.093 C 
ATOM      5  C26 MEL d   1      19.670 -12.018  19.570  0.00  0.00    -0.023 C 
ATOM      6  C27 MEL d   1      19.990 -13.098  20.611  0.00  0.00     0.001 C 
ATOM      7  H15 MEL d   1      18.619 -10.642  20.977  0.00  0.00     0.087 H 
ATOM      8  H27 MEL d   1      20.445 -11.248  19.447  0.00  0.00     0.039 H 
ATOM      9  H28 MEL d   1      19.372 -12.399  18.582  0.00  0.00     0.039 H 
ATOM     10  H29 MEL d   1      20.034 -14.116  20.198  0.00  0.00     0.064 H 
ATOM     11  H30 MEL d   1      20.901 -12.899  21.195  0.00  0.00     0.064 H 
ENDROOT
BRANCH   1  12
ATOM     12  C8  MEL d   1      18.279 -14.686  22.918  0.00  0.00     0.182 C 
ATOM     13  H14 MEL d   1      19.039 -15.218  22.327  0.00  0.00     0.100 H 
BRANCH  12  14
ATOM     14  C1  MEL d   1      18.817 -14.423  24.339  0.00  0.00    -0.018 C 
ATOM     15  C2  MEL d   1      19.053 -15.753  25.072  0.00  0.00    -0.059 C 
ATOM     16  C3  MEL d   1      19.519 -15.448  26.504  0.00  0.00    -0.065 C 
ATOM     17  H2  MEL d   1      19.826 -16.334  24.547  0.00  0.00     0.033 H 
ATOM     18  H3  MEL d   1      18.117 -16.331  25.102  0.00  0.00     0.033 H 
ATOM     19  C4  MEL d   1      20.809 -14.610  26.501  0.00  0.00    -0.065 C 
ATOM     20  H4  MEL d   1      19.708 -16.396  27.030  0.00  0.00     0.033 H 
ATOM     21  H5  MEL d   1      18.729 -14.889  27.027  0.00  0.00     0.033 H 
ATOM     22  C5  MEL d   1      20.612 -13.286  25.747  0.00  0.00    -0.065 C 
ATOM     23  H6  MEL d   1      21.609 -15.185  26.012  0.00  0.00     0.033 H 
ATOM     24  H7  MEL d   1      21.097 -14.391  27.540  0.00  0.00     0.033 H 
ATOM     25  C6  MEL d   1      20.114 -13.579  24.318  0.00  0.00    -0.059 C 
ATOM     26  H8  MEL d   1      21.569 -12.746  25.698  0.00  0.00     0.033 H 
ATOM     27  H9  MEL d   1      19.869 -12.670  26.275  0.00  0.00     0.033 H 
ATOM     28  H10 MEL d   1      19.914 -12.627  23.805  0.00  0.00     0.033 H 
ATOM     29  H11 MEL d   1      20.893 -14.132  23.773  0.00  0.00     0.033 H 
ATOM     30  H1  MEL d   1      18.053 -13.856  24.891  0.00  0.00     0.043 H 
ENDBRANCH  12  14
BRANCH  12  31
ATOM     31  N7  MEL d   1      17.034 -15.495  22.987  0.00  0.00    -0.052 N 
ATOM     32  H12 MEL d   1      16.363 -14.982  23.537  0.00  0.00     0.278 HD
ATOM     33  H13 MEL d   1      17.255 -16.362  23.451  0.00  0.00     0.278 HD
BRANCH  31  34
ATOM     34  C28 MEL d   1      16.397 -15.826  21.686  0.00  0.00     0.161 C 
ATOM     35  H31 MEL d   1      17.000 -16.592  21.176  0.00  0.00     0.092 H 
ATOM     36  H32 MEL d   1      16.356 -14.918  21.066  0.00  0.00     0.092 H 
BRANCH  34  37
ATOM     37  C29 MEL d   1      14.989 -16.355  21.881  0.00  0.00     0.199 C 
ATOM     38  O30 MEL d   1      14.530 -16.592  22.981  0.00  0.00    -0.647 OA
ATOM     39  O31 MEL d   1      14.230 -16.597  20.810  0.00  0.00    -0.647 OA
ENDBRANCH  34  37
ENDBRANCH  31  34
ENDBRANCH  12  31
ENDBRANCH   1  12
BRANCH   4  40
ATOM     40  C13 MEL d   1      17.107 -11.790  19.902  0.00  0.00     0.240 C 
ATOM     41  O14 MEL d   1      16.790 -12.872  19.423  0.00  0.00    -0.271 OA
ATOM     42  N15 MEL d   1      16.176 -10.815  20.004  0.00  0.00    -0.355 N 
ATOM     43  H16 MEL d   1      16.398  -9.937  20.429  0.00  0.00     0.162 HD
BRANCH  42  44
ATOM     44  C16 MEL d   1      14.825 -11.078  19.473  0.00  0.00     0.019 C 
ATOM     45  H17 MEL d   1      14.795 -12.077  19.013  0.00  0.00     0.071 H 
ATOM     46  H18 MEL d   1      14.568 -10.319  18.719  0.00  0.00     0.071 H 
BRANCH  44  47
ATOM     47  C17 MEL d   1      13.844 -11.014  20.613  0.00  0.00    -0.040 A 
ATOM     48  C18 MEL d   1      13.464 -12.167  21.284  0.00  0.00    -0.074 A 
ATOM     49  C19 MEL d   1      12.581 -12.081  22.358  0.00  0.00    -0.069 A 
ATOM     50  H19 MEL d   1      13.852 -13.130  20.974  0.00  0.00     0.084 H 
ATOM     51  C20 MEL d   1      12.099 -10.821  22.764  0.00  0.00     0.007 A 
ATOM     52  H20 MEL d   1      12.267 -12.978  22.878  0.00  0.00     0.085 H 
ATOM     53  C21 MEL d   1      12.494  -9.661  22.074  0.00  0.00    -0.069 A 
ATOM     54  C22 MEL d   1      13.390  -9.769  21.031  0.00  0.00    -0.074 A 
ATOM     55  H21 MEL d   1      12.099  -8.693  22.359  0.00  0.00     0.085 H 
ATOM     56  H22 MEL d   1      13.743  -8.874  20.532  0.00  0.00     0.084 H 
BRANCH  51  57
ATOM     57  C23 MEL d   1      11.119 -10.732  23.878  0.00  0.00     0.102 C 
ATOM     58  N24 MEL d   1      10.889  -9.596  24.470  0.00  0.00    -0.385 N 
ATOM     59  H23 MEL d   1      10.208  -9.546  25.241  0.00  0.00     0.157 HD
ATOM     60  H24 MEL d   1      11.388  -8.747  24.168  0.00  0.00     0.157 HD
BRANCH  57  61
ATOM     61  N25 MEL d   1      10.399 -11.854  24.265  0.00  0.00    -0.385 N 
ATOM     62  H25 MEL d   1      10.570 -12.760  23.805  0.00  0.00     0.157 HD
ATOM     63  H26 MEL d   1       9.693 -11.781  25.012  0.00  0.00     0.157 HD
ENDBRANCH  57  61
ENDBRANCH  51  57
ENDBRANCH  44  47
ENDBRANCH  42  44
ENDBRANCH   4  40
TORSDOF 10
