REMARK  13 active torsions:
REMARK  status: ('A' for Active; 'I' for Inactive)
REMARK    1  A    between atoms: C1_1  and  C2_2 
REMARK    2  A    between atoms: C2_2  and  C3_3 
REMARK    3  A    between atoms: C3_3  and  N4_4 
REMARK       I    between atoms: N4_4  and  C5_5 
REMARK    4  A    between atoms: C5_5  and  C7_7 
REMARK    5  A    between atoms: C7_7  and  N8_8 
REMARK    6  A    between atoms: N8_8  and  C9_9 
REMARK    7  A    between atoms: C9_9  and  C11_10 
REMARK    8  A    between atoms: C9_9  and  C17_16 
REMARK       I    between atoms: C17_16  and  N19_18 
REMARK    9  A    between atoms: C22_21  and  C24_22 
REMARK       I    between atoms: C24_22  and  N26_24 
REMARK   10  A    between atoms: N26_24  and  C27_25 
REMARK   11  A    between atoms: C27_25  and  C28_26 
REMARK   12  A    between atoms: C31_29  and  C34_32 
REMARK   13  A    between atoms: C34_32  and  N36_34 
ROOT
ATOM      1  C9  M67 d   1      18.343 -14.614  22.931  0.00  0.00     0.182 C 
ATOM      2  H13 M67 d   1      19.109 -15.160  22.361  0.00  0.00     0.100 H 
ENDROOT
BRANCH   1   3
ATOM      3  N8  M67 d   1      17.091 -15.408  22.977  0.00  0.00    -0.054 N 
ATOM      4  H11 M67 d   1      17.288 -16.277  23.449  0.00  0.00     0.278 HD
ATOM      5  H12 M67 d   1      16.408 -14.886  23.504  0.00  0.00     0.278 HD
BRANCH   3   6
ATOM      6  C7  M67 d   1      16.508 -15.725  21.652  0.00  0.00     0.155 C 
ATOM      7  H9  M67 d   1      16.528 -14.819  21.028  0.00  0.00     0.090 H 
ATOM      8  H10 M67 d   1      17.112 -16.511  21.176  0.00  0.00     0.090 H 
BRANCH   6   9
ATOM      9  C5  M67 d   1      15.083 -16.207  21.767  0.00  0.00     0.243 C 
ATOM     10  N4  M67 d   1      14.457 -16.526  20.616  0.00  0.00    -0.360 N 
ATOM     11  H8  M67 d   1      14.962 -16.424  19.759  0.00  0.00     0.162 HD
ATOM     12  O6  M67 d   1      14.520 -16.322  22.849  0.00  0.00    -0.272 OA
BRANCH  10  13
ATOM     13  C3  M67 d   1      13.071 -17.016  20.552  0.00  0.00    -0.005 C 
ATOM     14  H6  M67 d   1      12.915 -17.540  19.597  0.00  0.00     0.064 H 
ATOM     15  H7  M67 d   1      12.893 -17.712  21.385  0.00  0.00     0.064 H 
BRANCH  13  16
ATOM     16  C2  M67 d   1      12.087 -15.845  20.653  0.00  0.00    -0.054 C 
ATOM     17  H4  M67 d   1      11.062 -16.239  20.715  0.00  0.00     0.034 H 
ATOM     18  H5  M67 d   1      12.311 -15.262  21.558  0.00  0.00     0.034 H 
BRANCH  16  19
ATOM     19  C1  M67 d   1      12.202 -14.935  19.428  0.00  0.00    -0.075 C 
ATOM     20  H1  M67 d   1      11.489 -14.103  19.521  0.00  0.00     0.027 H 
ATOM     21  H2  M67 d   1      11.975 -15.512  18.520  0.00  0.00     0.027 H 
ATOM     22  H3  M67 d   1      13.225 -14.535  19.363  0.00  0.00     0.027 H 
ENDBRANCH  16  19
ENDBRANCH  13  16
ENDBRANCH  10  13
ENDBRANCH   6   9
ENDBRANCH   3   6
ENDBRANCH   1   3
BRANCH   1  23
ATOM     23  C11 M67 d   1      18.873 -14.334  24.352  0.00  0.00    -0.018 C 
ATOM     24  C12 M67 d   1      19.114 -15.662  25.091  0.00  0.00    -0.059 C 
ATOM     25  C13 M67 d   1      19.646 -15.387  26.506  0.00  0.00    -0.065 C 
ATOM     26  H15 M67 d   1      19.851 -16.260  24.535  0.00  0.00     0.033 H 
ATOM     27  H16 M67 d   1      18.167 -16.218  25.160  0.00  0.00     0.033 H 
ATOM     28  C14 M67 d   1      20.969 -14.608  26.445  0.00  0.00    -0.065 C 
ATOM     29  H17 M67 d   1      19.814 -16.344  27.021  0.00  0.00     0.033 H 
ATOM     30  H18 M67 d   1      18.904 -14.796  27.063  0.00  0.00     0.033 H 
ATOM     31  C15 M67 d   1      20.781 -13.276  25.705  0.00  0.00    -0.065 C 
ATOM     32  H19 M67 d   1      21.720 -15.213  25.915  0.00  0.00     0.033 H 
ATOM     33  H20 M67 d   1      21.317 -14.406  27.469  0.00  0.00     0.033 H 
ATOM     34  C16 M67 d   1      20.191 -13.527  24.303  0.00  0.00    -0.059 C 
ATOM     35  H21 M67 d   1      21.755 -12.775  25.605  0.00  0.00     0.033 H 
ATOM     36  H22 M67 d   1      20.096 -12.635  26.279  0.00  0.00     0.033 H 
ATOM     37  H23 M67 d   1      19.993 -12.556  23.825  0.00  0.00     0.033 H 
ATOM     38  H24 M67 d   1      20.926 -14.087  23.706  0.00  0.00     0.033 H 
ATOM     39  H14 M67 d   1      18.120 -13.750  24.901  0.00  0.00     0.043 H 
ENDBRANCH   1  23
BRANCH   1  40
ATOM     40  C17 M67 d   1      18.016 -13.318  22.241  0.00  0.00     0.251 C 
ATOM     41  O18 M67 d   1      16.941 -12.767  22.486  0.00  0.00    -0.271 OA
ATOM     42  N19 M67 d   1      18.832 -12.766  21.319  0.00  0.00    -0.337 N 
ATOM     43  C20 M67 d   1      20.109 -13.061  20.639  0.00  0.00     0.001 C 
ATOM     44  C22 M67 d   1      18.635 -11.593  20.460  0.00  0.00     0.093 C 
ATOM     45  C21 M67 d   1      19.798 -12.024  19.553  0.00  0.00    -0.023 C 
ATOM     46  H25 M67 d   1      20.185 -14.092  20.262  0.00  0.00     0.064 H 
ATOM     47  H26 M67 d   1      20.999 -12.823  21.240  0.00  0.00     0.064 H 
ATOM     48  H27 M67 d   1      19.500 -12.443  18.581  0.00  0.00     0.039 H 
ATOM     49  H28 M67 d   1      20.576 -11.262  19.400  0.00  0.00     0.039 H 
ATOM     50  H29 M67 d   1      18.771 -10.609  20.932  0.00  0.00     0.087 H 
BRANCH  44  51
ATOM     51  C24 M67 d   1      17.247 -11.740  19.872  0.00  0.00     0.240 C 
ATOM     52  O25 M67 d   1      16.937 -12.803  19.372  0.00  0.00    -0.271 OA
ATOM     53  N26 M67 d   1      16.319 -10.778  20.026  0.00  0.00    -0.355 N 
ATOM     54  H30 M67 d   1      16.538  -9.928  20.504  0.00  0.00     0.162 HD
BRANCH  53  55
ATOM     55  C27 M67 d   1      14.978 -11.006  19.476  0.00  0.00     0.019 C 
ATOM     56  H31 M67 d   1      14.933 -11.996  18.998  0.00  0.00     0.071 H 
ATOM     57  H32 M67 d   1      14.741 -10.230  18.733  0.00  0.00     0.071 H 
BRANCH  55  58
ATOM     58  C28 M67 d   1      13.998 -10.942  20.611  0.00  0.00    -0.040 A 
ATOM     59  C29 M67 d   1      13.717 -12.086  21.340  0.00  0.00    -0.074 A 
ATOM     60  C30 M67 d   1      12.814 -12.021  22.388  0.00  0.00    -0.069 A 
ATOM     61  H33 M67 d   1      14.200 -13.024  21.092  0.00  0.00     0.084 H 
ATOM     62  C31 M67 d   1      12.207 -10.795  22.717  0.00  0.00     0.007 A 
ATOM     63  H34 M67 d   1      12.575 -12.914  22.954  0.00  0.00     0.085 H 
ATOM     64  C32 M67 d   1      12.493  -9.641  21.970  0.00  0.00    -0.069 A 
ATOM     65  C33 M67 d   1      13.411  -9.724  20.935  0.00  0.00    -0.074 A 
ATOM     66  H35 M67 d   1      12.004  -8.701  22.199  0.00  0.00     0.085 H 
ATOM     67  H36 M67 d   1      13.673  -8.834  20.375  0.00  0.00     0.084 H 
BRANCH  62  68
ATOM     68  C34 M67 d   1      11.207 -10.741  23.814  0.00  0.00     0.102 C 
ATOM     69  N35 M67 d   1      10.516 -11.810  24.138  0.00  0.00    -0.385 N 
ATOM     70  H37 M67 d   1       9.824 -11.765  24.900  0.00  0.00     0.157 HD
ATOM     71  H38 M67 d   1      10.666 -12.694  23.630  0.00  0.00     0.157 HD
BRANCH  68  72
ATOM     72  N36 M67 d   1      10.946  -9.554  24.455  0.00  0.00    -0.385 N 
ATOM     73  H39 M67 d   1      11.481  -8.708  24.210  0.00  0.00     0.157 HD
ATOM     74  H40 M67 d   1      10.216  -9.510  25.180  0.00  0.00     0.157 HD
ENDBRANCH  68  72
ENDBRANCH  62  68
ENDBRANCH  55  58
ENDBRANCH  53  55
ENDBRANCH  44  51
ENDBRANCH   1  40
TORSDOF 13
