REMARK  12 active torsions:
REMARK  status: ('A' for Active; 'I' for Inactive)
REMARK    1  A    between atoms: C8_8  and  C1_1 
REMARK    2  A    between atoms: N7_7  and  C8_8 
REMARK    3  A    between atoms: C28_28  and  N7_7 
REMARK    4  A    between atoms: C8_8  and  C9_9 
REMARK       I    between atoms: C9_9  and  N11_11 
REMARK    5  A    between atoms: C12_12  and  C13_13 
REMARK       I    between atoms: C13_13  and  N15_15 
REMARK    6  A    between atoms: N15_15  and  C16_16 
REMARK    7  A    between atoms: C16_16  and  C17_17 
REMARK    8  A    between atoms: C20_20  and  C23_23 
REMARK    9  A    between atoms: C23_23  and  N25_25 
REMARK   10  A    between atoms: C29_30  and  C28_28 
REMARK   11  A    between atoms: N2_33  and  C10_29 
REMARK       I    between atoms: C29_30  and  N2_33 
REMARK   12  A    between atoms: N2_33  and  C30_32 
ROOT
ATOM      1  C8  MM9 d   1      18.200 -14.613  22.803  0.00  0.00     0.182 C 
ATOM      2  H14 MM9 d   1      18.948 -15.152  22.203  0.00  0.00     0.100 H 
ENDROOT
BRANCH   1   3
ATOM      3  C1  MM9 d   1      18.758 -14.410  24.235  0.00  0.00    -0.018 C 
ATOM      4  C2  MM9 d   1      18.885 -15.767  24.961  0.00  0.00    -0.059 C 
ATOM      5  C3  MM9 d   1      19.473 -15.588  26.370  0.00  0.00    -0.065 C 
ATOM      6  H2  MM9 d   1      19.545 -16.426  24.378  0.00  0.00     0.033 H 
ATOM      7  H3  MM9 d   1      17.888 -16.225  25.043  0.00  0.00     0.033 H 
ATOM      8  C4  MM9 d   1      20.828 -14.860  26.312  0.00  0.00    -0.065 C 
ATOM      9  H4  MM9 d   1      19.615 -16.577  26.829  0.00  0.00     0.033 H 
ATOM     10  H5  MM9 d   1      18.773 -14.998  26.980  0.00  0.00     0.033 H 
ATOM     11  C5  MM9 d   1      20.684 -13.490  25.623  0.00  0.00    -0.065 C 
ATOM     12  H6  MM9 d   1      21.544 -15.475  25.746  0.00  0.00     0.033 H 
ATOM     13  H7  MM9 d   1      21.201 -14.711  27.336  0.00  0.00     0.033 H 
ATOM     14  C6  MM9 d   1      20.128 -13.697  24.201  0.00  0.00    -0.059 C 
ATOM     15  H8  MM9 d   1      21.668 -13.001  25.566  0.00  0.00     0.033 H 
ATOM     16  H9  MM9 d   1      19.993 -12.858  26.200  0.00  0.00     0.033 H 
ATOM     17  H10 MM9 d   1      20.011 -12.717  23.716  0.00  0.00     0.033 H 
ATOM     18  H11 MM9 d   1      20.837 -14.309  23.624  0.00  0.00     0.033 H 
ATOM     19  H1  MM9 d   1      18.052 -13.779  24.795  0.00  0.00     0.043 H 
ENDBRANCH   1   3
BRANCH   1  20
ATOM     20  N7  MM9 d   1      16.934 -15.390  22.820  0.00  0.00    -0.054 N 
ATOM     21  H12 MM9 d   1      16.257 -14.869  23.355  0.00  0.00     0.278 HD
ATOM     22  H13 MM9 d   1      17.116 -16.271  23.275  0.00  0.00     0.278 HD
BRANCH  20  23
ATOM     23  C28 MM9 d   1      16.340 -15.677  21.482  0.00  0.00     0.155 C 
ATOM     24  H31 MM9 d   1      16.694 -16.660  21.136  0.00  0.00     0.090 H 
ATOM     25  H32 MM9 d   1      16.663 -14.901  20.773  0.00  0.00     0.090 H 
BRANCH  23  26
ATOM     26  C29 MM9 d   1      14.820 -15.691  21.543  0.00  0.00     0.244 C 
ATOM     27  O30 MM9 d   1      14.273 -15.766  22.639  0.00  0.00    -0.272 OA
ATOM     28  N2  MM9 d   1      14.038 -15.608  20.416  0.00  0.00    -0.359 N 
BRANCH  28  29
ATOM     29  C10 MM9 d   1      14.610 -15.520  19.060  0.00  0.00    -0.017 C 
ATOM     30  H33 MM9 d   1      13.796 -15.463  18.322  0.00  0.00     0.056 H 
ATOM     31  H34 MM9 d   1      15.223 -16.412  18.862  0.00  0.00     0.056 H 
ATOM     32  H35 MM9 d   1      15.237 -14.620  18.984  0.00  0.00     0.056 H 
ENDBRANCH  28  29
BRANCH  28  33
ATOM     33  C30 MM9 d   1      12.563 -15.596  20.527  0.00  0.00    -0.017 C 
ATOM     34  H36 MM9 d   1      12.274 -15.667  21.586  0.00  0.00     0.056 H 
ATOM     35  H37 MM9 d   1      12.147 -16.452  19.976  0.00  0.00     0.056 H 
ATOM     36  H38 MM9 d   1      12.171 -14.660  20.102  0.00  0.00     0.056 H 
ENDBRANCH  28  33
ENDBRANCH  23  26
ENDBRANCH  20  23
ENDBRANCH   1  20
BRANCH   1  37
ATOM     37  C9  MM9 d   1      17.912 -13.274  22.167  0.00  0.00     0.251 C 
ATOM     38  O0  MM9 d   1      16.869 -12.692  22.449  0.00  0.00    -0.271 OA
ATOM     39  N11 MM9 d   1      18.737 -12.698  21.270  0.00  0.00    -0.337 N 
ATOM     40  C12 MM9 d   1      18.555 -11.507  20.435  0.00  0.00     0.093 C 
ATOM     41  C27 MM9 d   1      19.983 -13.031  20.550  0.00  0.00     0.001 C 
ATOM     42  C26 MM9 d   1      19.744 -11.895  19.547  0.00  0.00    -0.023 C 
ATOM     43  H15 MM9 d   1      18.666 -10.534  20.936  0.00  0.00     0.087 H 
ATOM     44  H27 MM9 d   1      20.548 -11.146  19.493  0.00  0.00     0.039 H 
ATOM     45  H28 MM9 d   1      19.478 -12.221  18.531  0.00  0.00     0.039 H 
ATOM     46  H29 MM9 d   1      19.980 -14.033  20.096  0.00  0.00     0.064 H 
ATOM     47  H30 MM9 d   1      20.893 -12.906  21.155  0.00  0.00     0.064 H 
BRANCH  40  48
ATOM     48  C13 MM9 d   1      17.181 -11.654  19.801  0.00  0.00     0.240 C 
ATOM     49  O14 MM9 d   1      16.879 -12.696  19.243  0.00  0.00    -0.271 OA
ATOM     50  N15 MM9 d   1      16.259 -10.694  19.995  0.00  0.00    -0.355 N 
ATOM     51  H16 MM9 d   1      16.502  -9.871  20.509  0.00  0.00     0.162 HD
BRANCH  50  52
ATOM     52  C16 MM9 d   1      14.902 -10.841  19.462  0.00  0.00     0.019 C 
ATOM     53  H17 MM9 d   1      14.814 -11.794  18.920  0.00  0.00     0.071 H 
ATOM     54  H18 MM9 d   1      14.677 -10.009  18.779  0.00  0.00     0.071 H 
BRANCH  52  55
ATOM     55  C17 MM9 d   1      13.944 -10.823  20.624  0.00  0.00    -0.040 A 
ATOM     56  C18 MM9 d   1      13.334  -9.623  20.972  0.00  0.00    -0.074 A 
ATOM     57  C19 MM9 d   1      12.445  -9.574  22.026  0.00  0.00    -0.069 A 
ATOM     58  H19 MM9 d   1      13.558  -8.722  20.413  0.00  0.00     0.084 H 
ATOM     59  C20 MM9 d   1      12.215 -10.734  22.787  0.00  0.00     0.007 A 
ATOM     60  H20 MM9 d   1      11.929  -8.651  22.265  0.00  0.00     0.085 H 
ATOM     61  C21 MM9 d   1      12.842 -11.945  22.437  0.00  0.00    -0.069 A 
ATOM     62  C22 MM9 d   1      13.701 -11.978  21.344  0.00  0.00    -0.074 A 
ATOM     63  H21 MM9 d   1      12.657 -12.844  23.014  0.00  0.00     0.085 H 
ATOM     64  H22 MM9 d   1      14.179 -12.908  21.057  0.00  0.00     0.084 H 
BRANCH  59  65
ATOM     65  C23 MM9 d   1      11.227 -10.689  23.895  0.00  0.00     0.102 C 
ATOM     66  N24 MM9 d   1      10.934  -9.560  24.477  0.00  0.00    -0.385 N 
ATOM     67  H23 MM9 d   1      10.248  -9.539  25.244  0.00  0.00     0.157 HD
ATOM     68  H24 MM9 d   1      11.389  -8.689  24.169  0.00  0.00     0.157 HD
BRANCH  65  69
ATOM     69  N25 MM9 d   1      10.536 -11.834  24.276  0.00  0.00    -0.385 N 
ATOM     70  H25 MM9 d   1      10.751 -12.737  23.830  0.00  0.00     0.157 HD
ATOM     71  H26 MM9 d   1       9.810 -11.779  25.004  0.00  0.00     0.157 HD
ENDBRANCH  65  69
ENDBRANCH  59  65
ENDBRANCH  52  55
ENDBRANCH  50  52
ENDBRANCH  40  48
ENDBRANCH   1  37
TORSDOF 12
