REMARK  11 active torsions:
REMARK  status: ('A' for Active; 'I' for Inactive)
REMARK    1  A    between atoms: C1_1  and  C8_8 
REMARK    2  A    between atoms: C8_8  and  N7_7 
REMARK    3  A    between atoms: N7_7  and  C28_28 
REMARK    4  A    between atoms: C8_8  and  C9_9 
REMARK       I    between atoms: C9_9  and  N11_11 
REMARK    5  A    between atoms: C12_12  and  C13_13 
REMARK       I    between atoms: C13_13  and  N15_15 
REMARK    6  A    between atoms: N15_15  and  C16_16 
REMARK    7  A    between atoms: C16_16  and  C17_17 
REMARK    8  A    between atoms: C20_20  and  C23_23 
REMARK    9  A    between atoms: C23_23  and  N25_25 
REMARK   10  A    between atoms: C28_28  and  C29_29 
REMARK       I    between atoms: C29_29  and  N2_32 
REMARK   11  A    between atoms: N2_32  and  C10_31 
ROOT
ATOM      1  C9  M6S d   1      17.893 -13.374  22.267  0.00  0.00     0.251 C 
ATOM      2  O0  M6S d   1      16.840 -12.800  22.553  0.00  0.00    -0.271 OA
ATOM      3  N11 M6S d   1      18.730 -12.797  21.367  0.00  0.00    -0.337 N 
ATOM      4  C12 M6S d   1      18.562 -11.592  20.548  0.00  0.00     0.093 C 
ATOM      5  C26 M6S d   1      19.750 -11.979  19.652  0.00  0.00    -0.023 C 
ATOM      6  C27 M6S d   1      19.987 -13.116  20.657  0.00  0.00     0.001 C 
ATOM      7  H15 M6S d   1      18.684 -10.628  21.064  0.00  0.00     0.087 H 
ATOM      8  H27 M6S d   1      20.555 -11.231  19.597  0.00  0.00     0.039 H 
ATOM      9  H28 M6S d   1      19.481 -12.304  18.636  0.00  0.00     0.039 H 
ATOM     10  H29 M6S d   1      19.997 -14.117  20.201  0.00  0.00     0.064 H 
ATOM     11  H30 M6S d   1      20.890 -12.984  21.272  0.00  0.00     0.064 H 
ENDROOT
BRANCH   1  12
ATOM     12  C8  M6S d   1      18.187 -14.715  22.885  0.00  0.00     0.182 C 
ATOM     13  H14 M6S d   1      18.926 -15.252  22.272  0.00  0.00     0.100 H 
BRANCH  12  14
ATOM     14  C1  M6S d   1      18.755 -14.533  24.313  0.00  0.00    -0.018 C 
ATOM     15  C2  M6S d   1      18.982 -15.902  24.991  0.00  0.00    -0.059 C 
ATOM     16  C3  M6S d   1      19.538 -15.704  26.415  0.00  0.00    -0.065 C 
ATOM     17  H2  M6S d   1      19.701 -16.487  24.398  0.00  0.00     0.033 H 
ATOM     18  H3  M6S d   1      18.026 -16.443  25.046  0.00  0.00     0.033 H 
ATOM     19  C4  M6S d   1      20.848 -14.893  26.399  0.00  0.00    -0.065 C 
ATOM     20  H4  M6S d   1      19.733 -16.689  26.863  0.00  0.00     0.033 H 
ATOM     21  H5  M6S d   1      18.792 -15.167  27.019  0.00  0.00     0.033 H 
ATOM     22  C5  M6S d   1      20.636 -13.521  25.734  0.00  0.00    -0.065 C 
ATOM     23  H6  M6S d   1      21.611 -15.452  25.837  0.00  0.00     0.033 H 
ATOM     24  H7  M6S d   1      21.191 -14.743  27.433  0.00  0.00     0.033 H 
ATOM     25  C6  M6S d   1      20.078 -13.722  24.311  0.00  0.00    -0.059 C 
ATOM     26  H8  M6S d   1      21.596 -12.987  25.680  0.00  0.00     0.033 H 
ATOM     27  H9  M6S d   1      19.922 -12.932  26.328  0.00  0.00     0.033 H 
ATOM     28  H10 M6S d   1      19.889 -12.736  23.861  0.00  0.00     0.033 H 
ATOM     29  H11 M6S d   1      20.825 -14.262  23.710  0.00  0.00     0.033 H 
ATOM     30  H1  M6S d   1      18.013 -13.974  24.903  0.00  0.00     0.043 H 
ENDBRANCH  12  14
BRANCH  12  31
ATOM     31  N7  M6S d   1      16.912 -15.481  22.911  0.00  0.00    -0.054 N 
ATOM     32  H12 M6S d   1      16.231 -14.925  23.404  0.00  0.00     0.278 HD
ATOM     33  H13 M6S d   1      17.079 -16.336  23.418  0.00  0.00     0.278 HD
BRANCH  31  34
ATOM     34  C28 M6S d   1      16.328 -15.845  21.591  0.00  0.00     0.155 C 
ATOM     35  H31 M6S d   1      16.742 -16.812  21.268  0.00  0.00     0.090 H 
ATOM     36  H32 M6S d   1      16.590 -15.070  20.855  0.00  0.00     0.090 H 
BRANCH  34  37
ATOM     37  C29 M6S d   1      14.815 -15.956  21.679  0.00  0.00     0.242 C 
ATOM     38  O30 M6S d   1      14.285 -16.314  22.722  0.00  0.00    -0.272 OA
ATOM     39  N2  M6S d   1      14.064 -15.641  20.590  0.00  0.00    -0.364 N 
ATOM     40  H36 M6S d   1      14.535 -15.360  19.754  0.00  0.00     0.161 HD
BRANCH  39  41
ATOM     41  C10 M6S d   1      12.590 -15.693  20.578  0.00  0.00    -0.018 C 
ATOM     42  H33 M6S d   1      12.221 -15.394  19.586  0.00  0.00     0.056 H 
ATOM     43  H34 M6S d   1      12.193 -15.006  21.340  0.00  0.00     0.056 H 
ATOM     44  H35 M6S d   1      12.257 -16.718  20.800  0.00  0.00     0.056 H 
ENDBRANCH  39  41
ENDBRANCH  34  37
ENDBRANCH  31  34
ENDBRANCH  12  31
ENDBRANCH   1  12
BRANCH   4  45
ATOM     45  C13 M6S d   1      17.194 -11.713  19.919  0.00  0.00     0.240 C 
ATOM     46  O14 M6S d   1      16.903 -12.736  19.327  0.00  0.00    -0.271 OA
ATOM     47  N15 M6S d   1      16.263 -10.768  20.129  0.00  0.00    -0.355 N 
ATOM     48  H16 M6S d   1      16.473  -9.948  20.662  0.00  0.00     0.162 HD
BRANCH  47  49
ATOM     49  C16 M6S d   1      14.934 -10.972  19.556  0.00  0.00     0.019 C 
ATOM     50  H17 M6S d   1      14.889 -11.944  19.044  0.00  0.00     0.071 H 
ATOM     51  H18 M6S d   1      14.704 -10.169  18.840  0.00  0.00     0.071 H 
BRANCH  49  52
ATOM     52  C17 M6S d   1      13.956 -10.943  20.692  0.00  0.00    -0.040 A 
ATOM     53  C18 M6S d   1      13.449  -9.721  21.099  0.00  0.00    -0.074 A 
ATOM     54  C19 M6S d   1      12.535  -9.663  22.136  0.00  0.00    -0.069 A 
ATOM     55  H19 M6S d   1      13.768  -8.810  20.605  0.00  0.00     0.084 H 
ATOM     56  C20 M6S d   1      12.173 -10.834  22.813  0.00  0.00     0.007 A 
ATOM     57  H20 M6S d   1      12.100  -8.713  22.424  0.00  0.00     0.085 H 
ATOM     58  C21 M6S d   1      12.702 -12.071  22.398  0.00  0.00    -0.069 A 
ATOM     59  C22 M6S d   1      13.599 -12.116  21.338  0.00  0.00    -0.074 A 
ATOM     60  H21 M6S d   1      12.411 -12.985  22.904  0.00  0.00     0.085 H 
ATOM     61  H22 M6S d   1      14.017 -13.063  21.018  0.00  0.00     0.084 H 
BRANCH  56  62
ATOM     62  C23 M6S d   1      11.156 -10.778  23.900  0.00  0.00     0.102 C 
ATOM     63  N24 M6S d   1      10.432 -11.841  24.187  0.00  0.00    -0.385 N 
ATOM     64  H23 M6S d   1       9.730 -11.798  24.939  0.00  0.00     0.157 HD
ATOM     65  H24 M6S d   1      10.568 -12.715  23.659  0.00  0.00     0.157 HD
BRANCH  62  66
ATOM     66  N25 M6S d   1      10.894  -9.597  24.557  0.00  0.00    -0.385 N 
ATOM     67  H25 M6S d   1      11.450  -8.756  24.346  0.00  0.00     0.157 HD
ATOM     68  H26 M6S d   1      10.142  -9.555  25.260  0.00  0.00     0.157 HD
ENDBRANCH  62  66
ENDBRANCH  56  62
ENDBRANCH  49  52
ENDBRANCH  47  49
ENDBRANCH   4  45
TORSDOF 11
