REMARK  10 active torsions:
REMARK  status: ('A' for Active; 'I' for Inactive)
REMARK    1  A    between atoms: C1_1  and  C8_8 
REMARK    2  A    between atoms: C8_8  and  N7_7 
REMARK    3  A    between atoms: N7_7  and  C28_28 
REMARK    4  A    between atoms: C8_8  and  C9_9 
REMARK       I    between atoms: C9_9  and  N11_11 
REMARK    5  A    between atoms: C12_12  and  C13_13 
REMARK       I    between atoms: C13_13  and  N15_15 
REMARK    6  A    between atoms: N15_15  and  C16_16 
REMARK    7  A    between atoms: C16_16  and  C17_17 
REMARK    8  A    between atoms: C20_20  and  C23_23 
REMARK    9  A    between atoms: C23_23  and  N25_24 
REMARK   10  A    between atoms: C28_28  and  C29_29 
REMARK       I    between atoms: C29_29  and  N30_31 
ROOT
ATOM      1  C9  MVF d   1      17.986 -13.459  22.155  0.00  0.00     0.251 C 
ATOM      2  O0  MVF d   1      16.969 -12.875  22.485  0.00  0.00    -0.271 OA
ATOM      3  N11 MVF d   1      18.799 -12.900  21.227  0.00  0.00    -0.337 N 
ATOM      4  C12 MVF d   1      18.633 -11.702  20.390  0.00  0.00     0.093 C 
ATOM      5  C26 MVF d   1      19.794 -12.138  19.472  0.00  0.00    -0.023 C 
ATOM      6  C27 MVF d   1      20.034 -13.251  20.497  0.00  0.00     0.001 C 
ATOM      7  H15 MVF d   1      18.786 -10.729  20.880  0.00  0.00     0.087 H 
ATOM      8  H27 MVF d   1      20.612 -11.408  19.377  0.00  0.00     0.039 H 
ATOM      9  H28 MVF d   1      19.492 -12.483  18.472  0.00  0.00     0.039 H 
ATOM     10  H29 MVF d   1      20.020 -14.262  20.064  0.00  0.00     0.064 H 
ATOM     11  H30 MVF d   1      20.951 -13.118  21.089  0.00  0.00     0.064 H 
ENDROOT
BRANCH   1  12
ATOM     12  C8  MVF d   1      18.264 -14.782  22.810  0.00  0.00     0.182 C 
ATOM     13  H14 MVF d   1      19.000 -15.356  22.228  0.00  0.00     0.100 H 
BRANCH  12  14
ATOM     14  C1  MVF d   1      18.826 -14.492  24.216  0.00  0.00    -0.018 C 
ATOM     15  C2  MVF d   1      18.926 -15.791  25.038  0.00  0.00    -0.059 C 
ATOM     16  C3  MVF d   1      19.463 -15.447  26.436  0.00  0.00    -0.065 C 
ATOM     17  H2  MVF d   1      19.611 -16.493  24.540  0.00  0.00     0.033 H 
ATOM     18  H3  MVF d   1      17.931 -16.251  25.126  0.00  0.00     0.033 H 
ATOM     19  C4  MVF d   1      20.860 -14.805  26.334  0.00  0.00    -0.065 C 
ATOM     20  H4  MVF d   1      19.530 -16.367  27.035  0.00  0.00     0.033 H 
ATOM     21  H5  MVF d   1      18.775 -14.741  26.925  0.00  0.00     0.033 H 
ATOM     22  C5  MVF d   1      20.794 -13.495  25.541  0.00  0.00    -0.065 C 
ATOM     23  H6  MVF d   1      21.542 -15.502  25.825  0.00  0.00     0.033 H 
ATOM     24  H7  MVF d   1      21.237 -14.597  27.346  0.00  0.00     0.033 H 
ATOM     25  C6  MVF d   1      20.204 -13.784  24.144  0.00  0.00    -0.059 C 
ATOM     26  H8  MVF d   1      21.806 -13.076  25.435  0.00  0.00     0.033 H 
ATOM     27  H9  MVF d   1      20.153 -12.775  26.071  0.00  0.00     0.033 H 
ATOM     28  H10 MVF d   1      20.083 -12.831  23.608  0.00  0.00     0.033 H 
ATOM     29  H11 MVF d   1      20.904 -14.429  23.592  0.00  0.00     0.033 H 
ATOM     30  H1  MVF d   1      18.125 -13.816  24.728  0.00  0.00     0.043 H 
ENDBRANCH  12  14
BRANCH  12  31
ATOM     31  N7  MVF d   1      16.974 -15.526  22.862  0.00  0.00    -0.054 N 
ATOM     32  H12 MVF d   1      16.299 -14.941  23.329  0.00  0.00     0.278 HD
ATOM     33  H13 MVF d   1      17.123 -16.364  23.402  0.00  0.00     0.278 HD
BRANCH  31  34
ATOM     34  C28 MVF d   1      16.396 -15.928  21.551  0.00  0.00     0.155 C 
ATOM     35  H31 MVF d   1      16.997 -16.749  21.133  0.00  0.00     0.090 H 
ATOM     36  H32 MVF d   1      16.426 -15.066  20.868  0.00  0.00     0.090 H 
BRANCH  34  37
ATOM     37  C29 MVF d   1      14.957 -16.394  21.693  0.00  0.00     0.241 C 
ATOM     38  O30 MVF d   1      14.361 -16.355  22.755  0.00  0.00    -0.272 OA
ATOM     39  N30 MVF d   1      14.300 -16.885  20.625  0.00  0.00    -0.369 N 
ATOM     40  H33 MVF d   1      13.353 -17.192  20.718  0.00  0.00     0.159 HD
ATOM     41  H34 MVF d   1      14.759 -16.943  19.739  0.00  0.00     0.159 HD
ENDBRANCH  34  37
ENDBRANCH  31  34
ENDBRANCH  12  31
ENDBRANCH   1  12
BRANCH   4  42
ATOM     42  C13 MVF d   1      17.243 -11.820  19.807  0.00  0.00     0.240 C 
ATOM     43  O14 MVF d   1      16.939 -12.863  19.254  0.00  0.00    -0.271 OA
ATOM     44  N15 MVF d   1      16.314 -10.871  20.053  0.00  0.00    -0.355 N 
ATOM     45  H16 MVF d   1      16.557 -10.049  20.568  0.00  0.00     0.162 HD
BRANCH  44  46
ATOM     46  C16 MVF d   1      14.951 -11.057  19.560  0.00  0.00     0.019 C 
ATOM     47  H17 MVF d   1      14.875 -12.032  19.057  0.00  0.00     0.071 H 
ATOM     48  H18 MVF d   1      14.709 -10.256  18.846  0.00  0.00     0.071 H 
BRANCH  46  49
ATOM     49  C17 MVF d   1      13.978 -11.011  20.709  0.00  0.00    -0.040 A 
ATOM     50  C22 MVF d   1      13.659 -12.170  21.404  0.00  0.00    -0.074 A 
ATOM     51  C21 MVF d   1      12.739 -12.123  22.444  0.00  0.00    -0.069 A 
ATOM     52  H19 MVF d   1      14.127 -13.110  21.136  0.00  0.00     0.084 H 
ATOM     53  C20 MVF d   1      12.156 -10.888  22.802  0.00  0.00     0.007 A 
ATOM     54  H20 MVF d   1      12.471 -13.028  22.977  0.00  0.00     0.085 H 
ATOM     55  C19 MVF d   1      12.501  -9.721  22.097  0.00  0.00    -0.069 A 
ATOM     56  C18 MVF d   1      13.413  -9.791  21.060  0.00  0.00    -0.074 A 
ATOM     57  H21 MVF d   1      12.054  -8.771  22.365  0.00  0.00     0.085 H 
ATOM     58  H22 MVF d   1      13.688  -8.892  20.520  0.00  0.00     0.084 H 
BRANCH  53  59
ATOM     59  C23 MVF d   1      11.165 -10.805  23.907  0.00  0.00     0.102 C 
ATOM     60  N24 MVF d   1      10.945  -9.667  24.505  0.00  0.00    -0.385 N 
ATOM     61  H25 MVF d   1      11.477  -8.829  24.230  0.00  0.00     0.157 HD
ATOM     62  H26 MVF d   1      10.239  -9.606  25.253  0.00  0.00     0.157 HD
BRANCH  59  63
ATOM     63  N25 MVF d   1      10.433 -11.916  24.299  0.00  0.00    -0.385 N 
ATOM     64  H23 MVF d   1       9.751 -11.839  25.067  0.00  0.00     0.157 HD
ATOM     65  H24 MVF d   1      10.572 -12.818  23.822  0.00  0.00     0.157 HD
ENDBRANCH  59  63
ENDBRANCH  53  59
ENDBRANCH  46  49
ENDBRANCH  44  46
ENDBRANCH   4  42
TORSDOF 10
