REMARK  12 active torsions:
REMARK  status: ('A' for Active; 'I' for Inactive)
REMARK    1  A    between atoms: C8_8  and  C1_1 
REMARK    2  A    between atoms: N7_7  and  C8_8 
REMARK    3  A    between atoms: C28_28  and  N7_7 
REMARK    4  A    between atoms: C8_8  and  C9_9 
REMARK       I    between atoms: C9_9  and  N11_11 
REMARK    5  A    between atoms: C12_12  and  C13_13 
REMARK       I    between atoms: C13_13  and  N15_15 
REMARK    6  A    between atoms: N15_15  and  C16_16 
REMARK    7  A    between atoms: C16_16  and  C17_17 
REMARK    8  A    between atoms: C20_20  and  C23_23 
REMARK    9  A    between atoms: C23_23  and  N25_25 
REMARK   10  A    between atoms: C29_30  and  C28_28 
REMARK   11  A    between atoms: C24_32  and  C10_29 
REMARK       I    between atoms: N3_33  and  C29_30 
REMARK   12  A    between atoms: C24_32  and  N3_33 
ROOT
ATOM      1  C8  M4Z d   1      18.270 -14.795  22.766  0.00  0.00     0.182 C 
ATOM      2  H14 M4Z d   1      19.033 -15.350  22.200  0.00  0.00     0.100 H 
ENDROOT
BRANCH   1   3
ATOM      3  C1  M4Z d   1      18.770 -14.531  24.201  0.00  0.00    -0.018 C 
ATOM      4  C2  M4Z d   1      18.890 -15.854  24.979  0.00  0.00    -0.059 C 
ATOM      5  C3  M4Z d   1      19.425 -15.569  26.388  0.00  0.00    -0.065 C 
ATOM      6  H2  M4Z d   1      19.582 -16.528  24.453  0.00  0.00     0.033 H 
ATOM      7  H3  M4Z d   1      17.900 -16.328  25.051  0.00  0.00     0.033 H 
ATOM      8  C4  M4Z d   1      20.825 -14.940  26.294  0.00  0.00    -0.065 C 
ATOM      9  H4  M4Z d   1      19.485 -16.510  26.954  0.00  0.00     0.033 H 
ATOM     10  H5  M4Z d   1      18.746 -14.874  26.903  0.00  0.00     0.033 H 
ATOM     11  C5  M4Z d   1      20.725 -13.577  25.594  0.00  0.00    -0.065 C 
ATOM     12  H6  M4Z d   1      21.487 -15.602  25.716  0.00  0.00     0.033 H 
ATOM     13  H7  M4Z d   1      21.235 -14.804  27.306  0.00  0.00     0.033 H 
ATOM     14  C6  M4Z d   1      20.111 -13.758  24.186  0.00  0.00    -0.059 C 
ATOM     15  H8  M4Z d   1      21.730 -13.139  25.501  0.00  0.00     0.033 H 
ATOM     16  H9  M4Z d   1      20.086 -12.907  26.188  0.00  0.00     0.033 H 
ATOM     17  H10 M4Z d   1      19.936 -12.763  23.750  0.00  0.00     0.033 H 
ATOM     18  H11 M4Z d   1      20.827 -14.312  23.561  0.00  0.00     0.033 H 
ATOM     19  H1  M4Z d   1      18.025 -13.903  24.712  0.00  0.00     0.043 H 
ENDBRANCH   1   3
BRANCH   1  20
ATOM     20  N7  M4Z d   1      17.004 -15.564  22.795  0.00  0.00    -0.054 N 
ATOM     21  H12 M4Z d   1      16.338 -15.029  23.331  0.00  0.00     0.278 HD
ATOM     22  H13 M4Z d   1      17.191 -16.436  23.265  0.00  0.00     0.278 HD
BRANCH  20  23
ATOM     23  C28 M4Z d   1      16.366 -15.890  21.490  0.00  0.00     0.155 C 
ATOM     24  H31 M4Z d   1      16.874 -16.760  21.049  0.00  0.00     0.090 H 
ATOM     25  H32 M4Z d   1      16.465 -15.027  20.816  0.00  0.00     0.090 H 
BRANCH  23  26
ATOM     26  C29 M4Z d   1      14.890 -16.214  21.670  0.00  0.00     0.243 C 
ATOM     27  O30 M4Z d   1      14.446 -16.572  22.754  0.00  0.00    -0.272 OA
ATOM     28  N3  M4Z d   1      14.072 -16.101  20.593  0.00  0.00    -0.360 N 
ATOM     29  H38 M4Z d   1      14.489 -15.833  19.724  0.00  0.00     0.162 HD
BRANCH  28  30
ATOM     30  C24 M4Z d   1      12.620 -16.342  20.602  0.00  0.00    -0.008 C 
ATOM     31  H36 M4Z d   1      12.414 -17.417  20.489  0.00  0.00     0.063 H 
ATOM     32  H37 M4Z d   1      12.182 -15.982  21.545  0.00  0.00     0.063 H 
BRANCH  30  33
ATOM     33  C10 M4Z d   1      12.035 -15.566  19.420  0.00  0.00    -0.061 C 
ATOM     34  H33 M4Z d   1      10.946 -15.716  19.386  0.00  0.00     0.029 H 
ATOM     35  H34 M4Z d   1      12.485 -15.929  18.484  0.00  0.00     0.029 H 
ATOM     36  H35 M4Z d   1      12.254 -14.495  19.541  0.00  0.00     0.029 H 
ENDBRANCH  30  33
ENDBRANCH  28  30
ENDBRANCH  23  26
ENDBRANCH  20  23
ENDBRANCH   1  20
BRANCH   1  37
ATOM     37  C9  M4Z d   1      17.994 -13.466  22.111  0.00  0.00     0.251 C 
ATOM     38  O0  M4Z d   1      16.989 -12.863  22.451  0.00  0.00    -0.271 OA
ATOM     39  N11 M4Z d   1      18.806 -12.908  21.180  0.00  0.00    -0.337 N 
ATOM     40  C12 M4Z d   1      18.634 -11.703  20.359  0.00  0.00     0.093 C 
ATOM     41  C27 M4Z d   1      20.034 -13.257  20.436  0.00  0.00     0.001 C 
ATOM     42  C26 M4Z d   1      19.796 -12.112  19.443  0.00  0.00    -0.023 C 
ATOM     43  H15 M4Z d   1      18.779 -10.736  20.864  0.00  0.00     0.087 H 
ATOM     44  H27 M4Z d   1      20.613 -11.379  19.374  0.00  0.00     0.039 H 
ATOM     45  H28 M4Z d   1      19.501 -12.428  18.431  0.00  0.00     0.039 H 
ATOM     46  H29 M4Z d   1      20.007 -14.256  19.977  0.00  0.00     0.064 H 
ATOM     47  H30 M4Z d   1      20.956 -13.149  21.026  0.00  0.00     0.064 H 
BRANCH  40  48
ATOM     48  C13 M4Z d   1      17.239 -11.821  19.769  0.00  0.00     0.240 C 
ATOM     49  O14 M4Z d   1      16.897 -12.894  19.287  0.00  0.00    -0.271 OA
ATOM     50  N15 M4Z d   1      16.337 -10.828  19.942  0.00  0.00    -0.355 N 
ATOM     51  H16 M4Z d   1      16.600  -9.979  20.399  0.00  0.00     0.162 HD
BRANCH  50  52
ATOM     52  C16 M4Z d   1      14.970 -11.013  19.451  0.00  0.00     0.019 C 
ATOM     53  H17 M4Z d   1      14.902 -11.967  18.909  0.00  0.00     0.071 H 
ATOM     54  H18 M4Z d   1      14.709 -10.187  18.773  0.00  0.00     0.071 H 
BRANCH  52  55
ATOM     55  C17 M4Z d   1      14.014 -11.028  20.615  0.00  0.00    -0.040 A 
ATOM     56  C22 M4Z d   1      13.460  -9.821  21.026  0.00  0.00    -0.074 A 
ATOM     57  C21 M4Z d   1      12.583  -9.786  22.093  0.00  0.00    -0.069 A 
ATOM     58  H19 M4Z d   1      13.717  -8.904  20.508  0.00  0.00     0.084 H 
ATOM     59  C20 M4Z d   1      12.269 -10.979  22.766  0.00  0.00     0.007 A 
ATOM     60  H20 M4Z d   1      12.141  -8.847  22.408  0.00  0.00     0.085 H 
ATOM     61  C19 M4Z d   1      12.818 -12.204  22.336  0.00  0.00    -0.069 A 
ATOM     62  C18 M4Z d   1      13.705 -12.216  21.261  0.00  0.00    -0.074 A 
ATOM     63  H21 M4Z d   1      12.553 -13.128  22.837  0.00  0.00     0.085 H 
ATOM     64  H22 M4Z d   1      14.151 -13.148  20.932  0.00  0.00     0.084 H 
BRANCH  59  65
ATOM     65  C23 M4Z d   1      11.268 -10.927  23.855  0.00  0.00     0.102 C 
ATOM     66  N24 M4Z d   1      10.542 -11.978  24.177  0.00  0.00    -0.385 N 
ATOM     67  H23 M4Z d   1       9.852 -11.914  24.939  0.00  0.00     0.157 HD
ATOM     68  H24 M4Z d   1      10.664 -12.864  23.666  0.00  0.00     0.157 HD
BRANCH  65  69
ATOM     69  N25 M4Z d   1      11.036  -9.728  24.476  0.00  0.00    -0.385 N 
ATOM     70  H25 M4Z d   1      11.600  -8.902  24.229  0.00  0.00     0.157 HD
ATOM     71  H26 M4Z d   1      10.297  -9.652  25.190  0.00  0.00     0.157 HD
ENDBRANCH  65  69
ENDBRANCH  59  65
ENDBRANCH  52  55
ENDBRANCH  50  52
ENDBRANCH  40  48
ENDBRANCH   1  37
TORSDOF 12
