REMARK  7 active torsions:
REMARK  status: ('A' for Active; 'I' for Inactive)
REMARK    1  A    between atoms: C1_1  and  C2_2 
REMARK    2  A    between atoms: C1_1  and  O1_7 
REMARK    3  A    between atoms: C2_2  and  O2_8 
REMARK    4  A    between atoms: C3_3  and  O3_9 
REMARK    5  A    between atoms: C4_4  and  O4_10 
REMARK    6  A    between atoms: C5_5  and  O5_11 
REMARK    7  A    between atoms: O1_7  and  P1_13 
ROOT
ATOM      1  C2  F1P d   1      49.268  31.254  14.952  0.00  0.00     0.213 C 
ATOM      2  C3  F1P d   1      48.195  31.785  15.892  0.00  0.00     0.118 C 
ATOM      3  C4  F1P d   1      46.813  31.587  15.303  0.00  0.00     0.092 C 
ATOM      4  C5  F1P d   1      46.570  30.103  15.098  0.00  0.00     0.083 C 
ATOM      5  C6  F1P d   1      47.661  29.608  14.085  0.00  0.00     0.049 C 
ATOM      6  O6  F1P d   1      48.988  29.866  14.711  0.00  0.00    -0.348 OA
ATOM      7  H3  F1P d   1      48.252  31.203  16.824  0.00  0.00     0.095 H 
ATOM      8  H4  F1P d   1      46.720  32.137  14.355  0.00  0.00     0.091 H 
ATOM      9  H5  F1P d   1      45.565  29.953  14.676  0.00  0.00     0.090 H 
ATOM     10  H6  F1P d   1      47.576  30.162  13.138  0.00  0.00     0.078 H 
ATOM     11  H7  F1P d   1      47.537  28.532  13.893  0.00  0.00     0.078 H 
ENDROOT
BRANCH   1  12
ATOM     12  C1  F1P d   1      50.640  31.418  15.616  0.00  0.00     0.086 C 
ATOM     13  H1  F1P d   1      50.799  32.474  15.878  0.00  0.00     0.083 H 
ATOM     14  H2  F1P d   1      51.428  31.090  14.922  0.00  0.00     0.083 H 
BRANCH  12  15
ATOM     15  O1  F1P d   1      50.680  30.620  16.798  0.00  0.00    -0.277 OA
BRANCH  15  16
ATOM     16  P1  F1P d   1      51.956  30.758  17.746  0.00  0.00     0.422 P 
ATOM     17  O1P F1P d   1      51.797  29.602  18.739  0.00  0.00    -0.617 OA
ATOM     18  O2P F1P d   1      51.944  32.135  18.460  0.00  0.00    -0.617 OA
ATOM     19  O3P F1P d   1      53.220  30.700  16.848  0.00  0.00    -0.617 OA
ENDBRANCH  15  16
ENDBRANCH  12  15
ENDBRANCH   1  12
BRANCH   1  20
ATOM     20  O2  F1P d   1      49.263  31.993  13.738  0.00  0.00    -0.362 OA
ATOM     21  H8  F1P d   1      49.926  31.645  13.154  0.00  0.00     0.213 HD
ENDBRANCH   1  20
BRANCH   2  22
ATOM     22  O3  F1P d   1      48.402  33.159  16.225  0.00  0.00    -0.387 OA
ATOM     23  H9  F1P d   1      49.271  33.267  16.593  0.00  0.00     0.210 HD
ENDBRANCH   2  22
BRANCH   3  24
ATOM     24  O4  F1P d   1      45.805  32.031  16.265  0.00  0.00    -0.390 OA
ATOM     25  H10 F1P d   1      45.914  32.960  16.430  0.00  0.00     0.210 HD
ENDBRANCH   3  24
BRANCH   4  26
ATOM     26  O5  F1P d   1      46.683  29.332  16.331  0.00  0.00    -0.391 OA
ATOM     27  H11 F1P d   1      46.025  29.627  16.949  0.00  0.00     0.210 HD
ENDBRANCH   4  26
TORSDOF 7
