REMARK  7 active torsions:
REMARK  status: ('A' for Active; 'I' for Inactive)
REMARK    1  A    between atoms: C1_1  and  O1_2 
REMARK    2  A    between atoms: C1_1  and  C2_3 
REMARK    3  A    between atoms: C2_3  and  C3_5 
REMARK    4  A    between atoms: C3_5  and  O3_6 
REMARK    5  A    between atoms: C3_5  and  C4_7 
REMARK    6  A    between atoms: C4_7  and  O4_8 
REMARK    7  A    between atoms: C4_7  and  C5_9 
ROOT
ATOM      1  C3  5FX d   1      14.975  -2.826  29.594  0.00  0.00     0.121 C 
ATOM      2  H4  5FX d   1      15.056  -3.359  30.553  0.00  0.00     0.099 H 
ENDROOT
BRANCH   1   3
ATOM      3  C2  5FX d   1      14.901  -1.364  29.926  0.00  0.00     0.181 C 
ATOM      4  O2  5FX d   1      15.719  -0.917  30.697  0.00  0.00    -0.293 OA
BRANCH   3   5
ATOM      5  C1  5FX d   1      13.797  -0.491  29.266  0.00  0.00     0.074 C 
ATOM      6  H1  5FX d   1      13.851  -0.613  28.174  0.00  0.00     0.085 H 
ATOM      7  H2  5FX d   1      12.813  -0.828  29.625  0.00  0.00     0.085 H 
BRANCH   5   8
ATOM      8  O1  5FX d   1      13.958   0.886  29.585  0.00  0.00    -0.393 OA
ATOM      9  H3  5FX d   1      14.804   1.185  29.273  0.00  0.00     0.209 HD
ENDBRANCH   5   8
ENDBRANCH   3   5
ENDBRANCH   1   3
BRANCH   1  10
ATOM     10  O3  5FX d   1      13.797  -3.306  28.974  0.00  0.00    -0.385 OA
ATOM     11  H5  5FX d   1      13.895  -4.232  28.785  0.00  0.00     0.210 HD
ENDBRANCH   1  10
BRANCH   1  12
ATOM     12  C4  5FX d   1      16.273  -3.170  28.787  0.00  0.00     0.092 C 
ATOM     13  H6  5FX d   1      17.154  -2.713  29.260  0.00  0.00     0.091 H 
BRANCH  12  14
ATOM     14  O4  5FX d   1      16.159  -2.738  27.424  0.00  0.00    -0.390 OA
ATOM     15  H7  5FX d   1      15.421  -3.174  27.015  0.00  0.00     0.210 HD
ENDBRANCH  12  14
BRANCH  12  16
ATOM     16  C5  5FX d   1      16.379  -4.709  28.775  0.00  0.00     0.085 C 
ATOM     17  F   5FX d   1      17.609  -5.048  28.140  0.00  0.00    -0.253 F 
ATOM     18  H8  5FX d   1      15.536  -5.139  28.215  0.00  0.00     0.086 H 
ATOM     19  H9  5FX d   1      16.369  -5.094  29.805  0.00  0.00     0.086 H 
ENDBRANCH  12  16
ENDBRANCH   1  12
TORSDOF 7
