REMARK  8 active torsions:
REMARK  status: ('A' for Active; 'I' for Inactive)
REMARK    1  A    between atoms: C7A_1  and  N6A_2 
REMARK    2  A    between atoms: N6A_2  and  C3A_3 
REMARK    3  A    between atoms: C1A_5  and  C8A_6 
REMARK    4  A    between atoms: C5A_7  and  C4_8 
REMARK    5  A    between atoms: C2_10  and  N7_11 
REMARK    6  A    between atoms: N7_11  and  C1B_12 
REMARK    7  A    between atoms: C3B_14  and  S7B_15 
REMARK    8  A    between atoms: S7B_15  and  N9B_17 
ROOT
ATOM      1  C4  T3E d   1       7.774  22.783  24.237  0.00  0.00     0.117 A 
ATOM      2  N3  T3E d   1       7.182  23.528  25.210  0.00  0.00    -0.060 NA
ATOM      3  C2  T3E d   1       7.851  24.543  25.845  0.00  0.00     0.727 A 
ATOM      4  N1  T3E d   1       9.147  24.801  25.515  0.00  0.00    -0.073 NA
ATOM      5  C6  T3E d   1       9.755  24.066  24.548  0.00  0.00     0.043 A 
ATOM      6  C5  T3E d   1       9.080  23.058  23.896  0.00  0.00     0.093 A 
ATOM      7  C8  T3E d   1       9.807  22.287  22.837  0.00  0.00     0.103 C 
ATOM      8  N9  T3E d   1      10.378  21.708  22.031  0.00  0.00    -0.191 NA
ATOM      9  H15 T3E d   1      10.786  24.276  24.286  0.00  0.00     0.118 H 
ENDROOT
BRANCH   1  10
ATOM     10  C5A T3E d   1       6.920  21.707  23.589  0.00  0.00     0.063 A 
ATOM     11  C1A T3E d   1       7.226  20.326  23.358  0.00  0.00     0.053 A 
ATOM     12  N2A T3E d   1       6.076  19.649  22.710  0.00  0.00    -0.228 NA
ATOM     13  C3A T3E d   1       5.009  20.526  22.506  0.00  0.00     0.167 A 
ATOM     14  S4A T3E d   1       5.428  21.997  23.068  0.00  0.00    -0.048 SA
BRANCH  11  15
ATOM     15  C8A T3E d   1       8.494  19.631  23.692  0.00  0.00    -0.034 C 
ATOM     16  H5  T3E d   1       9.189  20.342  24.163  0.00  0.00     0.035 H 
ATOM     17  H6  T3E d   1       8.946  19.231  22.772  0.00  0.00     0.035 H 
ATOM     18  H7  T3E d   1       8.287  18.805  24.388  0.00  0.00     0.035 H 
ENDBRANCH  11  15
BRANCH  13  19
ATOM     19  N6A T3E d   1       3.744  20.187  21.902  0.00  0.00    -0.373 N 
ATOM     20  H4  T3E d   1       2.993  20.890  21.849  0.00  0.00     0.161 HD
BRANCH  19  21
ATOM     21  C7A T3E d   1       3.530  18.859  21.371  0.00  0.00    -0.019 C 
ATOM     22  H1  T3E d   1       2.514  18.790  20.955  0.00  0.00     0.056 H 
ATOM     23  H2  T3E d   1       3.647  18.119  22.176  0.00  0.00     0.056 H 
ATOM     24  H3  T3E d   1       4.266  18.658  20.578  0.00  0.00     0.056 H 
ENDBRANCH  19  21
ENDBRANCH  13  19
ENDBRANCH   1  10
BRANCH   3  25
ATOM     25  N7  T3E d   1       7.176  25.305  26.885  0.00  0.00    -0.188 N 
ATOM     26  H8  T3E d   1       7.549  25.308  27.845  0.00  0.00     0.184 HD
BRANCH  25  27
ATOM     27  C1B T3E d   1       5.973  26.064  26.569  0.00  0.00     0.050 A 
ATOM     28  C2B T3E d   1       4.975  25.508  25.763  0.00  0.00    -0.034 A 
ATOM     29  C3B T3E d   1       3.812  26.238  25.468  0.00  0.00     0.081 A 
ATOM     30  H9  T3E d   1       5.100  24.508  25.364  0.00  0.00     0.089 H 
ATOM     31  C4B T3E d   1       3.644  27.511  25.988  0.00  0.00    -0.060 A 
ATOM     32  C5B T3E d   1       4.632  28.065  26.802  0.00  0.00    -0.079 A 
ATOM     33  H12 T3E d   1       2.746  28.076  25.763  0.00  0.00     0.085 H 
ATOM     34  C6B T3E d   1       5.795  27.339  27.091  0.00  0.00    -0.057 A 
ATOM     35  H13 T3E d   1       4.500  29.060  27.212  0.00  0.00     0.083 H 
ATOM     36  H14 T3E d   1       6.559  27.774  27.725  0.00  0.00     0.086 H 
BRANCH  29  37
ATOM     37  S7B T3E d   1       2.551  25.531  24.434  0.00  0.00     0.256 S 
ATOM     38  O8B T3E d   1       2.631  24.089  24.459  0.00  0.00    -0.201 OA
ATOM     39  O1B T3E d   1       1.250  25.946  24.884  0.00  0.00    -0.201 OA
BRANCH  37  40
ATOM     40  N9B T3E d   1       2.839  26.081  22.914  0.00  0.00    -0.324 N 
ATOM     41  H10 T3E d   1       2.242  25.805  22.161  0.00  0.00     0.169 HD
ATOM     42  H11 T3E d   1       3.611  26.692  22.741  0.00  0.00     0.169 HD
ENDBRANCH  37  40
ENDBRANCH  29  37
ENDBRANCH  25  27
ENDBRANCH   3  25
TORSDOF 8
