REMARK  9 active torsions:
REMARK  status: ('A' for Active; 'I' for Inactive)
REMARK    1  A    between atoms: C01_1  and  N02_2 
REMARK    2  A    between atoms: N02_2  and  C03_3 
REMARK    3  A    between atoms: C05_5  and  C06_6 
REMARK    4  A    between atoms: C07_7  and  C08_8 
REMARK    5  A    between atoms: C10_10  and  N11_11 
REMARK    6  A    between atoms: N11_11  and  C12_12 
REMARK    7  A    between atoms: C14_14  and  S15_15 
REMARK    8  A    between atoms: S15_15  and  N16_16 
REMARK    9  A    between atoms: C24_24  and  C25_25 
ROOT
ATOM      1  C08 T7Z d   1       7.557  22.046  23.325  0.00  0.00     0.117 A 
ATOM      2  N09 T7Z d   1       7.066  22.834  24.316  0.00  0.00    -0.060 NA
ATOM      3  C10 T7Z d   1       7.873  23.666  25.016  0.00  0.00     0.727 A 
ATOM      4  N28 T7Z d   1       9.185  23.723  24.775  0.00  0.00    -0.073 NA
ATOM      5  C29 T7Z d   1       9.746  22.963  23.816  0.00  0.00     0.043 A 
ATOM      6  C30 T7Z d   1       8.927  22.087  23.047  0.00  0.00     0.093 A 
ATOM      7  C31 T7Z d   1       9.557  21.258  21.974  0.00  0.00     0.103 C 
ATOM      8  N32 T7Z d   1      10.068  20.625  21.152  0.00  0.00    -0.191 NA
ATOM      9  H23 T7Z d   1      10.813  23.017  23.630  0.00  0.00     0.118 H 
ENDROOT
BRANCH   1  10
ATOM     10  C07 T7Z d   1       6.566  21.140  22.573  0.00  0.00     0.063 A 
ATOM     11  C05 T7Z d   1       6.760  19.759  22.168  0.00  0.00     0.053 A 
ATOM     12  N04 T7Z d   1       5.516  19.244  21.477  0.00  0.00    -0.228 NA
ATOM     13  C03 T7Z d   1       4.513  20.243  21.429  0.00  0.00     0.167 A 
ATOM     14  S33 T7Z d   1       5.065  21.630  22.147  0.00  0.00    -0.048 SA
BRANCH  11  15
ATOM     15  C06 T7Z d   1       8.007  18.896  22.377  0.00  0.00    -0.034 C 
ATOM     16  H5  T7Z d   1       8.777  19.484  22.899  0.00  0.00     0.035 H 
ATOM     17  H6  T7Z d   1       8.395  18.569  21.401  0.00  0.00     0.035 H 
ATOM     18  H7  T7Z d   1       7.746  18.015  22.982  0.00  0.00     0.035 H 
ENDBRANCH  11  15
BRANCH  13  19
ATOM     19  N02 T7Z d   1       3.195  20.036  20.821  0.00  0.00    -0.373 N 
ATOM     20  H4  T7Z d   1       2.554  20.832  20.690  0.00  0.00     0.161 HD
BRANCH  19  21
ATOM     21  C01 T7Z d   1       2.803  18.721  20.410  0.00  0.00    -0.019 C 
ATOM     22  H1  T7Z d   1       1.792  18.758  19.979  0.00  0.00     0.056 H 
ATOM     23  H2  T7Z d   1       2.807  18.048  21.280  0.00  0.00     0.056 H 
ATOM     24  H3  T7Z d   1       3.510  18.347  19.655  0.00  0.00     0.056 H 
ENDBRANCH  19  21
ENDBRANCH  13  19
ENDBRANCH   1  10
BRANCH   3  25
ATOM     25  N11 T7Z d   1       7.345  24.498  26.068  0.00  0.00    -0.188 N 
ATOM     26  H8  T7Z d   1       7.949  24.654  26.888  0.00  0.00     0.184 HD
BRANCH  25  27
ATOM     27  C12 T7Z d   1       6.028  25.143  26.080  0.00  0.00     0.050 A 
ATOM     28  C13 T7Z d   1       5.197  25.243  24.954  0.00  0.00    -0.034 A 
ATOM     29  C14 T7Z d   1       3.930  25.891  25.066  0.00  0.00     0.087 A 
ATOM     30  H9  T7Z d   1       5.516  24.830  24.004  0.00  0.00     0.089 H 
ATOM     31  C24 T7Z d   1       3.514  26.415  26.316  0.00  0.00    -0.039 A 
ATOM     32  C26 T7Z d   1       4.339  26.308  27.425  0.00  0.00    -0.074 A 
ATOM     33  C27 T7Z d   1       5.598  25.671  27.307  0.00  0.00    -0.056 A 
ATOM     34  H21 T7Z d   1       4.021  26.711  28.380  0.00  0.00     0.084 H 
ATOM     35  H22 T7Z d   1       6.239  25.590  28.177  0.00  0.00     0.086 H 
BRANCH  29  36
ATOM     36  S15 T7Z d   1       2.852  26.034  23.612  0.00  0.00     0.261 S 
ATOM     37  O22 T7Z d   1       2.274  27.350  23.558  0.00  0.00    -0.200 OA
ATOM     38  O23 T7Z d   1       3.579  25.792  22.395  0.00  0.00    -0.200 OA
BRANCH  36  39
ATOM     39  N16 T7Z d   1       1.713  24.862  23.751  0.00  0.00    -0.303 N 
ATOM     40  C17 T7Z d   1       0.561  25.291  23.187  0.00  0.00     0.025 C 
ATOM     41  C18 T7Z d   1      -0.564  24.359  23.501  0.00  0.00     0.035 C 
ATOM     42  H10 T7Z d   1       0.692  25.344  22.096  0.00  0.00     0.068 H 
ATOM     43  H11 T7Z d   1       0.320  26.291  23.576  0.00  0.00     0.068 H 
ATOM     44  O19 T7Z d   1      -0.202  22.986  23.188  0.00  0.00    -0.388 OA
ATOM     45  H12 T7Z d   1      -1.444  24.644  22.907  0.00  0.00     0.076 H 
ATOM     46  H13 T7Z d   1      -0.805  24.433  24.572  0.00  0.00     0.076 H 
ATOM     47  C20 T7Z d   1       0.940  22.635  24.022  0.00  0.00     0.035 C 
ATOM     48  C21 T7Z d   1       2.092  23.564  23.835  0.00  0.00     0.025 C 
ATOM     49  H14 T7Z d   1       1.264  21.616  23.765  0.00  0.00     0.076 H 
ATOM     50  H15 T7Z d   1       0.629  22.666  25.077  0.00  0.00     0.076 H 
ATOM     51  H16 T7Z d   1       2.776  23.452  24.690  0.00  0.00     0.068 H 
ATOM     52  H17 T7Z d   1       2.617  23.291  22.908  0.00  0.00     0.068 H 
ENDBRANCH  36  39
ENDBRANCH  29  36
BRANCH  31  53
ATOM     53  C25 T7Z d   1       2.198  27.097  26.497  0.00  0.00    -0.050 C 
ATOM     54  H18 T7Z d   1       2.093  27.419  27.544  0.00  0.00     0.033 H 
ATOM     55  H19 T7Z d   1       1.386  26.400  26.244  0.00  0.00     0.033 H 
ATOM     56  H20 T7Z d   1       2.146  27.975  25.837  0.00  0.00     0.033 H 
ENDBRANCH  31  53
ENDBRANCH  25  27
ENDBRANCH   3  25
TORSDOF 9
