REMARK  7 active torsions:
REMARK  status: ('A' for Active; 'I' for Inactive)
REMARK    1  A    between atoms: C01_1  and  N02_2 
REMARK    2  A    between atoms: N02_2  and  C03_3 
REMARK    3  A    between atoms: C05_5  and  C06_6 
REMARK    4  A    between atoms: C07_7  and  C08_8 
REMARK    5  A    between atoms: C10_10  and  N11_11 
REMARK    6  A    between atoms: N11_11  and  C12_12 
REMARK    7  A    between atoms: C14_14  and  O15_15 
ROOT
ATOM      1  C08 T9N d   1      33.688 -14.900  30.393  0.00  0.00     0.092 A 
ATOM      2  N09 T9N d   1      33.394 -16.216  30.157  0.00  0.00    -0.064 NA
ATOM      3  C10 T9N d   1      33.253 -16.861  28.967  0.00  0.00     0.727 A 
ATOM      4  N19 T9N d   1      33.435 -16.046  27.946  0.00  0.00    -0.073 NA
ATOM      5  C20 T9N d   1      33.726 -14.736  28.049  0.00  0.00     0.043 A 
ATOM      6  C21 T9N d   1      33.880 -14.057  29.278  0.00  0.00     0.089 A 
ATOM      7  C22 T9N d   1      34.232 -12.611  29.342  0.00  0.00     0.103 C 
ATOM      8  N23 T9N d   1      34.497 -11.503  29.369  0.00  0.00    -0.191 NA
ATOM      9  H16 T9N d   1      33.850 -14.168  27.134  0.00  0.00     0.118 H 
ENDROOT
BRANCH   1  10
ATOM     10  C07 T9N d   1      33.774 -14.463  31.827  0.00  0.00     0.064 C 
ATOM     11  C05 T9N d   1      33.922 -13.135  32.407  0.00  0.00     0.049 C 
ATOM     12  N04 T9N d   1      34.809 -13.160  33.492  0.00  0.00    -0.261 NA
ATOM     13  H5  T9N d   1      34.687 -12.817  31.683  0.00  0.00     0.077 H 
ATOM     14  C03 T9N d   1      35.348 -14.351  33.791  0.00  0.00     0.158 C 
ATOM     15  S24 T9N d   1      34.290 -15.537  33.126  0.00  0.00    -0.079 SA
ATOM     16  H9  T9N d   1      32.688 -14.546  31.978  0.00  0.00     0.070 H 
BRANCH  11  17
ATOM     17  C06 T9N d   1      33.052 -11.964  32.069  0.00  0.00    -0.054 C 
ATOM     18  H6  T9N d   1      32.453 -12.198  31.177  0.00  0.00     0.030 H 
ATOM     19  H7  T9N d   1      33.682 -11.085  31.867  0.00  0.00     0.030 H 
ATOM     20  H8  T9N d   1      32.382 -11.749  32.915  0.00  0.00     0.030 H 
ENDBRANCH  11  17
BRANCH  14  21
ATOM     21  N02 T9N d   1      36.668 -14.616  34.298  0.00  0.00    -0.374 N 
ATOM     22  H4  T9N d   1      37.217 -15.464  34.097  0.00  0.00     0.161 HD
BRANCH  21  23
ATOM     23  C01 T9N d   1      37.110 -13.532  35.122  0.00  0.00    -0.019 C 
ATOM     24  H1  T9N d   1      38.119 -13.748  35.502  0.00  0.00     0.056 H 
ATOM     25  H2  T9N d   1      36.418 -13.409  35.968  0.00  0.00     0.056 H 
ATOM     26  H3  T9N d   1      37.132 -12.606  34.529  0.00  0.00     0.056 H 
ENDBRANCH  21  23
ENDBRANCH  14  21
ENDBRANCH   1  10
BRANCH   3  27
ATOM     27  N11 T9N d   1      32.996 -18.268  28.845  0.00  0.00    -0.188 N 
ATOM     28  H10 T9N d   1      32.430 -18.616  28.058  0.00  0.00     0.184 HD
BRANCH  27  29
ATOM     29  C12 T9N d   1      33.524 -19.202  29.816  0.00  0.00     0.052 A 
ATOM     30  C13 T9N d   1      34.360 -18.793  30.803  0.00  0.00    -0.025 A 
ATOM     31  C14 T9N d   1      34.890 -19.786  31.818  0.00  0.00     0.067 A 
ATOM     32  H11 T9N d   1      34.651 -17.750  30.866  0.00  0.00     0.091 H 
ATOM     33  C16 T9N d   1      34.527 -21.095  31.738  0.00  0.00    -0.051 A 
ATOM     34  C17 T9N d   1      33.612 -21.548  30.661  0.00  0.00    -0.078 A 
ATOM     35  H13 T9N d   1      34.907 -21.807  32.462  0.00  0.00     0.087 H 
ATOM     36  C18 T9N d   1      33.129 -20.650  29.737  0.00  0.00    -0.057 A 
ATOM     37  H14 T9N d   1      33.323 -22.591  30.602  0.00  0.00     0.083 H 
ATOM     38  H15 T9N d   1      32.463 -20.987  28.951  0.00  0.00     0.086 H 
BRANCH  31  39
ATOM     39  O15 T9N d   1      35.740 -19.375  32.818  0.00  0.00    -0.361 OA
ATOM     40  H12 T9N d   1      35.973 -20.120  33.360  0.00  0.00     0.217 HD
ENDBRANCH  31  39
ENDBRANCH  27  29
ENDBRANCH   3  27
TORSDOF 7
