REMARK  8 active torsions:
REMARK  status: ('A' for Active; 'I' for Inactive)
REMARK    1  A    between atoms: C01_1  and  N02_2 
REMARK    2  A    between atoms: N02_2  and  C03_3 
REMARK    3  A    between atoms: C05_5  and  C06_6 
REMARK    4  A    between atoms: C07_7  and  C08_8 
REMARK    5  A    between atoms: C10_10  and  N11_11 
REMARK    6  A    between atoms: N11_11  and  C12_12 
REMARK    7  A    between atoms: C16_16  and  N17_17 
REMARK       I    between atoms: N21_21  and  C22_22 
REMARK    8  A    between atoms: C22_22  and  C23_23 
ROOT
ATOM      1  C08 T6Q d   1      -8.072  21.429 -22.608  0.00  0.00     0.117 A 
ATOM      2  N09 T6Q d   1      -7.506  22.271 -23.506  0.00  0.00    -0.060 NA
ATOM      3  C10 T6Q d   1      -8.269  22.972 -24.397  0.00  0.00     0.727 A 
ATOM      4  N28 T6Q d   1      -9.607  22.866 -24.400  0.00  0.00    -0.073 NA
ATOM      5  C29 T6Q d   1     -10.238  22.053 -23.497  0.00  0.00     0.043 A 
ATOM      6  C30 T6Q d   1      -9.472  21.334 -22.578  0.00  0.00     0.093 A 
ATOM      7  C31 T6Q d   1     -10.154  20.478 -21.602  0.00  0.00     0.103 C 
ATOM      8  N32 T6Q d   1     -10.691  19.812 -20.848  0.00  0.00    -0.191 NA
ATOM      9  H26 T6Q d   1     -11.319  21.969 -23.496  0.00  0.00     0.118 H 
ENDROOT
BRANCH   1  10
ATOM     10  C07 T6Q d   1      -7.257  20.751 -21.658  0.00  0.00     0.063 A 
ATOM     11  C05 T6Q d   1      -7.284  19.435 -21.127  0.00  0.00     0.053 A 
ATOM     12  N04 T6Q d   1      -6.358  19.169 -20.187  0.00  0.00    -0.228 NA
ATOM     13  C03 T6Q d   1      -5.520  20.183 -19.855  0.00  0.00     0.167 A 
ATOM     14  S33 T6Q d   1      -5.966  21.540 -20.836  0.00  0.00    -0.048 SA
BRANCH  11  15
ATOM     15  C06 T6Q d   1      -8.244  18.337 -21.556  0.00  0.00    -0.034 C 
ATOM     16  H5  T6Q d   1      -8.926  18.727 -22.326  0.00  0.00     0.035 H 
ATOM     17  H6  T6Q d   1      -8.827  17.999 -20.686  0.00  0.00     0.035 H 
ATOM     18  H7  T6Q d   1      -7.673  17.491 -21.966  0.00  0.00     0.035 H 
ENDBRANCH  11  15
BRANCH  13  19
ATOM     19  N02 T6Q d   1      -4.479  20.142 -18.897  0.00  0.00    -0.373 N 
ATOM     20  H4  T6Q d   1      -4.187  19.246 -18.481  0.00  0.00     0.161 HD
BRANCH  19  21
ATOM     21  C01 T6Q d   1      -3.826  21.386 -18.508  0.00  0.00    -0.019 C 
ATOM     22  H1  T6Q d   1      -3.047  21.173 -17.761  0.00  0.00     0.056 H 
ATOM     23  H2  T6Q d   1      -4.570  22.072 -18.077  0.00  0.00     0.056 H 
ATOM     24  H3  T6Q d   1      -3.368  21.852 -19.393  0.00  0.00     0.056 H 
ENDBRANCH  19  21
ENDBRANCH  13  19
ENDBRANCH   1  10
BRANCH   3  25
ATOM     25  N11 T6Q d   1      -7.626  23.851 -25.373  0.00  0.00    -0.188 N 
ATOM     26  H8  T6Q d   1      -8.074  23.990 -26.290  0.00  0.00     0.184 HD
BRANCH  25  27
ATOM     27  C12 T6Q d   1      -6.371  24.537 -25.089  0.00  0.00     0.051 A 
ATOM     28  C13 T6Q d   1      -5.778  24.475 -23.818  0.00  0.00    -0.057 A 
ATOM     29  C14 T6Q d   1      -4.575  25.140 -23.576  0.00  0.00    -0.079 A 
ATOM     30  H9  T6Q d   1      -6.255  23.911 -23.025  0.00  0.00     0.086 H 
ATOM     31  C15 T6Q d   1      -3.946  25.886 -24.618  0.00  0.00    -0.057 A 
ATOM     32  H10 T6Q d   1      -4.117  25.090 -22.595  0.00  0.00     0.083 H 
ATOM     33  C16 T6Q d   1      -4.537  25.940 -25.881  0.00  0.00     0.032 A 
ATOM     34  H11 T6Q d   1      -3.015  26.407 -24.429  0.00  0.00     0.086 H 
ATOM     35  C27 T6Q d   1      -5.744  25.276 -26.119  0.00  0.00    -0.031 A 
ATOM     36  H25 T6Q d   1      -6.202  25.328 -27.100  0.00  0.00     0.090 H 
BRANCH  33  37
ATOM     37  N17 T6Q d   1      -3.893  26.709 -26.964  0.00  0.00    -0.379 N 
ATOM     38  C18 T6Q d   1      -2.613  26.089 -27.204  0.00  0.00    -0.003 C 
ATOM     39  C19 T6Q d   1      -2.359  25.690 -28.612  0.00  0.00    -0.035 C 
ATOM     40  H12 T6Q d   1      -2.549  25.187 -26.578  0.00  0.00     0.064 H 
ATOM     41  H13 T6Q d   1      -1.829  26.800 -26.905  0.00  0.00     0.064 H 
ATOM     42  C20 T6Q d   1      -3.436  24.851 -29.212  0.00  0.00    -0.001 C 
ATOM     43  H14 T6Q d   1      -1.419  25.120 -28.645  0.00  0.00     0.037 H 
ATOM     44  H15 T6Q d   1      -2.256  26.603 -29.216  0.00  0.00     0.037 H 
ATOM     45  N21 T6Q d   1      -4.533  25.620 -29.694  0.00  0.00    -0.351 N 
ATOM     46  H16 T6Q d   1      -3.806  24.154 -28.446  0.00  0.00     0.064 H 
ATOM     47  H17 T6Q d   1      -3.011  24.282 -30.052  0.00  0.00     0.064 H 
ATOM     48  C22 T6Q d   1      -4.913  25.417 -31.084  0.00  0.00     0.215 C 
ATOM     49  C25 T6Q d   1      -5.308  26.586 -28.971  0.00  0.00     0.012 C 
ATOM     50  O24 T6Q d   1      -4.298  24.612 -31.780  0.00  0.00    -0.274 OA
ATOM     51  C26 T6Q d   1      -4.441  27.432 -28.079  0.00  0.00     0.010 C 
ATOM     52  H21 T6Q d   1      -6.050  26.059 -28.353  0.00  0.00     0.066 H 
ATOM     53  H22 T6Q d   1      -5.826  27.239 -29.689  0.00  0.00     0.066 H 
ATOM     54  H23 T6Q d   1      -3.610  27.832 -28.678  0.00  0.00     0.066 H 
ATOM     55  H24 T6Q d   1      -5.047  28.264 -27.691  0.00  0.00     0.066 H 
BRANCH  48  56
ATOM     56  C23 T6Q d   1      -6.063  26.199 -31.678  0.00  0.00    -0.003 C 
ATOM     57  H18 T6Q d   1      -6.197  25.910 -32.731  0.00  0.00     0.040 H 
ATOM     58  H19 T6Q d   1      -5.844  27.275 -31.618  0.00  0.00     0.040 H 
ATOM     59  H20 T6Q d   1      -6.984  25.980 -31.117  0.00  0.00     0.040 H 
ENDBRANCH  48  56
ENDBRANCH  33  37
ENDBRANCH  25  27
ENDBRANCH   3  25
TORSDOF 8
