REMARK  7 active torsions:
REMARK  status: ('A' for Active; 'I' for Inactive)
REMARK    1  A    between atoms: C01_1  and  N02_2 
REMARK    2  A    between atoms: N02_2  and  C03_3 
REMARK    3  A    between atoms: C05_5  and  C06_6 
REMARK    4  A    between atoms: C07_7  and  C08_8 
REMARK    5  A    between atoms: C10_10  and  N11_11 
REMARK    6  A    between atoms: N11_11  and  C12_12 
REMARK    7  A    between atoms: C16_16  and  N17_17 
ROOT
ATOM      1  C08 T3C d   1       7.951  21.588  22.704  0.00  0.00     0.117 A 
ATOM      2  N09 T3C d   1       7.336  22.399  23.612  0.00  0.00    -0.060 NA
ATOM      3  C10 T3C d   1       8.041  23.108  24.500  0.00  0.00     0.727 A 
ATOM      4  N25 T3C d   1       9.405  23.031  24.527  0.00  0.00    -0.073 NA
ATOM      5  C26 T3C d   1      10.079  22.238  23.634  0.00  0.00     0.043 A 
ATOM      6  C27 T3C d   1       9.364  21.503  22.703  0.00  0.00     0.093 A 
ATOM      7  C28 T3C d   1      10.088  20.643  21.729  0.00  0.00     0.103 C 
ATOM      8  N29 T3C d   1      10.641  19.985  20.988  0.00  0.00    -0.191 NA
ATOM      9  H25 T3C d   1      11.162  22.187  23.657  0.00  0.00     0.118 H 
ENDROOT
BRANCH   1  10
ATOM     10  C07 T3C d   1       7.155  20.895  21.790  0.00  0.00     0.063 A 
ATOM     11  C05 T3C d   1       7.131  19.527  21.437  0.00  0.00     0.053 A 
ATOM     12  N04 T3C d   1       6.227  19.169  20.499  0.00  0.00    -0.228 NA
ATOM     13  C03 T3C d   1       5.457  20.155  20.010  0.00  0.00     0.167 A 
ATOM     14  S30 T3C d   1       5.937  21.616  20.815  0.00  0.00    -0.048 SA
BRANCH  11  15
ATOM     15  C06 T3C d   1       8.065  18.477  22.072  0.00  0.00    -0.034 C 
ATOM     16  H5  T3C d   1       8.721  18.966  22.807  0.00  0.00     0.035 H 
ATOM     17  H6  T3C d   1       8.678  18.009  21.288  0.00  0.00     0.035 H 
ATOM     18  H7  T3C d   1       7.462  17.706  22.575  0.00  0.00     0.035 H 
ENDBRANCH  11  15
BRANCH  13  19
ATOM     19  N02 T3C d   1       4.431  20.039  19.013  0.00  0.00    -0.373 N 
ATOM     20  H4  T3C d   1       4.224  19.127  18.581  0.00  0.00     0.161 HD
BRANCH  19  21
ATOM     21  C01 T3C d   1       3.697  21.209  18.626  0.00  0.00    -0.019 C 
ATOM     22  H1  T3C d   1       2.957  20.940  17.858  0.00  0.00     0.056 H 
ATOM     23  H2  T3C d   1       4.391  21.959  18.219  0.00  0.00     0.056 H 
ATOM     24  H3  T3C d   1       3.181  21.625  19.504  0.00  0.00     0.056 H 
ENDBRANCH  19  21
ENDBRANCH  13  19
ENDBRANCH   1  10
BRANCH   3  25
ATOM     25  N11 T3C d   1       7.345  23.965  25.480  0.00  0.00    -0.188 N 
ATOM     26  H8  T3C d   1       7.784  24.115  26.400  0.00  0.00     0.184 HD
BRANCH  25  27
ATOM     27  C12 T3C d   1       6.105  24.590  25.217  0.00  0.00     0.051 A 
ATOM     28  C13 T3C d   1       5.761  25.777  25.946  0.00  0.00    -0.057 A 
ATOM     29  C14 T3C d   1       4.540  26.418  25.712  0.00  0.00    -0.079 A 
ATOM     30  H9  T3C d   1       6.450  26.178  26.681  0.00  0.00     0.086 H 
ATOM     31  C15 T3C d   1       3.642  25.895  24.759  0.00  0.00    -0.057 A 
ATOM     32  H10 T3C d   1       4.284  27.316  26.263  0.00  0.00     0.083 H 
ATOM     33  C16 T3C d   1       3.972  24.724  24.037  0.00  0.00     0.032 A 
ATOM     34  H11 T3C d   1       2.696  26.392  24.579  0.00  0.00     0.086 H 
ATOM     35  C24 T3C d   1       5.219  24.074  24.279  0.00  0.00    -0.031 A 
ATOM     36  H24 T3C d   1       5.476  23.175  23.730  0.00  0.00     0.090 H 
BRANCH  33  37
ATOM     37  N17 T3C d   1       3.020  24.179  23.043  0.00  0.00    -0.379 N 
ATOM     38  C18 T3C d   1       2.211  22.990  23.147  0.00  0.00    -0.003 C 
ATOM     39  C19 T3C d   1       0.751  23.291  23.068  0.00  0.00    -0.028 C 
ATOM     40  H12 T3C d   1       2.420  22.503  24.111  0.00  0.00     0.064 H 
ATOM     41  H13 T3C d   1       2.477  22.308  22.326  0.00  0.00     0.064 H 
ATOM     42  C20 T3C d   1       0.411  23.965  21.772  0.00  0.00     0.083 C 
ATOM     43  H14 T3C d   1       0.475  23.954  23.901  0.00  0.00     0.037 H 
ATOM     44  H15 T3C d   1       0.185  22.351  23.144  0.00  0.00     0.037 H 
ATOM     45  N21 T3C d   1       1.374  23.666  20.750  0.00  0.00    -0.074 N 
ATOM     46  H16 T3C d   1       0.387  25.053  21.932  0.00  0.00     0.075 H 
ATOM     47  H17 T3C d   1      -0.580  23.621  21.440  0.00  0.00     0.075 H 
ATOM     48  C22 T3C d   1       2.445  24.615  20.674  0.00  0.00     0.096 C 
ATOM     49  H18 T3C d   1       0.900  23.649  19.861  0.00  0.00     0.277 HD
ATOM     50  H19 T3C d   1       1.767  22.757  20.939  0.00  0.00     0.277 HD
ATOM     51  C23 T3C d   1       3.514  24.453  21.722  0.00  0.00     0.018 C 
ATOM     52  H20 T3C d   1       2.016  25.623  20.777  0.00  0.00     0.078 H 
ATOM     53  H21 T3C d   1       2.918  24.517  19.686  0.00  0.00     0.078 H 
ATOM     54  H22 T3C d   1       4.167  23.621  21.420  0.00  0.00     0.066 H 
ATOM     55  H23 T3C d   1       4.100  25.383  21.761  0.00  0.00     0.066 H 
ENDBRANCH  33  37
ENDBRANCH  25  27
ENDBRANCH   3  25
TORSDOF 7
