REMARK  4 active torsions:
REMARK  status: ('A' for Active; 'I' for Inactive)
REMARK    1  A    between atoms: S21_2  and  N24_4 
REMARK    2  A    between atoms: S21_2  and  C19_5 
REMARK    3  A    between atoms: C16_7  and  C14_10 
REMARK    4  A    between atoms: N11_12  and  C10_15 
ROOT
ATOM      1  C14 9FK d   1      -3.803   5.299  14.349  0.00  0.00     0.109 A 
ATOM      2  C15 9FK d   1      -2.433   5.211  14.148  0.00  0.00     0.031 A 
ATOM      3  N11 9FK d   1      -2.170   6.430  13.598  0.00  0.00    -0.246 N 
ATOM      4  N12 9FK d   1      -3.282   7.237  13.482  0.00  0.00     0.010 NA
ATOM      5  N13 9FK d   1      -4.331   6.516  13.987  0.00  0.00    -0.157 NA
ATOM      6  H   9FK d   1      -1.752   4.390  14.370  0.00  0.00     0.118 H 
ENDROOT
BRANCH   3   7
ATOM      7  C10 9FK d   1      -0.973   6.874  13.138  0.00  0.00     0.065 C 
ATOM      8  C9  9FK d   1      -0.318   6.334  12.069  0.00  0.00    -0.055 C 
ATOM      9  C8  9FK d   1       0.929   6.731  11.618  0.00  0.00    -0.080 C 
ATOM     10  H   9FK d   1      -0.812   5.533  11.532  0.00  0.00     0.087 H 
ATOM     11  C7  9FK d   1       1.565   7.839  12.188  0.00  0.00    -0.072 C 
ATOM     12  H   9FK d   1       1.415   6.181  10.820  0.00  0.00     0.083 H 
ATOM     13  C4  9FK d   1       0.893   8.541  13.192  0.00  0.00    -0.024 A 
ATOM     14  H   9FK d   1       2.552   8.145  11.860  0.00  0.00     0.084 H 
ATOM     15  C3  9FK d   1      -0.374   8.078  13.748  0.00  0.00     0.003 A 
ATOM     16  C5  9FK d   1       1.472   9.646  13.768  0.00  0.00    -0.072 A 
ATOM     17  C2  9FK d   1      -0.976   8.766  14.793  0.00  0.00    -0.070 A 
ATOM     18  C1  9FK d   1      -0.356   9.888  15.325  0.00  0.00    -0.082 A 
ATOM     19  H   9FK d   1      -1.926   8.428  15.191  0.00  0.00     0.084 H 
ATOM     20  C6  9FK d   1       0.879  10.311  14.839  0.00  0.00    -0.082 A 
ATOM     21  H   9FK d   1      -0.837  10.440  16.125  0.00  0.00     0.083 H 
ATOM     22  H   9FK d   1       1.379  11.158  15.294  0.00  0.00     0.083 H 
ATOM     23  H   9FK d   1       2.416  10.010  13.379  0.00  0.00     0.084 H 
ENDBRANCH   3   7
BRANCH   1  24
ATOM     24  C16 9FK d   1      -4.644   4.294  15.012  0.00  0.00     0.037 A 
ATOM     25  S20 9FK d   1      -4.170   2.774  15.535  0.00  0.00    -0.074 SA
ATOM     26  C19 9FK d   1      -5.716   2.360  16.188  0.00  0.00     0.120 A 
ATOM     27  C18 9FK d   1      -6.621   3.421  15.885  0.00  0.00    -0.052 A 
ATOM     28  C17 9FK d   1      -5.993   4.504  15.291  0.00  0.00    -0.062 A 
ATOM     29  H   9FK d   1      -7.688   3.384  16.097  0.00  0.00     0.086 H 
ATOM     30  H   9FK d   1      -6.508   5.436  15.063  0.00  0.00     0.085 H 
BRANCH  26  31
ATOM     31  S21 9FK d   1      -6.127   0.891  16.986  0.00  0.00     0.263 S 
ATOM     32  O22 9FK d   1      -7.601   0.880  16.928  0.00  0.00    -0.200 OA
ATOM     33  O23 9FK d   1      -5.499   1.001  18.251  0.00  0.00    -0.200 OA
BRANCH  31  34
ATOM     34  N24 9FK d   1      -5.540  -0.417  16.237  0.00  0.00    -0.324 N 
ATOM     35  H   9FK d   1      -5.868  -0.659  15.324  0.00  0.00     0.169 HD
ATOM     36  H   9FK d   1      -4.849  -0.983  16.687  0.00  0.00     0.169 HD
ENDBRANCH  31  34
ENDBRANCH  26  31
ENDBRANCH   1  24
TORSDOF 4
