REMARK  4 active torsions:
REMARK  status: ('A' for Active; 'I' for Inactive)
REMARK    1  A    between atoms: S21_2  and  N24_4 
REMARK    2  A    between atoms: S21_2  and  C19_5 
REMARK    3  A    between atoms: C16_7  and  C14_10 
REMARK    4  A    between atoms: N11_12  and  C10_15 
ROOT
ATOM      1  C10 X0Q d   1      -4.567   8.170  11.451  0.00  0.00     0.055 A 
ATOM      2  C9  X0Q d   1      -3.316   8.223  10.794  0.00  0.00    -0.056 A 
ATOM      3  C8  X0Q d   1      -2.901   9.352  10.039  0.00  0.00    -0.079 A 
ATOM      4  C7  X0Q d   1      -3.737  10.447   9.895  0.00  0.00    -0.063 A 
ATOM      5  C4  X0Q d   1      -4.995  10.415  10.519  0.00  0.00     0.046 A 
ATOM      6  C3  X0Q d   1      -5.391   9.298  11.289  0.00  0.00    -0.035 A 
ATOM      7  C5  X0Q d   1      -5.772  11.447  10.453  0.00  0.00     0.099 C 
ATOM      8  N22 X0Q d   1      -6.459  12.385  10.428  0.00  0.00    -0.191 NA
ATOM      9  H   X0Q d   1      -2.650   7.371  10.869  0.00  0.00     0.087 H 
ATOM     10  H   X0Q d   1      -1.923   9.357   9.572  0.00  0.00     0.083 H 
ATOM     11  H   X0Q d   1      -3.428  11.309   9.314  0.00  0.00     0.085 H 
ATOM     12  H   X0Q d   1      -6.362   9.311  11.771  0.00  0.00     0.089 H 
ENDROOT
BRANCH   1  13
ATOM     13  N11 X0Q d   1      -4.981   7.121  12.201  0.00  0.00    -0.247 N 
ATOM     14  C15 X0Q d   1      -4.139   6.253  12.821  0.00  0.00     0.031 A 
ATOM     15  C14 X0Q d   1      -5.073   5.447  13.429  0.00  0.00     0.109 A 
ATOM     16  H   X0Q d   1      -3.051   6.209  12.833  0.00  0.00     0.118 H 
ATOM     17  N13 X0Q d   1      -6.387   5.759  13.154  0.00  0.00    -0.157 NA
ATOM     18  N12 X0Q d   1      -6.366   6.858  12.332  0.00  0.00     0.010 NA
BRANCH  15  19
ATOM     19  C16 X0Q d   1      -4.812   4.246  14.285  0.00  0.00     0.037 C 
ATOM     20  S20 X0Q d   1      -6.135   3.449  15.044  0.00  0.00    -0.074 SA
ATOM     21  C19 X0Q d   1      -5.152   2.187  15.674  0.00  0.00     0.120 C 
ATOM     22  C18 X0Q d   1      -3.831   2.461  15.372  0.00  0.00    -0.052 C 
ATOM     23  C17 X0Q d   1      -3.629   3.572  14.505  0.00  0.00    -0.062 C 
ATOM     24  H   X0Q d   1      -3.006   1.871  15.768  0.00  0.00     0.086 H 
ATOM     25  H   X0Q d   1      -2.669   3.852  14.073  0.00  0.00     0.085 H 
BRANCH  21  26
ATOM     26  S21 X0Q d   1      -5.824   0.981  16.714  0.00  0.00     0.263 S 
ATOM     27  O22 X0Q d   1      -7.293   1.083  16.678  0.00  0.00    -0.200 OA
ATOM     28  O23 X0Q d   1      -5.367   1.088  18.081  0.00  0.00    -0.200 OA
BRANCH  26  29
ATOM     29  N24 X0Q d   1      -5.366  -0.411  16.112  0.00  0.00    -0.324 N 
ATOM     30  H   X0Q d   1      -5.600  -0.650  15.170  0.00  0.00     0.169 HD
ATOM     31  H   X0Q d   1      -4.843  -1.051  16.674  0.00  0.00     0.169 HD
ENDBRANCH  26  29
ENDBRANCH  21  26
ENDBRANCH  15  19
ENDBRANCH   1  13
TORSDOF 4
