REMARK  3 active torsions:
REMARK  status: ('A' for Active; 'I' for Inactive)
REMARK    1  A    between atoms: P_1  and  O1P_2 
REMARK    2  A    between atoms: O1P_2  and  C2_6 
REMARK    3  A    between atoms: C2_6  and  C1_7 
ROOT
ATOM      1  C2  PGA d   1      -3.522 -18.018 -34.998  0.00  0.00     0.112 C 
ATOM      2  H1  PGA d   1      -3.492 -18.055 -33.899  0.00  0.00     0.092 H 
ATOM      3  H2  PGA d   1      -4.258 -18.746 -35.370  0.00  0.00     0.092 H 
ENDROOT
BRANCH   1   4
ATOM      4  O1P PGA d   1      -2.244 -18.325 -35.520  0.00  0.00    -0.272 OA
BRANCH   4   5
ATOM      5  P   PGA d   1      -1.693 -19.840 -35.563  0.00  0.00     0.422 P 
ATOM      6  O2P PGA d   1      -2.546 -20.600 -36.542  0.00  0.00    -0.617 OA
ATOM      7  O3P PGA d   1      -0.255 -19.770 -36.021  0.00  0.00    -0.617 OA
ATOM      8  O4P PGA d   1      -1.765 -20.406 -34.165  0.00  0.00    -0.617 OA
ENDBRANCH   4   5
ENDBRANCH   1   4
BRANCH   1   9
ATOM      9  C1  PGA d   1      -3.907 -16.628 -35.450  0.00  0.00     0.198 C 
ATOM     10  O1  PGA d   1      -5.094 -16.322 -35.650  0.00  0.00    -0.646 OA
ATOM     11  O2  PGA d   1      -3.032 -15.758 -35.630  0.00  0.00    -0.646 OA
ENDBRANCH   1   9
TORSDOF 3
