REMARK  3 active torsions:
REMARK  status: ('A' for Active; 'I' for Inactive)
REMARK    1  A    between atoms: P_1  and  O1P_2 
REMARK    2  A    between atoms: O1P_2  and  C2_6 
REMARK    3  A    between atoms: C2_6  and  C1_7 
ROOT
ATOM      1  C2  PGA d   1       3.387 -17.987 -23.665  0.00  0.00     0.112 C 
ATOM      2  H1  PGA d   1       4.013 -18.723 -24.190  0.00  0.00     0.092 H 
ATOM      3  H2  PGA d   1       3.582 -18.044 -22.584  0.00  0.00     0.092 H 
ENDROOT
BRANCH   1   4
ATOM      4  O1P PGA d   1       2.019 -18.268 -23.914  0.00  0.00    -0.272 OA
BRANCH   4   5
ATOM      5  P   PGA d   1       1.403 -19.738 -23.640  0.00  0.00     0.422 P 
ATOM      6  O2P PGA d   1       2.362 -20.467 -22.731  0.00  0.00    -0.617 OA
ATOM      7  O3P PGA d   1       0.045 -19.636 -22.975  0.00  0.00    -0.617 OA
ATOM      8  O4P PGA d   1       1.247 -20.490 -24.936  0.00  0.00    -0.617 OA
ENDBRANCH   4   5
ENDBRANCH   1   4
BRANCH   1   9
ATOM      9  C1  PGA d   1       3.719 -16.596 -24.164  0.00  0.00     0.198 C 
ATOM     10  O1  PGA d   1       4.257 -15.728 -23.410  0.00  0.00    -0.646 OA
ATOM     11  O2  PGA d   1       3.457 -16.321 -25.364  0.00  0.00    -0.646 OA
ENDBRANCH   1   9
TORSDOF 3
