REMARK  6 active torsions:
REMARK  status: ('A' for Active; 'I' for Inactive)
REMARK    1  A    between atoms: C01_1  and  C02_2 
REMARK    2  A    between atoms: C05_5  and  C06_6 
REMARK    3  A    between atoms: C06_6  and  C07_7 
REMARK       I    between atoms: C07_7  and  N08_8 
REMARK    4  A    between atoms: C09_9  and  C10_10 
REMARK       I    between atoms: C10_10  and  N11_11 
REMARK    5  A    between atoms: N11_11  and  C12_12 
REMARK    6  A    between atoms: C15_15  and  O16_19 
ROOT
ATOM      1  C07 QD0 d   1      -6.992  34.050  -0.966  0.00  0.00     0.226 C 
ATOM      2  N08 QD0 d   1      -7.460  33.164   0.108  0.00  0.00    -0.336 N 
ATOM      3  C09 QD0 d   1      -7.638  33.539   1.499  0.00  0.00     0.094 C 
ATOM      4  C14 QD0 d   1      -8.001  32.337   2.288  0.00  0.00    -0.012 C 
ATOM      5  C15 QD0 d   1      -8.581  31.470   1.250  0.00  0.00     0.053 C 
ATOM      6  C17 QD0 d   1      -7.855  31.776  -0.025  0.00  0.00     0.022 C 
ATOM      7  O18 QD0 d   1      -6.731  35.221  -0.680  0.00  0.00    -0.273 OA
ATOM      8  H6  QD0 d   1      -8.475  34.251   1.547  0.00  0.00     0.088 H 
ATOM      9  H11 QD0 d   1      -8.737  32.576   3.069  0.00  0.00     0.040 H 
ATOM     10  H12 QD0 d   1      -7.115  31.875   2.748  0.00  0.00     0.040 H 
ATOM     11  H13 QD0 d   1      -8.456  30.410   1.517  0.00  0.00     0.085 H 
ATOM     12  H14 QD0 d   1      -6.972  31.129  -0.135  0.00  0.00     0.068 H 
ATOM     13  H15 QD0 d   1      -8.518  31.642  -0.892  0.00  0.00     0.068 H 
ENDROOT
BRANCH   1  14
ATOM     14  C06 QD0 d   1      -6.859  33.583  -2.422  0.00  0.00     0.056 C 
ATOM     15  H4  QD0 d   1      -5.878  33.885  -2.818  0.00  0.00     0.057 H 
ATOM     16  H5  QD0 d   1      -6.952  32.488  -2.468  0.00  0.00     0.057 H 
BRANCH  14  17
ATOM     17  C05 QD0 d   1      -7.952  34.218  -3.243  0.00  0.00     0.089 A 
ATOM     18  O04 QD0 d   1      -9.087  33.664  -3.631  0.00  0.00    -0.217 OA
ATOM     19  N03 QD0 d   1      -9.894  34.526  -4.328  0.00  0.00    -0.133 NA
ATOM     20  C02 QD0 d   1      -9.254  35.735  -4.345  0.00  0.00     0.060 A 
ATOM     21  C19 QD0 d   1      -8.023  35.562  -3.642  0.00  0.00    -0.026 A 
ATOM     22  H16 QD0 d   1      -7.277  36.331  -3.451  0.00  0.00     0.090 H 
BRANCH  20  23
ATOM     23  C01 QD0 d   1      -9.760  36.987  -4.976  0.00  0.00    -0.033 C 
ATOM     24  H1  QD0 d   1      -9.028  37.794  -4.827  0.00  0.00     0.035 H 
ATOM     25  H2  QD0 d   1     -10.717  37.270  -4.513  0.00  0.00     0.035 H 
ATOM     26  H3  QD0 d   1      -9.909  36.821  -6.053  0.00  0.00     0.035 H 
ENDBRANCH  20  23
ENDBRANCH  14  17
ENDBRANCH   1  14
BRANCH   3  27
ATOM     27  C10 QD0 d   1      -6.441  34.211   2.103  0.00  0.00     0.240 C 
ATOM     28  N11 QD0 d   1      -6.661  35.283   3.043  0.00  0.00    -0.364 N 
ATOM     29  H7  QD0 d   1      -7.602  35.544   3.256  0.00  0.00     0.161 HD
ATOM     30  O13 QD0 d   1      -5.304  33.849   1.791  0.00  0.00    -0.271 OA
BRANCH  28  31
ATOM     31  C12 QD0 d   1      -5.590  35.993   3.688  0.00  0.00    -0.018 C 
ATOM     32  H8  QD0 d   1      -6.009  36.760   4.356  0.00  0.00     0.056 H 
ATOM     33  H9  QD0 d   1      -4.959  36.475   2.927  0.00  0.00     0.056 H 
ATOM     34  H10 QD0 d   1      -4.983  35.288   4.275  0.00  0.00     0.056 H 
ENDBRANCH  28  31
ENDBRANCH   3  27
BRANCH   5  35
ATOM     35  O16 QD0 d   1      -9.929  31.768   1.115  0.00  0.00    -0.394 OA
ATOM     36  H17 QD0 d   1     -10.299  31.246   0.412  0.00  0.00     0.210 HD
ENDBRANCH   5  35
TORSDOF 6
