REMARK  2 active torsions:
REMARK  status: ('A' for Active; 'I' for Inactive)
REMARK    1  A    between atoms: C2_2  and  CAE_8 
REMARK    2  A    between atoms: C4_4  and  NAQ_17 
ROOT
ATOM      1  N1  36I d   1       7.410  -3.050  33.822  0.00  0.00    -0.227 NA
ATOM      2  C2  36I d   1       8.442  -2.167  33.706  0.00  0.00     0.162 A 
ATOM      3  N3  36I d   1       8.267  -0.946  34.141  0.00  0.00    -0.210 NA
ATOM      4  C4  36I d   1       7.073  -0.603  34.655  0.00  0.00     0.147 A 
ATOM      5  C5  36I d   1       6.057  -1.410  34.773  0.00  0.00     0.079 A 
ATOM      6  C6  36I d   1       6.191  -2.680  34.365  0.00  0.00     0.080 A 
ATOM      7  CAA 36I d   1       5.037  -3.387  34.552  0.00  0.00    -0.047 A 
ATOM      8  CAH 36I d   1       4.002  -2.706  35.093  0.00  0.00    -0.042 A 
ATOM      9  SAI 36I d   1       4.519  -1.058  35.420  0.00  0.00    -0.096 SA
ATOM     10  H1  36I d   1       4.956  -4.439  34.281  0.00  0.00     0.087 H 
ATOM     11  H4  36I d   1       3.011  -3.111  35.293  0.00  0.00     0.095 H 
ENDROOT
BRANCH   4  12
ATOM     12  NAQ 36I d   1       6.871   0.615  35.057  0.00  0.00    -0.361 N 
ATOM     13  CAP 36I d   1       5.490   1.112  35.186  0.00  0.00     0.016 C 
ATOM     14  CAS 36I d   1       5.427   2.230  36.087  0.00  0.00     0.034 C 
ATOM     15  H8  36I d   1       4.851   0.303  35.571  0.00  0.00     0.067 H 
ATOM     16  H9  36I d   1       5.127   1.427  34.197  0.00  0.00     0.067 H 
ATOM     17  OAT 36I d   1       6.423   3.085  35.601  0.00  0.00    -0.388 OA
ATOM     18  H12 36I d   1       5.644   1.918  37.119  0.00  0.00     0.076 H 
ATOM     19  H13 36I d   1       4.439   2.713  36.049  0.00  0.00     0.076 H 
ATOM     20  CAU 36I d   1       7.594   2.463  36.044  0.00  0.00     0.034 C 
ATOM     21  CAR 36I d   1       8.026   1.468  35.140  0.00  0.00     0.016 C 
ATOM     22  H14 36I d   1       8.385   3.221  36.146  0.00  0.00     0.076 H 
ATOM     23  H15 36I d   1       7.403   1.998  37.023  0.00  0.00     0.076 H 
ATOM     24  H10 36I d   1       8.275   1.900  34.160  0.00  0.00     0.067 H 
ATOM     25  H11 36I d   1       8.897   0.923  35.532  0.00  0.00     0.067 H 
ENDBRANCH   4  12
BRANCH   2  26
ATOM     26  CAE 36I d   1       9.723  -2.448  33.194  0.00  0.00     0.012 A 
ATOM     27  CAF 36I d   1      10.769  -1.521  33.274  0.00  0.00    -0.069 A 
ATOM     28  CAG 36I d   1      12.060  -1.881  32.825  0.00  0.00    -0.082 A 
ATOM     29  H2  36I d   1      10.590  -0.531  33.678  0.00  0.00     0.085 H 
ATOM     30  CAO 36I d   1      12.225  -3.159  32.284  0.00  0.00    -0.083 A 
ATOM     31  H3  36I d   1      12.892  -1.190  32.898  0.00  0.00     0.083 H 
ATOM     32  CAN 36I d   1      11.191  -4.071  32.285  0.00  0.00    -0.082 A 
ATOM     33  H7  36I d   1      13.181  -3.438  31.857  0.00  0.00     0.083 H 
ATOM     34  CAM 36I d   1       9.961  -3.700  32.736  0.00  0.00    -0.069 A 
ATOM     35  H6  36I d   1      11.357  -5.081  31.928  0.00  0.00     0.083 H 
ATOM     36  H5  36I d   1       9.154  -4.423  32.728  0.00  0.00     0.085 H 
ENDBRANCH   2  26
TORSDOF 2
