REMARK  4 active torsions:
REMARK  status: ('A' for Active; 'I' for Inactive)
REMARK    1  A    between atoms: CA_3  and  C_1 
REMARK    2  A    between atoms: C2_14  and  CA_3 
REMARK    3  A    between atoms: CAG_8  and  C2_14 
REMARK    4  A    between atoms: CAL_10  and  CAN_12 
ROOT
ATOM      1  CAE 3EB d   1      56.782   6.229   7.095  0.00  0.00    -0.077 A 
ATOM      2  CAF 3EB d   1      56.708   6.467   8.462  0.00  0.00    -0.081 A 
ATOM      3  CAG 3EB d   1      56.382   5.001   6.567  0.00  0.00    -0.057 A 
ATOM      4  CAH 3EB d   1      56.247   5.484   9.321  0.00  0.00    -0.066 A 
ATOM      5  CAM 3EB d   1      55.901   4.029   7.445  0.00  0.00    -0.060 A 
ATOM      6  CAN 3EB d   1      55.811   4.263   8.817  0.00  0.00     0.041 A 
ATOM      7  H3  3EB d   1      57.153   7.003   6.434  0.00  0.00     0.084 H 
ATOM      8  H4  3EB d   1      57.013   7.429   8.858  0.00  0.00     0.083 H 
ATOM      9  H5  3EB d   1      56.226   5.666  10.389  0.00  0.00     0.085 H 
ATOM     10  H6  3EB d   1      55.590   3.068   7.051  0.00  0.00     0.086 H 
ENDROOT
BRANCH   3  11
ATOM     11  C2  3EB d   1      56.502   4.678   5.086  0.00  0.00    -0.032 C 
ATOM     12  H7  3EB d   1      57.514   4.285   4.909  0.00  0.00     0.040 H 
ATOM     13  H8  3EB d   1      55.760   3.901   4.850  0.00  0.00     0.040 H 
BRANCH  11  14
ATOM     14  CA  3EB d   1      56.277   5.855   4.114  0.00  0.00     0.019 C 
ATOM     15  H1  3EB d   1      56.971   6.668   4.375  0.00  0.00     0.049 H 
ATOM     16  H2  3EB d   1      56.483   5.513   3.089  0.00  0.00     0.049 H 
BRANCH  14  17
ATOM     17  C   3EB d   1      54.870   6.380   4.176  0.00  0.00     0.172 C 
ATOM     18  O   3EB d   1      53.891   5.628   4.229  0.00  0.00    -0.648 OA
ATOM     19  OXT 3EB d   1      54.751   7.663   4.110  0.00  0.00    -0.648 OA
ENDBRANCH  14  17
ENDBRANCH  11  14
ENDBRANCH   3  11
BRANCH   6  20
ATOM     20  CAL 3EB d   1      55.238   3.209   9.725  0.00  0.00     0.209 C 
ATOM     21  OAB 3EB d   1      54.608   2.240   9.255  0.00  0.00    -0.644 OA
ATOM     22  OAD 3EB d   1      55.361   3.392  10.995  0.00  0.00    -0.644 OA
ENDBRANCH   6  20
TORSDOF 4
