REMARK  4 active torsions:
REMARK  status: ('A' for Active; 'I' for Inactive)
REMARK    1  A    between atoms: C04_5  and  O05_4 
REMARK    2  A    between atoms: C02_7  and  O01_8 
REMARK    3  A    between atoms: O17_14  and  C16_12 
REMARK    4  A    between atoms: O17_14  and  C18_16 
ROOT
ATOM      1  C04 50Q d   1      -1.539  11.657  24.465  0.00  0.00     0.070 A 
ATOM      2  C03 50Q d   1      -1.632  12.281  23.221  0.00  0.00    -0.019 A 
ATOM      3  C02 50Q d   1      -0.460  12.649  22.536  0.00  0.00     0.070 A 
ATOM      4  C19 50Q d   1       0.783  12.371  23.054  0.00  0.00    -0.018 A 
ATOM      5  C18 50Q d   1       0.861  11.724  24.280  0.00  0.00     0.081 A 
ATOM      6  C06 50Q d   1      -0.287  11.379  24.987  0.00  0.00    -0.018 A 
ATOM      7  H4  50Q d   1      -2.603  12.482  22.784  0.00  0.00     0.092 H 
ATOM      8  H6  50Q d   1       1.682  12.651  22.517  0.00  0.00     0.092 H 
ATOM      9  H8  50Q d   1      -0.201  10.890  25.951  0.00  0.00     0.092 H 
ENDROOT
BRANCH   5  10
ATOM     10  O17 50Q d   1       2.080  11.385  24.816  0.00  0.00    -0.311 OA
BRANCH  10  11
ATOM     11  C16 50Q d   1       3.242  12.103  24.721  0.00  0.00     0.077 A 
ATOM     12  C15 50Q d   1       3.321  13.418  25.209  0.00  0.00    -0.028 A 
ATOM     13  C13 50Q d   1       4.552  14.046  25.079  0.00  0.00     0.058 A 
ATOM     14  H2  50Q d   1       2.470  13.914  25.661  0.00  0.00     0.090 H 
ATOM     15  C11 50Q d   1       5.631  13.414  24.500  0.00  0.00     0.056 A 
ATOM     16 CL5  50Q d   1       4.863  15.712  25.662  0.00  0.00    -0.082 Cl
ATOM     17  C10 50Q d   1       5.561  12.108  24.017  0.00  0.00    -0.058 A 
ATOM     18 CL6  50Q d   1       7.164  14.332  24.435  0.00  0.00    -0.083 Cl
ATOM     19  C09 50Q d   1       4.340  11.474  24.143  0.00  0.00    -0.049 A 
ATOM     20  H1  50Q d   1       6.417  11.617  23.568  0.00  0.00     0.086 H 
ATOM     21  H7  50Q d   1       4.234  10.458  23.781  0.00  0.00     0.087 H 
ENDBRANCH  10  11
ENDBRANCH   5  10
BRANCH   3  22
ATOM     22  O01 50Q d   1      -0.526  13.259  21.340  0.00  0.00    -0.361 OA
ATOM     23  H5  50Q d   1      -1.000  14.078  21.429  0.00  0.00     0.217 HD
ENDBRANCH   3  22
BRANCH   1  24
ATOM     24  O05 50Q d   1      -2.650  11.264  25.158  0.00  0.00    -0.361 OA
ATOM     25  H3  50Q d   1      -3.194  12.022  25.338  0.00  0.00     0.217 HD
ENDBRANCH   1  24
TORSDOF 4
