REMARK  5 active torsions:
REMARK  status: ('A' for Active; 'I' for Inactive)
REMARK    1  A    between atoms: CAF_7  and  CAJ_8 
REMARK    2  A    between atoms: CAI_12  and  OAL_13 
REMARK    3  A    between atoms: CAI_12  and  CAM_14 
REMARK    4  A    between atoms: CAM_14  and  CAO_15 
REMARK    5  A    between atoms: CAO_15  and  CAQ_17 
ROOT
ATOM      1  OAN 9VU d   1      -8.235  35.493   7.434  0.00  0.00    -0.269 OA
ATOM      2  CAH 9VU d   1      -9.263  36.149   7.692  0.00  0.00     0.262 A 
ATOM      3  NAG 9VU d   1     -10.492  35.627   7.723  0.00  0.00    -0.324 N 
ATOM      4  CAC 9VU d   1     -11.382  36.619   7.999  0.00  0.00     0.046 A 
ATOM      5  CAB 9VU d   1     -12.713  36.543   8.100  0.00  0.00    -0.056 A 
ATOM      6  CAA 9VU d   1     -13.521  37.661   8.361  0.00  0.00    -0.074 A 
ATOM      7  CAF 9VU d   1     -12.886  38.901   8.502  0.00  0.00    -0.044 A 
ATOM      8  CAE 9VU d   1     -11.478  38.930   8.385  0.00  0.00     0.029 A 
ATOM      9 BRA  9VU d   1     -10.650  40.619   8.649  0.00  0.00    -0.050 Br
ATOM     10  CAD 9VU d   1     -10.739  37.812   8.140  0.00  0.00     0.030 A 
ATOM     11  CAI 9VU d   1      -9.337  37.547   7.944  0.00  0.00     0.176 A 
ATOM     12  H1  9VU d   1     -10.721  34.666   7.569  0.00  0.00     0.169 HD
ATOM     13  H2  9VU d   1     -13.188  35.577   7.975  0.00  0.00     0.087 H 
ATOM     14  H3  9VU d   1     -14.597  37.568   8.450  0.00  0.00     0.084 H 
ENDROOT
BRANCH  11  15
ATOM     15  OAL 9VU d   1      -8.884  38.187   6.748  0.00  0.00    -0.375 OA
ATOM     16  H7  9VU d   1      -9.374  37.852   6.006  0.00  0.00     0.211 HD
ENDBRANCH  11  15
BRANCH  11  17
ATOM     17  CAM 9VU d   1      -8.386  38.076   9.051  0.00  0.00     0.036 C 
ATOM     18  H8  9VU d   1      -8.585  39.148   9.197  0.00  0.00     0.050 H 
ATOM     19  H9  9VU d   1      -7.348  37.939   8.712  0.00  0.00     0.050 H 
BRANCH  17  20
ATOM     20  CAO 9VU d   1      -8.554  37.360  10.407  0.00  0.00     0.163 C 
ATOM     21  OAP 9VU d   1      -9.270  36.348  10.445  0.00  0.00    -0.292 OA
BRANCH  20  22
ATOM     22  CAQ 9VU d   1      -7.835  37.869  11.529  0.00  0.00     0.013 A 
ATOM     23  CAV 9VU d   1      -7.250  39.137  11.541  0.00  0.00    -0.035 A 
ATOM     24  CAU 9VU d   1      -6.567  39.591  12.607  0.00  0.00     0.105 A 
ATOM     25  H10 9VU d   1      -7.349  39.772  10.668  0.00  0.00     0.089 H 
ATOM     26  OAY 9VU d   1      -5.954  40.799  12.778  0.00  0.00    -0.323 OA
ATOM     27  CAT 9VU d   1      -6.440  38.861  13.715  0.00  0.00     0.105 A 
ATOM     28  CAX 9VU d   1      -5.059  40.575  13.902  0.00  0.00     0.115 C 
ATOM     29  OAW 9VU d   1      -5.723  39.552  14.654  0.00  0.00    -0.323 OA
ATOM     30  H11 9VU d   1      -4.941  41.490  14.501  0.00  0.00     0.118 H 
ATOM     31  H12 9VU d   1      -4.072  40.233  13.558  0.00  0.00     0.118 H 
ATOM     32  CAS 9VU d   1      -6.989  37.637  13.786  0.00  0.00    -0.047 A 
ATOM     33  CAR 9VU d   1      -7.704  37.121  12.706  0.00  0.00    -0.067 A 
ATOM     34  H13 9VU d   1      -6.875  37.047  14.688  0.00  0.00     0.087 H 
ATOM     35  H14 9VU d   1      -8.159  36.140  12.777  0.00  0.00     0.085 H 
ENDBRANCH  20  22
ENDBRANCH  17  20
ENDBRANCH  11  17
BRANCH   7  36
ATOM     36  CAJ 9VU d   1     -13.669  40.076   8.765  0.00  0.00    -0.050 C 
ATOM     37  H4  9VU d   1     -14.734  39.804   8.812  0.00  0.00     0.033 H 
ATOM     38  H5  9VU d   1     -13.513  40.809   7.960  0.00  0.00     0.033 H 
ATOM     39  H6  9VU d   1     -13.360  40.515   9.725  0.00  0.00     0.033 H 
ENDBRANCH   7  36
TORSDOF 5
