REMARK  3 active torsions:
REMARK  status: ('A' for Active; 'I' for Inactive)
REMARK    1  A    between atoms: CAK_2  and  CAL_4 
REMARK    2  A    between atoms: CAO_7  and  OAD_8 
REMARK    3  A    between atoms: CAM_14  and  OAC_15 
ROOT
ATOM      1  CAL K2Q d   1       2.038   0.583  45.222  0.00  0.00     0.020 C 
ATOM      2  CAI K2Q d   1       1.154   1.686  45.119  0.00  0.00    -0.060 C 
ATOM      3  CAG K2Q d   1       3.267   0.656  45.946  0.00  0.00    -0.000 C 
ATOM      4  CAO K2Q d   1       3.841   1.883  46.420  0.00  0.00     0.108 C 
ATOM      5  CAF K2Q d   1       4.111   1.837  47.786  0.00  0.00    -0.069 C 
ATOM      6  CAE K2Q d   1       3.335   2.412  48.790  0.00  0.00    -0.081 C 
ATOM      7  CAH K2Q d   1       2.089   3.057  48.586  0.00  0.00     0.035 C 
ATOM      8  OAJ K2Q d   1       1.294   2.385  47.550  0.00  0.00    -0.376 OA
ATOM      9  CAN K2Q d   1       1.545   2.801  46.173  0.00  0.00     0.084 C 
ATOM     10  CAM K2Q d   1       2.983   3.155  45.993  0.00  0.00     0.097 C 
ATOM     11  H1  K2Q d   1       0.325   1.756  44.416  0.00  0.00     0.082 H 
ATOM     12  H2  K2Q d   1       4.027   0.203  45.292  0.00  0.00     0.045 H 
ATOM     13  H3  K2Q d   1       3.127   0.027  46.837  0.00  0.00     0.045 H 
ATOM     14  H5  K2Q d   1       5.008   1.304  48.097  0.00  0.00     0.081 H 
ATOM     15  H6  K2Q d   1       3.715   2.362  49.809  0.00  0.00     0.079 H 
ATOM     16  H7  K2Q d   1       2.272   4.097  48.277  0.00  0.00     0.080 H 
ATOM     17  H8  K2Q d   1       1.524   3.049  49.530  0.00  0.00     0.080 H 
ATOM     18  H9  K2Q d   1       0.935   3.694  45.972  0.00  0.00     0.093 H 
ATOM     19  H10 K2Q d   1       3.248   4.013  46.628  0.00  0.00     0.092 H 
ENDROOT
BRANCH   1  20
ATOM     20  CAK K2Q d   1       1.576  -0.622  44.637  0.00  0.00     0.205 C 
ATOM     21  OAA K2Q d   1       0.533  -0.615  43.874  0.00  0.00    -0.644 OA
ATOM     22  OAB K2Q d   1       2.237  -1.677  44.792  0.00  0.00    -0.644 OA
ENDBRANCH   1  20
BRANCH   4  23
ATOM     23  OAD K2Q d   1       5.064   2.088  45.676  0.00  0.00    -0.383 OA
ATOM     24  H4  K2Q d   1       5.476   2.895  45.962  0.00  0.00     0.211 HD
ENDBRANCH   4  23
BRANCH  10  25
ATOM     25  OAC K2Q d   1       3.211   3.503  44.571  0.00  0.00    -0.389 OA
ATOM     26  H11 K2Q d   1       4.125   3.731  44.444  0.00  0.00     0.210 HD
ENDBRANCH  10  25
TORSDOF 3
