REMARK  8 active torsions:
REMARK  status: ('A' for Active; 'I' for Inactive)
REMARK    1  A    between atoms: C1_1  and  N1_2 
REMARK    2  A    between atoms: N1_2  and  C2_3 
REMARK    3  A    between atoms: N2_9  and  C8_10 
REMARK    4  A    between atoms: C8_10  and  C9_11 
REMARK    5  A    between atoms: C14_16  and  C15_17 
REMARK    6  A    between atoms: C20_22  and  C21_23 
REMARK    7  A    between atoms: C21_23  and  N3_24 
REMARK    8  A    between atoms: C25_30  and  N6_31 
ROOT
ATOM      1  C9  U85 d   1     -10.473 -14.782   3.535  0.00  0.00    -0.040 A 
ATOM      2  C10 U85 d   1     -11.596 -14.131   4.045  0.00  0.00    -0.074 A 
ATOM      3  C11 U85 d   1     -12.228 -14.620   5.176  0.00  0.00    -0.072 A 
ATOM      4  C12 U85 d   1     -10.005 -15.920   4.192  0.00  0.00    -0.074 A 
ATOM      5  C13 U85 d   1     -10.661 -16.422   5.327  0.00  0.00    -0.072 A 
ATOM      6  C14 U85 d   1     -11.793 -15.779   5.837  0.00  0.00    -0.026 A 
ATOM      7  H13 U85 d   1     -11.975 -13.241   3.555  0.00  0.00     0.084 H 
ATOM      8  H14 U85 d   1     -13.089 -14.089   5.564  0.00  0.00     0.084 H 
ATOM      9  H15 U85 d   1      -9.121 -16.425   3.820  0.00  0.00     0.084 H 
ATOM     10  H16 U85 d   1     -10.287 -17.316   5.812  0.00  0.00     0.084 H 
ENDROOT
BRANCH   6  11
ATOM     11  C15 U85 d   1     -12.485 -16.232   6.985  0.00  0.00    -0.026 A 
ATOM     12  C16 U85 d   1     -13.467 -15.407   7.560  0.00  0.00    -0.072 A 
ATOM     13  C17 U85 d   1     -14.185 -15.795   8.689  0.00  0.00    -0.074 A 
ATOM     14  H17 U85 d   1     -13.671 -14.441   7.112  0.00  0.00     0.084 H 
ATOM     15  C20 U85 d   1     -13.932 -17.027   9.285  0.00  0.00    -0.040 A 
ATOM     16  H18 U85 d   1     -14.941 -15.137   9.103  0.00  0.00     0.084 H 
ATOM     17  C19 U85 d   1     -12.952 -17.856   8.726  0.00  0.00    -0.074 A 
ATOM     18  C18 U85 d   1     -12.232 -17.470   7.590  0.00  0.00    -0.072 A 
ATOM     19  H20 U85 d   1     -12.747 -18.817   9.183  0.00  0.00     0.084 H 
ATOM     20  H19 U85 d   1     -11.477 -18.130   7.178  0.00  0.00     0.084 H 
BRANCH  15  21
ATOM     21  C21 U85 d   1     -14.674 -17.414  10.423  0.00  0.00     0.026 C 
ATOM     22  H21 U85 d   1     -14.734 -18.512  10.450  0.00  0.00     0.072 H 
ATOM     23  H22 U85 d   1     -15.687 -16.993  10.344  0.00  0.00     0.072 H 
BRANCH  21  24
ATOM     24  N3  U85 d   1     -14.053 -16.936  11.695  0.00  0.00    -0.320 N 
ATOM     25  C22 U85 d   1     -13.307 -17.778  12.446  0.00  0.00     0.165 A 
ATOM     26  N4  U85 d   1     -12.985 -19.065  12.285  0.00  0.00    -0.222 NA
ATOM     27  C24 U85 d   1     -12.740 -17.353  13.589  0.00  0.00     0.149 A 
ATOM     28  C23 U85 d   1     -12.228 -19.440  13.310  0.00  0.00     0.089 A 
ATOM     29  N5  U85 d   1     -12.075 -18.388  14.110  0.00  0.00    -0.234 NA
ATOM     30  H23 U85 d   1     -11.807 -20.432  13.467  0.00  0.00     0.146 H 
ATOM     31  C25 U85 d   1     -12.905 -16.081  14.014  0.00  0.00     0.155 A 
ATOM     32  N7  U85 d   1     -13.634 -15.179  13.324  0.00  0.00    -0.224 NA
ATOM     33  C26 U85 d   1     -14.241 -15.594  12.124  0.00  0.00     0.070 A 
ATOM     34  H26 U85 d   1     -14.842 -14.902  11.537  0.00  0.00     0.144 H 
BRANCH  31  35
ATOM     35  N6  U85 d   1     -12.306 -15.751  15.160  0.00  0.00    -0.382 N 
ATOM     36  H24 U85 d   1     -12.397 -14.795  15.532  0.00  0.00     0.157 HD
ATOM     37  H25 U85 d   1     -11.752 -16.452  15.672  0.00  0.00     0.157 HD
ENDBRANCH  31  35
ENDBRANCH  21  24
ENDBRANCH  15  21
ENDBRANCH   6  11
BRANCH   1  38
ATOM     38  C8  U85 d   1      -9.803 -14.260   2.397  0.00  0.00     0.022 C 
ATOM     39  H11 U85 d   1      -9.119 -15.010   1.973  0.00  0.00     0.072 H 
ATOM     40  H12 U85 d   1     -10.528 -13.949   1.630  0.00  0.00     0.072 H 
BRANCH  38  41
ATOM     41  N2  U85 d   1      -9.050 -13.098   2.900  0.00  0.00    -0.362 N 
ATOM     42  C5  U85 d   1      -9.486 -11.777   2.654  0.00  0.00    -0.018 A 
ATOM     43  C4  U85 d   1      -8.764 -10.712   3.210  0.00  0.00    -0.042 A 
ATOM     44  H8  U85 d   1     -10.368 -11.589   2.043  0.00  0.00     0.111 H 
ATOM     45  C3  U85 d   1      -7.641 -10.943   4.013  0.00  0.00     0.032 A 
ATOM     46  H7  U85 d   1      -9.082  -9.689   3.014  0.00  0.00     0.089 H 
ATOM     47  N1  U85 d   1      -6.944  -9.935   4.561  0.00  0.00    -0.389 N 
ATOM     48  C6  U85 d   1      -7.240 -12.247   4.259  0.00  0.00    -0.042 A 
ATOM     49  C7  U85 d   1      -7.932 -13.334   3.728  0.00  0.00    -0.018 A 
ATOM     50  H9  U85 d   1      -6.364 -12.426   4.881  0.00  0.00     0.089 H 
ATOM     51  H10 U85 d   1      -7.614 -14.352   3.949  0.00  0.00     0.111 H 
BRANCH  47  52
ATOM     52  C1  U85 d   1      -5.816 -10.247   5.463  0.00  0.00    -0.019 C 
ATOM     53  H1  U85 d   1      -5.361  -9.311   5.819  0.00  0.00     0.056 H 
ATOM     54  H2  U85 d   1      -5.064 -10.837   4.919  0.00  0.00     0.056 H 
ATOM     55  H3  U85 d   1      -6.184 -10.826   6.323  0.00  0.00     0.056 H 
ENDBRANCH  47  52
BRANCH  47  56
ATOM     56  C2  U85 d   1      -7.373  -8.547   4.351  0.00  0.00    -0.019 C 
ATOM     57  H4  U85 d   1      -8.221  -8.527   3.651  0.00  0.00     0.056 H 
ATOM     58  H5  U85 d   1      -6.539  -7.965   3.933  0.00  0.00     0.056 H 
ATOM     59  H6  U85 d   1      -7.681  -8.109   5.312  0.00  0.00     0.056 H 
ENDBRANCH  47  56
ENDBRANCH  38  41
ENDBRANCH   1  38
TORSDOF 8
