REMARK  1 active torsions:
REMARK  status: ('A' for Active; 'I' for Inactive)
REMARK    1  A    between atoms: NO1_2  and  C5_4 
ROOT
ATOM      1  C5  6NT d   1      23.439  -1.667 -20.513  0.00  0.00     0.105 A 
ATOM      2  C6  6NT d   1      24.393  -0.975 -21.237  0.00  0.00    -0.049 A 
ATOM      3  C7  6NT d   1      24.054  -0.450 -22.426  0.00  0.00    -0.049 A 
ATOM      4  C7A 6NT d   1      22.684  -0.541 -22.858  0.00  0.00     0.109 A 
ATOM      5  N1  6NT d   1      22.025  -0.190 -24.001  0.00  0.00    -0.130 NA
ATOM      6  C3A 6NT d   1      21.787  -1.279 -22.098  0.00  0.00     0.084 A 
ATOM      7  C4  6NT d   1      22.128  -1.860 -20.872  0.00  0.00    -0.021 A 
ATOM      8  N3  6NT d   1      20.565  -1.247 -22.783  0.00  0.00    -0.258 N 
ATOM      9  N2  6NT d   1      20.744  -0.599 -23.913  0.00  0.00    -0.067 NA
ATOM     10  H1  6NT d   1      25.399  -0.858 -20.851  0.00  0.00     0.087 H 
ATOM     11  H2  6NT d   1      24.798   0.033 -23.049  0.00  0.00     0.087 H 
ATOM     12  H3  6NT d   1      21.422  -2.412 -20.262  0.00  0.00     0.091 H 
ATOM     13  H4  6NT d   1      19.679  -1.660 -22.457  0.00  0.00     0.191 HD
ENDROOT
BRANCH   1  14
ATOM     14  NO1 6NT d   1      23.803  -2.146 -19.209  0.00  0.00    -0.116 N 
ATOM     15  O21 6NT d   1      22.900  -2.691 -18.386  0.00  0.00    -0.532 OA
ATOM     16  O11 6NT d   1      24.980  -1.918 -18.773  0.00  0.00    -0.532 OA
ENDBRANCH   1  14
TORSDOF 1
