REMARK  7 active torsions:
REMARK  status: ('A' for Active; 'I' for Inactive)
REMARK    1  A    between atoms: C6_6  and  N12_11 
REMARK    2  A    between atoms: C8_8  and  O26_19 
REMARK    3  A    between atoms: C9_9  and  O31_21 
REMARK    4  A    between atoms: N12_11  and  C14_12 
REMARK    5  A    between atoms: C16_14  and  O21_18 
REMARK    6  A    between atoms: O26_19  and  C27_20 
REMARK    7  A    between atoms: O31_21  and  C32_22 
ROOT
ATOM      1  N1  DTQ d   1      64.906  19.227  25.525  0.00  0.00    -0.224 NA
ATOM      2  C2  DTQ d   1      66.205  19.156  25.228  0.00  0.00     0.089 A 
ATOM      3  N3  DTQ d   1      66.908  19.988  24.460  0.00  0.00    -0.241 NA
ATOM      4  C4  DTQ d   1      66.241  21.006  23.920  0.00  0.00     0.075 A 
ATOM      5  C5  DTQ d   1      64.890  21.187  24.181  0.00  0.00     0.042 A 
ATOM      6  C6  DTQ d   1      64.245  20.259  24.987  0.00  0.00     0.142 A 
ATOM      7  C7  DTQ d   1      66.901  21.902  23.105  0.00  0.00    -0.019 A 
ATOM      8  C8  DTQ d   1      66.258  22.988  22.548  0.00  0.00     0.103 A 
ATOM      9  C9  DTQ d   1      64.907  23.151  22.809  0.00  0.00     0.102 A 
ATOM     10  C10 DTQ d   1      64.220  22.252  23.610  0.00  0.00    -0.032 A 
ATOM     11  H1  DTQ d   1      66.751  18.326  25.661  0.00  0.00     0.146 H 
ATOM     12  H2  DTQ d   1      67.954  21.749  22.896  0.00  0.00     0.091 H 
ATOM     13  H3  DTQ d   1      63.159  22.384  23.788  0.00  0.00     0.089 H 
ENDROOT
BRANCH   6  14
ATOM     14  N12 DTQ d   1      62.868  20.417  25.258  0.00  0.00    -0.340 N 
ATOM     15  H4  DTQ d   1      62.392  21.235  24.851  0.00  0.00     0.167 HD
BRANCH  14  16
ATOM     16  C14 DTQ d   1      62.097  19.537  26.045  0.00  0.00     0.036 A 
ATOM     17  C15 DTQ d   1      61.073  20.089  26.779  0.00  0.00    -0.025 A 
ATOM     18  C16 DTQ d   1      60.282  19.282  27.562  0.00  0.00     0.067 A 
ATOM     19  H5  DTQ d   1      60.890  21.157  26.740  0.00  0.00     0.091 H 
ATOM     20  C17 DTQ d   1      60.459  17.915  27.633  0.00  0.00    -0.051 A 
ATOM     21  C18 DTQ d   1      61.485  17.359  26.891  0.00  0.00    -0.078 A 
ATOM     22  H6  DTQ d   1      59.815  17.298  28.250  0.00  0.00     0.087 H 
ATOM     23  C19 DTQ d   1      62.284  18.166  26.104  0.00  0.00    -0.057 A 
ATOM     24  H7  DTQ d   1      61.662  16.290  26.927  0.00  0.00     0.083 H 
ATOM     25  H8  DTQ d   1      63.077  17.715  25.518  0.00  0.00     0.086 H 
BRANCH  18  26
ATOM     26  O21 DTQ d   1      59.270  19.887  28.249  0.00  0.00    -0.361 OA
ATOM     27  H9  DTQ d   1      58.437  19.536  27.957  0.00  0.00     0.217 HD
ENDBRANCH  18  26
ENDBRANCH  14  16
ENDBRANCH   6  14
BRANCH   9  28
ATOM     28  O31 DTQ d   1      64.226  24.201  22.203  0.00  0.00    -0.353 OA
BRANCH  28  29
ATOM     29  C32 DTQ d   1      63.482  24.922  23.196  0.00  0.00     0.010 C 
ATOM     30  H13 DTQ d   1      62.943  25.753  22.718  0.00  0.00     0.066 H 
ATOM     31  H14 DTQ d   1      64.172  25.321  23.954  0.00  0.00     0.066 H 
ATOM     32  H15 DTQ d   1      62.761  24.245  23.677  0.00  0.00     0.066 H 
ENDBRANCH  28  29
ENDBRANCH   9  28
BRANCH   8  33
ATOM     33  O26 DTQ d   1      66.903  23.928  21.719  0.00  0.00    -0.353 OA
BRANCH  33  34
ATOM     34  C27 DTQ d   1      68.322  23.816  21.677  0.00  0.00     0.010 C 
ATOM     35  H10 DTQ d   1      68.731  24.587  21.008  0.00  0.00     0.066 H 
ATOM     36  H11 DTQ d   1      68.600  22.820  21.302  0.00  0.00     0.066 H 
ATOM     37  H12 DTQ d   1      68.731  23.954  22.689  0.00  0.00     0.066 H 
ENDBRANCH  33  34
ENDBRANCH   8  33
TORSDOF 7
