REMARK  12 active torsions:
REMARK  status: ('A' for Active; 'I' for Inactive)
REMARK    1  A    between atoms: N_1  and  CA_2 
REMARK    2  A    between atoms: CA_2  and  C_3 
REMARK    3  A    between atoms: CA_2  and  CB_6 
REMARK    4  A    between atoms: CB_6  and  CG_7 
REMARK    5  A    between atoms: CG_7  and  SD_8 
REMARK    6  A    between atoms: SD_8  and  CE_9 
REMARK    7  A    between atoms: SD_8  and  C5'_10 
REMARK    8  A    between atoms: C5'_10  and  C4'_11 
REMARK    9  A    between atoms: C3'_13  and  O3'_14 
REMARK   10  A    between atoms: C2'_15  and  O2'_16 
REMARK   11  A    between atoms: C1'_17  and  N9_18 
REMARK   12  A    between atoms: C6_22  and  N6_23 
ROOT
ATOM      1  C4' SAM d   1       6.643  49.127   6.338  0.00  0.00     0.076 C 
ATOM      2  O4' SAM d   1       7.648  49.340   7.314  0.00  0.00    -0.355 OA
ATOM      3  C3' SAM d   1       7.291  49.457   4.996  0.00  0.00     0.090 C 
ATOM      4  C2' SAM d   1       8.264  50.526   5.403  0.00  0.00     0.105 C 
ATOM      5  C1' SAM d   1       8.769  49.945   6.705  0.00  0.00     0.139 C 
ATOM      6  H14 SAM d   1       5.809  49.824   6.510  0.00  0.00     0.088 H 
ATOM      7  H15 SAM d   1       7.797  48.577   4.572  0.00  0.00     0.091 H 
ATOM      8  H17 SAM d   1       9.057  50.696   4.660  0.00  0.00     0.093 H 
ATOM      9  H19 SAM d   1       9.232  50.709   7.346  0.00  0.00     0.122 H 
ENDROOT
BRANCH   1  10
ATOM     10  C5' SAM d   1       6.092  47.704   6.432  0.00  0.00    -0.005 C 
ATOM     11  H12 SAM d   1       5.573  47.470   5.491  0.00  0.00     0.051 H 
ATOM     12  H13 SAM d   1       6.937  47.013   6.566  0.00  0.00     0.051 H 
BRANCH  10  13
ATOM     13  SD  SAM d   1       4.927  47.457   7.806  0.00  0.00    -0.221 SA
BRANCH  13  14
ATOM     14  CG  SAM d   1       6.082  46.970   9.121  0.00  0.00    -0.029 C 
ATOM     15  H7  SAM d   1       5.906  45.916   9.382  0.00  0.00     0.047 H 
ATOM     16  H8  SAM d   1       7.113  47.091   8.757  0.00  0.00     0.047 H 
BRANCH  14  17
ATOM     17  CB  SAM d   1       5.889  47.832  10.369  0.00  0.00    -0.022 C 
ATOM     18  H5  SAM d   1       4.821  47.820  10.634  0.00  0.00     0.037 H 
ATOM     19  H6  SAM d   1       6.475  47.388  11.188  0.00  0.00     0.037 H 
BRANCH  17  20
ATOM     20  CA  SAM d   1       6.323  49.284  10.205  0.00  0.00     0.183 C 
ATOM     21  H4  SAM d   1       6.260  49.559   9.142  0.00  0.00     0.101 H 
BRANCH  20  22
ATOM     22  N   SAM d   1       7.693  49.482  10.677  0.00  0.00    -0.065 N 
ATOM     23  H1  SAM d   1       8.319  48.894  10.149  0.00  0.00     0.275 HD
ATOM     24  H2  SAM d   1       7.750  49.241  11.654  0.00  0.00     0.275 HD
ATOM     25  H3  SAM d   1       7.955  50.447  10.553  0.00  0.00     0.275 HD
ENDBRANCH  20  22
BRANCH  20  26
ATOM     26  C   SAM d   1       5.411  50.184  11.022  0.00  0.00     0.204 C 
ATOM     27  O   SAM d   1       5.761  50.537  12.153  0.00  0.00    -0.646 OA
ATOM     28  OXT SAM d   1       4.320  50.557  10.574  0.00  0.00    -0.646 OA
ENDBRANCH  20  26
ENDBRANCH  17  20
ENDBRANCH  14  17
ENDBRANCH  13  14
BRANCH  13  29
ATOM     29  CE  SAM d   1       4.235  45.858   7.273  0.00  0.00    -0.042 C 
ATOM     30  H9  SAM d   1       3.508  46.024   6.464  0.00  0.00     0.040 H 
ATOM     31  H10 SAM d   1       3.733  45.374   8.124  0.00  0.00     0.040 H 
ATOM     32  H11 SAM d   1       5.046  45.210   6.909  0.00  0.00     0.040 H 
ENDBRANCH  13  29
ENDBRANCH  10  13
ENDBRANCH   1  10
BRANCH   3  33
ATOM     33  O3' SAM d   1       6.397  49.980   4.059  0.00  0.00    -0.390 OA
ATOM     34  H16 SAM d   1       6.019  50.783   4.398  0.00  0.00     0.210 HD
ENDBRANCH   3  33
BRANCH   5  35
ATOM     35  N9  SAM d   1       9.705  48.858   6.384  0.00  0.00    -0.294 N 
ATOM     36  C8  SAM d   1       9.690  47.593   6.915  0.00  0.00     0.071 A 
ATOM     37  N7  SAM d   1      10.699  46.865   6.362  0.00  0.00    -0.236 NA
ATOM     38  H20 SAM d   1       8.984  47.229   7.660  0.00  0.00     0.144 H 
ATOM     39  C5  SAM d   1      11.351  47.646   5.473  0.00  0.00     0.149 A 
ATOM     40  C6  SAM d   1      12.438  47.421   4.638  0.00  0.00     0.155 A 
ATOM     41  C4  SAM d   1      10.729  48.902   5.469  0.00  0.00     0.167 A 
ATOM     42  N1  SAM d   1      12.869  48.435   3.817  0.00  0.00    -0.222 NA
ATOM     43  C2  SAM d   1      12.245  49.668   3.829  0.00  0.00     0.091 A 
ATOM     44  N3  SAM d   1      11.176  49.885   4.655  0.00  0.00    -0.222 NA
ATOM     45  H23 SAM d   1      12.602  50.463   3.184  0.00  0.00     0.146 H 
BRANCH  40  46
ATOM     46  N6  SAM d   1      13.072  46.257   4.596  0.00  0.00    -0.382 N 
ATOM     47  H21 SAM d   1      13.874  46.130   3.963  0.00  0.00     0.157 HD
ATOM     48  H22 SAM d   1      12.762  45.480   5.197  0.00  0.00     0.157 HD
ENDBRANCH  40  46
ENDBRANCH   5  35
BRANCH   4  49
ATOM     49  O2' SAM d   1       7.571  51.706   5.698  0.00  0.00    -0.388 OA
ATOM     50  H18 SAM d   1       7.092  51.991   4.929  0.00  0.00     0.210 HD
ENDBRANCH   4  49
TORSDOF 12
