REMARK  13 active torsions:
REMARK  status: ('A' for Active; 'I' for Inactive)
REMARK    1  A    between atoms: C6_2  and  O6_1 
REMARK    2  A    between atoms: C5_3  and  C6_2 
REMARK    3  A    between atoms: C10_4  and  C9_16 
REMARK    4  A    between atoms: C11_19  and  C10_4 
REMARK    5  A    between atoms: C4_6  and  O4_7 
REMARK    6  A    between atoms: C3_8  and  O3_9 
REMARK    7  A    between atoms: C2_10  and  O2_11 
REMARK    8  A    between atoms: O1_13  and  C1_12 
REMARK    9  A    between atoms: C7_14  and  O1_13 
REMARK   10  A    between atoms: C8_15  and  C7_14 
REMARK   11  A    between atoms: C9_16  and  C8_15 
REMARK   12  A    between atoms: C12_18  and  C13_17 
REMARK   13  A    between atoms: C12_18  and  C11_19 
ROOT
ATOM      1  O1  KGM d   1      18.760  -6.433   8.936  0.00  0.00    -0.359 OA
ENDROOT
BRANCH   1   2
ATOM      2  C1  KGM d   1      18.428  -5.924   7.633  0.00  0.00     0.158 C 
ATOM      3  O5  KGM d   1      19.613  -5.222   7.133  0.00  0.00    -0.348 OA
ATOM      4  C5  KGM d   1      20.785  -6.060   7.015  0.00  0.00     0.089 C 
ATOM      5  C4  KGM d   1      20.494  -7.177   6.063  0.00  0.00     0.090 C 
ATOM      6  H   KGM d   1      21.043  -6.479   7.999  0.00  0.00     0.090 H 
ATOM      7  C3  KGM d   1      19.321  -7.982   6.599  0.00  0.00     0.092 C 
ATOM      8  H   KGM d   1      20.257  -6.778   5.066  0.00  0.00     0.091 H 
ATOM      9  C2  KGM d   1      18.094  -7.076   6.734  0.00  0.00     0.110 C 
ATOM     10  H   KGM d   1      19.575  -8.419   7.576  0.00  0.00     0.091 H 
ATOM     11  H   KGM d   1      17.247  -7.646   7.143  0.00  0.00     0.094 H 
ATOM     12  H   KGM d   1      17.573  -5.235   7.694  0.00  0.00     0.133 H 
BRANCH   4  13
ATOM     13  C6  KGM d   1      21.948  -5.202   6.506  0.00  0.00     0.043 C 
ATOM     14  H   KGM d   1      22.146  -4.387   7.218  0.00  0.00     0.078 H 
ATOM     15  H   KGM d   1      22.849  -5.825   6.402  0.00  0.00     0.078 H 
BRANCH  13  16
ATOM     16  O6  KGM d   1      21.588  -4.646   5.217  0.00  0.00    -0.398 OA
ATOM     17  H   KGM d   1      22.304  -4.112   4.893  0.00  0.00     0.209 HD
ENDBRANCH  13  16
ENDBRANCH   4  13
BRANCH   5  18
ATOM     18  O4  KGM d   1      21.673  -8.043   5.998  0.00  0.00    -0.390 OA
ATOM     19  H   KGM d   1      22.418  -7.539   5.692  0.00  0.00     0.210 HD
ENDBRANCH   5  18
BRANCH   7  20
ATOM     20  O3  KGM d   1      19.033  -9.015   5.652  0.00  0.00    -0.390 OA
ATOM     21  H   KGM d   1      18.301  -9.534   5.964  0.00  0.00     0.210 HD
ENDBRANCH   7  20
BRANCH   9  22
ATOM     22  O2  KGM d   1      17.770  -6.558   5.473  0.00  0.00    -0.388 OA
ATOM     23  H   KGM d   1      17.577  -7.273   4.878  0.00  0.00     0.210 HD
ENDBRANCH   9  22
ENDBRANCH   1   2
BRANCH   1  24
ATOM     24  C7  KGM d   1      19.029  -5.432   9.933  0.00  0.00     0.023 C 
ATOM     25  H   KGM d   1      18.126  -4.834  10.124  0.00  0.00     0.074 H 
ATOM     26  H   KGM d   1      19.843  -4.771   9.599  0.00  0.00     0.074 H 
BRANCH  24  27
ATOM     27  C8  KGM d   1      19.445  -6.185  11.203  0.00  0.00    -0.045 C 
ATOM     28  H   KGM d   1      20.335  -6.797  10.995  0.00  0.00     0.036 H 
ATOM     29  H   KGM d   1      18.622  -6.836  11.533  0.00  0.00     0.036 H 
BRANCH  27  30
ATOM     30  C9  KGM d   1      19.764  -5.174  12.292  0.00  0.00    -0.063 C 
ATOM     31  H   KGM d   1      20.576  -4.516  11.950  0.00  0.00     0.033 H 
ATOM     32  H   KGM d   1      18.868  -4.572  12.502  0.00  0.00     0.033 H 
BRANCH  30  33
ATOM     33  C10 KGM d   1      20.199  -5.890  13.566  0.00  0.00    -0.065 C 
ATOM     34  H   KGM d   1      21.093  -6.497  13.361  0.00  0.00     0.033 H 
ATOM     35  H   KGM d   1      19.386  -6.542  13.919  0.00  0.00     0.033 H 
BRANCH  33  36
ATOM     36  C11 KGM d   1      20.522  -4.842  14.640  0.00  0.00    -0.065 C 
ATOM     37  H   KGM d   1      19.625  -4.242  14.852  0.00  0.00     0.033 H 
ATOM     38  H   KGM d   1      21.327  -4.184  14.282  0.00  0.00     0.033 H 
BRANCH  36  39
ATOM     39  C12 KGM d   1      20.973  -5.557  15.915  0.00  0.00    -0.069 C 
ATOM     40  H   KGM d   1      20.166  -6.222  16.256  0.00  0.00     0.032 H 
ATOM     41  H   KGM d   1      21.870  -6.153  15.692  0.00  0.00     0.032 H 
BRANCH  39  42
ATOM     42  C13 KGM d   1      21.302  -4.561  17.032  0.00  0.00    -0.077 C 
ATOM     43  H   KGM d   1      21.622  -5.110  17.930  0.00  0.00     0.027 H 
ATOM     44  H   KGM d   1      20.408  -3.964  17.266  0.00  0.00     0.027 H 
ATOM     45  H   KGM d   1      22.112  -3.894  16.702  0.00  0.00     0.027 H 
ENDBRANCH  39  42
ENDBRANCH  36  39
ENDBRANCH  33  36
ENDBRANCH  30  33
ENDBRANCH  27  30
ENDBRANCH  24  27
ENDBRANCH   1  24
TORSDOF 13
