REMARK  17 active torsions:
REMARK  status: ('A' for Active; 'I' for Inactive)
REMARK    1  A    between atoms: C5'_2  and  O5'_1 
REMARK    2  A    between atoms: C4'_3  and  C5'_2 
REMARK    3  A    between atoms: C3'_5  and  O3'_6 
REMARK    4  A    between atoms: C2'_7  and  O2'_8 
REMARK    5  A    between atoms: O2B_15  and  C1'_9 
REMARK    6  A    between atoms: O4B_26  and  C1B_10 
REMARK    7  A    between atoms: C2B_11  and  O2B_15 
REMARK    8  A    between atoms: C3B_12  and  O3B_16 
REMARK    9  A    between atoms: C4B_13  and  O4B_17 
REMARK   10  A    between atoms: O4B_36  and  C1B_19 
REMARK   11  A    between atoms: C2B_20  and  O2B_24 
REMARK   12  A    between atoms: C3B_21  and  O3B_25 
REMARK   13  A    between atoms: C4B_22  and  O4B_26 
REMARK   14  A    between atoms: C1B_29  and  O4A_28 
REMARK   15  A    between atoms: C2B_30  and  O2B_34 
REMARK   16  A    between atoms: C3B_31  and  O3B_35 
REMARK   17  A    between atoms: C4B_32  and  O4B_36 
ROOT
ATOM      1  O4B XYP d   1      17.802 116.247  15.712  0.00  0.00    -0.348 OA
ENDROOT
BRANCH   1   2
ATOM      2  C1B XYP d   1      18.351 117.471  16.224  0.00  0.00     0.159 C 
ATOM      3  C2B XYP d   1      19.288 117.177  17.362  0.00  0.00     0.116 C 
ATOM      4  C3B XYP d   1      20.268 118.170  17.961  0.00  0.00     0.092 C 
ATOM      5  H11 AHR d   1      19.969 116.440  16.912  0.00  0.00     0.095 H 
ATOM      6  C4B XYP d   1      20.907 118.909  16.801  0.00  0.00     0.083 C 
ATOM      7  H12 AHR d   1      19.733 118.876  18.613  0.00  0.00     0.091 H 
ATOM      8  C5B XYP d   1      19.969 119.123  15.635  0.00  0.00     0.049 C 
ATOM      9  H13 AHR d   1      21.757 118.308  16.445  0.00  0.00     0.090 H 
ATOM     10  O5B XYP d   1      18.999 118.212  15.256  0.00  0.00    -0.356 OA
ATOM     11  H14 AHR d   1      20.612 119.261  14.753  0.00  0.00     0.078 H 
ATOM     12  H15 AHR d   1      19.434 120.060  15.848  0.00  0.00     0.078 H 
ATOM     13  H10 AHR d   1      17.518 118.077  16.610  0.00  0.00     0.133 H 
BRANCH   3  14
ATOM     14  O2B XYP d   1      18.610 116.472  18.347  0.00  0.00    -0.346 OA
BRANCH  14  15
ATOM     15  C1' AHR d   1      19.311 115.305  18.707  0.00  0.00     0.159 C 
ATOM     16  O4' AHR d   1      19.277 114.346  17.670  0.00  0.00    -0.348 OA
ATOM     17  C4' AHR d   1      18.845 113.059  18.196  0.00  0.00     0.089 C 
ATOM     18  C3' AHR d   1      18.974 113.206  19.708  0.00  0.00     0.092 C 
ATOM     19  H4  AHR d   1      17.788 112.884  17.945  0.00  0.00     0.090 H 
ATOM     20  C2' AHR d   1      18.648 114.677  19.928  0.00  0.00     0.110 C 
ATOM     21  H5  AHR d   1      20.011 113.006  20.016  0.00  0.00     0.091 H 
ATOM     22  H7  AHR d   1      17.565 114.865  19.971  0.00  0.00     0.094 H 
ATOM     23  H9  AHR d   1      20.355 115.565  18.936  0.00  0.00     0.133 H 
BRANCH  17  24
ATOM     24  C5' AHR d   1      19.657 111.952  17.571  0.00  0.00     0.043 C 
ATOM     25  H2  AHR d   1      19.315 110.987  17.973  0.00  0.00     0.078 H 
ATOM     26  H3  AHR d   1      19.506 111.969  16.482  0.00  0.00     0.078 H 
BRANCH  24  27
ATOM     27  O5' AHR d   1      21.042 112.102  17.847  0.00  0.00    -0.398 OA
ATOM     28  H1  AHR d   1      21.345 112.932  17.498  0.00  0.00     0.209 HD
ENDBRANCH  24  27
ENDBRANCH  17  24
BRANCH  18  29
ATOM     29  O3' AHR d   1      18.133 112.321  20.427  0.00  0.00    -0.390 OA
ATOM     30  H6  AHR d   1      17.227 112.490  20.197  0.00  0.00     0.210 HD
ENDBRANCH  18  29
BRANCH  20  31
ATOM     31  O2' AHR d   1      19.293 115.168  21.094  0.00  0.00    -0.388 OA
ATOM     32  H8  AHR d   1      19.076 116.085  21.212  0.00  0.00     0.210 HD
ENDBRANCH  20  31
ENDBRANCH  14  15
ENDBRANCH   3  14
BRANCH   4  33
ATOM     33  O3B XYP d   1      21.254 117.524  18.695  0.00  0.00    -0.390 OA
ATOM     34  H16 AHR d   1      21.871 118.165  19.028  0.00  0.00     0.210 HD
ENDBRANCH   4  33
BRANCH   6  35
ATOM     35  O4B XYP d   1      21.383 120.133  17.242  0.00  0.00    -0.391 OA
ATOM     36  H17 AHR d   1      21.972 119.997  17.975  0.00  0.00     0.210 HD
ENDBRANCH   6  35
ENDBRANCH   1   2
BRANCH   1  37
ATOM     37  C4B XYP d   1      16.909 116.563  14.703  0.00  0.00     0.089 C 
ATOM     38  C3B XYP d   1      16.730 115.353  13.809  0.00  0.00     0.092 C 
ATOM     39  C2B XYP d   1      15.365 115.481  13.171  0.00  0.00     0.110 C 
ATOM     40  H20 AHR d   1      16.788 114.429  14.403  0.00  0.00     0.091 H 
ATOM     41  C1B XYP d   1      14.098 115.887  13.884  0.00  0.00     0.158 C 
ATOM     42  H19 AHR d   1      15.515 116.344  12.506  0.00  0.00     0.094 H 
ATOM     43  O5B XYP d   1      14.367 116.931  14.752  0.00  0.00    -0.356 OA
ATOM     44  H18 AHR d   1      13.762 115.031  14.488  0.00  0.00     0.133 H 
ATOM     45  C5B XYP d   1      15.626 117.077  15.315  0.00  0.00     0.049 C 
ATOM     46  H22 AHR d   1      15.771 118.161  15.435  0.00  0.00     0.078 H 
ATOM     47  H23 AHR d   1      15.562 116.603  16.306  0.00  0.00     0.078 H 
ATOM     48  H21 AHR d   1      17.336 117.372  14.092  0.00  0.00     0.090 H 
BRANCH  38  49
ATOM     49  O3B XYP d   1      17.710 115.338  12.828  0.00  0.00    -0.390 OA
ATOM     50  H25 AHR d   1      17.643 116.127  12.303  0.00  0.00     0.210 HD
ENDBRANCH  38  49
BRANCH  39  51
ATOM     51  O2B XYP d   1      15.162 114.420  12.304  0.00  0.00    -0.388 OA
ATOM     52  H24 AHR d   1      14.305 114.500  11.903  0.00  0.00     0.210 HD
ENDBRANCH  39  51
BRANCH  41  53
ATOM     53  O4B XYP d   1      13.038 116.194  12.950  0.00  0.00    -0.348 OA
BRANCH  53  54
ATOM     54  C4B XYP d   1      12.200 115.095  12.763  0.00  0.00     0.089 C 
ATOM     55  C3B XYP d   1      11.057 115.078  13.764  0.00  0.00     0.092 C 
ATOM     56  C2B XYP d   1      10.077 114.077  13.197  0.00  0.00     0.110 C 
ATOM     57  H29 AHR d   1      10.600 116.076  13.840  0.00  0.00     0.091 H 
ATOM     58  C1B XYP d   1       9.537 114.115  11.795  0.00  0.00     0.155 C 
ATOM     59  H28 AHR d   1      10.695 113.168  13.164  0.00  0.00     0.094 H 
ATOM     60  O5B XYP d   1      10.577 114.360  10.914  0.00  0.00    -0.356 OA
ATOM     61  H27 AHR d   1       8.800 114.928  11.717  0.00  0.00     0.133 H 
ATOM     62  C5B XYP d   1      11.714 115.041  11.329  0.00  0.00     0.049 C 
ATOM     63  H31 AHR d   1      12.545 114.612  10.750  0.00  0.00     0.078 H 
ATOM     64  H32 AHR d   1      11.559 116.088  11.028  0.00  0.00     0.078 H 
ATOM     65  H30 AHR d   1      12.798 114.189  12.941  0.00  0.00     0.090 H 
BRANCH  55  66
ATOM     66  O3B XYP d   1      11.468 114.663  15.022  0.00  0.00    -0.390 OA
ATOM     67  H34 AHR d   1      12.136 115.255  15.347  0.00  0.00     0.210 HD
ENDBRANCH  55  66
BRANCH  56  68
ATOM     68  O2B XYP d   1       9.084 113.768  14.113  0.00  0.00    -0.388 OA
ATOM     69  H33 AHR d   1       9.479 113.396  14.893  0.00  0.00     0.210 HD
ENDBRANCH  56  68
BRANCH  58  70
ATOM     70  O4A XYP d   1       8.918 112.919  11.480  0.00  0.00    -0.369 OA
ATOM     71  H26 AHR d   1       8.207 112.761  12.090  0.00  0.00     0.212 HD
ENDBRANCH  58  70
ENDBRANCH  53  54
ENDBRANCH  41  53
ENDBRANCH   1  37
TORSDOF 17
