REMARK  13 active torsions:
REMARK  status: ('A' for Active; 'I' for Inactive)
REMARK    1  A    between atoms: C5'_2  and  O5'_1 
REMARK    2  A    between atoms: C4'_3  and  C5'_2 
REMARK    3  A    between atoms: C3'_5  and  O3'_6 
REMARK    4  A    between atoms: C2'_7  and  O2'_8 
REMARK    5  A    between atoms: O3B_16  and  C1'_9 
REMARK    6  A    between atoms: O4B_27  and  C1B_10 
REMARK    7  A    between atoms: C2B_11  and  O2B_15 
REMARK    8  A    between atoms: C3B_12  and  O3B_16 
REMARK    9  A    between atoms: C4B_13  and  O4B_17 
REMARK   10  A    between atoms: C1B_20  and  O4A_19 
REMARK   11  A    between atoms: C2B_21  and  O2B_25 
REMARK   12  A    between atoms: C3B_22  and  O3B_26 
REMARK   13  A    between atoms: C4B_23  and  O4B_27 
ROOT
ATOM      1  H10 AHR d   1     -16.814  21.633 -14.256  0.00  0.00     0.133 H 
ATOM      2  H11 AHR d   1     -17.290  18.622 -14.120  0.00  0.00     0.094 H 
ATOM      3  H12 AHR d   1     -18.367  20.641 -16.139  0.00  0.00     0.091 H 
ATOM      4  H13 AHR d   1     -19.810  19.260 -13.825  0.00  0.00     0.090 H 
ATOM      5  H14 AHR d   1     -19.887  21.497 -12.769  0.00  0.00     0.078 H 
ATOM      6  H15 AHR d   1     -18.832  22.143 -14.072  0.00  0.00     0.078 H 
ATOM      7  C1B XYP d   1     -16.898  20.685 -13.704  0.00  0.00     0.158 C 
ATOM      8  C2B XYP d   1     -17.197  19.565 -14.680  0.00  0.00     0.110 C 
ATOM      9  C3B XYP d   1     -18.495  19.817 -15.422  0.00  0.00     0.097 C 
ATOM     10  C4B XYP d   1     -19.572  20.158 -14.415  0.00  0.00     0.084 C 
ATOM     11  C5B XYP d   1     -19.089  21.249 -13.484  0.00  0.00     0.049 C 
ATOM     12  O5B XYP d   1     -17.951  20.811 -12.780  0.00  0.00    -0.356 OA
ENDROOT
BRANCH   7  13
ATOM     13  O4B XYP d   1     -15.627  20.401 -13.087  0.00  0.00    -0.348 OA
BRANCH  13  14
ATOM     14  C4B XYP d   1     -15.136  21.500 -12.351  0.00  0.00     0.089 C 
ATOM     15  C3B XYP d   1     -14.235  20.980 -11.251  0.00  0.00     0.092 C 
ATOM     16  C2B XYP d   1     -13.513  22.133 -10.586  0.00  0.00     0.110 C 
ATOM     17  H21 AHR d   1     -13.493  20.297 -11.690  0.00  0.00     0.091 H 
ATOM     18  C1B XYP d   1     -12.842  22.994 -11.633  0.00  0.00     0.155 C 
ATOM     19  H20 AHR d   1     -14.237  22.739 -10.021  0.00  0.00     0.094 H 
ATOM     20  O5B XYP d   1     -13.802  23.486 -12.534  0.00  0.00    -0.356 OA
ATOM     21  H19 AHR d   1     -12.099  22.395 -12.180  0.00  0.00     0.133 H 
ATOM     22  C5B XYP d   1     -14.324  22.396 -13.259  0.00  0.00     0.049 C 
ATOM     23  H23 AHR d   1     -14.968  22.773 -14.067  0.00  0.00     0.078 H 
ATOM     24  H24 AHR d   1     -13.494  21.818 -13.691  0.00  0.00     0.078 H 
ATOM     25  H22 AHR d   1     -15.974  22.066 -11.918  0.00  0.00     0.090 H 
BRANCH  15  26
ATOM     26  O3B XYP d   1     -14.994  20.279 -10.292  0.00  0.00    -0.390 OA
ATOM     27  H26 AHR d   1     -14.419  19.958  -9.608  0.00  0.00     0.210 HD
ENDBRANCH  15  26
BRANCH  16  28
ATOM     28  O2B XYP d   1     -12.530  21.632  -9.708  0.00  0.00    -0.388 OA
ATOM     29  H25 AHR d   1     -12.079  22.357  -9.292  0.00  0.00     0.210 HD
ENDBRANCH  16  28
BRANCH  18  30
ATOM     30  O4A XYP d   1     -12.202  24.074 -10.997  0.00  0.00    -0.369 OA
ATOM     31  H18 AHR d   1     -11.553  23.742 -10.388  0.00  0.00     0.212 HD
ENDBRANCH  18  30
ENDBRANCH  13  14
ENDBRANCH   7  13
BRANCH   8  32
ATOM     32  O2B XYP d   1     -16.129  19.453 -15.594  0.00  0.00    -0.388 OA
ATOM     33  H16 AHR d   1     -16.295  18.729 -16.186  0.00  0.00     0.210 HD
ENDBRANCH   8  32
BRANCH   9  34
ATOM     34  O3B XYP d   1     -18.885  18.637 -16.097  0.00  0.00    -0.348 OA
BRANCH  34  35
ATOM     35  C1' AHR d   1     -18.507  18.634 -17.455  0.00  0.00     0.159 C 
ATOM     36  O4' AHR d   1     -19.420  19.410 -18.192  0.00  0.00    -0.348 OA
ATOM     37  C4' AHR d   1     -20.445  18.554 -18.778  0.00  0.00     0.089 C 
ATOM     38  C3' AHR d   1     -20.122  17.143 -18.278  0.00  0.00     0.092 C 
ATOM     39  H4  AHR d   1     -21.430  18.840 -18.381  0.00  0.00     0.090 H 
ATOM     40  C2' AHR d   1     -18.631  17.208 -17.969  0.00  0.00     0.110 C 
ATOM     41  H5  AHR d   1     -20.297  16.416 -19.085  0.00  0.00     0.091 H 
ATOM     42  H7  AHR d   1     -18.323  16.457 -17.226  0.00  0.00     0.094 H 
ATOM     43  H9  AHR d   1     -17.482  19.013 -17.575  0.00  0.00     0.133 H 
BRANCH  37  44
ATOM     44  C5' AHR d   1     -20.496  18.745 -20.275  0.00  0.00     0.043 C 
ATOM     45  H2  AHR d   1     -21.349  18.178 -20.677  0.00  0.00     0.078 H 
ATOM     46  H3  AHR d   1     -20.631  19.815 -20.492  0.00  0.00     0.078 H 
BRANCH  44  47
ATOM     47  O5' AHR d   1     -19.307  18.295 -20.907  0.00  0.00    -0.398 OA
ATOM     48  H1  AHR d   1     -19.186  17.370 -20.729  0.00  0.00     0.209 HD
ENDBRANCH  44  47
ENDBRANCH  37  44
BRANCH  38  49
ATOM     49  O3' AHR d   1     -20.917  16.754 -17.170  0.00  0.00    -0.390 OA
ATOM     50  H6  AHR d   1     -20.676  15.875 -16.902  0.00  0.00     0.210 HD
ENDBRANCH  38  49
BRANCH  40  51
ATOM     51  O2' AHR d   1     -17.864  17.087 -19.159  0.00  0.00    -0.388 OA
ATOM     52  H8  AHR d   1     -18.086  17.796 -19.751  0.00  0.00     0.210 HD
ENDBRANCH  40  51
ENDBRANCH  34  35
ENDBRANCH   9  34
BRANCH  10  53
ATOM     53  O4B XYP d   1     -20.733  20.592 -15.086  0.00  0.00    -0.391 OA
ATOM     54  H17 AHR d   1     -21.035  19.906 -15.670  0.00  0.00     0.210 HD
ENDBRANCH  10  53
TORSDOF 13
