REMARK  6 active torsions:
REMARK  status: ('A' for Active; 'I' for Inactive)
REMARK    1  A    between atoms: C1_1  and  O1_7 
REMARK    2  A    between atoms: C2_2  and  O2_8 
REMARK    3  A    between atoms: C3_3  and  O3_9 
REMARK    4  A    between atoms: C4_4  and  O4_10 
REMARK    5  A    between atoms: C5_5  and  C6_6 
REMARK    6  A    between atoms: O1_7  and  CM_12 
ROOT
ATOM      1  C1  MFB d   1     -44.204  16.297  -9.250  0.00  0.00     0.158 C 
ATOM      2  C2  MFB d   1     -42.748  16.646  -8.922  0.00  0.00     0.110 C 
ATOM      3  C3  MFB d   1     -42.134  15.818  -7.802  0.00  0.00     0.092 C 
ATOM      4  C4  MFB d   1     -42.412  14.337  -8.010  0.00  0.00     0.087 C 
ATOM      5  C5  MFB d   1     -43.929  14.149  -8.217  0.00  0.00     0.065 C 
ATOM      6  O5  MFB d   1     -44.353  14.870  -9.389  0.00  0.00    -0.351 OA
ATOM      7  H1  MFB d   1     -44.862  16.648  -8.441  0.00  0.00     0.133 H 
ATOM      8  H2  MFB d   1     -42.152  16.479  -9.832  0.00  0.00     0.094 H 
ATOM      9  H3  MFB d   1     -42.567  16.121  -6.837  0.00  0.00     0.091 H 
ATOM     10  H4  MFB d   1     -42.078  13.761  -7.134  0.00  0.00     0.091 H 
ATOM     11  H5  MFB d   1     -44.444  14.565  -7.339  0.00  0.00     0.086 H 
ENDROOT
BRANCH   1  12
ATOM     12  O1  MFB d   1     -44.538  16.979 -10.473  0.00  0.00    -0.363 OA
BRANCH  12  13
ATOM     13  CM  MFB d   1     -45.962  17.079 -10.670  0.00  0.00     0.007 C 
ATOM     14  H12 MFB d   1     -46.165  17.606 -11.614  0.00  0.00     0.066 H 
ATOM     15  H13 MFB d   1     -46.409  17.638  -9.835  0.00  0.00     0.066 H 
ATOM     16  H14 MFB d   1     -46.398  16.070 -10.712  0.00  0.00     0.066 H 
ENDBRANCH  12  13
ENDBRANCH   1  12
BRANCH   2  17
ATOM     17  O2  MFB d   1     -42.658  18.035  -8.552  0.00  0.00    -0.388 OA
ATOM     18  H9  MFB d   1     -41.746  18.271  -8.432  0.00  0.00     0.210 HD
ENDBRANCH   2  17
BRANCH   3  19
ATOM     19  O3  MFB d   1     -40.734  16.114  -7.808  0.00  0.00    -0.390 OA
ATOM     20  H10 MFB d   1     -40.361  15.859  -8.644  0.00  0.00     0.210 HD
ENDBRANCH   3  19
BRANCH   5  21
ATOM     21  C6  MFB d   1     -44.340  12.698  -8.361  0.00  0.00    -0.050 C 
ATOM     22  H6  MFB d   1     -45.429  12.638  -8.505  0.00  0.00     0.031 H 
ATOM     23  H7  MFB d   1     -44.059  12.145  -7.452  0.00  0.00     0.031 H 
ATOM     24  H8  MFB d   1     -43.830  12.257  -9.230  0.00  0.00     0.031 H 
ENDBRANCH   5  21
BRANCH   4  25
ATOM     25  O4  MFB d   1     -41.710  13.904  -9.173  0.00  0.00    -0.390 OA
ATOM     26  H11 MFB d   1     -40.777  14.022  -9.040  0.00  0.00     0.210 HD
ENDBRANCH   4  25
TORSDOF 6
