REMARK  15 active torsions:
REMARK  status: ('A' for Active; 'I' for Inactive)
REMARK    1  A    between atoms: CBD_7  and  NAX_8 
REMARK       I    between atoms: NAX_8  and  CBB_9 
REMARK    2  A    between atoms: CBB_9  and  CAT_11 
REMARK    3  A    between atoms: CAT_11  and  CBE_12 
REMARK    4  A    between atoms: CBG_16  and  NAY_17 
REMARK    5  A    between atoms: NAY_17  and  C6_18 
REMARK    6  A    between atoms: CBF_27  and  OBA_28 
REMARK    7  A    between atoms: OBA_28  and  CAQ_29 
REMARK    8  A    between atoms: CAQ_29  and  CAP_30 
REMARK    9  A    between atoms: CAP_30  and  CAS_31 
REMARK   10  A    between atoms: CAS_31  and  NBK_32 
REMARK   11  A    between atoms: NBK_32  and  CAO_33 
REMARK   12  A    between atoms: NBK_32  and  CAR_35 
REMARK   13  A    between atoms: CAO_33  and  CAA_34 
REMARK   14  A    between atoms: CAR_35  and  CAN_36 
REMARK   15  A    between atoms: CAN_36  and  OAC_37 
ROOT
ATOM      1  C6  YJA d   1       9.571 -25.059   5.545  0.00  0.00     0.143 A 
ATOM      2  N1  YJA d   1      10.171 -23.985   6.166  0.00  0.00    -0.223 NA
ATOM      3  C2  YJA d   1      11.477 -24.010   6.321  0.00  0.00     0.089 A 
ATOM      4  N3  YJA d   1      12.367 -24.905   5.885  0.00  0.00    -0.241 NA
ATOM      5  C4  YJA d   1      11.844 -26.006   5.240  0.00  0.00     0.074 A 
ATOM      6  CAM YJA d   1      12.748 -27.032   4.857  0.00  0.00    -0.022 A 
ATOM      7  C5  YJA d   1      10.429 -26.103   5.063  0.00  0.00     0.039 A 
ATOM      8  CAJ YJA d   1      10.026 -27.281   4.397  0.00  0.00    -0.064 A 
ATOM      9  CAI YJA d   1      10.925 -28.289   3.974  0.00  0.00    -0.050 A 
ATOM     10  CBF YJA d   1      12.324 -28.153   4.165  0.00  0.00     0.071 A 
ATOM     11  H   YJA d   1      11.892 -23.183   6.886  0.00  0.00     0.146 H 
ATOM     12  H   YJA d   1      13.797 -26.935   5.113  0.00  0.00     0.091 H 
ATOM     13  H   YJA d   1       8.970 -27.421   4.199  0.00  0.00     0.085 H 
ATOM     14  H   YJA d   1      10.537 -29.181   3.495  0.00  0.00     0.087 H 
ENDROOT
BRANCH   1  15
ATOM     15  NAY YJA d   1       8.190 -25.138   5.438  0.00  0.00    -0.323 N 
ATOM     16  H   YJA d   1       7.799 -25.862   4.818  0.00  0.00     0.169 HD
BRANCH  15  17
ATOM     17  CBG YJA d   1       7.292 -24.306   6.111  0.00  0.00     0.151 A 
ATOM     18  CAL YJA d   1       7.389 -23.130   6.777  0.00  0.00    -0.013 A 
ATOM     19  CBE YJA d   1       6.123 -22.855   7.247  0.00  0.00     0.040 A 
ATOM     20  H   YJA d   1       8.285 -22.526   6.913  0.00  0.00     0.092 H 
ATOM     21  NAZ YJA d   1       5.308 -23.822   6.885  0.00  0.00    -0.280 N 
ATOM     22  NAW YJA d   1       6.004 -24.692   6.228  0.00  0.00    -0.156 NA
ATOM     23  H   YJA d   1       4.300 -23.876   7.088  0.00  0.00     0.189 HD
BRANCH  19  24
ATOM     24  CAT YJA d   1       5.652 -21.635   8.097  0.00  0.00     0.049 C 
ATOM     25  H   YJA d   1       5.244 -21.988   9.056  0.00  0.00     0.056 H 
ATOM     26  H   YJA d   1       6.504 -20.965   8.286  0.00  0.00     0.056 H 
BRANCH  24  27
ATOM     27  CBB YJA d   1       4.533 -20.859   7.296  0.00  0.00     0.227 C 
ATOM     28  NAX YJA d   1       4.082 -19.805   8.010  0.00  0.00    -0.327 N 
ATOM     29  H   YJA d   1       4.576 -19.570   8.847  0.00  0.00     0.169 HD
ATOM     30  OAB YJA d   1       4.316 -21.136   6.104  0.00  0.00    -0.273 OA
BRANCH  28  31
ATOM     31  CBD YJA d   1       2.976 -19.016   7.670  0.00  0.00     0.037 A 
ATOM     32  CAK YJA d   1       2.095 -19.281   6.624  0.00  0.00    -0.020 A 
ATOM     33  CBC YJA d   1       1.020 -18.460   6.409  0.00  0.00     0.118 A 
ATOM     34  H   YJA d   1       2.260 -20.137   5.980  0.00  0.00     0.091 H 
ATOM     35  FAD YJA d   1       0.182 -18.752   5.216  0.00  0.00    -0.206 F 
ATOM     36  CAG YJA d   1       0.741 -17.406   7.278  0.00  0.00    -0.046 A 
ATOM     37  CAE YJA d   1       1.545 -17.175   8.379  0.00  0.00    -0.078 A 
ATOM     38  H   YJA d   1      -0.112 -16.764   7.089  0.00  0.00     0.088 H 
ATOM     39  CAH YJA d   1       2.651 -17.982   8.577  0.00  0.00    -0.057 A 
ATOM     40  H   YJA d   1       1.313 -16.376   9.074  0.00  0.00     0.083 H 
ATOM     41  H   YJA d   1       3.280 -17.818   9.444  0.00  0.00     0.086 H 
ENDBRANCH  28  31
ENDBRANCH  24  27
ENDBRANCH  19  24
ENDBRANCH  15  17
ENDBRANCH   1  15
BRANCH  10  42
ATOM     42  OBA YJA d   1      13.202 -29.101   3.697  0.00  0.00    -0.351 OA
BRANCH  42  43
ATOM     43  CAQ YJA d   1      14.612 -28.841   3.868  0.00  0.00     0.028 C 
ATOM     44  H   YJA d   1      14.858 -28.824   4.940  0.00  0.00     0.075 H 
ATOM     45  H   YJA d   1      14.867 -27.871   3.417  0.00  0.00     0.075 H 
BRANCH  43  46
ATOM     46  CAP YJA d   1      15.391 -29.941   3.184  0.00  0.00    -0.022 C 
ATOM     47  H   YJA d   1      16.457 -29.850   3.440  0.00  0.00     0.038 H 
ATOM     48  H   YJA d   1      15.267 -29.857   2.094  0.00  0.00     0.038 H 
BRANCH  46  49
ATOM     49  CAS YJA d   1      14.871 -31.285   3.650  0.00  0.00     0.085 C 
ATOM     50  H   YJA d   1      13.794 -31.333   3.433  0.00  0.00     0.076 H 
ATOM     51  H   YJA d   1      15.030 -31.360   4.736  0.00  0.00     0.076 H 
BRANCH  49  52
ATOM     52  NBK YJA d   1      15.533 -32.454   2.997  0.00  0.00    -0.069 N 
ATOM     53  H   YJA d   1      15.058 -33.253   3.387  0.00  0.00     0.279 HD
BRANCH  52  54
ATOM     54  CAO YJA d   1      16.951 -32.568   3.403  0.00  0.00     0.080 C 
ATOM     55  H   YJA d   1      17.310 -31.601   3.785  0.00  0.00     0.075 H 
ATOM     56  H   YJA d   1      17.564 -32.872   2.541  0.00  0.00     0.075 H 
BRANCH  54  57
ATOM     57  CAA YJA d   1      17.040 -33.636   4.513  0.00  0.00    -0.053 C 
ATOM     58  H   YJA d   1      18.086 -33.743   4.836  0.00  0.00     0.029 H 
ATOM     59  H   YJA d   1      16.676 -34.599   4.125  0.00  0.00     0.029 H 
ATOM     60  H   YJA d   1      16.422 -33.328   5.369  0.00  0.00     0.029 H 
ENDBRANCH  54  57
ENDBRANCH  52  54
BRANCH  52  61
ATOM     61  CAR YJA d   1      15.451 -32.649   1.527  0.00  0.00     0.103 C 
ATOM     62  H   YJA d   1      15.288 -33.718   1.326  0.00  0.00     0.079 H 
ATOM     63  H   YJA d   1      16.405 -32.333   1.080  0.00  0.00     0.079 H 
BRANCH  61  64
ATOM     64  CAN YJA d   1      14.304 -31.843   0.858  0.00  0.00     0.039 C 
ATOM     65  H   YJA d   1      14.447 -30.758   0.972  0.00  0.00     0.076 H 
ATOM     66  H   YJA d   1      13.319 -32.127   1.258  0.00  0.00     0.076 H 
BRANCH  64  67
ATOM     67  OAC YJA d   1      14.464 -32.260  -0.508  0.00  0.00    -0.399 OA
ATOM     68  H   YJA d   1      13.809 -31.832  -1.047  0.00  0.00     0.209 HD
ENDBRANCH  64  67
ENDBRANCH  61  64
ENDBRANCH  52  61
ENDBRANCH  49  52
ENDBRANCH  46  49
ENDBRANCH  43  46
ENDBRANCH  42  43
ENDBRANCH  10  42
TORSDOF 15
