REMARK  14 active torsions:
REMARK  status: ('A' for Active; 'I' for Inactive)
REMARK    1  A    between atoms: C21_2  and  C20_4 
REMARK    2  A    between atoms: C20_4  and  C22_5 
REMARK    3  A    between atoms: C20_4  and  N19_11 
REMARK    4  A    between atoms: C22_5  and  S23_6 
REMARK    5  A    between atoms: S23_6  and  C24_7 
REMARK    6  A    between atoms: C24_7  and  C25_8 
REMARK    7  A    between atoms: C25_8  and  C27_9 
REMARK    8  A    between atoms: C25_8  and  C26_10 
REMARK       I    between atoms: N19_11  and  C19_12 
REMARK       I    between atoms: C19_12  and  N15_14 
REMARK    9  A    between atoms: N15_14  and  C16_15 
REMARK       I    between atoms: N15_14  and  C15_18 
REMARK   10  A    between atoms: C16_15  and  C17_16 
REMARK   11  A    between atoms: C17_16  and  C18_17 
REMARK   12  A    between atoms: C15_18  and  C11_20 
REMARK   13  A    between atoms: C9_25  and  C8_26 
REMARK   14  A    between atoms: C7_27  and  C1_28 
ROOT
ATOM      1  N19 X0D d   1     -17.200 -27.347 -14.477  0.00  0.00    -0.327 N 
ATOM      2  C19 X0D d   1     -17.811 -26.188 -14.230  0.00  0.00     0.326 C 
ATOM      3  O19 X0D d   1     -18.796 -25.928 -14.895  0.00  0.00    -0.247 OA
ATOM      4  N15 X0D d   1     -17.378 -25.283 -13.326  0.00  0.00    -0.266 N 
ATOM      5  C15 X0D d   1     -16.164 -25.435 -12.760  0.00  0.00     0.261 C 
ATOM      6  O15 X0D d   1     -15.491 -26.446 -12.892  0.00  0.00    -0.267 OA
ATOM      7  H   X0D d   1     -16.386 -27.588 -13.949  0.00  0.00     0.165 HD
ENDROOT
BRANCH   4   8
ATOM      8  C16 X0D d   1     -18.173 -24.072 -13.129  0.00  0.00     0.007 C 
ATOM      9  H   X0D d   1     -17.981 -23.666 -12.125  0.00  0.00     0.065 H 
ATOM     10  H   X0D d   1     -19.241 -24.314 -13.228  0.00  0.00     0.065 H 
BRANCH   8  11
ATOM     11  C17 X0D d   1     -17.787 -23.037 -14.178  0.00  0.00    -0.053 C 
ATOM     12  H   X0D d   1     -17.971 -23.446 -15.182  0.00  0.00     0.034 H 
ATOM     13  H   X0D d   1     -16.721 -22.788 -14.073  0.00  0.00     0.034 H 
BRANCH  11  14
ATOM     14  C18 X0D d   1     -18.621 -21.784 -13.980  0.00  0.00    -0.075 C 
ATOM     15  H   X0D d   1     -18.343 -21.035 -14.737  0.00  0.00     0.027 H 
ATOM     16  H   X0D d   1     -18.436 -21.376 -12.976  0.00  0.00     0.027 H 
ATOM     17  H   X0D d   1     -19.687 -22.033 -14.084  0.00  0.00     0.027 H 
ENDBRANCH  11  14
ENDBRANCH   8  11
ENDBRANCH   4   8
BRANCH   5  18
ATOM     18  C11 X0D d   1     -15.491 -24.357 -11.943  0.00  0.00     0.034 A 
ATOM     19  C10 X0D d   1     -14.578 -23.483 -12.555  0.00  0.00    -0.050 A 
ATOM     20  C9  X0D d   1     -13.898 -22.488 -11.830  0.00  0.00     0.019 A 
ATOM     21  H   X0D d   1     -14.392 -23.578 -13.619  0.00  0.00     0.087 H 
ATOM     22  C14 X0D d   1     -14.152 -22.382 -10.467  0.00  0.00    -0.065 A 
ATOM     23  C13 X0D d   1     -15.048 -23.261  -9.855  0.00  0.00    -0.081 A 
ATOM     24  H   X0D d   1     -13.655 -21.618  -9.880  0.00  0.00     0.085 H 
ATOM     25  C12 X0D d   1     -15.715 -24.251 -10.580  0.00  0.00    -0.068 A 
ATOM     26  H   X0D d   1     -15.230 -23.173  -8.790  0.00  0.00     0.083 H 
ATOM     27  H   X0D d   1     -16.400 -24.928 -10.082  0.00  0.00     0.085 H 
BRANCH  20  28
ATOM     28  C8  X0D d   1     -13.074 -21.680 -12.444  0.00  0.00    -0.061 C 
ATOM     29  C7  X0D d   1     -12.331 -20.944 -13.033  0.00  0.00    -0.058 C 
BRANCH  29  30
ATOM     30  C1  X0D d   1     -11.527 -20.146 -13.687  0.00  0.00     0.056 A 
ATOM     31  C6  X0D d   1     -11.598 -18.755 -13.626  0.00  0.00    -0.059 A 
ATOM     32  C5  X0D d   1     -10.697 -17.989 -14.378  0.00  0.00    -0.044 A 
ATOM     33  H   X0D d   1     -12.342 -18.271 -13.004  0.00  0.00     0.086 H 
ATOM     34  C4  X0D d   1      -9.728 -18.571 -15.191  0.00  0.00     0.119 A 
ATOM     35  H   X0D d   1     -10.756 -16.908 -14.325  0.00  0.00     0.088 H 
ATOM     36  F4  X0D d   1      -8.862 -17.828 -15.929  0.00  0.00    -0.206 F 
ATOM     37  C3  X0D d   1      -9.662 -19.953 -15.241  0.00  0.00    -0.007 A 
ATOM     38  C2  X0D d   1     -10.559 -20.719 -14.495  0.00  0.00     0.138 A 
ATOM     39  H   X0D d   1      -8.915 -20.439 -15.858  0.00  0.00     0.093 H 
ATOM     40  F2  X0D d   1     -10.492 -22.059 -14.542  0.00  0.00    -0.204 F 
ENDBRANCH  29  30
ENDBRANCH  20  28
ENDBRANCH   5  18
BRANCH   1  41
ATOM     41  C20 X0D d   1     -17.684 -28.276 -15.496  0.00  0.00     0.106 C 
ATOM     42  H   X0D d   1     -18.258 -27.719 -16.251  0.00  0.00     0.090 H 
BRANCH  41  43
ATOM     43  C21 X0D d   1     -18.579 -29.312 -14.879  0.00  0.00     0.197 C 
ATOM     44  O2  X0D d   1     -19.058 -30.202 -15.613  0.00  0.00    -0.646 OA
ATOM     45  O1  X0D d   1     -18.825 -29.239 -13.653  0.00  0.00    -0.646 OA
ENDBRANCH  41  43
BRANCH  41  46
ATOM     46  C22 X0D d   1     -16.468 -28.926 -16.168  0.00  0.00     0.005 C 
ATOM     47  H   X0D d   1     -16.027 -28.204 -16.871  0.00  0.00     0.052 H 
ATOM     48  H   X0D d   1     -16.805 -29.816 -16.720  0.00  0.00     0.052 H 
BRANCH  46  49
ATOM     49  S23 X0D d   1     -15.229 -29.416 -15.011  0.00  0.00    -0.166 SA
BRANCH  49  50
ATOM     50  C24 X0D d   1     -15.590 -31.125 -14.764  0.00  0.00    -0.021 C 
ATOM     51  H   X0D d   1     -16.296 -31.466 -15.535  0.00  0.00     0.049 H 
ATOM     52  H   X0D d   1     -16.038 -31.265 -13.769  0.00  0.00     0.049 H 
BRANCH  50  53
ATOM     53  C25 X0D d   1     -14.294 -31.940 -14.861  0.00  0.00    -0.053 C 
ATOM     54  H   X0D d   1     -14.002 -32.191 -13.831  0.00  0.00     0.040 H 
BRANCH  53  55
ATOM     55  C27 X0D d   1     -13.123 -31.183 -15.489  0.00  0.00    -0.073 C 
ATOM     56  H   X0D d   1     -12.239 -31.836 -15.520  0.00  0.00     0.028 H 
ATOM     57  H   X0D d   1     -12.898 -30.290 -14.887  0.00  0.00     0.028 H 
ATOM     58  H   X0D d   1     -13.390 -30.878 -16.512  0.00  0.00     0.028 H 
ENDBRANCH  53  55
BRANCH  53  59
ATOM     59  C26 X0D d   1     -14.507 -33.246 -15.609  0.00  0.00    -0.073 C 
ATOM     60  H   X0D d   1     -15.349 -33.793 -15.159  0.00  0.00     0.028 H 
ATOM     61  H   X0D d   1     -13.596 -33.858 -15.544  0.00  0.00     0.028 H 
ATOM     62  H   X0D d   1     -14.731 -33.032 -16.665  0.00  0.00     0.028 H 
ENDBRANCH  53  59
ENDBRANCH  50  53
ENDBRANCH  49  50
ENDBRANCH  46  49
ENDBRANCH  41  46
ENDBRANCH   1  41
TORSDOF 14
