REMARK  12 active torsions:
REMARK  status: ('A' for Active; 'I' for Inactive)
REMARK    1  A    between atoms: C25_7  and  C24_8 
REMARK    2  A    between atoms: C24_8  and  S23_9 
REMARK    3  A    between atoms: S23_9  and  C22_10 
REMARK    4  A    between atoms: C22_10  and  C20_11 
REMARK    5  A    between atoms: C20_11  and  C21_12 
REMARK    6  A    between atoms: C20_11  and  N19_15 
REMARK       I    between atoms: N19_15  and  C19_16 
REMARK       I    between atoms: C19_16  and  N15_18 
REMARK    7  A    between atoms: N15_18  and  C16_19 
REMARK       I    between atoms: N15_18  and  C15_22 
REMARK    8  A    between atoms: C16_19  and  C17_20 
REMARK    9  A    between atoms: C17_20  and  C18_21 
REMARK   10  A    between atoms: C15_22  and  C11_24 
REMARK   11  A    between atoms: C9_29  and  C8_30 
REMARK   12  A    between atoms: C7_31  and  C1_32 
ROOT
ATOM      1  N19 X0R d   1     -18.288 -27.225 -13.157  0.00  0.00    -0.327 N 
ATOM      2  C19 X0R d   1     -18.540 -25.954 -13.480  0.00  0.00     0.326 C 
ATOM      3  O19 X0R d   1     -19.518 -25.736 -14.175  0.00  0.00    -0.247 OA
ATOM      4  N15 X0R d   1     -17.760 -24.946 -13.031  0.00  0.00    -0.266 N 
ATOM      5  C15 X0R d   1     -16.520 -25.239 -12.641  0.00  0.00     0.261 C 
ATOM      6  O15 X0R d   1     -16.011 -26.317 -12.892  0.00  0.00    -0.267 OA
ATOM      7  H   X0R d   1     -17.504 -27.439 -12.575  0.00  0.00     0.165 HD
ENDROOT
BRANCH   4   8
ATOM      8  C16 X0R d   1     -18.333 -23.656 -12.714  0.00  0.00     0.007 C 
ATOM      9  H   X0R d   1     -17.713 -23.122 -11.979  0.00  0.00     0.065 H 
ATOM     10  H   X0R d   1     -19.354 -23.767 -12.320  0.00  0.00     0.065 H 
BRANCH   8  11
ATOM     11  C17 X0R d   1     -18.343 -22.929 -14.040  0.00  0.00    -0.053 C 
ATOM     12  H   X0R d   1     -18.695 -23.611 -14.828  0.00  0.00     0.034 H 
ATOM     13  H   X0R d   1     -17.324 -22.589 -14.277  0.00  0.00     0.034 H 
BRANCH  11  14
ATOM     14  C18 X0R d   1     -19.267 -21.732 -13.963  0.00  0.00    -0.075 C 
ATOM     15  H   X0R d   1     -19.270 -21.208 -14.930  0.00  0.00     0.027 H 
ATOM     16  H   X0R d   1     -18.916 -21.048 -13.176  0.00  0.00     0.027 H 
ATOM     17  H   X0R d   1     -20.287 -22.070 -13.727  0.00  0.00     0.027 H 
ENDBRANCH  11  14
ENDBRANCH   8  11
ENDBRANCH   4   8
BRANCH   5  18
ATOM     18  C11 X0R d   1     -15.711 -24.242 -11.857  0.00  0.00     0.034 A 
ATOM     19  C10 X0R d   1     -14.787 -23.405 -12.495  0.00  0.00    -0.050 A 
ATOM     20  C9  X0R d   1     -14.004 -22.489 -11.771  0.00  0.00     0.019 A 
ATOM     21  H   X0R d   1     -14.673 -23.465 -13.571  0.00  0.00     0.087 H 
ATOM     22  C14 X0R d   1     -14.177 -22.392 -10.387  0.00  0.00    -0.065 A 
ATOM     23  C13 X0R d   1     -15.098 -23.220  -9.751  0.00  0.00    -0.081 A 
ATOM     24  H   X0R d   1     -13.598 -21.677  -9.813  0.00  0.00     0.085 H 
ATOM     25  C12 X0R d   1     -15.865 -24.149 -10.472  0.00  0.00    -0.068 A 
ATOM     26  H   X0R d   1     -15.226 -23.146  -8.677  0.00  0.00     0.083 H 
ATOM     27  H   X0R d   1     -16.572 -24.790  -9.957  0.00  0.00     0.085 H 
BRANCH  20  28
ATOM     28  C8  X0R d   1     -13.165 -21.719 -12.400  0.00  0.00    -0.061 C 
ATOM     29  C7  X0R d   1     -12.391 -21.011 -12.978  0.00  0.00    -0.058 C 
BRANCH  29  30
ATOM     30  C1  X0R d   1     -11.568 -20.255 -13.648  0.00  0.00     0.056 A 
ATOM     31  C6  X0R d   1     -11.657 -18.866 -13.597  0.00  0.00    -0.059 A 
ATOM     32  C5  X0R d   1     -10.717 -18.096 -14.294  0.00  0.00    -0.044 A 
ATOM     33  H   X0R d   1     -12.444 -18.387 -13.025  0.00  0.00     0.086 H 
ATOM     34  C4  X0R d   1      -9.688 -18.677 -15.052  0.00  0.00     0.119 A 
ATOM     35  H   X0R d   1     -10.787 -17.015 -14.246  0.00  0.00     0.088 H 
ATOM     36  F4  X0R d   1      -8.764 -17.950 -15.755  0.00  0.00    -0.206 F 
ATOM     37  C3  X0R d   1      -9.603 -20.049 -15.073  0.00  0.00    -0.007 A 
ATOM     38  C2  X0R d   1     -10.517 -20.823 -14.368  0.00  0.00     0.138 A 
ATOM     39  H   X0R d   1      -8.817 -20.531 -15.644  0.00  0.00     0.093 H 
ATOM     40  F2  X0R d   1     -10.357 -22.162 -14.406  0.00  0.00    -0.204 F 
ENDBRANCH  29  30
ENDBRANCH  20  28
ENDBRANCH   5  18
BRANCH   1  41
ATOM     41  C20 X0R d   1     -19.142 -28.311 -13.642  0.00  0.00     0.106 C 
ATOM     42  H   X0R d   1     -19.709 -27.925 -14.502  0.00  0.00     0.090 H 
BRANCH  41  43
ATOM     43  C22 X0R d   1     -18.324 -29.517 -14.067  0.00  0.00     0.005 C 
ATOM     44  H   X0R d   1     -17.304 -29.438 -13.663  0.00  0.00     0.052 H 
ATOM     45  H   X0R d   1     -18.796 -30.439 -13.695  0.00  0.00     0.052 H 
BRANCH  43  46
ATOM     46  S23 X0R d   1     -18.271 -29.540 -15.818  0.00  0.00    -0.162 SA
BRANCH  46  47
ATOM     47  C24 X0R d   1     -16.802 -28.612 -15.974  0.00  0.00     0.001 C 
ATOM     48  H   X0R d   1     -16.684 -28.285 -17.017  0.00  0.00     0.056 H 
ATOM     49  H   X0R d   1     -16.853 -27.731 -15.317  0.00  0.00     0.056 H 
BRANCH  47  50
ATOM     50  C25 X0R d   1     -15.622 -29.469 -15.578  0.00  0.00    -0.049 A 
ATOM     51  C26 X0R d   1     -15.442 -30.704 -16.203  0.00  0.00    -0.075 A 
ATOM     52  C27 X0R d   1     -14.358 -31.509 -15.866  0.00  0.00    -0.066 A 
ATOM     53  H   X0R d   1     -16.149 -31.037 -16.954  0.00  0.00     0.084 H 
ATOM     54  C28 X0R d   1     -13.442 -31.043 -14.913  0.00  0.00     0.011 A 
ATOM     55  H   X0R d   1     -14.225 -32.479 -16.332  0.00  0.00     0.085 H 
ATOM     56 BR   X0R d   1     -11.964 -32.131 -14.482  0.00  0.00    -0.051 Br
ATOM     57  C29 X0R d   1     -13.620 -29.809 -14.270  0.00  0.00    -0.066 A 
ATOM     58  C30 X0R d   1     -14.721 -29.012 -14.596  0.00  0.00    -0.075 A 
ATOM     59  H   X0R d   1     -12.908 -29.475 -13.524  0.00  0.00     0.085 H 
ATOM     60  H   X0R d   1     -14.879 -28.060 -14.102  0.00  0.00     0.084 H 
ENDBRANCH  47  50
ENDBRANCH  46  47
ENDBRANCH  43  46
ENDBRANCH  41  43
BRANCH  41  61
ATOM     61  C21 X0R d   1     -20.102 -28.871 -12.640  0.00  0.00     0.197 C 
ATOM     62  O2  X0R d   1     -21.330 -28.796 -12.879  0.00  0.00    -0.646 OA
ATOM     63  O1  X0R d   1     -19.616 -29.424 -11.625  0.00  0.00    -0.646 OA
ENDBRANCH  41  61
ENDBRANCH   1  41
TORSDOF 12
