REMARK  7 active torsions:
REMARK  status: ('A' for Active; 'I' for Inactive)
REMARK    1  A    between atoms: C9_8  and  C1_2 
REMARK    2  A    between atoms: C4_4  and  C3_3 
REMARK    3  A    between atoms: C10_9  and  C4_4 
REMARK    4  A    between atoms: C15_15  and  O6_5 
REMARK    5  A    between atoms: C9_8  and  C8_7 
REMARK    6  A    between atoms: C12_12  and  C13_13 
REMARK    7  A    between atoms: C13_13  and  C14_14 
ROOT
ATOM      1  S   TLG d   1     -20.021  35.109 -31.986  0.00  0.00    -0.066 SA
ATOM      2  C4  TLG d   1     -18.632  35.254 -30.729  0.00  0.00     0.080 A 
ATOM      3  C11 TLG d   1     -20.083  33.297 -31.915  0.00  0.00     0.226 A 
ATOM      4  O11 TLG d   1     -20.903  32.656 -32.535  0.00  0.00    -0.280 OA
ATOM      5  C12 TLG d   1     -19.053  32.837 -30.979  0.00  0.00     0.097 A 
ATOM      6  C15 TLG d   1     -18.344  33.814 -30.319  0.00  0.00     0.084 A 
ENDROOT
BRANCH   2   7
ATOM      7  C3  TLG d   1     -19.207  35.945 -29.481  0.00  0.00    -0.051 C 
ATOM      8  H4  TLG d   1     -18.418  36.047 -28.722  0.00  0.00     0.030 H 
ATOM      9  H5  TLG d   1     -20.031  35.341 -29.074  0.00  0.00     0.030 H 
ATOM     10  H6  TLG d   1     -19.583  36.942 -29.754  0.00  0.00     0.030 H 
ENDBRANCH   2   7
BRANCH   2  11
ATOM     11  C10 TLG d   1     -17.449  35.921 -31.420  0.00  0.00    -0.073 C 
ATOM     12  C9  TLG d   1     -17.417  37.156 -32.005  0.00  0.00    -0.065 C 
ATOM     13  H11 TLG d   1     -16.523  35.348 -31.451  0.00  0.00     0.080 H 
BRANCH  12  14
ATOM     14  C1  TLG d   1     -16.163  37.618 -32.696  0.00  0.00    -0.051 C 
ATOM     15  H1  TLG d   1     -16.320  38.627 -33.104  0.00  0.00     0.033 H 
ATOM     16  H2  TLG d   1     -15.919  36.925 -33.515  0.00  0.00     0.033 H 
ATOM     17  H3  TLG d   1     -15.333  37.640 -31.974  0.00  0.00     0.033 H 
ENDBRANCH  12  14
BRANCH  12  18
ATOM     18  C8  TLG d   1     -18.502  38.156 -31.894  0.00  0.00    -0.086 C 
ATOM     19  C7  TLG d   1     -18.499  39.425 -32.229  0.00  0.00    -0.121 C 
ATOM     20  H8  TLG d   1     -19.392  40.030 -32.080  0.00  0.00     0.066 H 
ATOM     21  H9  TLG d   1     -17.603  39.873 -32.656  0.00  0.00     0.066 H 
ATOM     22  H10 TLG d   1     -19.436  37.786 -31.474  0.00  0.00     0.083 H 
ENDBRANCH  12  18
ENDBRANCH   2  11
BRANCH   6  23
ATOM     23  O6  TLG d   1     -17.485  33.600 -29.300  0.00  0.00    -0.362 OA
ATOM     24  H7  TLG d   1     -17.398  32.666 -29.151  0.00  0.00     0.217 HD
ENDBRANCH   6  23
BRANCH   5  25
ATOM     25  C13 TLG d   1     -18.770  31.431 -30.693  0.00  0.00     0.162 C 
ATOM     26  ONA TLG d   1     -19.307  30.546 -31.364  0.00  0.00    -0.293 OA
BRANCH  25  27
ATOM     27  C14 TLG d   1     -17.716  31.053 -29.698  0.00  0.00    -0.016 C 
ATOM     28  H12 TLG d   1     -17.656  29.957 -29.626  0.00  0.00     0.038 H 
ATOM     29  H13 TLG d   1     -17.974  31.472 -28.714  0.00  0.00     0.038 H 
ATOM     30  H14 TLG d   1     -16.744  31.453 -30.023  0.00  0.00     0.038 H 
ENDBRANCH  25  27
ENDBRANCH   5  25
TORSDOF 7
