REMARK  7 active torsions:
REMARK  status: ('A' for Active; 'I' for Inactive)
REMARK    1  A    between atoms: C17_9  and  C21_10 
REMARK    2  A    between atoms: C21_10  and  C1_11 
REMARK    3  A    between atoms: C21_10  and  O27_12 
REMARK    4  A    between atoms: O27_12  and  C15_13 
REMARK    5  A    between atoms: C19_15  and  N22_16 
REMARK    6  A    between atoms: C14_19  and  C16_20 
REMARK    7  A    between atoms: N26_24  and  C20_25 
ROOT
ATOM      1  C15 VHS d   1     -15.255 -16.162  12.053  0.00  0.00     0.116 A 
ATOM      2  C4  VHS d   1     -16.565 -15.932  11.604  0.00  0.00    -0.035 A 
ATOM      3  C19 VHS d   1     -14.682 -17.421  11.907  0.00  0.00     0.154 A 
ATOM      4  N23 VHS d   1     -15.398 -18.387  11.350  0.00  0.00    -0.240 NA
ATOM      5  C5  VHS d   1     -16.710 -18.187  10.880  0.00  0.00     0.015 A 
ATOM      6  C14 VHS d   1     -17.329 -16.937  11.009  0.00  0.00    -0.003 A 
ATOM      7  H   VHS d   1     -16.996 -14.944  11.723  0.00  0.00     0.089 H 
ATOM      8  H   VHS d   1     -17.245 -19.007  10.415  0.00  0.00     0.116 H 
ENDROOT
BRANCH   6   9
ATOM      9  C16 VHS d   1     -18.605 -16.690  10.585  0.00  0.00     0.012 A 
ATOM     10  C7  VHS d   1     -19.108 -15.545  10.111  0.00  0.00     0.011 A 
ATOM     11  N26 VHS d   1     -20.406 -15.759   9.828  0.00  0.00    -0.276 N 
ATOM     12  H   VHS d   1     -18.566 -14.610   9.978  0.00  0.00     0.115 H 
ATOM     13  N24 VHS d   1     -20.692 -16.928  10.106  0.00  0.00    -0.184 NA
ATOM     14  C6  VHS d   1     -19.611 -17.556  10.580  0.00  0.00     0.034 A 
ATOM     15  H   VHS d   1     -19.564 -18.594  10.905  0.00  0.00     0.118 H 
BRANCH  11  16
ATOM     16  C20 VHS d   1     -21.457 -14.843   9.267  0.00  0.00     0.037 C 
ATOM     17  C8  VHS d   1     -21.835 -15.297   7.927  0.00  0.00    -0.022 C 
ATOM     18  C10 VHS d   1     -22.978 -14.410   7.505  0.00  0.00     0.084 C 
ATOM     19  H   VHS d   1     -22.155 -16.349   7.954  0.00  0.00     0.038 H 
ATOM     20  H   VHS d   1     -20.989 -15.189   7.232  0.00  0.00     0.038 H 
ATOM     21  N25 VHS d   1     -22.505 -13.036   7.311  0.00  0.00    -0.075 N 
ATOM     22  H   VHS d   1     -23.754 -14.421   8.285  0.00  0.00     0.075 H 
ATOM     23  H   VHS d   1     -23.401 -14.786   6.562  0.00  0.00     0.075 H 
ATOM     24  C11 VHS d   1     -22.060 -12.505   8.608  0.00  0.00     0.084 C 
ATOM     25  H   VHS d   1     -23.255 -12.467   6.950  0.00  0.00     0.277 HD
ATOM     26  H   VHS d   1     -21.735 -13.031   6.660  0.00  0.00     0.277 HD
ATOM     27  C9  VHS d   1     -20.973 -13.401   9.204  0.00  0.00    -0.022 C 
ATOM     28  H   VHS d   1     -22.916 -12.466   9.297  0.00  0.00     0.075 H 
ATOM     29  H   VHS d   1     -21.657 -11.491   8.466  0.00  0.00     0.075 H 
ATOM     30  H   VHS d   1     -20.072 -13.347   8.575  0.00  0.00     0.038 H 
ATOM     31  H   VHS d   1     -20.732 -13.054  10.220  0.00  0.00     0.038 H 
ATOM     32  H   VHS d   1     -22.341 -14.885   9.920  0.00  0.00     0.076 H 
ENDBRANCH  11  16
ENDBRANCH   6   9
BRANCH   1  33
ATOM     33  O27 VHS d   1     -14.439 -15.246  12.643  0.00  0.00    -0.338 OA
BRANCH  33  34
ATOM     34  C21 VHS d   1     -14.917 -13.899  12.883  0.00  0.00     0.070 C 
ATOM     35  H   VHS d   1     -15.849 -13.957  13.465  0.00  0.00     0.091 H 
BRANCH  34  36
ATOM     36  C17 VHS d   1     -15.206 -13.168  11.672  0.00  0.00     0.017 A 
ATOM     37  C18 VHS d   1     -14.332 -13.149  10.575  0.00  0.00     0.083 A 
ATOM     38 CL2  VHS d   1     -12.848 -13.959  10.583  0.00  0.00    -0.080 Cl
ATOM     39  C12 VHS d   1     -14.649 -12.434   9.421  0.00  0.00     0.138 A 
ATOM     40  F   VHS d   1     -13.806 -12.437   8.407  0.00  0.00    -0.204 F 
ATOM     41  C2  VHS d   1     -15.836 -11.726   9.323  0.00  0.00    -0.042 A 
ATOM     42  C3  VHS d   1     -16.716 -11.728  10.385  0.00  0.00    -0.058 A 
ATOM     43  H   VHS d   1     -16.071 -11.175   8.419  0.00  0.00     0.088 H 
ATOM     44  C13 VHS d   1     -16.403 -12.431  11.543  0.00  0.00     0.044 A 
ATOM     45  H   VHS d   1     -17.650 -11.182  10.317  0.00  0.00     0.086 H 
ATOM     46 CL   VHS d   1     -17.527 -12.353  12.758  0.00  0.00    -0.084 Cl
ENDBRANCH  34  36
BRANCH  34  47
ATOM     47  C1  VHS d   1     -13.846 -13.203  13.729  0.00  0.00    -0.048 C 
ATOM     48  H   VHS d   1     -13.658 -13.792  14.639  0.00  0.00     0.031 H 
ATOM     49  H   VHS d   1     -14.195 -12.198  14.008  0.00  0.00     0.031 H 
ATOM     50  H   VHS d   1     -12.916 -13.119  13.147  0.00  0.00     0.031 H 
ENDBRANCH  34  47
ENDBRANCH  33  34
ENDBRANCH   1  33
BRANCH   3  51
ATOM     51  N22 VHS d   1     -13.429 -17.622  12.356  0.00  0.00    -0.382 N 
ATOM     52  H   VHS d   1     -12.989 -18.548  12.256  0.00  0.00     0.157 HD
ATOM     53  H   VHS d   1     -12.911 -16.850  12.799  0.00  0.00     0.157 HD
ENDBRANCH   3  51
TORSDOF 7
