REMARK  18 active torsions:
REMARK  status: ('A' for Active; 'I' for Inactive)
REMARK    1  A    between atoms: OBJ_8  and  CBB_7 
REMARK    2  A    between atoms: CBB_7  and  CBP_10 
REMARK    3  A    between atoms: CBM_9  and  OBJ_8 
REMARK       I    between atoms: NBI_15  and  CBM_9 
REMARK    4  A    between atoms: PBY_12  and  CBX_14 
REMARK    5  A    between atoms: CBF_31  and  PBY_12 
REMARK    6  A    between atoms: CBX_14  and  NBI_15 
REMARK    7  A    between atoms: CBX_14  and  CBE_16 
REMARK    8  A    between atoms: CBE_16  and  CBQ_17 
REMARK    9  A    between atoms: CBS_35  and  CBC_30 
REMARK   10  A    between atoms: CBC_30  and  CBV_38 
REMARK   11  A    between atoms: CBV_38  and  CBF_31 
REMARK   12  A    between atoms: CBV_38  and  CBN_34 
REMARK       I    between atoms: CBN_34  and  N_39 
REMARK   13  A    between atoms: CBT_36  and  CBU_37 
REMARK   14  A    between atoms: N_39  and  CA_40 
REMARK   15  A    between atoms: CA_40  and  C_41 
REMARK   16  A    between atoms: CA_40  and  CB_43 
REMARK   17  A    between atoms: CB_43  and  CG_44 
REMARK   18  A    between atoms: CZ_49  and  OH_50 
ROOT
ATOM      1  CBV 3EF d   1      14.285  -8.259 -21.281  0.00  0.00     0.038 C 
ATOM      2  H27 3EF d   1      15.079  -7.555 -21.570  0.00  0.00     0.056 H 
ENDROOT
BRANCH   1   3
ATOM      3  CBC 3EF d   1      14.718  -9.726 -21.510  0.00  0.00    -0.006 C 
ATOM      4  H23 3EF d   1      15.430 -10.011 -20.722  0.00  0.00     0.044 H 
ATOM      5  H24 3EF d   1      13.828 -10.370 -21.450  0.00  0.00     0.044 H 
BRANCH   3   6
ATOM      6  CBS 3EF d   1      15.387  -9.936 -22.878  0.00  0.00     0.082 A 
ATOM      7  CBA 3EF d   1      15.161 -10.964 -23.726  0.00  0.00    -0.021 A 
ATOM      8  CBU 3EF d   1      15.931 -10.772 -24.808  0.00  0.00     0.097 A 
ATOM      9  H22 3EF d   1      14.478 -11.796 -23.561  0.00  0.00     0.091 H 
ATOM     10  NBG 3EF d   1      16.646  -9.663 -24.663  0.00  0.00    -0.128 NA
ATOM     11  OBK 3EF d   1      16.305  -9.077 -23.392  0.00  0.00    -0.217 OA
BRANCH   8  12
ATOM     12  CBT 3EF d   1      16.063 -11.568 -25.899  0.00  0.00    -0.005 A 
ATOM     13  CAU 3EF d   1      16.742 -11.091 -27.029  0.00  0.00    -0.071 A 
ATOM     14  CAO 3EF d   1      16.923 -11.906 -28.155  0.00  0.00    -0.082 A 
ATOM     15  H20 3EF d   1      17.132 -10.079 -27.032  0.00  0.00     0.084 H 
ATOM     16  CAJ 3EF d   1      16.437 -13.220 -28.155  0.00  0.00    -0.083 A 
ATOM     17  H18 3EF d   1      17.439 -11.519 -29.026  0.00  0.00     0.083 H 
ATOM     18  CAP 3EF d   1      15.775 -13.713 -27.026  0.00  0.00    -0.082 A 
ATOM     19  H17 3EF d   1      16.573 -13.851 -29.026  0.00  0.00     0.083 H 
ATOM     20  CAV 3EF d   1      15.598 -12.888 -25.905  0.00  0.00    -0.071 A 
ATOM     21  H19 3EF d   1      15.400 -14.730 -27.017  0.00  0.00     0.083 H 
ATOM     22  H21 3EF d   1      15.093 -13.279 -25.029  0.00  0.00     0.084 H 
ENDBRANCH   8  12
ENDBRANCH   3   6
ENDBRANCH   1   3
BRANCH   1  23
ATOM     23  CBF 3EF d   1      13.933  -8.123 -19.802  0.00  0.00     0.021 C 
ATOM     24  H25 3EF d   1      12.901  -8.470 -19.644  0.00  0.00     0.050 H 
ATOM     25  H26 3EF d   1      14.623  -8.742 -19.209  0.00  0.00     0.050 H 
BRANCH  23  26
ATOM     26  PBY 3EF d   1      14.067  -6.424 -19.270  0.00  0.00     0.130 P 
ATOM     27  OAD 3EF d   1      13.585  -5.504 -20.328  0.00  0.00    -0.666 OA
ATOM     28  OAG 3EF d   1      15.461  -6.218 -18.809  0.00  0.00    -0.666 OA
BRANCH  26  29
ATOM     29  CBX 3EF d   1      13.001  -6.255 -17.798  0.00  0.00     0.093 C 
ATOM     30  H8  3EF d   1      13.353  -6.928 -17.003  0.00  0.00     0.089 H 
BRANCH  29  31
ATOM     31  NBI 3EF d   1      13.140  -4.844 -17.408  0.00  0.00    -0.322 N 
ATOM     32  CBM 3EF d   1      13.875  -4.428 -16.371  0.00  0.00     0.361 C 
ATOM     33  OAB 3EF d   1      14.530  -5.231 -15.687  0.00  0.00    -0.238 OA
ATOM     34  H9  3EF d   1      12.657  -4.156 -17.949  0.00  0.00     0.165 HD
BRANCH  32  35
ATOM     35  OBJ 3EF d   1      13.874  -3.098 -16.118  0.00  0.00    -0.299 OA
BRANCH  35  36
ATOM     36  CBB 3EF d   1      14.766  -2.590 -15.090  0.00  0.00     0.054 C 
ATOM     37  H6  3EF d   1      15.812  -2.731 -15.401  0.00  0.00     0.082 H 
ATOM     38  H7  3EF d   1      14.589  -3.126 -14.146  0.00  0.00     0.082 H 
BRANCH  36  39
ATOM     39  CBP 3EF d   1      14.498  -1.204 -14.915  0.00  0.00    -0.034 A 
ATOM     40  CAQ 3EF d   1      14.201  -0.694 -13.650  0.00  0.00    -0.075 A 
ATOM     41  CAK 3EF d   1      13.948   0.672 -13.480  0.00  0.00    -0.082 A 
ATOM     42  H4  3EF d   1      14.166  -1.359 -12.795  0.00  0.00     0.084 H 
ATOM     43  CAH 3EF d   1      13.972   1.538 -14.573  0.00  0.00    -0.083 A 
ATOM     44  H2  3EF d   1      13.732   1.060 -12.491  0.00  0.00     0.083 H 
ATOM     45  CAL 3EF d   1      14.262   1.035 -15.835  0.00  0.00    -0.082 A 
ATOM     46  H1  3EF d   1      13.766   2.594 -14.439  0.00  0.00     0.083 H 
ATOM     47  CAR 3EF d   1      14.524  -0.333 -16.007  0.00  0.00    -0.075 A 
ATOM     48  H3  3EF d   1      14.286   1.701 -16.690  0.00  0.00     0.083 H 
ATOM     49  H5  3EF d   1      14.748  -0.717 -16.995  0.00  0.00     0.084 H 
ENDBRANCH  36  39
ENDBRANCH  35  36
ENDBRANCH  32  35
ENDBRANCH  29  31
BRANCH  29  50
ATOM     50  CBE 3EF d   1      11.502  -6.510 -18.056  0.00  0.00    -0.013 C 
ATOM     51  H10 3EF d   1      11.366  -7.541 -18.414  0.00  0.00     0.044 H 
ATOM     52  H11 3EF d   1      11.140  -5.806 -18.820  0.00  0.00     0.044 H 
BRANCH  50  53
ATOM     53  CBQ 3EF d   1      10.754  -6.327 -16.856  0.00  0.00    -0.056 A 
ATOM     54  CAS 3EF d   1      10.519  -7.410 -16.007  0.00  0.00    -0.077 A 
ATOM     55  CAM 3EF d   1       9.794  -7.259 -14.818  0.00  0.00    -0.082 A 
ATOM     56  H12 3EF d   1      10.905  -8.387 -16.273  0.00  0.00     0.084 H 
ATOM     57  CAI 3EF d   1       9.302  -5.997 -14.456  0.00  0.00    -0.083 A 
ATOM     58  H13 3EF d   1       9.614  -8.116 -14.179  0.00  0.00     0.083 H 
ATOM     59  CAN 3EF d   1       9.548  -4.891 -15.284  0.00  0.00    -0.082 A 
ATOM     60  H14 3EF d   1       8.734  -5.876 -13.541  0.00  0.00     0.083 H 
ATOM     61  CAT 3EF d   1      10.260  -5.061 -16.480  0.00  0.00    -0.077 A 
ATOM     62  H15 3EF d   1       9.189  -3.909 -15.000  0.00  0.00     0.083 H 
ATOM     63  H16 3EF d   1      10.433  -4.207 -17.125  0.00  0.00     0.084 H 
ENDBRANCH  50  53
ENDBRANCH  29  50
ENDBRANCH  26  29
ENDBRANCH  23  26
ENDBRANCH   1  23
BRANCH   1  64
ATOM     64  CBN 3EF d   1      13.014  -8.025 -22.093  0.00  0.00     0.223 C 
ATOM     65  OAC 3EF d   1      11.893  -8.126 -21.585  0.00  0.00    -0.273 OA
ATOM     66  N   3EF d   1      13.222  -7.732 -23.380  0.00  0.00    -0.346 N 
ATOM     67  H28 3EF d   1      14.157  -7.616 -23.716  0.00  0.00     0.163 HD
BRANCH  66  68
ATOM     68  CA  3EF d   1      12.102  -7.579 -24.300  0.00  0.00     0.100 C 
ATOM     69  H29 3EF d   1      11.324  -6.975 -23.810  0.00  0.00     0.090 H 
BRANCH  68  70
ATOM     70  C   3EF d   1      11.514  -8.980 -24.618  0.00  0.00     0.197 C 
ATOM     71  O   3EF d   1      10.499  -9.012 -25.334  0.00  0.00    -0.646 OA
ATOM     72  OXT 3EF d   1      12.067  -9.992 -24.100  0.00  0.00    -0.646 OA
ENDBRANCH  68  70
BRANCH  68  73
ATOM     73  CB  3EF d   1      12.537  -6.853 -25.585  0.00  0.00    -0.013 C 
ATOM     74  H30 3EF d   1      12.474  -5.775 -25.373  0.00  0.00     0.043 H 
ATOM     75  H31 3EF d   1      11.802  -7.118 -26.359  0.00  0.00     0.043 H 
BRANCH  73  76
ATOM     76  CG  3EF d   1      13.799  -7.077 -26.140  0.00  0.00    -0.056 A 
ATOM     77  CD1 3EF d   1      13.942  -7.962 -27.213  0.00  0.00    -0.074 A 
ATOM     78  CE1 3EF d   1      15.203  -8.165 -27.792  0.00  0.00    -0.051 A 
ATOM     79  H32 3EF d   1      13.078  -8.491 -27.598  0.00  0.00     0.084 H 
ATOM     80  CZ  3EF d   1      16.320  -7.469 -27.311  0.00  0.00     0.065 A 
ATOM     81  H34 3EF d   1      15.314  -8.863 -28.614  0.00  0.00     0.087 H 
ATOM     82  CE2 3EF d   1      16.177  -6.578 -26.247  0.00  0.00    -0.051 A 
ATOM     83  CD2 3EF d   1      14.921  -6.374 -25.666  0.00  0.00    -0.074 A 
ATOM     84  H35 3EF d   1      17.041  -6.043 -25.870  0.00  0.00     0.087 H 
ATOM     85  H33 3EF d   1      14.812  -5.672 -24.848  0.00  0.00     0.084 H 
BRANCH  80  86
ATOM     86  OH  3EF d   1      17.549  -7.661 -27.888  0.00  0.00    -0.361 OA
ATOM     87  H36 3EF d   1      17.472  -8.294 -28.592  0.00  0.00     0.217 HD
ENDBRANCH  80  86
ENDBRANCH  73  76
ENDBRANCH  68  73
ENDBRANCH  66  68
ENDBRANCH   1  64
TORSDOF 18
