REMARK  18 active torsions:
REMARK  status: ('A' for Active; 'I' for Inactive)
REMARK    1  A    between atoms: OBJ_8  and  CBB_7 
REMARK    2  A    between atoms: CBB_7  and  CBP_10 
REMARK    3  A    between atoms: CBM_9  and  OBJ_8 
REMARK       I    between atoms: NBI_15  and  CBM_9 
REMARK    4  A    between atoms: PBY_12  and  CBX_14 
REMARK    5  A    between atoms: CBF_31  and  PBY_12 
REMARK    6  A    between atoms: CBX_14  and  NBI_15 
REMARK    7  A    between atoms: CBX_14  and  CBE_16 
REMARK    8  A    between atoms: CBE_16  and  CBQ_17 
REMARK    9  A    between atoms: CBS_35  and  CBC_30 
REMARK   10  A    between atoms: CBC_30  and  CBV_38 
REMARK   11  A    between atoms: CBV_38  and  CBF_31 
REMARK   12  A    between atoms: CBV_38  and  CBN_34 
REMARK       I    between atoms: CBN_34  and  N_39 
REMARK   13  A    between atoms: CBT_36  and  CBU_37 
REMARK   14  A    between atoms: N_39  and  CA_40 
REMARK   15  A    between atoms: CA_40  and  C_41 
REMARK   16  A    between atoms: CA_40  and  CB_43 
REMARK   17  A    between atoms: CB_43  and  CG_44 
REMARK   18  A    between atoms: CZ_49  and  OH_50 
ROOT
ATOM      1  CBV 3EF d   1       2.017 -16.096 -23.019  0.00  0.00     0.038 C 
ATOM      2  H27 3EF d   1       2.346 -17.045 -22.572  0.00  0.00     0.056 H 
ENDROOT
BRANCH   1   3
ATOM      3  CBC 3EF d   1       2.949 -15.661 -24.155  0.00  0.00    -0.006 C 
ATOM      4  H23 3EF d   1       2.799 -16.347 -25.002  0.00  0.00     0.044 H 
ATOM      5  H24 3EF d   1       2.669 -14.641 -24.455  0.00  0.00     0.044 H 
BRANCH   3   6
ATOM      6  CBS 3EF d   1       4.444 -15.661 -23.799  0.00  0.00     0.082 A 
ATOM      7  CBA 3EF d   1       5.162 -16.709 -23.368  0.00  0.00    -0.021 A 
ATOM      8  CBU 3EF d   1       6.455 -16.372 -23.139  0.00  0.00     0.097 A 
ATOM      9  H22 3EF d   1       4.756 -17.709 -23.220  0.00  0.00     0.091 H 
ATOM     10  NBG 3EF d   1       6.657 -15.093 -23.433  0.00  0.00    -0.128 NA
ATOM     11  OBK 3EF d   1       5.199 -14.579 -23.910  0.00  0.00    -0.217 OA
BRANCH   8  12
ATOM     12  CBT 3EF d   1       7.418 -17.216 -22.752  0.00  0.00    -0.005 A 
ATOM     13  CAU 3EF d   1       7.104 -18.496 -22.302  0.00  0.00    -0.071 A 
ATOM     14  CAO 3EF d   1       8.109 -19.396 -21.936  0.00  0.00    -0.082 A 
ATOM     15  H20 3EF d   1       6.065 -18.799 -22.235  0.00  0.00     0.084 H 
ATOM     16  CAJ 3EF d   1       9.453 -19.024 -22.040  0.00  0.00    -0.083 A 
ATOM     17  H18 3EF d   1       7.846 -20.383 -21.572  0.00  0.00     0.083 H 
ATOM     18  CAP 3EF d   1       9.779 -17.745 -22.503  0.00  0.00    -0.082 A 
ATOM     19  H17 3EF d   1      10.236 -19.721 -21.764  0.00  0.00     0.083 H 
ATOM     20  CAV 3EF d   1       8.769 -16.854 -22.861  0.00  0.00    -0.071 A 
ATOM     21  H19 3EF d   1      10.818 -17.447 -22.583  0.00  0.00     0.083 H 
ATOM     22  H21 3EF d   1       9.031 -15.868 -23.229  0.00  0.00     0.084 H 
ENDBRANCH   8  12
ENDBRANCH   3   6
ENDBRANCH   1   3
BRANCH   1  23
ATOM     23  CBF 3EF d   1       0.615 -16.231 -23.664  0.00  0.00     0.021 C 
ATOM     24  H25 3EF d   1       0.112 -15.254 -23.630  0.00  0.00     0.050 H 
ATOM     25  H26 3EF d   1       0.734 -16.547 -24.711  0.00  0.00     0.050 H 
BRANCH  23  26
ATOM     26  PBY 3EF d   1      -0.380 -17.414 -22.821  0.00  0.00     0.130 P 
ATOM     27  OAD 3EF d   1      -0.188 -17.358 -21.350  0.00  0.00    -0.666 OA
ATOM     28  OAG 3EF d   1      -0.213 -18.729 -23.463  0.00  0.00    -0.666 OA
BRANCH  26  29
ATOM     29  CBX 3EF d   1      -2.086 -16.860 -23.231  0.00  0.00     0.093 C 
ATOM     30  H8  3EF d   1      -2.274 -17.008 -24.305  0.00  0.00     0.089 H 
BRANCH  29  31
ATOM     31  NBI 3EF d   1      -2.955 -17.715 -22.421  0.00  0.00    -0.322 N 
ATOM     32  CBM 3EF d   1      -3.532 -18.841 -22.876  0.00  0.00     0.361 C 
ATOM     33  OAB 3EF d   1      -3.378 -19.217 -24.047  0.00  0.00    -0.238 OA
ATOM     34  H9  3EF d   1      -3.130 -17.446 -21.474  0.00  0.00     0.165 HD
BRANCH  32  35
ATOM     35  OBJ 3EF d   1      -4.331 -19.511 -22.005  0.00  0.00    -0.299 OA
BRANCH  35  36
ATOM     36  CBB 3EF d   1      -4.427 -20.943 -22.017  0.00  0.00     0.054 C 
ATOM     37  H6  3EF d   1      -3.429 -21.385 -22.152  0.00  0.00     0.082 H 
ATOM     38  H7  3EF d   1      -5.086 -21.268 -22.836  0.00  0.00     0.082 H 
BRANCH  36  39
ATOM     39  CBP 3EF d   1      -4.967 -21.343 -20.777  0.00  0.00    -0.034 A 
ATOM     40  CAQ 3EF d   1      -6.102 -22.172 -20.736  0.00  0.00    -0.075 A 
ATOM     41  CAK 3EF d   1      -6.640 -22.563 -19.502  0.00  0.00    -0.082 A 
ATOM     42  H4  3EF d   1      -6.561 -22.509 -21.659  0.00  0.00     0.084 H 
ATOM     43  CAH 3EF d   1      -6.045 -22.120 -18.319  0.00  0.00    -0.083 A 
ATOM     44  H2  3EF d   1      -7.513 -23.205 -19.466  0.00  0.00     0.083 H 
ATOM     45  CAL 3EF d   1      -4.917 -21.293 -18.348  0.00  0.00    -0.082 A 
ATOM     46  H1  3EF d   1      -6.463 -22.421 -17.365  0.00  0.00     0.083 H 
ATOM     47  CAR 3EF d   1      -4.377 -20.902 -19.580  0.00  0.00    -0.075 A 
ATOM     48  H3  3EF d   1      -4.463 -20.957 -17.423  0.00  0.00     0.083 H 
ATOM     49  H5  3EF d   1      -3.504 -20.259 -19.610  0.00  0.00     0.084 H 
ENDBRANCH  36  39
ENDBRANCH  35  36
ENDBRANCH  32  35
ENDBRANCH  29  31
BRANCH  29  50
ATOM     50  CBE 3EF d   1      -2.399 -15.387 -22.862  0.00  0.00    -0.013 C 
ATOM     51  H10 3EF d   1      -1.742 -14.726 -23.446  0.00  0.00     0.044 H 
ATOM     52  H11 3EF d   1      -2.208 -15.240 -21.789  0.00  0.00     0.044 H 
BRANCH  50  53
ATOM     53  CBQ 3EF d   1      -3.756 -15.053 -23.140  0.00  0.00    -0.056 A 
ATOM     54  CAS 3EF d   1      -4.151 -14.645 -24.415  0.00  0.00    -0.077 A 
ATOM     55  CAM 3EF d   1      -5.485 -14.299 -24.688  0.00  0.00    -0.082 A 
ATOM     56  H12 3EF d   1      -3.415 -14.594 -25.209  0.00  0.00     0.084 H 
ATOM     57  CAI 3EF d   1      -6.457 -14.368 -23.687  0.00  0.00    -0.083 A 
ATOM     58  H13 3EF d   1      -5.763 -13.976 -25.685  0.00  0.00     0.083 H 
ATOM     59  CAN 3EF d   1      -6.070 -14.781 -22.411  0.00  0.00    -0.082 A 
ATOM     60  H14 3EF d   1      -7.488 -14.107 -23.896  0.00  0.00     0.083 H 
ATOM     61  CAT 3EF d   1      -4.735 -15.118 -22.134  0.00  0.00    -0.077 A 
ATOM     62  H15 3EF d   1      -6.811 -14.842 -21.622  0.00  0.00     0.083 H 
ATOM     63  H16 3EF d   1      -4.457 -15.431 -21.134  0.00  0.00     0.084 H 
ENDBRANCH  50  53
ENDBRANCH  29  50
ENDBRANCH  26  29
ENDBRANCH  23  26
ENDBRANCH   1  23
BRANCH   1  64
ATOM     64  CBN 3EF d   1       1.968 -14.994 -21.968  0.00  0.00     0.223 C 
ATOM     65  OAC 3EF d   1       1.090 -14.130 -22.013  0.00  0.00    -0.273 OA
ATOM     66  N   3EF d   1       2.934 -15.012 -21.037  0.00  0.00    -0.346 N 
ATOM     67  H28 3EF d   1       3.595 -15.762 -21.035  0.00  0.00     0.163 HD
BRANCH  66  68
ATOM     68  CA  3EF d   1       3.046 -13.951 -20.013  0.00  0.00     0.100 C 
ATOM     69  H29 3EF d   1       2.037 -13.742 -19.630  0.00  0.00     0.090 H 
BRANCH  68  70
ATOM     70  C   3EF d   1       3.613 -12.676 -20.657  0.00  0.00     0.197 C 
ATOM     71  O   3EF d   1       3.525 -11.617 -19.999  0.00  0.00    -0.646 OA
ATOM     72  OXT 3EF d   1       4.118 -12.785 -21.798  0.00  0.00    -0.646 OA
ENDBRANCH  68  70
BRANCH  68  73
ATOM     73  CB  3EF d   1       3.942 -14.328 -18.824  0.00  0.00    -0.013 C 
ATOM     74  H30 3EF d   1       3.275 -14.691 -18.028  0.00  0.00     0.043 H 
ATOM     75  H31 3EF d   1       4.436 -13.402 -18.494  0.00  0.00     0.043 H 
BRANCH  73  76
ATOM     76  CG  3EF d   1       4.944 -15.284 -18.974  0.00  0.00    -0.056 A 
ATOM     77  CD1 3EF d   1       6.281 -14.908 -19.142  0.00  0.00    -0.074 A 
ATOM     78  CE1 3EF d   1       7.272 -15.891 -19.263  0.00  0.00    -0.051 A 
ATOM     79  H32 3EF d   1       6.550 -13.858 -19.178  0.00  0.00     0.084 H 
ATOM     80  CZ  3EF d   1       6.920 -17.246 -19.201  0.00  0.00     0.065 A 
ATOM     81  H34 3EF d   1       8.308 -15.604 -19.404  0.00  0.00     0.087 H 
ATOM     82  CE2 3EF d   1       5.591 -17.618 -19.023  0.00  0.00    -0.051 A 
ATOM     83  CD2 3EF d   1       4.609 -16.639 -18.907  0.00  0.00    -0.074 A 
ATOM     84  H35 3EF d   1       5.322 -18.667 -18.975  0.00  0.00     0.087 H 
ATOM     85  H33 3EF d   1       3.575 -16.930 -18.763  0.00  0.00     0.084 H 
BRANCH  80  86
ATOM     86  OH  3EF d   1       7.866 -18.227 -19.305  0.00  0.00    -0.361 OA
ATOM     87  H36 3EF d   1       8.721 -17.830 -19.422  0.00  0.00     0.217 HD
ENDBRANCH  80  86
ENDBRANCH  73  76
ENDBRANCH  68  73
ENDBRANCH  66  68
ENDBRANCH   1  64
TORSDOF 18
