REMARK  18 active torsions:
REMARK  status: ('A' for Active; 'I' for Inactive)
REMARK    1  A    between atoms: OBJ_8  and  CBB_7 
REMARK    2  A    between atoms: CBB_7  and  CBP_10 
REMARK    3  A    between atoms: CBM_9  and  OBJ_8 
REMARK       I    between atoms: NBI_15  and  CBM_9 
REMARK    4  A    between atoms: PBY_12  and  CBX_14 
REMARK    5  A    between atoms: CBF_31  and  PBY_12 
REMARK    6  A    between atoms: CBX_14  and  NBI_15 
REMARK    7  A    between atoms: CBX_14  and  CBE_16 
REMARK    8  A    between atoms: CBE_16  and  CBQ_17 
REMARK    9  A    between atoms: CBS_35  and  CBC_30 
REMARK   10  A    between atoms: CBC_30  and  CBV_38 
REMARK   11  A    between atoms: CBV_38  and  CBF_31 
REMARK   12  A    between atoms: CBV_38  and  CBN_34 
REMARK       I    between atoms: CBN_34  and  N_39 
REMARK   13  A    between atoms: CBT_36  and  CBU_37 
REMARK   14  A    between atoms: N_39  and  CA_40 
REMARK   15  A    between atoms: CA_40  and  C_41 
REMARK   16  A    between atoms: CA_40  and  CB_43 
REMARK   17  A    between atoms: CB_43  and  CG_44 
REMARK   18  A    between atoms: CZ_49  and  OH_50 
ROOT
ATOM      1  CBV 3EF d   1      27.477  -3.788   9.593  0.00  0.00     0.038 C 
ATOM      2  H27 3EF d   1      27.154  -4.232  10.546  0.00  0.00     0.056 H 
ENDROOT
BRANCH   1   3
ATOM      3  CBC 3EF d   1      27.021  -4.684   8.419  0.00  0.00    -0.006 C 
ATOM      4  H23 3EF d   1      25.930  -4.588   8.311  0.00  0.00     0.044 H 
ATOM      5  H24 3EF d   1      27.513  -4.331   7.501  0.00  0.00     0.044 H 
BRANCH   3   6
ATOM      6  CBS 3EF d   1      27.362  -6.175   8.612  0.00  0.00     0.082 A 
ATOM      7  CBA 3EF d   1      26.970  -6.981   9.618  0.00  0.00    -0.021 A 
ATOM      8  CBU 3EF d   1      27.475  -8.215   9.419  0.00  0.00     0.097 A 
ATOM      9  H22 3EF d   1      26.345  -6.683  10.458  0.00  0.00     0.091 H 
ATOM     10  NBG 3EF d   1      28.200  -8.248   8.302  0.00  0.00    -0.128 NA
ATOM     11  OBK 3EF d   1      28.108  -6.846   7.749  0.00  0.00    -0.217 OA
BRANCH   8  12
ATOM     12  CBT 3EF d   1      27.301  -9.290  10.192  0.00  0.00    -0.005 A 
ATOM     13  CAU 3EF d   1      26.816  -9.185  11.496  0.00  0.00    -0.071 A 
ATOM     14  CAO 3EF d   1      26.639 -10.337  12.273  0.00  0.00    -0.082 A 
ATOM     15  H20 3EF d   1      26.576  -8.211  11.908  0.00  0.00     0.084 H 
ATOM     16  CAJ 3EF d   1      26.953 -11.599  11.753  0.00  0.00    -0.083 A 
ATOM     17  H18 3EF d   1      26.256 -10.251  13.284  0.00  0.00     0.083 H 
ATOM     18  CAP 3EF d   1      27.432 -11.712  10.444  0.00  0.00    -0.082 A 
ATOM     19  H17 3EF d   1      26.825 -12.486  12.363  0.00  0.00     0.083 H 
ATOM     20  CAV 3EF d   1      27.601 -10.561   9.675  0.00  0.00    -0.071 A 
ATOM     21  H19 3EF d   1      27.670 -12.685  10.031  0.00  0.00     0.083 H 
ATOM     22  H21 3EF d   1      27.971 -10.649   8.660  0.00  0.00     0.084 H 
ENDBRANCH   8  12
ENDBRANCH   3   6
ENDBRANCH   1   3
BRANCH   1  23
ATOM     23  CBF 3EF d   1      26.829  -2.396   9.411  0.00  0.00     0.021 C 
ATOM     24  H25 3EF d   1      27.451  -1.793   8.733  0.00  0.00     0.050 H 
ATOM     25  H26 3EF d   1      25.826  -2.518   8.977  0.00  0.00     0.050 H 
BRANCH  23  26
ATOM     26  PBY 3EF d   1      26.685  -1.519  11.059  0.00  0.00     0.130 P 
ATOM     27  OAD 3EF d   1      27.902  -1.803  11.838  0.00  0.00    -0.666 OA
ATOM     28  OAG 3EF d   1      25.374  -1.902  11.619  0.00  0.00    -0.666 OA
BRANCH  26  29
ATOM     29  CBX 3EF d   1      26.629   0.259  10.575  0.00  0.00     0.093 C 
ATOM     30  H8  3EF d   1      25.747   0.432   9.941  0.00  0.00     0.089 H 
BRANCH  29  31
ATOM     31  NBI 3EF d   1      26.503   0.965  11.845  0.00  0.00    -0.322 N 
ATOM     32  CBM 3EF d   1      25.376   1.547  12.253  0.00  0.00     0.361 C 
ATOM     33  OAB 3EF d   1      24.348   1.495  11.567  0.00  0.00    -0.238 OA
ATOM     34  H9  3EF d   1      27.305   1.015  12.441  0.00  0.00     0.165 HD
BRANCH  32  35
ATOM     35  OBJ 3EF d   1      25.407   2.186  13.463  0.00  0.00    -0.299 OA
BRANCH  35  36
ATOM     36  CBB 3EF d   1      24.191   2.719  14.016  0.00  0.00     0.054 C 
ATOM     37  H6  3EF d   1      23.480   1.903  14.212  0.00  0.00     0.082 H 
ATOM     38  H7  3EF d   1      23.742   3.436  13.312  0.00  0.00     0.082 H 
BRANCH  36  39
ATOM     39  CBP 3EF d   1      24.518   3.374  15.228  0.00  0.00    -0.034 A 
ATOM     40  CAQ 3EF d   1      23.914   4.597  15.546  0.00  0.00    -0.075 A 
ATOM     41  CAK 3EF d   1      24.236   5.247  16.744  0.00  0.00    -0.082 A 
ATOM     42  H4  3EF d   1      23.197   5.041  14.865  0.00  0.00     0.084 H 
ATOM     43  CAH 3EF d   1      25.173   4.682  17.613  0.00  0.00    -0.083 A 
ATOM     44  H2  3EF d   1      23.759   6.187  16.997  0.00  0.00     0.083 H 
ATOM     45  CAL 3EF d   1      25.794   3.469  17.290  0.00  0.00    -0.082 A 
ATOM     46  H1  3EF d   1      25.420   5.185  18.541  0.00  0.00     0.083 H 
ATOM     47  CAR 3EF d   1      25.466   2.813  16.092  0.00  0.00    -0.075 A 
ATOM     48  H3  3EF d   1      26.526   3.037  17.963  0.00  0.00     0.083 H 
ATOM     49  H5  3EF d   1      25.946   1.875  15.837  0.00  0.00     0.084 H 
ENDBRANCH  36  39
ENDBRANCH  35  36
ENDBRANCH  32  35
ENDBRANCH  29  31
BRANCH  29  50
ATOM     50  CBE 3EF d   1      27.880   0.815   9.838  0.00  0.00    -0.013 C 
ATOM     51  H10 3EF d   1      27.970   0.326   8.857  0.00  0.00     0.044 H 
ATOM     52  H11 3EF d   1      28.778   0.603  10.437  0.00  0.00     0.044 H 
BRANCH  50  53
ATOM     53  CBQ 3EF d   1      27.762   2.223   9.651  0.00  0.00    -0.056 A 
ATOM     54  CAS 3EF d   1      27.117   2.743   8.523  0.00  0.00    -0.077 A 
ATOM     55  CAM 3EF d   1      26.987   4.127   8.343  0.00  0.00    -0.082 A 
ATOM     56  H12 3EF d   1      26.713   2.067   7.779  0.00  0.00     0.084 H 
ATOM     57  CAI 3EF d   1      27.520   5.021   9.281  0.00  0.00    -0.083 A 
ATOM     58  H13 3EF d   1      26.470   4.509   7.470  0.00  0.00     0.083 H 
ATOM     59  CAN 3EF d   1      28.176   4.511  10.418  0.00  0.00    -0.082 A 
ATOM     60  H14 3EF d   1      27.429   6.091   9.133  0.00  0.00     0.083 H 
ATOM     61  CAT 3EF d   1      28.294   3.129  10.588  0.00  0.00    -0.077 A 
ATOM     62  H15 3EF d   1      28.588   5.188  11.158  0.00  0.00     0.083 H 
ATOM     63  H16 3EF d   1      28.807   2.745  11.462  0.00  0.00     0.084 H 
ENDBRANCH  50  53
ENDBRANCH  29  50
ENDBRANCH  26  29
ENDBRANCH  23  26
ENDBRANCH   1  23
BRANCH   1  64
ATOM     64  CBN 3EF d   1      29.012  -3.635   9.590  0.00  0.00     0.223 C 
ATOM     65  OAC 3EF d   1      29.525  -2.579   9.209  0.00  0.00    -0.273 OA
ATOM     66  N   3EF d   1      29.728  -4.710   9.978  0.00  0.00    -0.346 N 
ATOM     67  H28 3EF d   1      29.253  -5.535  10.284  0.00  0.00     0.163 HD
BRANCH  66  68
ATOM     68  CA  3EF d   1      31.219  -4.685   9.956  0.00  0.00     0.100 C 
ATOM     69  H29 3EF d   1      31.549  -3.791  10.505  0.00  0.00     0.090 H 
BRANCH  68  70
ATOM     70  C   3EF d   1      31.756  -4.638   8.500  0.00  0.00     0.197 C 
ATOM     71  O   3EF d   1      33.001  -4.537   8.345  0.00  0.00    -0.646 OA
ATOM     72  OXT 3EF d   1      30.914  -4.719   7.572  0.00  0.00    -0.646 OA
ENDBRANCH  68  70
BRANCH  68  73
ATOM     73  CB  3EF d   1      31.886  -5.920  10.564  0.00  0.00    -0.013 C 
ATOM     74  H30 3EF d   1      32.651  -5.535  11.254  0.00  0.00     0.043 H 
ATOM     75  H31 3EF d   1      32.376  -6.436   9.725  0.00  0.00     0.043 H 
BRANCH  73  76
ATOM     76  CG  3EF d   1      31.209  -6.910  11.269  0.00  0.00    -0.056 A 
ATOM     77  CD1 3EF d   1      31.271  -8.232  10.813  0.00  0.00    -0.074 A 
ATOM     78  CE1 3EF d   1      30.638  -9.253  11.537  0.00  0.00    -0.051 A 
ATOM     79  H32 3EF d   1      31.808  -8.466   9.901  0.00  0.00     0.084 H 
ATOM     80  CZ  3EF d   1      29.973  -8.935  12.727  0.00  0.00     0.065 A 
ATOM     81  H34 3EF d   1      30.663 -10.276  11.179  0.00  0.00     0.087 H 
ATOM     82  CE2 3EF d   1      29.919  -7.618  13.183  0.00  0.00    -0.051 A 
ATOM     83  CD2 3EF d   1      30.547  -6.600  12.463  0.00  0.00    -0.074 A 
ATOM     84  H35 3EF d   1      29.388  -7.384  14.099  0.00  0.00     0.087 H 
ATOM     85  H33 3EF d   1      30.522  -5.579  12.825  0.00  0.00     0.084 H 
BRANCH  80  86
ATOM     86  OH  3EF d   1      29.360  -9.905  13.459  0.00  0.00    -0.361 OA
ATOM     87  H36 3EF d   1      29.478 -10.745  13.031  0.00  0.00     0.217 HD
ENDBRANCH  80  86
ENDBRANCH  73  76
ENDBRANCH  68  73
ENDBRANCH  66  68
ENDBRANCH   1  64
TORSDOF 18
