REMARK  18 active torsions:
REMARK  status: ('A' for Active; 'I' for Inactive)
REMARK    1  A    between atoms: CBM_1  and  OBJ_3 
REMARK       I    between atoms: NBI_15  and  CBM_1 
REMARK    2  A    between atoms: OBJ_3  and  CBB_4 
REMARK    3  A    between atoms: CBB_4  and  CBP_5 
REMARK    4  A    between atoms: PBY_12  and  CBX_14 
REMARK    5  A    between atoms: CBF_35  and  PBY_12 
REMARK    6  A    between atoms: CBX_14  and  NBI_15 
REMARK    7  A    between atoms: CBX_14  and  CBE_16 
REMARK    8  A    between atoms: CBE_16  and  CBQ_17 
REMARK    9  A    between atoms: CBC_23  and  CBS_24 
REMARK   10  A    between atoms: CBV_36  and  CBC_23 
REMARK   11  A    between atoms: CBU_28  and  CBT_29 
REMARK   12  A    between atoms: CBF_35  and  CBV_36 
REMARK   13  A    between atoms: CBV_36  and  CBN_37 
REMARK       I    between atoms: CBN_37  and  N_39 
REMARK   14  A    between atoms: N_39  and  CA_40 
REMARK   15  A    between atoms: CA_40  and  C_41 
REMARK   16  A    between atoms: CA_40  and  CB_43 
REMARK   17  A    between atoms: CB_43  and  CG_44 
REMARK   18  A    between atoms: CZ_49  and  OH_50 
ROOT
ATOM      1  CBV 3ES d   1      27.286   4.064 -42.032  0.00  0.00     0.038 C 
ATOM      2  H27 3ES d   1      27.125   4.549 -41.058  0.00  0.00     0.056 H 
ENDROOT
BRANCH   1   3
ATOM      3  CBC 3ES d   1      26.619   4.937 -43.096  0.00  0.00    -0.006 C 
ATOM      4  H17 3ES d   1      27.035   4.660 -44.076  0.00  0.00     0.044 H 
ATOM      5  H18 3ES d   1      25.539   4.727 -43.083  0.00  0.00     0.044 H 
BRANCH   3   6
ATOM      6  CBS 3ES d   1      26.817   6.472 -42.901  0.00  0.00     0.082 A 
ATOM      7  CBA 3ES d   1      27.338   7.128 -41.869  0.00  0.00    -0.021 A 
ATOM      8  CBU 3ES d   1      27.356   8.443 -42.176  0.00  0.00     0.097 A 
ATOM      9  H19 3ES d   1      27.689   6.683 -40.939  0.00  0.00     0.091 H 
ATOM     10  NBG 3ES d   1      26.861   8.694 -43.386  0.00  0.00    -0.128 NA
ATOM     11  OBK 3ES d   1      26.503   7.390 -43.869  0.00  0.00    -0.217 OA
BRANCH   8  12
ATOM     12  CBT 3ES d   1      27.824   9.410 -41.389  0.00  0.00    -0.005 A 
ATOM     13  CAU 3ES d   1      28.801   9.123 -40.424  0.00  0.00    -0.071 A 
ATOM     14  CAO 3ES d   1      29.292  10.145 -39.616  0.00  0.00    -0.082 A 
ATOM     15  H20 3ES d   1      29.172   8.111 -40.308  0.00  0.00     0.084 H 
ATOM     16  CAJ 3ES d   1      28.825  11.449 -39.782  0.00  0.00    -0.083 A 
ATOM     17  H21 3ES d   1      30.037   9.928 -38.859  0.00  0.00     0.083 H 
ATOM     18  CAP 3ES d   1      27.870  11.741 -40.757  0.00  0.00    -0.082 A 
ATOM     19  H22 3ES d   1      29.207  12.242 -39.149  0.00  0.00     0.083 H 
ATOM     20  CAV 3ES d   1      27.372  10.725 -41.571  0.00  0.00    -0.071 A 
ATOM     21  H23 3ES d   1      27.516  12.758 -40.881  0.00  0.00     0.083 H 
ATOM     22  H24 3ES d   1      26.641  10.950 -42.339  0.00  0.00     0.084 H 
ENDBRANCH   8  12
ENDBRANCH   3   6
ENDBRANCH   1   3
BRANCH   1  23
ATOM     23  CBF 3ES d   1      26.605   2.658 -42.012  0.00  0.00     0.021 C 
ATOM     24  H25 3ES d   1      27.165   2.010 -41.322  0.00  0.00     0.050 H 
ATOM     25  H26 3ES d   1      25.574   2.776 -41.648  0.00  0.00     0.050 H 
BRANCH  23  26
ATOM     26  PBY 3ES d   1      26.548   1.800 -43.747  0.00  0.00     0.130 P 
ATOM     27  OAD 3ES d   1      25.264   2.141 -44.355  0.00  0.00    -0.666 OA
ATOM     28  OAG 3ES d   1      27.817   2.091 -44.423  0.00  0.00    -0.666 OA
BRANCH  26  29
ATOM     29  CBX 3ES d   1      26.471  -0.012 -43.353  0.00  0.00     0.093 C 
ATOM     30  H8  3ES d   1      25.631  -0.174 -42.661  0.00  0.00     0.089 H 
BRANCH  29  31
ATOM     31  NBI 3ES d   1      26.247  -0.819 -44.573  0.00  0.00    -0.322 N 
ATOM     32  CBM 3ES d   1      25.069  -1.404 -44.799  0.00  0.00     0.361 C 
ATOM     33  OAB 3ES d   1      24.139  -1.240 -44.007  0.00  0.00    -0.238 OA
ATOM     34  H9  3ES d   1      26.988  -0.927 -45.236  0.00  0.00     0.165 HD
BRANCH  32  35
ATOM     35  OBJ 3ES d   1      24.902  -2.272 -45.831  0.00  0.00    -0.299 OA
BRANCH  35  36
ATOM     36  CBB 3ES d   1      24.823  -1.766 -47.139  0.00  0.00     0.054 C 
ATOM     37  H1  3ES d   1      25.716  -1.160 -47.353  0.00  0.00     0.082 H 
ATOM     38  H2  3ES d   1      23.923  -1.141 -47.237  0.00  0.00     0.082 H 
BRANCH  36  39
ATOM     39  CBP 3ES d   1      24.753  -2.832 -48.047  0.00  0.00    -0.034 A 
ATOM     40  CAQ 3ES d   1      25.440  -2.753 -49.263  0.00  0.00    -0.075 A 
ATOM     41  CAK 3ES d   1      25.368  -3.798 -50.184  0.00  0.00    -0.082 A 
ATOM     42  H3  3ES d   1      26.032  -1.874 -49.491  0.00  0.00     0.084 H 
ATOM     43  CAH 3ES d   1      24.611  -4.928 -49.894  0.00  0.00    -0.083 A 
ATOM     44  H4  3ES d   1      25.902  -3.729 -51.125  0.00  0.00     0.083 H 
ATOM     45  CAL 3ES d   1      23.934  -5.011 -48.679  0.00  0.00    -0.082 A 
ATOM     46  H5  3ES d   1      24.548  -5.740 -50.609  0.00  0.00     0.083 H 
ATOM     47  CAR 3ES d   1      23.997  -3.965 -47.759  0.00  0.00    -0.075 A 
ATOM     48  H6  3ES d   1      23.353  -5.896 -48.447  0.00  0.00     0.083 H 
ATOM     49  H7  3ES d   1      23.458  -4.034 -46.821  0.00  0.00     0.084 H 
ENDBRANCH  36  39
ENDBRANCH  35  36
ENDBRANCH  32  35
ENDBRANCH  29  31
BRANCH  29  50
ATOM     50  CBE 3ES d   1      27.749  -0.505 -42.692  0.00  0.00    -0.013 C 
ATOM     51  H10 3ES d   1      27.917   0.036 -41.749  0.00  0.00     0.044 H 
ATOM     52  H11 3ES d   1      28.605  -0.346 -43.364  0.00  0.00     0.044 H 
BRANCH  50  53
ATOM     53  CBQ 3ES d   1      27.589  -1.884 -42.434  0.00  0.00    -0.056 A 
ATOM     54  CAS 3ES d   1      26.901  -2.328 -41.305  0.00  0.00    -0.077 A 
ATOM     55  CAM 3ES d   1      26.750  -3.692 -41.069  0.00  0.00    -0.082 A 
ATOM     56  H12 3ES d   1      26.483  -1.609 -40.609  0.00  0.00     0.084 H 
ATOM     57  CAI 3ES d   1      27.268  -4.633 -41.950  0.00  0.00    -0.083 A 
ATOM     58  H13 3ES d   1      26.220  -4.025 -40.184  0.00  0.00     0.083 H 
ATOM     59  CAN 3ES d   1      27.958  -4.205 -43.080  0.00  0.00    -0.082 A 
ATOM     60  H14 3ES d   1      27.136  -5.692 -41.759  0.00  0.00     0.083 H 
ATOM     61  CAT 3ES d   1      28.113  -2.841 -43.314  0.00  0.00    -0.077 A 
ATOM     62  H15 3ES d   1      28.372  -4.928 -43.773  0.00  0.00     0.083 H 
ATOM     63  H16 3ES d   1      28.651  -2.512 -44.196  0.00  0.00     0.084 H 
ENDBRANCH  50  53
ENDBRANCH  29  50
ENDBRANCH  26  29
ENDBRANCH  23  26
ENDBRANCH   1  23
BRANCH   1  64
ATOM     64  CBN 3ES d   1      28.824   3.868 -42.215  0.00  0.00     0.223 C 
ATOM     65  OAC 3ES d   1      29.343   2.779 -41.946  0.00  0.00    -0.273 OA
ATOM     66  N   3ES d   1      29.551   4.932 -42.627  0.00  0.00    -0.346 N 
ATOM     67  H28 3ES d   1      29.088   5.781 -42.882  0.00  0.00     0.163 HD
BRANCH  66  68
ATOM     68  CA  3ES d   1      31.032   4.847 -42.703  0.00  0.00     0.100 C 
ATOM     69  H29 3ES d   1      31.293   3.890 -43.178  0.00  0.00     0.090 H 
BRANCH  68  70
ATOM     70  C   3ES d   1      31.571   4.899 -41.249  0.00  0.00     0.197 C 
ATOM     71  O   3ES d   1      32.786   4.695 -41.075  0.00  0.00    -0.646 OA
ATOM     72  OXT 3ES d   1      30.750   5.176 -40.353  0.00  0.00    -0.646 OA
ENDBRANCH  68  70
BRANCH  68  73
ATOM     73  CB  3ES d   1      31.762   5.955 -43.428  0.00  0.00    -0.013 C 
ATOM     74  H30 3ES d   1      32.370   5.485 -44.215  0.00  0.00     0.043 H 
ATOM     75  H31 3ES d   1      32.423   6.443 -42.697  0.00  0.00     0.043 H 
BRANCH  73  76
ATOM     76  CG  3ES d   1      30.994   6.969 -44.041  0.00  0.00    -0.056 A 
ATOM     77  CD1 3ES d   1      31.022   8.282 -43.556  0.00  0.00    -0.074 A 
ATOM     78  CE1 3ES d   1      30.305   9.294 -44.203  0.00  0.00    -0.051 A 
ATOM     79  H32 3ES d   1      31.604   8.516 -42.672  0.00  0.00     0.084 H 
ATOM     80  CZ  3ES d   1      29.590   8.995 -45.368  0.00  0.00     0.065 A 
ATOM     81  H34 3ES d   1      30.303  10.302 -43.805  0.00  0.00     0.087 H 
ATOM     82  CE2 3ES d   1      29.572   7.696 -45.873  0.00  0.00    -0.051 A 
ATOM     83  CD2 3ES d   1      30.288   6.698 -45.215  0.00  0.00    -0.074 A 
ATOM     84  H35 3ES d   1      29.007   7.465 -46.769  0.00  0.00     0.087 H 
ATOM     85  H33 3ES d   1      30.297   5.693 -45.622  0.00  0.00     0.084 H 
BRANCH  80  86
ATOM     86  OH  3ES d   1      28.898   9.958 -46.025  0.00  0.00    -0.361 OA
ATOM     87  H36 3ES d   1      29.000  10.786 -45.570  0.00  0.00     0.217 HD
ENDBRANCH  80  86
ENDBRANCH  73  76
ENDBRANCH  68  73
ENDBRANCH  66  68
ENDBRANCH   1  64
TORSDOF 18
