REMARK  13 active torsions:
REMARK  status: ('A' for Active; 'I' for Inactive)
REMARK    1  A    between atoms: C1_1  and  O7_7 
REMARK    2  A    between atoms: C2_2  and  N8_8 
REMARK    3  A    between atoms: C5_5  and  C23_23 
REMARK    4  A    between atoms: O7_7  and  C9_9 
REMARK    5  A    between atoms: C9_9  and  C10_10 
REMARK    6  A    between atoms: C9_9  and  C11_11 
REMARK    7  A    between atoms: C12_12  and  N18_18 
REMARK    8  A    between atoms: C24_24  and  C28_28 
REMARK    9  A    between atoms: C26_26  and  C29_29 
REMARK   10  A    between atoms: C29_29  and  C30_30 
REMARK   11  A    between atoms: C29_29  and  O31_31 
REMARK   12  A    between atoms: C29_29  and  C32_32 
REMARK   13  A    between atoms: C30_30  and  O33_33 
ROOT
ATOM      1  C1  AWJ d   1     -29.865 -16.624  61.506  0.00  0.00     0.116 A 
ATOM      2  C2  AWJ d   1     -28.783 -16.374  62.379  0.00  0.00     0.154 A 
ATOM      3  N3  AWJ d   1     -27.750 -17.276  62.528  0.00  0.00    -0.240 NA
ATOM      4  C4  AWJ d   1     -27.774 -18.449  61.810  0.00  0.00     0.016 A 
ATOM      5  C5  AWJ d   1     -28.797 -18.800  60.914  0.00  0.00     0.003 A 
ATOM      6  C6  AWJ d   1     -29.834 -17.850  60.789  0.00  0.00    -0.034 A 
ATOM      7  H   AWJ d   1     -26.954 -19.145  61.944  0.00  0.00     0.116 H 
ATOM      8  H   AWJ d   1     -30.650 -18.068  60.110  0.00  0.00     0.089 H 
ENDROOT
BRANCH   1   9
ATOM      9  O7  AWJ d   1     -30.850 -15.643  61.438  0.00  0.00    -0.338 OA
BRANCH   9  10
ATOM     10  C9  AWJ d   1     -32.021 -15.785  60.574  0.00  0.00     0.069 C 
ATOM     11  H   AWJ d   1     -31.703 -16.173  59.595  0.00  0.00     0.091 H 
BRANCH  10  12
ATOM     12  C10 AWJ d   1     -33.060 -16.762  61.161  0.00  0.00     0.004 A 
ATOM     13  C12 AWJ d   1     -33.739 -17.788  60.403  0.00  0.00     0.088 A 
ATOM     14  C13 AWJ d   1     -34.680 -18.656  61.045  0.00  0.00    -0.050 A 
ATOM     15  C14 AWJ d   1     -34.960 -18.526  62.422  0.00  0.00    -0.043 A 
ATOM     16  H   AWJ d   1     -35.183 -19.422  60.466  0.00  0.00     0.087 H 
ATOM     17  C15 AWJ d   1     -34.301 -17.527  63.172  0.00  0.00     0.117 A 
ATOM     18  H   AWJ d   1     -35.674 -19.187  62.900  0.00  0.00     0.088 H 
ATOM     19  C16 AWJ d   1     -33.369 -16.657  62.566  0.00  0.00    -0.035 A 
ATOM     20  F17 AWJ d   1     -34.563 -17.406  64.471  0.00  0.00    -0.206 F 
ATOM     21  H   AWJ d   1     -32.878 -15.899  63.165  0.00  0.00     0.089 H 
BRANCH  13  22
ATOM     22  N18 AWJ d   1     -33.525 -18.003  59.016  0.00  0.00    -0.151 N 
ATOM     23  N19 AWJ d   1     -32.921 -19.139  58.565  0.00  0.00    -0.161 NA
ATOM     24  C20 AWJ d   1     -32.912 -18.951  57.245  0.00  0.00     0.042 A 
ATOM     25  C21 AWJ d   1     -33.500 -17.727  56.937  0.00  0.00     0.042 A 
ATOM     26  H   AWJ d   1     -32.505 -19.651  56.516  0.00  0.00     0.119 H 
ATOM     27  N22 AWJ d   1     -33.892 -17.118  58.057  0.00  0.00    -0.161 NA
ATOM     28  H   AWJ d   1     -33.622 -17.327  55.932  0.00  0.00     0.119 H 
ENDBRANCH  13  22
ENDBRANCH  10  12
BRANCH  10  29
ATOM     29  C11 AWJ d   1     -32.602 -14.372  60.394  0.00  0.00    -0.048 C 
ATOM     30  H   AWJ d   1     -33.491 -14.421  59.748  0.00  0.00     0.031 H 
ATOM     31  H   AWJ d   1     -31.846 -13.721  59.929  0.00  0.00     0.031 H 
ATOM     32  H   AWJ d   1     -32.884 -13.964  61.376  0.00  0.00     0.031 H 
ENDBRANCH  10  29
ENDBRANCH   9  10
ENDBRANCH   1   9
BRANCH   2  33
ATOM     33  N8  AWJ d   1     -28.752 -15.184  63.119  0.00  0.00    -0.382 N 
ATOM     34  H   AWJ d   1     -27.966 -14.995  63.758  0.00  0.00     0.157 HD
ATOM     35  H   AWJ d   1     -29.515 -14.499  63.024  0.00  0.00     0.157 HD
ENDBRANCH   2  33
BRANCH   5  36
ATOM     36  C23 AWJ d   1     -28.836 -20.059  60.141  0.00  0.00     0.043 A 
ATOM     37  C24 AWJ d   1     -27.851 -20.862  59.553  0.00  0.00     0.049 A 
ATOM     38  N25 AWJ d   1     -28.329 -21.993  58.897  0.00  0.00    -0.246 NA
ATOM     39  C26 AWJ d   1     -29.645 -22.070  58.972  0.00  0.00     0.112 A 
ATOM     40  S27 AWJ d   1     -30.377 -20.787  59.838  0.00  0.00    -0.069 SA
BRANCH  37  41
ATOM     41  C28 AWJ d   1     -26.375 -20.665  59.535  0.00  0.00    -0.034 C 
ATOM     42  H   AWJ d   1     -25.902 -21.490  58.982  0.00  0.00     0.035 H 
ATOM     43  H   AWJ d   1     -25.994 -20.650  60.567  0.00  0.00     0.035 H 
ATOM     44  H   AWJ d   1     -26.139 -19.710  59.043  0.00  0.00     0.035 H 
ENDBRANCH  37  41
BRANCH  39  45
ATOM     45  C29 AWJ d   1     -30.464 -23.196  58.340  0.00  0.00     0.126 C 
BRANCH  45  46
ATOM     46  C30 AWJ d   1     -30.055 -24.587  58.857  0.00  0.00     0.051 C 
ATOM     47  H   AWJ d   1     -28.998 -24.765  58.611  0.00  0.00     0.079 H 
ATOM     48  H   AWJ d   1     -30.679 -25.350  58.369  0.00  0.00     0.079 H 
BRANCH  46  49
ATOM     49  O33 AWJ d   1     -30.227 -24.679  60.271  0.00  0.00    -0.397 OA
ATOM     50  H   AWJ d   1     -31.140 -24.529  60.488  0.00  0.00     0.209 HD
ENDBRANCH  46  49
ENDBRANCH  45  46
BRANCH  45  51
ATOM     51  O31 AWJ d   1     -31.862 -23.018  58.586  0.00  0.00    -0.381 OA
ATOM     52  H   AWJ d   1     -32.029 -23.081  59.519  0.00  0.00     0.211 HD
ENDBRANCH  45  51
BRANCH  45  53
ATOM     53  C32 AWJ d   1     -30.267 -23.154  56.820  0.00  0.00    -0.040 C 
ATOM     54  H   AWJ d   1     -30.557 -22.163  56.440  0.00  0.00     0.032 H 
ATOM     55  H   AWJ d   1     -30.893 -23.925  56.348  0.00  0.00     0.032 H 
ATOM     56  H   AWJ d   1     -29.210 -23.343  56.582  0.00  0.00     0.032 H 
ENDBRANCH  45  53
ENDBRANCH  39  45
ENDBRANCH   5  36
TORSDOF 13
