REMARK  10 active torsions:
REMARK  status: ('A' for Active; 'I' for Inactive)
REMARK    1  A    between atoms: C1_1  and  O4_12 
REMARK    2  A    between atoms: C2_2  and  O2_7 
REMARK    3  A    between atoms: C3_3  and  O3_8 
REMARK    4  A    between atoms: C4_4  and  O4_9 
REMARK    5  A    between atoms: C5_5  and  C6_6 
REMARK    6  A    between atoms: C6_6  and  O6_11 
REMARK    7  A    between atoms: O4_12  and  C4_13 
REMARK    8  A    between atoms: C3_14  and  O3_15 
REMARK    9  A    between atoms: C5_19  and  C6_20 
REMARK   10  A    between atoms: C6_20  and  O6_21 
ROOT
ATOM      1  O4  IFM d   1      12.640  20.348  13.686  0.00  0.00    -0.350 OA
ENDROOT
BRANCH   1   2
ATOM      2  C1  BMA d   1      12.249  20.344  15.044  0.00  0.00     0.159 C 
ATOM      3  C2  BMA d   1      13.437  19.945  15.879  0.00  0.00     0.110 C 
ATOM      4  C3  BMA d   1      13.032  20.021  17.345  0.00  0.00     0.092 C 
ATOM      5  H   BMA d   1      13.726  18.914  15.629  0.00  0.00     0.094 H 
ATOM      6  C4  BMA d   1      12.569  21.438  17.664  0.00  0.00     0.090 C 
ATOM      7  H   BMA d   1      12.203  19.322  17.533  0.00  0.00     0.091 H 
ATOM      8  C5  BMA d   1      11.497  21.916  16.674  0.00  0.00     0.089 C 
ATOM      9  H   BMA d   1      13.437  22.111  17.603  0.00  0.00     0.091 H 
ATOM     10  O5  BMA d   1      11.938  21.726  15.317  0.00  0.00    -0.348 OA
ATOM     11  H   BMA d   1      10.584  21.327  16.844  0.00  0.00     0.090 H 
ATOM     12  H   BMA d   1      11.391  19.681  15.228  0.00  0.00     0.133 H 
BRANCH   3  13
ATOM     13  O2  BMA d   1      14.557  20.814  15.645  0.00  0.00    -0.388 OA
ATOM     14  H   BMA d   1      15.286  20.542  16.190  0.00  0.00     0.210 HD
ENDBRANCH   3  13
BRANCH   4  15
ATOM     15  O3  BMA d   1      14.165  19.644  18.168  0.00  0.00    -0.390 OA
ATOM     16  H   BMA d   1      14.433  18.759  17.950  0.00  0.00     0.210 HD
ENDBRANCH   4  15
BRANCH   6  17
ATOM     17  O4  BMA d   1      12.017  21.498  18.991  0.00  0.00    -0.390 OA
ATOM     18  H   BMA d   1      12.668  21.205  19.617  0.00  0.00     0.210 HD
ENDBRANCH   6  17
BRANCH   8  19
ATOM     19  C6  BMA d   1      11.168  23.401  16.846  0.00  0.00     0.043 C 
ATOM     20  H   BMA d   1      10.743  23.556  17.849  0.00  0.00     0.078 H 
ATOM     21  H   BMA d   1      10.429  23.691  16.085  0.00  0.00     0.078 H 
BRANCH  19  22
ATOM     22  O6  BMA d   1      12.317  24.221  16.704  0.00  0.00    -0.398 OA
ATOM     23  H   BMA d   1      12.959  23.981  17.362  0.00  0.00     0.209 HD
ENDBRANCH  19  22
ENDBRANCH   8  19
ENDBRANCH   1   2
BRANCH   1  24
ATOM     24  C4  IFM d   1      11.721  19.969  12.667  0.00  0.00     0.075 C 
ATOM     25  C3  IFM d   1      10.414  20.768  12.721  0.00  0.00     0.084 C 
ATOM     26  C2  IFM d   1       9.574  20.515  11.461  0.00  0.00     0.107 C 
ATOM     27  H   BMA d   1      10.653  21.838  12.808  0.00  0.00     0.089 H 
ATOM     28  N   IFM d   1      10.344  20.778  10.238  0.00  0.00    -0.072 N 
ATOM     29  H   BMA d   1       8.695  21.176  11.479  0.00  0.00     0.079 H 
ATOM     30  H   BMA d   1       9.244  19.466  11.457  0.00  0.00     0.079 H 
ATOM     31  C1  IFM d   1      11.538  19.947  10.157  0.00  0.00     0.089 C 
ATOM     32  H   BMA d   1      10.621  21.747  10.229  0.00  0.00     0.277 HD
ATOM     33  H   BMA d   1       9.760  20.588   9.438  0.00  0.00     0.277 HD
ATOM     34  C5  IFM d   1      12.436  20.267  11.349  0.00  0.00     0.017 C 
ATOM     35  H   BMA d   1      12.075  20.160   9.221  0.00  0.00     0.076 H 
ATOM     36  H   BMA d   1      11.253  18.885  10.183  0.00  0.00     0.076 H 
ATOM     37  H   BMA d   1      12.652  21.345  11.328  0.00  0.00     0.049 H 
ATOM     38  H   BMA d   1      11.492  18.896  12.750  0.00  0.00     0.088 H 
BRANCH  25  39
ATOM     39  O3  IFM d   1       9.590  20.361  13.823  0.00  0.00    -0.391 OA
ATOM     40  H   BMA d   1       9.375  19.440  13.733  0.00  0.00     0.210 HD
ENDBRANCH  25  39
BRANCH  34  41
ATOM     41  C6  IFM d   1      13.765  19.529  11.224  0.00  0.00     0.024 C 
ATOM     42  H   BMA d   1      14.406  19.811  12.072  0.00  0.00     0.074 H 
ATOM     43  H   BMA d   1      14.248  19.830  10.283  0.00  0.00     0.074 H 
BRANCH  41  44
ATOM     44  O6  IFM d   1      13.606  18.108  11.223  0.00  0.00    -0.400 OA
ATOM     45  H   BMA d   1      13.196  17.836  12.035  0.00  0.00     0.209 HD
ENDBRANCH  41  44
ENDBRANCH  34  41
ENDBRANCH   1  24
TORSDOF 10
