REMARK  15 active torsions:
REMARK  status: ('A' for Active; 'I' for Inactive)
REMARK    1  A    between atoms: C11_11  and  C21_21 
REMARK    2  A    between atoms: C12_12  and  C22_22 
REMARK    3  A    between atoms: C27_27  and  C13_13 
REMARK    4  A    between atoms: C28_28  and  C14_14 
REMARK    5  A    between atoms: C15_15  and  C29_29 
REMARK    6  A    between atoms: C18_18  and  O42_42 
REMARK    7  A    between atoms: C30_30  and  C20_20 
REMARK       I    between atoms: C21_21  and  N33_33 
REMARK    8  A    between atoms: C31_31  and  C23_23 
REMARK    9  A    between atoms: C32_32  and  C25_25 
REMARK   10  A    between atoms: O42_42  and  C26_26 
REMARK   11  A    between atoms: N33_33  and  C27_27 
REMARK   12  A    between atoms: N34_34  and  C28_28 
REMARK   13  A    between atoms: C29_29  and  N34_34 
REMARK   14  A    between atoms: N34_34  and  C30_30 
REMARK   15  A    between atoms: C31_31  and  C32_32 
ROOT
ATOM      1  N34 ZSV d   1      11.625  34.442  -0.349  0.00  0.00    -0.060 N 
ATOM      2  H33 ZSV d   1      12.128  33.715  -0.833  0.00  0.00     0.281 HD
ENDROOT
BRANCH   1   3
ATOM      3  C28 ZSV d   1      11.887  35.683  -1.148  0.00  0.00     0.109 C 
ATOM      4  H22 ZSV d   1      11.166  36.453  -0.835  0.00  0.00     0.083 H 
ATOM      5  H23 ZSV d   1      12.909  36.026  -0.927  0.00  0.00     0.083 H 
BRANCH   3   6
ATOM      6  C14 ZSV d   1      11.764  35.499  -2.621  0.00  0.00    -0.017 A 
ATOM      7  C4  ZSV d   1      12.800  34.870  -3.278  0.00  0.00    -0.074 A 
ATOM      8  C2  ZSV d   1      12.737  34.677  -4.644  0.00  0.00    -0.082 A 
ATOM      9  H4  ZSV d   1      13.665  34.527  -2.722  0.00  0.00     0.084 H 
ATOM     10  C1  ZSV d   1      11.637  35.120  -5.342  0.00  0.00    -0.082 A 
ATOM     11  H2  ZSV d   1      13.549  34.180  -5.163  0.00  0.00     0.083 H 
ATOM     12  C3  ZSV d   1      10.588  35.751  -4.691  0.00  0.00    -0.067 A 
ATOM     13  H1  ZSV d   1      11.590  34.974  -6.415  0.00  0.00     0.083 H 
ATOM     14  C11 ZSV d   1      10.658  35.940  -3.323  0.00  0.00     0.040 A 
ATOM     15  H3  ZSV d   1       9.723  36.092  -5.248  0.00  0.00     0.085 H 
BRANCH  14  16
ATOM     16  C21 ZSV d   1       9.530  36.620  -2.654  0.00  0.00     0.252 C 
ATOM     17  N33 ZSV d   1       8.293  36.149  -3.002  0.00  0.00    -0.353 N 
ATOM     18  H32 ZSV d   1       8.229  35.481  -3.744  0.00  0.00     0.163 HD
ATOM     19  O37 ZSV d   1       9.721  37.529  -1.859  0.00  0.00    -0.268 OA
BRANCH  17  20
ATOM     20  C27 ZSV d   1       7.076  36.570  -2.349  0.00  0.00     0.019 C 
ATOM     21  H20 ZSV d   1       7.174  37.625  -2.053  0.00  0.00     0.071 H 
ATOM     22  H21 ZSV d   1       6.236  36.463  -3.051  0.00  0.00     0.071 H 
BRANCH  20  23
ATOM     23  C13 ZSV d   1       6.802  35.741  -1.127  0.00  0.00    -0.040 A 
ATOM     24  C6  ZSV d   1       6.917  36.313   0.118  0.00  0.00    -0.073 A 
ATOM     25  C9  ZSV d   1       6.663  35.562   1.242  0.00  0.00    -0.050 A 
ATOM     26  H6  ZSV d   1       7.207  37.353   0.213  0.00  0.00     0.084 H 
ATOM     27  C18 ZSV d   1       6.292  34.238   1.132  0.00  0.00     0.068 A 
ATOM     28  H9  ZSV d   1       6.755  36.014   2.223  0.00  0.00     0.087 H 
ATOM     29  C10 ZSV d   1       6.174  33.644  -0.108  0.00  0.00    -0.050 A 
ATOM     30  C7  ZSV d   1       6.426  34.413  -1.234  0.00  0.00    -0.073 A 
ATOM     31  H10 ZSV d   1       5.891  32.602  -0.200  0.00  0.00     0.087 H 
ATOM     32  H7  ZSV d   1       6.327  33.966  -2.216  0.00  0.00     0.084 H 
BRANCH  27  33
ATOM     33  O42 ZSV d   1       6.063  33.573   2.328  0.00  0.00    -0.356 OA
BRANCH  33  34
ATOM     34  C26 ZSV d   1       5.650  32.216   2.151  0.00  0.00     0.010 C 
ATOM     35  H17 ZSV d   1       5.487  31.751   3.135  0.00  0.00     0.066 H 
ATOM     36  H18 ZSV d   1       6.431  31.663   1.609  0.00  0.00     0.066 H 
ATOM     37  H19 ZSV d   1       4.714  32.190   1.573  0.00  0.00     0.066 H 
ENDBRANCH  33  34
ENDBRANCH  27  33
ENDBRANCH  20  23
ENDBRANCH  17  20
ENDBRANCH  14  16
ENDBRANCH   3   6
ENDBRANCH   1   3
BRANCH   1  38
ATOM     38  C29 ZSV d   1      10.188  33.899  -0.329  0.00  0.00     0.109 C 
ATOM     39  H24 ZSV d   1       9.485  34.696  -0.045  0.00  0.00     0.083 H 
ATOM     40  H25 ZSV d   1       9.917  33.507  -1.320  0.00  0.00     0.083 H 
BRANCH  38  41
ATOM     41  C15 ZSV d   1      10.160  32.799   0.687  0.00  0.00    -0.013 A 
ATOM     42  C5  ZSV d   1       9.499  33.032   1.883  0.00  0.00    -0.071 A 
ATOM     43  C8  ZSV d   1       9.464  32.056   2.866  0.00  0.00    -0.047 A 
ATOM     44  H5  ZSV d   1       9.007  33.983   2.050  0.00  0.00     0.084 H 
ATOM     45  C16 ZSV d   1      10.109  30.860   2.675  0.00  0.00     0.103 A 
ATOM     46  H8  ZSV d   1       8.925  32.238   3.789  0.00  0.00     0.087 H 
ATOM     47  C17 ZSV d   1      10.755  30.611   1.475  0.00  0.00     0.119 A 
ATOM     48  O41 ZSV d   1      10.048  29.932   3.708  0.00  0.00    -0.341 OA
ATOM     49  C12 ZSV d   1      10.791  31.582   0.478  0.00  0.00     0.084 A 
ATOM     50  O40 ZSV d   1      11.433  29.420   1.235  0.00  0.00    -0.345 OA
ATOM     51  C24 ZSV d   1      11.201  28.420   2.224  0.00  0.00     0.051 C 
ATOM     52  C25 ZSV d   1      11.137  29.017   3.609  0.00  0.00     0.067 C 
ATOM     53  H14 ZSV d   1      10.247  27.917   2.007  0.00  0.00     0.079 H 
ATOM     54  H15 ZSV d   1      12.019  27.686   2.189  0.00  0.00     0.079 H 
ATOM     55  H16 ZSV d   1      12.077  29.541   3.838  0.00  0.00     0.087 H 
BRANCH  49  56
ATOM     56  C22 ZSV d   1      11.481  31.284  -0.820  0.00  0.00     0.212 C 
ATOM     57  O35 ZSV d   1      11.264  30.125  -1.293  0.00  0.00    -0.644 OA
ATOM     58  O38 ZSV d   1      12.117  32.179  -1.425  0.00  0.00    -0.644 OA
ENDBRANCH  49  56
BRANCH  52  59
ATOM     59  C32 ZSV d   1      10.934  27.862   4.573  0.00  0.00    -0.029 C 
ATOM     60  H30 ZSV d   1      11.777  27.163   4.473  0.00  0.00     0.037 H 
ATOM     61  H31 ZSV d   1       9.997  27.345   4.317  0.00  0.00     0.037 H 
BRANCH  59  62
ATOM     62  C31 ZSV d   1      10.856  28.332   6.007  0.00  0.00     0.018 C 
ATOM     63  H28 ZSV d   1      10.180  29.196   6.088  0.00  0.00     0.049 H 
ATOM     64  H29 ZSV d   1      10.492  27.520   6.654  0.00  0.00     0.049 H 
BRANCH  62  65
ATOM     65  C23 ZSV d   1      12.268  28.729   6.404  0.00  0.00     0.172 C 
ATOM     66  O36 ZSV d   1      12.320  29.796   7.075  0.00  0.00    -0.648 OA
ATOM     67  O39 ZSV d   1      13.215  27.969   6.059  0.00  0.00    -0.648 OA
ENDBRANCH  62  65
ENDBRANCH  59  62
ENDBRANCH  52  59
ENDBRANCH  38  41
ENDBRANCH   1  38
BRANCH   1  68
ATOM     68  C30 ZSV d   1      12.349  34.595   0.963  0.00  0.00     0.099 C 
ATOM     69  H26 ZSV d   1      12.299  33.637   1.502  0.00  0.00     0.082 H 
ATOM     70  H27 ZSV d   1      13.400  34.844   0.754  0.00  0.00     0.082 H 
BRANCH  68  71
ATOM     71  C20 ZSV d   1      11.775  35.663   1.841  0.00  0.00    -0.087 C 
ATOM     72  C19 ZSV d   1      12.390  36.815   2.132  0.00  0.00    -0.123 C 
ATOM     73  H11 ZSV d   1      11.905  37.543   2.780  0.00  0.00     0.066 H 
ATOM     74  H12 ZSV d   1      13.376  37.025   1.720  0.00  0.00     0.066 H 
ATOM     75  H13 ZSV d   1      10.790  35.490   2.272  0.00  0.00     0.078 H 
ENDBRANCH  68  71
ENDBRANCH   1  68
TORSDOF 15
