REMARK  2 active torsions:
REMARK  status: ('A' for Active; 'I' for Inactive)
REMARK    1  A    between atoms: C4_8  and  C9_9 
REMARK    2  A    between atoms: C2_16  and  N_18 
ROOT
ATOM      1  O   8DQ d   1      22.183  49.013  -0.232  0.00  0.00    -0.287 OA
ATOM      2  C   8DQ d   1      23.167  49.702  -0.525  0.00  0.00     0.189 A 
ATOM      3  C8  8DQ d   1      24.484  49.479   0.104  0.00  0.00     0.049 A 
ATOM      4  C7  8DQ d   1      24.671  48.504   1.085  0.00  0.00    -0.066 A 
ATOM      5  C6  8DQ d   1      25.923  48.312   1.650  0.00  0.00    -0.081 A 
ATOM      6  C5  8DQ d   1      27.004  49.078   1.245  0.00  0.00    -0.069 A 
ATOM      7  C3  8DQ d   1      25.581  50.249  -0.290  0.00  0.00     0.103 A 
ATOM      8  C4  8DQ d   1      26.853  50.053   0.263  0.00  0.00     0.009 A 
ATOM      9  O1  8DQ d   1      25.456  51.223  -1.257  0.00  0.00    -0.292 OA
ATOM     10  C2  8DQ d   1      24.224  51.434  -1.854  0.00  0.00     0.150 A 
ATOM     11  C1  8DQ d   1      23.089  50.737  -1.525  0.00  0.00     0.016 A 
ATOM     12  H   8DQ d   1      23.834  47.894   1.407  0.00  0.00     0.085 H 
ATOM     13  H   8DQ d   1      26.057  47.556   2.415  0.00  0.00     0.083 H 
ATOM     14  H   8DQ d   1      27.976  48.917   1.697  0.00  0.00     0.085 H 
ATOM     15  H   8DQ d   1      22.142  50.963  -2.013  0.00  0.00     0.096 H 
ENDROOT
BRANCH  10  16
ATOM     16  N   8DQ d   1      24.373  52.409  -2.862  0.00  0.00    -0.358 N 
ATOM     17  C18 8DQ d   1      25.617  53.181  -2.898  0.00  0.00     0.019 C 
ATOM     18  C17 8DQ d   1      26.192  53.090  -4.287  0.00  0.00     0.096 C 
ATOM     19  H   8DQ d   1      26.332  52.767  -2.172  0.00  0.00     0.066 H 
ATOM     20  H   8DQ d   1      25.409  54.232  -2.650  0.00  0.00     0.066 H 
ATOM     21  N1  8DQ d   1      25.165  53.361  -5.309  0.00  0.00    -0.072 N 
ATOM     22  H   8DQ d   1      26.595  52.078  -4.443  0.00  0.00     0.078 H 
ATOM     23  H   8DQ d   1      27.002  53.827  -4.389  0.00  0.00     0.078 H 
ATOM     24  C16 8DQ d   1      24.029  52.431  -5.233  0.00  0.00     0.096 C 
ATOM     25  H   8DQ d   1      25.588  53.280  -6.220  0.00  0.00     0.277 HD
ATOM     26  H   8DQ d   1      24.822  54.300  -5.180  0.00  0.00     0.277 HD
ATOM     27  C15 8DQ d   1      23.337  52.499  -3.894  0.00  0.00     0.019 C 
ATOM     28  H   8DQ d   1      24.396  51.407  -5.392  0.00  0.00     0.078 H 
ATOM     29  H   8DQ d   1      23.306  52.688  -6.021  0.00  0.00     0.078 H 
ATOM     30  H   8DQ d   1      22.793  53.451  -3.799  0.00  0.00     0.066 H 
ATOM     31  H   8DQ d   1      22.631  51.662  -3.792  0.00  0.00     0.066 H 
ENDBRANCH  10  16
BRANCH   8  32
ATOM     32  C9  8DQ d   1      28.051  50.816  -0.193  0.00  0.00    -0.023 A 
ATOM     33  C14 8DQ d   1      28.919  51.400   0.727  0.00  0.00    -0.072 A 
ATOM     34  C13 8DQ d   1      30.032  52.106   0.300  0.00  0.00    -0.082 A 
ATOM     35  H   8DQ d   1      28.721  51.301   1.788  0.00  0.00     0.084 H 
ATOM     36  C12 8DQ d   1      30.295  52.242  -1.043  0.00  0.00    -0.083 A 
ATOM     37  H   8DQ d   1      30.699  52.553   1.028  0.00  0.00     0.083 H 
ATOM     38  C11 8DQ d   1      29.450  51.669  -1.967  0.00  0.00    -0.082 A 
ATOM     39  H   8DQ d   1      31.165  52.798  -1.373  0.00  0.00     0.083 H 
ATOM     40  C10 8DQ d   1      28.337  50.959  -1.549  0.00  0.00    -0.072 A 
ATOM     41  H   8DQ d   1      29.657  51.774  -3.026  0.00  0.00     0.083 H 
ATOM     42  H   8DQ d   1      27.681  50.509  -2.285  0.00  0.00     0.084 H 
ENDBRANCH   8  32
TORSDOF 2
