REMARK  15 active torsions:
REMARK  status: ('A' for Active; 'I' for Inactive)
REMARK    1  A    between atoms: NBM_39  and  CAA_2 
REMARK    2  A    between atoms: NBM_39  and  CAB_3 
REMARK    3  A    between atoms: NBN_40  and  CAC_4 
REMARK    4  A    between atoms: CAZ_26  and  CAY_25 
REMARK    5  A    between atoms: CAY_25  and  CBA_27 
REMARK    6  A    between atoms: CBB_28  and  CAZ_26 
REMARK    7  A    between atoms: CBA_27  and  CBF_32 
REMARK    8  A    between atoms: CBG_33  and  CBB_28 
REMARK    9  A    between atoms: CBH_34  and  CBC_29 
REMARK   10  A    between atoms: CBC_29  and  NBO_41 
REMARK   11  A    between atoms: CBD_30  and  CBI_35 
REMARK   12  A    between atoms: NBP_42  and  CBD_30 
REMARK   13  A    between atoms: CBJ_36  and  NBM_39 
REMARK   14  A    between atoms: NBN_40  and  CBK_37 
REMARK   15  A    between atoms: CBL_38  and  NBN_40 
ROOT
ATOM      1  CBB G8S d   1      19.579  -6.568   3.781  0.00  0.00    -0.041 C 
ATOM      2  H   G8S d   1      18.506  -6.546   4.021  0.00  0.00     0.040 H 
ATOM      3  H   G8S d   1      20.116  -5.872   4.442  0.00  0.00     0.040 H 
ENDROOT
BRANCH   1   4
ATOM      4  CAZ G8S d   1      19.771  -6.106   2.306  0.00  0.00    -0.061 C 
ATOM      5  H   G8S d   1      20.805  -5.749   2.188  0.00  0.00     0.033 H 
ATOM      6  H   G8S d   1      19.605  -6.973   1.649  0.00  0.00     0.033 H 
BRANCH   4   7
ATOM      7  CAY G8S d   1      18.802  -4.959   1.859  0.00  0.00    -0.061 C 
ATOM      8  H   G8S d   1      19.388  -4.041   1.704  0.00  0.00     0.033 H 
ATOM      9  H   G8S d   1      18.062  -4.791   2.655  0.00  0.00     0.033 H 
BRANCH   7  10
ATOM     10  CBA G8S d   1      18.041  -5.304   0.527  0.00  0.00    -0.041 C 
ATOM     11  H   G8S d   1      18.734  -5.694  -0.233  0.00  0.00     0.040 H 
ATOM     12  H   G8S d   1      17.521  -4.420   0.130  0.00  0.00     0.040 H 
BRANCH  10  13
ATOM     13  CBF G8S d   1      17.143  -6.270   0.918  0.00  0.00    -0.058 A 
ATOM     14  CAG G8S d   1      15.840  -5.910   1.263  0.00  0.00    -0.076 A 
ATOM     15  CAK G8S d   1      14.977  -6.911   1.706  0.00  0.00    -0.075 A 
ATOM     16  H   G8S d   1      15.508  -4.881   1.189  0.00  0.00     0.084 H 
ATOM     17  CBH G8S d   1      15.424  -8.243   1.788  0.00  0.00    -0.040 A 
ATOM     18  H   G8S d   1      13.960  -6.663   1.988  0.00  0.00     0.084 H 
ATOM     19  CAL G8S d   1      16.743  -8.591   1.483  0.00  0.00    -0.075 A 
ATOM     20  CAH G8S d   1      17.595  -7.592   1.034  0.00  0.00    -0.076 A 
ATOM     21  H   G8S d   1      17.090  -9.612   1.594  0.00  0.00     0.084 H 
ATOM     22  H   G8S d   1      18.618  -7.836   0.771  0.00  0.00     0.084 H 
BRANCH  17  23
ATOM     23  CBC G8S d   1      14.599  -9.223   2.321  0.00  0.00     0.022 C 
ATOM     24  H   G8S d   1      14.818 -10.221   1.913  0.00  0.00     0.072 H 
ATOM     25  H   G8S d   1      13.533  -8.994   2.178  0.00  0.00     0.072 H 
BRANCH  23  26
ATOM     26  NBO G8S d   1      15.027  -9.087   3.769  0.00  0.00    -0.362 N 
ATOM     27  CAU G8S d   1      15.415  -7.791   4.203  0.00  0.00    -0.018 A 
ATOM     28  CAQ G8S d   1      15.857  -7.510   5.483  0.00  0.00    -0.042 A 
ATOM     29  H   G8S d   1      15.361  -6.972   3.487  0.00  0.00     0.111 H 
ATOM     30  CBJ G8S d   1      15.926  -8.545   6.404  0.00  0.00     0.032 A 
ATOM     31  H   G8S d   1      16.145  -6.497   5.762  0.00  0.00     0.089 H 
ATOM     32  CAR G8S d   1      15.556  -9.846   6.006  0.00  0.00    -0.042 A 
ATOM     33  CAV G8S d   1      15.115 -10.138   4.702  0.00  0.00    -0.018 A 
ATOM     34  H   G8S d   1      15.614 -10.654   6.734  0.00  0.00     0.089 H 
ATOM     35  H   G8S d   1      14.847 -11.155   4.420  0.00  0.00     0.111 H 
BRANCH  30  36
ATOM     36  NBM G8S d   1      16.352  -8.236   7.641  0.00  0.00    -0.389 N 
BRANCH  36  37
ATOM     37  CAA G8S d   1      16.742  -6.832   7.915  0.00  0.00    -0.019 C 
ATOM     38  H   G8S d   1      17.065  -6.739   8.962  0.00  0.00     0.056 H 
ATOM     39  H   G8S d   1      15.881  -6.171   7.737  0.00  0.00     0.056 H 
ATOM     40  H   G8S d   1      17.569  -6.545   7.249  0.00  0.00     0.056 H 
ENDBRANCH  36  37
BRANCH  36  41
ATOM     41  CAB G8S d   1      16.401  -9.282   8.683  0.00  0.00    -0.019 C 
ATOM     42  H   G8S d   1      16.070 -10.240   8.257  0.00  0.00     0.056 H 
ATOM     43  H   G8S d   1      15.738  -9.002   9.515  0.00  0.00     0.056 H 
ATOM     44  H   G8S d   1      17.432  -9.383   9.053  0.00  0.00     0.056 H 
ENDBRANCH  36  41
ENDBRANCH  30  36
ENDBRANCH  23  26
ENDBRANCH  17  23
ENDBRANCH  10  13
ENDBRANCH   7  10
ENDBRANCH   4   7
ENDBRANCH   1   4
BRANCH   1  45
ATOM     45  CBG G8S d   1      20.073  -7.889   4.008  0.00  0.00    -0.058 A 
ATOM     46  CAI G8S d   1      19.313  -8.802   4.758  0.00  0.00    -0.076 A 
ATOM     47  CAM G8S d   1      19.775 -10.110   4.997  0.00  0.00    -0.075 A 
ATOM     48  H   G8S d   1      18.354  -8.494   5.160  0.00  0.00     0.084 H 
ATOM     49  CBI G8S d   1      21.018 -10.526   4.510  0.00  0.00    -0.040 A 
ATOM     50  H   G8S d   1      19.162 -10.801   5.564  0.00  0.00     0.084 H 
ATOM     51  CAN G8S d   1      21.782  -9.621   3.752  0.00  0.00    -0.075 A 
ATOM     52  CAJ G8S d   1      21.318  -8.316   3.515  0.00  0.00    -0.076 A 
ATOM     53  H   G8S d   1      22.738  -9.933   3.347  0.00  0.00     0.084 H 
ATOM     54  H   G8S d   1      21.930  -7.628   2.943  0.00  0.00     0.084 H 
BRANCH  49  55
ATOM     55  CBD G8S d   1      21.498 -11.838   4.709  0.00  0.00     0.022 C 
ATOM     56  H   G8S d   1      22.509 -11.885   4.279  0.00  0.00     0.072 H 
ATOM     57  H   G8S d   1      20.832 -12.517   4.157  0.00  0.00     0.072 H 
BRANCH  55  58
ATOM     58  NBP G8S d   1      21.588 -12.349   6.119  0.00  0.00    -0.363 N 
ATOM     59  CAW G8S d   1      20.859 -13.505   6.517  0.00  0.00    -0.022 A 
ATOM     60  CAS G8S d   1      20.960 -13.990   7.831  0.00  0.00    -0.063 A 
ATOM     61  H   G8S d   1      20.220 -14.016   5.799  0.00  0.00     0.111 H 
ATOM     62  CBL G8S d   1      21.800 -13.346   8.772  0.00  0.00     0.047 A 
ATOM     63  H   G8S d   1      20.388 -14.868   8.129  0.00  0.00     0.082 H 
ATOM     64  CAT G8S d   1      22.519 -12.209   8.360  0.00  0.00    -0.063 A 
ATOM     65  H   G8S d   1      22.636 -13.995   8.470  0.00  0.00     0.085 H 
ATOM     66  CAX G8S d   1      22.430 -11.721   7.054  0.00  0.00    -0.022 A 
ATOM     67  H   G8S d   1      23.160 -11.697   9.076  0.00  0.00     0.082 H 
ATOM     68  H   G8S d   1      23.015 -10.851   6.759  0.00  0.00     0.111 H 
BRANCH  62  69
ATOM     69  NBN G8S d   1      21.922 -13.794  10.051  0.00  0.00    -0.374 N 
BRANCH  69  70
ATOM     70  CAC G8S d   1      21.263 -15.048  10.471  0.00  0.00    -0.018 C 
ATOM     71  H   G8S d   1      21.479 -15.238  11.533  0.00  0.00     0.056 H 
ATOM     72  H   G8S d   1      21.643 -15.883   9.864  0.00  0.00     0.056 H 
ATOM     73  H   G8S d   1      20.176 -14.957  10.329  0.00  0.00     0.056 H 
ENDBRANCH  69  70
BRANCH  69  74
ATOM     74  CBK G8S d   1      22.646 -13.086  10.960  0.00  0.00     0.030 A 
ATOM     75  CAO G8S d   1      24.032 -13.291  11.086  0.00  0.00    -0.056 A 
ATOM     76  CAE G8S d   1      24.778 -12.555  12.013  0.00  0.00    -0.060 A 
ATOM     77  H   G8S d   1      24.526 -14.025  10.460  0.00  0.00     0.087 H 
ATOM     78  CBE G8S d   1      24.123 -11.618  12.816  0.00  0.00     0.034 A 
ATOM     79  H   G8S d   1      25.847 -12.709  12.107  0.00  0.00     0.086 H 
ATOM     80 CL   G8S d   1      25.064 -10.680  13.972  0.00  0.00    -0.084 Cl
ATOM     81  CAF G8S d   1      22.739 -11.410  12.697  0.00  0.00    -0.060 A 
ATOM     82  CAP G8S d   1      21.997 -12.154  11.772  0.00  0.00    -0.056 A 
ATOM     83  H   G8S d   1      22.246 -10.674  13.321  0.00  0.00     0.086 H 
ATOM     84  H   G8S d   1      20.926 -12.008  11.687  0.00  0.00     0.087 H 
ENDBRANCH  69  74
ENDBRANCH  62  69
ENDBRANCH  55  58
ENDBRANCH  49  55
ENDBRANCH   1  45
TORSDOF 15
