REMARK  5 active torsions:
REMARK  status: ('A' for Active; 'I' for Inactive)
REMARK    1  A    between atoms: CAA_1  and  NBE_2 
REMARK    2  A    between atoms: NBE_2  and  CAB_3 
REMARK    3  A    between atoms: NBG_9  and  CAS_10 
REMARK    4  A    between atoms: CAS_10  and  CAX_11 
REMARK    5  A    between atoms: CAZ_16  and  CAY_17 
ROOT
ATOM      1  CAS GQG d   1     -16.303   9.493   9.858  0.00  0.00     0.022 C 
ATOM      2  H   GQG d   1     -16.430   8.815  10.715  0.00  0.00     0.072 H 
ATOM      3  H   GQG d   1     -15.361  10.050   9.968  0.00  0.00     0.072 H 
ENDROOT
BRANCH   1   4
ATOM      4  NBG GQG d   1     -17.459  10.427   9.749  0.00  0.00    -0.362 N 
ATOM      5  CAP GQG d   1     -18.755   9.896   9.550  0.00  0.00    -0.018 A 
ATOM      6  CAM GQG d   1     -19.865  10.721   9.421  0.00  0.00    -0.042 A 
ATOM      7  H   GQG d   1     -18.885   8.816   9.497  0.00  0.00     0.111 H 
ATOM      8  CBA GQG d   1     -19.703  12.106   9.462  0.00  0.00     0.032 A 
ATOM      9  H   GQG d   1     -20.856  10.289   9.289  0.00  0.00     0.089 H 
ATOM     10  NBE GQG d   1     -20.781  12.896   9.304  0.00  0.00    -0.389 N 
ATOM     11  CAL GQG d   1     -18.415  12.637   9.632  0.00  0.00    -0.042 A 
ATOM     12  CAO GQG d   1     -17.288  11.818   9.777  0.00  0.00    -0.018 A 
ATOM     13  H   GQG d   1     -18.288  13.718   9.652  0.00  0.00     0.089 H 
ATOM     14  H   GQG d   1     -16.299  12.253   9.909  0.00  0.00     0.111 H 
BRANCH  10  15
ATOM     15  CAA GQG d   1     -20.639  14.365   9.345  0.00  0.00    -0.019 C 
ATOM     16  H   GQG d   1     -21.624  14.833   9.197  0.00  0.00     0.056 H 
ATOM     17  H   GQG d   1     -19.956  14.690   8.547  0.00  0.00     0.056 H 
ATOM     18  H   GQG d   1     -20.232  14.667  10.321  0.00  0.00     0.056 H 
ENDBRANCH  10  15
BRANCH  10  19
ATOM     19  CAB GQG d   1     -22.075  12.269   8.968  0.00  0.00    -0.019 C 
ATOM     20  H   GQG d   1     -21.969  11.174   8.992  0.00  0.00     0.056 H 
ATOM     21  H   GQG d   1     -22.385  12.585   7.961  0.00  0.00     0.056 H 
ATOM     22  H   GQG d   1     -22.834  12.580   9.700  0.00  0.00     0.056 H 
ENDBRANCH  10  19
ENDBRANCH   1   4
BRANCH   1  23
ATOM     23  CAX GQG d   1     -16.318   8.775   8.649  0.00  0.00    -0.040 A 
ATOM     24  CAG GQG d   1     -15.836   9.357   7.474  0.00  0.00    -0.074 A 
ATOM     25  CAK GQG d   1     -15.891   8.635   6.272  0.00  0.00    -0.072 A 
ATOM     26  H   GQG d   1     -15.423  10.359   7.491  0.00  0.00     0.084 H 
ATOM     27  CAZ GQG d   1     -16.451   7.344   6.238  0.00  0.00    -0.026 A 
ATOM     28  H   GQG d   1     -15.499   9.075   5.362  0.00  0.00     0.084 H 
ATOM     29  CAJ GQG d   1     -16.946   6.775   7.413  0.00  0.00    -0.072 A 
ATOM     30  CAF GQG d   1     -16.885   7.499   8.605  0.00  0.00    -0.074 A 
ATOM     31  H   GQG d   1     -17.374   5.779   7.400  0.00  0.00     0.084 H 
ATOM     32  H   GQG d   1     -17.285   7.063   9.513  0.00  0.00     0.084 H 
BRANCH  27  33
ATOM     33  CAY GQG d   1     -16.514   6.633   5.030  0.00  0.00    -0.026 A 
ATOM     34  CAI GQG d   1     -17.667   5.903   4.714  0.00  0.00    -0.072 A 
ATOM     35  CAE GQG d   1     -17.757   5.196   3.517  0.00  0.00    -0.082 A 
ATOM     36  H   GQG d   1     -18.499   5.888   5.409  0.00  0.00     0.084 H 
ATOM     37  CAW GQG d   1     -16.688   5.229   2.614  0.00  0.00    -0.083 A 
ATOM     38  H   GQG d   1     -18.649   4.624   3.287  0.00  0.00     0.083 H 
ATOM     39  CAD GQG d   1     -15.537   5.960   2.920  0.00  0.00    -0.082 A 
ATOM     40  H   GQG d   1     -16.753   4.688   1.677  0.00  0.00     0.083 H 
ATOM     41  CAH GQG d   1     -15.444   6.662   4.126  0.00  0.00    -0.072 A 
ATOM     42  H   GQG d   1     -14.711   5.983   2.218  0.00  0.00     0.083 H 
ATOM     43  H   GQG d   1     -14.548   7.226   4.360  0.00  0.00     0.084 H 
ENDBRANCH  27  33
ENDBRANCH   1  23
TORSDOF 5
