REMARK  7 active torsions:
REMARK  status: ('A' for Active; 'I' for Inactive)
REMARK    1  A    between atoms: CAA_1  and  NAW_2 
REMARK    2  A    between atoms: NAW_2  and  CAB_3 
REMARK    3  A    between atoms: NAX_9  and  CAR_10 
REMARK    4  A    between atoms: CAR_10  and  CAU_11 
REMARK    5  A    between atoms: CAT_16  and  CAQ_17 
REMARK    6  A    between atoms: CAQ_17  and  CAP_18 
REMARK    7  A    between atoms: CAP_18  and  CAS_19 
ROOT
ATOM      1  CAU QLW d   1     -16.790   9.309   8.706  0.00  0.00    -0.040 A 
ATOM      2  CAK QLW d   1     -16.327   9.937   7.550  0.00  0.00    -0.075 A 
ATOM      3  CAI QLW d   1     -16.139   9.223   6.355  0.00  0.00    -0.076 A 
ATOM      4  CAJ QLW d   1     -17.077   7.942   8.640  0.00  0.00    -0.075 A 
ATOM      5  CAH QLW d   1     -16.907   7.218   7.452  0.00  0.00    -0.076 A 
ATOM      6  CAT QLW d   1     -16.448   7.855   6.295  0.00  0.00    -0.058 A 
ATOM      7  H   QLW d   1     -16.108  10.998   7.574  0.00  0.00     0.084 H 
ATOM      8  H   QLW d   1     -15.754   9.729   5.477  0.00  0.00     0.084 H 
ATOM      9  H   QLW d   1     -17.438   7.432   9.526  0.00  0.00     0.084 H 
ATOM     10  H   QLW d   1     -17.133   6.158   7.430  0.00  0.00     0.084 H 
ENDROOT
BRANCH   1  11
ATOM     11  CAR QLW d   1     -16.966  10.042   9.920  0.00  0.00     0.022 C 
ATOM     12  H   QLW d   1     -17.156   9.341  10.746  0.00  0.00     0.072 H 
ATOM     13  H   QLW d   1     -16.056  10.622  10.133  0.00  0.00     0.072 H 
BRANCH  11  14
ATOM     14  NAX QLW d   1     -18.107  10.956   9.782  0.00  0.00    -0.362 N 
ATOM     15  CAO QLW d   1     -17.939  12.343   9.906  0.00  0.00    -0.018 A 
ATOM     16  CAM QLW d   1     -19.048  13.163   9.740  0.00  0.00    -0.042 A 
ATOM     17  H   QLW d   1     -16.961  12.768  10.127  0.00  0.00     0.111 H 
ATOM     18  CAV QLW d   1     -20.322  12.645   9.465  0.00  0.00     0.032 A 
ATOM     19  H   QLW d   1     -18.924  14.242   9.826  0.00  0.00     0.089 H 
ATOM     20  NAW QLW d   1     -21.362  13.485   9.292  0.00  0.00    -0.389 N 
ATOM     21  CAL QLW d   1     -20.474  11.268   9.349  0.00  0.00    -0.042 A 
ATOM     22  CAN QLW d   1     -19.378  10.425   9.502  0.00  0.00    -0.018 A 
ATOM     23  H   QLW d   1     -21.456  10.847   9.137  0.00  0.00     0.089 H 
ATOM     24  H   QLW d   1     -19.505   9.348   9.404  0.00  0.00     0.111 H 
BRANCH  20  25
ATOM     25  CAA QLW d   1     -21.085  14.933   9.332  0.00  0.00    -0.019 C 
ATOM     26  H   QLW d   1     -22.021  15.490   9.177  0.00  0.00     0.056 H 
ATOM     27  H   QLW d   1     -20.369  15.191   8.538  0.00  0.00     0.056 H 
ATOM     28  H   QLW d   1     -20.659  15.198  10.311  0.00  0.00     0.056 H 
ENDBRANCH  20  25
BRANCH  20  29
ATOM     29  CAB QLW d   1     -22.711  12.960   8.958  0.00  0.00    -0.019 C 
ATOM     30  H   QLW d   1     -22.694  11.861   8.986  0.00  0.00     0.056 H 
ATOM     31  H   QLW d   1     -22.996  13.297   7.950  0.00  0.00     0.056 H 
ATOM     32  H   QLW d   1     -23.442  13.334   9.690  0.00  0.00     0.056 H 
ENDBRANCH  20  29
ENDBRANCH  11  14
ENDBRANCH   1  11
BRANCH   6  33
ATOM     33  CAQ QLW d   1     -16.247   7.114   5.108  0.00  0.00    -0.037 C 
ATOM     34  H   QLW d   1     -16.052   6.068   5.387  0.00  0.00     0.040 H 
ATOM     35  H   QLW d   1     -15.367   7.526   4.592  0.00  0.00     0.040 H 
BRANCH  33  36
ATOM     36  CAP QLW d   1     -17.427   7.134   4.128  0.00  0.00    -0.037 C 
ATOM     37  H   QLW d   1     -17.590   8.163   3.776  0.00  0.00     0.040 H 
ATOM     38  H   QLW d   1     -18.331   6.774   4.641  0.00  0.00     0.040 H 
BRANCH  36  39
ATOM     39  CAS QLW d   1     -17.155   6.301   3.022  0.00  0.00    -0.058 A 
ATOM     40  CAF QLW d   1     -16.030   6.514   2.213  0.00  0.00    -0.077 A 
ATOM     41  CAD QLW d   1     -15.770   5.683   1.119  0.00  0.00    -0.082 A 
ATOM     42  H   QLW d   1     -15.355   7.332   2.438  0.00  0.00     0.084 H 
ATOM     43  CAC QLW d   1     -16.641   4.630   0.821  0.00  0.00    -0.083 A 
ATOM     44  H   QLW d   1     -14.895   5.855   0.503  0.00  0.00     0.083 H 
ATOM     45  CAE QLW d   1     -17.765   4.419   1.620  0.00  0.00    -0.082 A 
ATOM     46  H   QLW d   1     -16.444   3.982  -0.025  0.00  0.00     0.083 H 
ATOM     47  CAG QLW d   1     -18.020   5.250   2.715  0.00  0.00    -0.077 A 
ATOM     48  H   QLW d   1     -18.445   3.606   1.391  0.00  0.00     0.083 H 
ATOM     49  H   QLW d   1     -18.896   5.077   3.330  0.00  0.00     0.084 H 
ENDBRANCH  36  39
ENDBRANCH  33  36
ENDBRANCH   6  33
TORSDOF 7
