REMARK  10 active torsions:
REMARK  status: ('A' for Active; 'I' for Inactive)
REMARK    1  A    between atoms: C1_7  and  C29_13 
REMARK    2  A    between atoms: C10_19  and  C2_10 
REMARK    3  A    between atoms: C14_14  and  C16_20 
REMARK       I    between atoms: N13_25  and  C14_14 
REMARK    4  A    between atoms: C11_17  and  C10_19 
REMARK    5  A    between atoms: C12_18  and  N13_25 
REMARK    6  A    between atoms: C16_20  and  C17_21 
REMARK    7  A    between atoms: C17_21  and  C18_22 
REMARK    8  A    between atoms: C18_22  and  C19_23 
REMARK    9  A    between atoms: C19_23  and  C20_24 
REMARK   10  A    between atoms: C20_24  and  N21_26 
ROOT
ATOM      1  C27 NZL d   1      75.089  34.024   0.839  0.00  0.00    -0.082 A 
ATOM      2  C26 NZL d   1      75.909  33.159   1.531  0.00  0.00    -0.082 A 
ATOM      3  C28 NZL d   1      75.597  34.846  -0.137  0.00  0.00    -0.076 A 
ATOM      4  C25 NZL d   1      77.250  33.081   1.261  0.00  0.00    -0.076 A 
ATOM      5  C23 NZL d   1      76.934  34.767  -0.400  0.00  0.00    -0.049 A 
ATOM      6  C24 NZL d   1      77.742  33.904   0.281  0.00  0.00    -0.045 A 
ATOM      7  C22 NZL d   1      77.669  35.560  -1.397  0.00  0.00    -0.021 C 
ATOM      8  C11 NZL d   1      79.128  34.004  -0.175  0.00  0.00    -0.004 C 
ATOM      9  C12 NZL d   1      79.075  35.350  -0.877  0.00  0.00     0.023 C 
ATOM     10  H1  NZL d   1      74.030  34.056   1.068  0.00  0.00     0.083 H 
ATOM     11  H2  NZL d   1      75.485  32.528   2.304  0.00  0.00     0.083 H 
ATOM     12  H3  NZL d   1      74.958  35.534  -0.680  0.00  0.00     0.084 H 
ATOM     13  H4  NZL d   1      77.895  32.397   1.800  0.00  0.00     0.084 H 
ATOM     14  H7  NZL d   1      77.376  36.620  -1.378  0.00  0.00     0.043 H 
ATOM     15  H8  NZL d   1      77.542  35.163  -2.415  0.00  0.00     0.043 H 
ATOM     16  H11 NZL d   1      79.421  33.170  -0.830  0.00  0.00     0.051 H 
ATOM     17  H12 NZL d   1      79.291  36.139  -0.141  0.00  0.00     0.074 H 
ENDROOT
BRANCH   9  18
ATOM     18  N13 NZL d   1      80.073  35.429  -1.908  0.00  0.00    -0.355 N 
ATOM     19  C14 NZL d   1      81.147  36.268  -1.729  0.00  0.00     0.217 C 
ATOM     20  O15 NZL d   1      81.152  37.302  -1.074  0.00  0.00    -0.274 OA
ATOM     21  H25 NZL d   1      79.988  34.883  -2.741  0.00  0.00     0.162 HD
BRANCH  19  22
ATOM     22  C16 NZL d   1      82.349  35.765  -2.444  0.00  0.00     0.009 C 
ATOM     23  H15 NZL d   1      82.328  34.666  -2.490  0.00  0.00     0.047 H 
ATOM     24  H16 NZL d   1      83.261  36.093  -1.924  0.00  0.00     0.047 H 
BRANCH  22  25
ATOM     25  C17 NZL d   1      82.312  36.339  -3.830  0.00  0.00    -0.057 C 
ATOM     26  H17 NZL d   1      82.480  37.425  -3.790  0.00  0.00     0.033 H 
ATOM     27  H18 NZL d   1      81.335  36.136  -4.293  0.00  0.00     0.033 H 
BRANCH  25  28
ATOM     28  C18 NZL d   1      83.404  35.681  -4.630  0.00  0.00    -0.063 C 
ATOM     29  H19 NZL d   1      83.396  34.597  -4.445  0.00  0.00     0.033 H 
ATOM     30  H20 NZL d   1      84.379  36.096  -4.335  0.00  0.00     0.033 H 
BRANCH  28  31
ATOM     31  C19 NZL d   1      83.163  35.946  -6.093  0.00  0.00    -0.043 C 
ATOM     32  H21 NZL d   1      83.553  36.940  -6.357  0.00  0.00     0.035 H 
ATOM     33  H22 NZL d   1      82.084  35.908  -6.302  0.00  0.00     0.035 H 
BRANCH  31  34
ATOM     34  C20 NZL d   1      83.873  34.892  -6.905  0.00  0.00     0.080 C 
ATOM     35  H23 NZL d   1      83.450  33.900  -6.690  0.00  0.00     0.075 H 
ATOM     36  H24 NZL d   1      84.947  34.892  -6.669  0.00  0.00     0.075 H 
BRANCH  34  37
ATOM     37  N21 NZL d   1      83.664  35.237  -8.326  0.00  0.00    -0.079 N 
ATOM     38  H26 NZL d   1      84.124  34.555  -8.909  0.00  0.00     0.274 HD
ATOM     39  H27 NZL d   1      84.049  36.150  -8.510  0.00  0.00     0.274 HD
ATOM     40  H28 NZL d   1      82.677  35.241  -8.529  0.00  0.00     0.274 HD
ENDBRANCH  34  37
ENDBRANCH  31  34
ENDBRANCH  28  31
ENDBRANCH  25  28
ENDBRANCH  22  25
ENDBRANCH  19  22
ENDBRANCH   9  18
BRANCH   8  41
ATOM     41  C10 NZL d   1      80.076  34.163   0.962  0.00  0.00    -0.031 C 
ATOM     42  H13 NZL d   1      80.995  34.618   0.563  0.00  0.00     0.041 H 
ATOM     43  H14 NZL d   1      79.611  34.849   1.685  0.00  0.00     0.041 H 
BRANCH  41  44
ATOM     44  C2  NZL d   1      80.475  32.930   1.709  0.00  0.00    -0.037 A 
ATOM     45  C3  NZL d   1      80.052  32.928   3.028  0.00  0.00    -0.073 A 
ATOM     46  C4  NZL d   1      80.343  31.896   3.882  0.00  0.00    -0.047 A 
ATOM     47  H5  NZL d   1      79.474  33.768   3.396  0.00  0.00     0.084 H 
ATOM     48  C5  NZL d   1      81.082  30.866   3.384  0.00  0.00     0.106 A 
ATOM     49  H6  NZL d   1      79.999  31.899   4.910  0.00  0.00     0.087 H 
ATOM     50  C6  NZL d   1      81.503  30.860   2.091  0.00  0.00     0.122 A 
ATOM     51  O9  NZL d   1      81.458  29.769   4.097  0.00  0.00    -0.323 OA
ATOM     52  C1  NZL d   1      81.226  31.876   1.202  0.00  0.00     0.083 A 
ATOM     53  O7  NZL d   1      82.218  29.727   1.818  0.00  0.00    -0.322 OA
ATOM     54  C8  NZL d   1      82.022  28.994   3.034  0.00  0.00     0.115 C 
ATOM     55  H9  NZL d   1      81.347  28.151   2.825  0.00  0.00     0.118 H 
ATOM     56  H10 NZL d   1      82.997  28.609   3.367  0.00  0.00     0.118 H 
BRANCH  52  57
ATOM     57  C29 NZL d   1      81.734  31.768  -0.194  0.00  0.00     0.212 C 
ATOM     58  O31 NZL d   1      81.733  30.626  -0.739  0.00  0.00    -0.644 OA
ATOM     59  O30 NZL d   1      82.141  32.811  -0.764  0.00  0.00    -0.644 OA
ENDBRANCH  52  57
ENDBRANCH  41  44
ENDBRANCH   8  41
TORSDOF 10
