REMARK  13 active torsions:
REMARK  status: ('A' for Active; 'I' for Inactive)
REMARK    1  A    between atoms: C11_11  and  C19_19 
REMARK    2  A    between atoms: C12_12  and  C20_20 
REMARK    3  A    between atoms: C25_24  and  C13_13 
REMARK    4  A    between atoms: C26_25  and  C14_14 
REMARK    5  A    between atoms: C27_26  and  C15_15 
REMARK    6  A    between atoms: C17_17  and  O6_36 
REMARK    7  A    between atoms: C18_18  and  O8_37 
REMARK       I    between atoms: C19_19  and  N1_29 
REMARK    8  A    between atoms: O6_36  and  C22_22 
REMARK    9  A    between atoms: O8_37  and  C24_23 
REMARK   10  A    between atoms: N1_29  and  C25_24 
REMARK   11  A    between atoms: N2_30  and  C26_25 
REMARK   12  A    between atoms: C27_26  and  N2_30 
REMARK   13  A    between atoms: N2_30  and  C28_27 
ROOT
ATOM      1  C1  X0P d   1      36.659 -33.829  -6.273  0.00  0.00    -0.025 A 
ATOM      2  C2  X0P d   1      36.879 -34.986  -5.553  0.00  0.00    -0.025 A 
ATOM      3  C3  X0P d   1      36.659 -32.605  -5.638  0.00  0.00    -0.056 A 
ATOM      4  C4  X0P d   1      37.098 -34.923  -4.194  0.00  0.00    -0.064 A 
ATOM      5  C11 X0P d   1      36.880 -32.557  -4.278  0.00  0.00     0.040 A 
ATOM      6  C14 X0P d   1      37.098 -33.707  -3.545  0.00  0.00    -0.016 A 
ATOM      7  C21 X0P d   1      36.435 -35.114  -8.268  0.00  0.00    -0.082 A 
ATOM      8  C29 X0P d   1      36.656 -36.270  -7.553  0.00  0.00    -0.082 A 
ATOM      9  C40 X0P d   1      36.439 -33.893  -7.631  0.00  0.00    -0.072 A 
ATOM     10  C50 X0P d   1      36.880 -36.206  -6.195  0.00  0.00    -0.072 A 
ATOM     11  H   X0P d   1      36.488 -31.694  -6.200  0.00  0.00     0.086 H 
ATOM     12  H   X0P d   1      37.271 -35.834  -3.633  0.00  0.00     0.085 H 
ATOM     13  H   X0P d   1      36.257 -35.165  -9.336  0.00  0.00     0.083 H 
ATOM     14  H   X0P d   1      36.654 -37.229  -8.058  0.00  0.00     0.083 H 
ATOM     15  H   X0P d   1      36.269 -32.984  -8.197  0.00  0.00     0.084 H 
ATOM     16  H   X0P d   1      37.057 -37.115  -5.631  0.00  0.00     0.084 H 
ENDROOT
BRANCH   6  17
ATOM     17  C26 X0P d   1      37.339 -33.661  -2.073  0.00  0.00     0.108 C 
ATOM     18  H   X0P d   1      37.722 -32.661  -1.822  0.00  0.00     0.083 H 
ATOM     19  H   X0P d   1      38.100 -34.417  -1.829  0.00  0.00     0.083 H 
BRANCH  17  20
ATOM     20  N2  X0P d   1      36.141 -33.922  -1.226  0.00  0.00    -0.067 N 
ATOM     21  H   X0P d   1      35.714 -34.753  -1.603  0.00  0.00     0.280 HD
BRANCH  20  22
ATOM     22  C27 X0P d   1      35.049 -32.886  -1.268  0.00  0.00     0.108 C 
ATOM     23  H   X0P d   1      35.473 -31.896  -1.044  0.00  0.00     0.083 H 
ATOM     24  H   X0P d   1      34.594 -32.872  -2.269  0.00  0.00     0.083 H 
BRANCH  22  25
ATOM     25  C15 X0P d   1      34.008 -33.224  -0.252  0.00  0.00    -0.013 A 
ATOM     26  C5  X0P d   1      33.989 -32.494   0.922  0.00  0.00    -0.074 A 
ATOM     27  C8  X0P d   1      33.062 -32.764   1.905  0.00  0.00    -0.080 A 
ATOM     28  H   X0P d   1      34.712 -31.700   1.071  0.00  0.00     0.084 H 
ATOM     29  C16 X0P d   1      32.150 -33.779   1.720  0.00  0.00    -0.050 A 
ATOM     30  H   X0P d   1      33.051 -32.181   2.819  0.00  0.00     0.083 H 
ATOM     31  C17 X0P d   1      32.170 -34.512   0.549  0.00  0.00     0.085 A 
ATOM     32  H   X0P d   1      31.420 -34.002   2.490  0.00  0.00     0.087 H 
ATOM     33  C12 X0P d   1      33.094 -34.249  -0.449  0.00  0.00     0.082 A 
BRANCH  31  34
ATOM     34  O6  X0P d   1      31.267 -35.544   0.350  0.00  0.00    -0.355 OA
BRANCH  34  35
ATOM     35  C22 X0P d   1      30.523 -35.786   1.539  0.00  0.00     0.010 C 
ATOM     36  H   X0P d   1      29.811 -36.607   1.366  0.00  0.00     0.066 H 
ATOM     37  H   X0P d   1      29.972 -34.876   1.818  0.00  0.00     0.066 H 
ATOM     38  H   X0P d   1      31.210 -36.062   2.352  0.00  0.00     0.066 H 
ENDBRANCH  34  35
ENDBRANCH  31  34
BRANCH  33  39
ATOM     39  C20 X0P d   1      33.080 -35.045  -1.712  0.00  0.00     0.212 C 
ATOM     40  O1  X0P d   1      31.934 -35.367  -2.139  0.00  0.00    -0.644 OA
ATOM     41  O4  X0P d   1      34.164 -35.306  -2.312  0.00  0.00    -0.644 OA
ENDBRANCH  33  39
ENDBRANCH  22  25
ENDBRANCH  20  22
BRANCH  20  42
ATOM     42  C28 X0P d   1      36.614 -34.284   0.141  0.00  0.00     0.067 C 
ATOM     43  H   X0P d   1      37.407 -35.043   0.066  0.00  0.00     0.068 H 
ATOM     44  H   X0P d   1      35.774 -34.688   0.725  0.00  0.00     0.068 H 
ATOM     45  H   X0P d   1      37.011 -33.388   0.641  0.00  0.00     0.068 H 
ENDBRANCH  20  42
ENDBRANCH  17  20
ENDBRANCH   6  17
BRANCH   5  46
ATOM     46  C19 X0P d   1      36.878 -31.242  -3.622  0.00  0.00     0.252 C 
ATOM     47  N1  X0P d   1      35.816 -30.454  -3.977  0.00  0.00    -0.353 N 
ATOM     48  H   X0P d   1      35.175 -30.781  -4.672  0.00  0.00     0.163 HD
ATOM     49  O3  X0P d   1      37.769 -30.942  -2.838  0.00  0.00    -0.268 OA
BRANCH  47  50
ATOM     50  C25 X0P d   1      35.601 -29.164  -3.372  0.00  0.00     0.019 C 
ATOM     51  H   X0P d   1      36.570 -28.761  -3.043  0.00  0.00     0.071 H 
ATOM     52  H   X0P d   1      35.159 -28.491  -4.121  0.00  0.00     0.071 H 
BRANCH  50  53
ATOM     53  C13 X0P d   1      34.687 -29.238  -2.194  0.00  0.00    -0.040 A 
ATOM     54  C6  X0P d   1      33.415 -29.759  -2.313  0.00  0.00    -0.073 A 
ATOM     55  C9  X0P d   1      32.572 -29.821  -1.224  0.00  0.00    -0.050 A 
ATOM     56  H   X0P d   1      33.074 -30.124  -3.275  0.00  0.00     0.084 H 
ATOM     57  C18 X0P d   1      33.014 -29.350  -0.005  0.00  0.00     0.068 A 
ATOM     58  H   X0P d   1      31.575 -30.234  -1.324  0.00  0.00     0.087 H 
ATOM     59  C10 X0P d   1      34.284 -28.830   0.122  0.00  0.00    -0.050 A 
ATOM     60  C7  X0P d   1      35.119 -28.771  -0.972  0.00  0.00    -0.073 A 
ATOM     61  H   X0P d   1      34.626 -28.467   1.084  0.00  0.00     0.087 H 
ATOM     62  H   X0P d   1      36.116 -28.357  -0.871  0.00  0.00     0.084 H 
BRANCH  57  63
ATOM     63  O8  X0P d   1      32.235 -29.379   1.144  0.00  0.00    -0.356 OA
BRANCH  63  64
ATOM     64  C24 X0P d   1      30.890 -29.721   0.828  0.00  0.00     0.010 C 
ATOM     65  H   X0P d   1      30.290 -29.739   1.750  0.00  0.00     0.066 H 
ATOM     66  H   X0P d   1      30.866 -30.714   0.355  0.00  0.00     0.066 H 
ATOM     67  H   X0P d   1      30.475 -28.975   0.135  0.00  0.00     0.066 H 
ENDBRANCH  63  64
ENDBRANCH  57  63
ENDBRANCH  50  53
ENDBRANCH  47  50
ENDBRANCH   5  46
TORSDOF 13
