REMARK  7 active torsions:
REMARK  status: ('A' for Active; 'I' for Inactive)
REMARK    1  A    between atoms: OAF_1  and  CAC_2 
REMARK    2  A    between atoms: CAB_3  and  OAG_4 
REMARK    3  A    between atoms: CAI_6  and  CAH_7 
REMARK    4  A    between atoms: CAI_6  and  OAM_10 
REMARK    5  A    between atoms: CAD_12  and  CAL_13 
REMARK    6  A    between atoms: CAL_13  and  CAK_14 
REMARK    7  A    between atoms: CAK_14  and  OAJ_15 
ROOT
ATOM      1  CAC XH2 d   1       2.785  13.243  22.091  0.00  0.00     0.082 C 
ATOM      2  CAB XH2 d   1       2.655  11.689  21.991  0.00  0.00     0.067 C 
ATOM      3  CAA XH2 d   1       1.766  11.199  23.135  0.00  0.00     0.003 C 
ATOM      4  CAI XH2 d   1       2.474  11.538  24.482  0.00  0.00     0.166 C 
ATOM      5  CAE XH2 d   1       2.963  12.887  24.523  0.00  0.00    -0.055 C 
ATOM      6  CAD XH2 d   1       3.132  13.736  23.415  0.00  0.00    -0.047 C 
ATOM      7  H   XH2 d   1       1.824  13.699  21.810  0.00  0.00     0.094 H 
ATOM      8  H   XH2 d   1       3.652  11.237  22.099  0.00  0.00     0.087 H 
ATOM      9  H   XH2 d   1       1.621  10.112  23.054  0.00  0.00     0.042 H 
ATOM     10  H   XH2 d   1       0.790  11.704  23.090  0.00  0.00     0.042 H 
ATOM     11  H   XH2 d   1       3.227  13.289  25.500  0.00  0.00     0.082 H 
ENDROOT
BRANCH   6  12
ATOM     12  CAL XH2 d   1       3.603  15.079  23.608  0.00  0.00    -0.022 C 
ATOM     13  H   XH2 d   1       3.301  15.692  22.746  0.00  0.00     0.043 H 
ATOM     14  H   XH2 d   1       4.700  15.066  23.682  0.00  0.00     0.043 H 
BRANCH  12  15
ATOM     15  CAK XH2 d   1       3.018  15.701  24.898  0.00  0.00     0.020 C 
ATOM     16  H   XH2 d   1       3.634  15.386  25.753  0.00  0.00     0.074 H 
ATOM     17  H   XH2 d   1       1.990  15.334  25.032  0.00  0.00     0.074 H 
BRANCH  15  18
ATOM     18  OAJ XH2 d   1       2.992  17.191  24.850  0.00  0.00    -0.401 OA
ATOM     19  H   XH2 d   1       2.626  17.526  25.660  0.00  0.00     0.209 HD
ENDBRANCH  15  18
ENDBRANCH  12  15
ENDBRANCH   6  12
BRANCH   1  20
ATOM     20  OAF XH2 d   1       3.789  13.588  21.104  0.00  0.00    -0.389 OA
ATOM     21  H   XH2 d   1       3.924  14.528  21.106  0.00  0.00     0.210 HD
ENDBRANCH   1  20
BRANCH   2  22
ATOM     22  OAG XH2 d   1       2.111  11.308  20.685  0.00  0.00    -0.393 OA
ATOM     23  H   XH2 d   1       2.692  11.616  19.999  0.00  0.00     0.210 HD
ENDBRANCH   2  22
BRANCH   4  24
ATOM     24  CAH XH2 d   1       1.579  11.268  25.597  0.00  0.00     0.213 C 
ATOM     25  OAO XH2 d   1       2.091  11.332  26.763  0.00  0.00    -0.645 OA
ATOM     26  OAN XH2 d   1       0.352  10.994  25.359  0.00  0.00    -0.645 OA
ENDBRANCH   4  24
BRANCH   4  27
ATOM     27  OAM XH2 d   1       3.691  10.716  24.593  0.00  0.00    -0.375 OA
ATOM     28  H   XH2 d   1       3.453   9.796  24.584  0.00  0.00     0.211 HD
ENDBRANCH   4  27
TORSDOF 7
