REMARK  10 active torsions:
REMARK  status: ('A' for Active; 'I' for Inactive)
REMARK    1  A    between atoms: C12_12  and  C7_7 
REMARK    2  A    between atoms: C8_8  and  C13_13 
REMARK    3  A    between atoms: C17_17  and  C9_9 
REMARK       I    between atoms: N23_23  and  C12_12 
REMARK    4  A    between atoms: C20_20  and  C15_15 
REMARK    5  A    between atoms: C20_20  and  C16_16 
REMARK    6  A    between atoms: C21_21  and  C17_17 
REMARK    7  A    between atoms: C18_18  and  C20_20 
REMARK    8  A    between atoms: C21_21  and  C18_18 
REMARK    9  A    between atoms: C19_19  and  C21_21 
REMARK   10  A    between atoms: C19_19  and  N23_23 
ROOT
ATOM      1  C21 S3G d   1      -9.231  45.187   0.160  0.00  0.00    -0.035 C 
ATOM      2  H   S3G d   1      -8.894  44.735  -0.785  0.00  0.00     0.043 H 
ENDROOT
BRANCH   1   3
ATOM      3  C17 S3G d   1     -10.574  44.614   0.535  0.00  0.00    -0.035 C 
ATOM      4  H   S3G d   1     -10.431  43.558   0.806  0.00  0.00     0.040 H 
ATOM      5  H   S3G d   1     -10.951  45.169   1.407  0.00  0.00     0.040 H 
BRANCH   3   6
ATOM      6  C9  S3G d   1     -11.608  44.682  -0.543  0.00  0.00    -0.038 A 
ATOM      7  C1  S3G d   1     -11.258  44.217  -1.804  0.00  0.00    -0.073 A 
ATOM      8  C2  S3G d   1     -12.151  44.218  -2.854  0.00  0.00    -0.047 A 
ATOM      9  H   S3G d   1     -10.254  43.843  -1.967  0.00  0.00     0.084 H 
ATOM     10  C10 S3G d   1     -13.408  44.694  -2.598  0.00  0.00     0.106 A 
ATOM     11  H   S3G d   1     -11.870  43.858  -3.837  0.00  0.00     0.087 H 
ATOM     12  C11 S3G d   1     -13.760  45.149  -1.364  0.00  0.00     0.122 A 
ATOM     13  O27 S3G d   1     -14.431  44.768  -3.494  0.00  0.00    -0.323 OA
ATOM     14  C8  S3G d   1     -12.889  45.158  -0.301  0.00  0.00     0.083 A 
ATOM     15  O28 S3G d   1     -15.059  45.568  -1.331  0.00  0.00    -0.322 OA
ATOM     16  C14 S3G d   1     -15.502  45.045  -2.590  0.00  0.00     0.115 C 
ATOM     17  H   S3G d   1     -16.054  44.111  -2.406  0.00  0.00     0.118 H 
ATOM     18  H   S3G d   1     -16.172  45.781  -3.058  0.00  0.00     0.118 H 
BRANCH  14  19
ATOM     19  C13 S3G d   1     -13.380  45.678   1.010  0.00  0.00     0.212 C 
ATOM     20  O24 S3G d   1     -14.482  45.235   1.436  0.00  0.00    -0.644 OA
ATOM     21  O26 S3G d   1     -12.675  46.554   1.589  0.00  0.00    -0.644 OA
ENDBRANCH  14  19
ENDBRANCH   3   6
ENDBRANCH   1   3
BRANCH   1  22
ATOM     22  C18 S3G d   1      -8.218  44.877   1.251  0.00  0.00    -0.057 C 
ATOM     23  H   S3G d   1      -7.270  45.367   0.983  0.00  0.00     0.034 H 
ATOM     24  H   S3G d   1      -8.595  45.299   2.194  0.00  0.00     0.034 H 
BRANCH  22  25
ATOM     25  C20 S3G d   1      -7.933  43.392   1.480  0.00  0.00    -0.061 C 
ATOM     26  H   S3G d   1      -8.860  42.906   1.819  0.00  0.00     0.038 H 
BRANCH  25  27
ATOM     27  C15 S3G d   1      -7.457  42.685   0.226  0.00  0.00    -0.073 C 
ATOM     28  H   S3G d   1      -7.269  41.625   0.452  0.00  0.00     0.028 H 
ATOM     29  H   S3G d   1      -6.528  43.154  -0.129  0.00  0.00     0.028 H 
ATOM     30  H   S3G d   1      -8.229  42.763  -0.554  0.00  0.00     0.028 H 
ENDBRANCH  25  27
BRANCH  25  31
ATOM     31  C16 S3G d   1      -6.880  43.272   2.569  0.00  0.00    -0.073 C 
ATOM     32  H   S3G d   1      -7.230  43.786   3.476  0.00  0.00     0.028 H 
ATOM     33  H   S3G d   1      -5.942  43.733   2.225  0.00  0.00     0.028 H 
ATOM     34  H   S3G d   1      -6.705  42.210   2.794  0.00  0.00     0.028 H 
ENDBRANCH  25  31
ENDBRANCH  22  25
ENDBRANCH   1  22
BRANCH   1  35
ATOM     35  C19 S3G d   1      -9.355  46.688  -0.021  0.00  0.00    -0.001 C 
ATOM     36  H   S3G d   1     -10.002  46.888  -0.888  0.00  0.00     0.064 H 
ATOM     37  H   S3G d   1      -8.355  47.106  -0.206  0.00  0.00     0.064 H 
BRANCH  35  38
ATOM     38  N23 S3G d   1      -9.921  47.332   1.140  0.00  0.00    -0.356 N 
ATOM     39  C12 S3G d   1      -9.167  48.203   1.893  0.00  0.00     0.251 C 
ATOM     40  O25 S3G d   1      -8.065  48.655   1.619  0.00  0.00    -0.268 OA
ATOM     41  H   S3G d   1     -10.868  47.144   1.399  0.00  0.00     0.162 HD
BRANCH  39  42
ATOM     42  C7  S3G d   1      -9.812  48.596   3.145  0.00  0.00     0.034 A 
ATOM     43  C3  S3G d   1     -10.867  49.476   3.129  0.00  0.00    -0.051 A 
ATOM     44  C5  S3G d   1     -11.434  49.809   4.340  0.00  0.00     0.003 A 
ATOM     45  H   S3G d   1     -11.239  49.892   2.200  0.00  0.00     0.087 H 
ATOM     46  N22 S3G d   1     -11.031  49.336   5.525  0.00  0.00    -0.273 NA
ATOM     47  H   S3G d   1     -12.266  50.504   4.332  0.00  0.00     0.114 H 
ATOM     48  C6  S3G d   1     -10.000  48.485   5.487  0.00  0.00     0.003 A 
ATOM     49  C4  S3G d   1      -9.359  48.084   4.337  0.00  0.00    -0.051 A 
ATOM     50  H   S3G d   1      -9.644  48.083   6.428  0.00  0.00     0.114 H 
ATOM     51  H   S3G d   1      -8.527  47.390   4.370  0.00  0.00     0.087 H 
ENDBRANCH  39  42
ENDBRANCH  35  38
ENDBRANCH   1  35
TORSDOF 10
