REMARK  10 active torsions:
REMARK  status: ('A' for Active; 'I' for Inactive)
REMARK    1  A    between atoms: C12_12  and  C7_7 
REMARK    2  A    between atoms: C8_8  and  C13_13 
REMARK    3  A    between atoms: C17_17  and  C9_9 
REMARK       I    between atoms: N23_23  and  C12_12 
REMARK    4  A    between atoms: C20_20  and  C15_15 
REMARK    5  A    between atoms: C20_20  and  C16_16 
REMARK    6  A    between atoms: C21_21  and  C17_17 
REMARK    7  A    between atoms: C18_18  and  C20_20 
REMARK    8  A    between atoms: C21_21  and  C18_18 
REMARK    9  A    between atoms: C19_19  and  C21_21 
REMARK   10  A    between atoms: C19_19  and  N23_23 
ROOT
ATOM      1  C21 4D2 d   1      -9.132  44.928  -0.320  0.00  0.00    -0.035 C 
ATOM      2  H   4D2 d   1      -8.777  44.477  -1.258  0.00  0.00     0.043 H 
ENDROOT
BRANCH   1   3
ATOM      3  C17 4D2 d   1     -10.480  44.330   0.035  0.00  0.00    -0.035 C 
ATOM      4  H   4D2 d   1     -10.337  43.258   0.234  0.00  0.00     0.040 H 
ATOM      5  H   4D2 d   1     -10.846  44.827   0.946  0.00  0.00     0.040 H 
BRANCH   3   6
ATOM      6  C9  4D2 d   1     -11.530  44.472  -1.028  0.00  0.00    -0.038 A 
ATOM      7  C3  4D2 d   1     -11.202  44.044  -2.305  0.00  0.00    -0.073 A 
ATOM      8  C4  4D2 d   1     -12.090  44.110  -3.354  0.00  0.00    -0.047 A 
ATOM      9  H   4D2 d   1     -10.211  43.643  -2.483  0.00  0.00     0.084 H 
ATOM     10  C10 4D2 d   1     -13.333  44.614  -3.088  0.00  0.00     0.106 A 
ATOM     11  H   4D2 d   1     -11.816  43.777  -4.348  0.00  0.00     0.087 H 
ATOM     12  C11 4D2 d   1     -13.670  45.034  -1.838  0.00  0.00     0.122 A 
ATOM     13  O27 4D2 d   1     -14.349  44.744  -3.994  0.00  0.00    -0.323 OA
ATOM     14  C8  4D2 d   1     -12.798  44.981  -0.773  0.00  0.00     0.083 A 
ATOM     15  O28 4D2 d   1     -14.958  45.489  -1.793  0.00  0.00    -0.322 OA
ATOM     16  C14 4D2 d   1     -15.414  44.973  -3.056  0.00  0.00     0.115 C 
ATOM     17  H   4D2 d   1     -15.933  44.020  -2.877  0.00  0.00     0.118 H 
ATOM     18  H   4D2 d   1     -16.117  45.696  -3.495  0.00  0.00     0.118 H 
BRANCH  14  19
ATOM     19  C13 4D2 d   1     -13.274  45.461   0.558  0.00  0.00     0.212 C 
ATOM     20  O24 4D2 d   1     -14.388  45.033   0.968  0.00  0.00    -0.644 OA
ATOM     21  O26 4D2 d   1     -12.548  46.278   1.181  0.00  0.00    -0.644 OA
ENDBRANCH  14  19
ENDBRANCH   3   6
ENDBRANCH   1   3
BRANCH   1  22
ATOM     22  C18 4D2 d   1      -8.123  44.653   0.779  0.00  0.00    -0.057 C 
ATOM     23  H   4D2 d   1      -7.168  45.117   0.492  0.00  0.00     0.034 H 
ATOM     24  H   4D2 d   1      -8.491  45.115   1.707  0.00  0.00     0.034 H 
BRANCH  22  25
ATOM     25  C20 4D2 d   1      -7.872  43.178   1.051  0.00  0.00    -0.061 C 
ATOM     26  H   4D2 d   1      -8.792  42.723   1.448  0.00  0.00     0.038 H 
BRANCH  25  27
ATOM     27  C15 4D2 d   1      -7.447  42.430  -0.192  0.00  0.00    -0.073 C 
ATOM     28  H   4D2 d   1      -7.278  41.372   0.057  0.00  0.00     0.028 H 
ATOM     29  H   4D2 d   1      -6.517  42.867  -0.583  0.00  0.00     0.028 H 
ATOM     30  H   4D2 d   1      -8.237  42.506  -0.954  0.00  0.00     0.028 H 
ENDBRANCH  25  27
BRANCH  25  31
ATOM     31  C16 4D2 d   1      -6.762  43.070   2.072  0.00  0.00    -0.073 C 
ATOM     32  H   4D2 d   1      -7.051  43.609   2.986  0.00  0.00     0.028 H 
ATOM     33  H   4D2 d   1      -5.842  43.512   1.662  0.00  0.00     0.028 H 
ATOM     34  H   4D2 d   1      -6.585  42.011   2.311  0.00  0.00     0.028 H 
ENDBRANCH  25  31
ENDBRANCH  22  25
ENDBRANCH   1  22
BRANCH   1  35
ATOM     35  C19 4D2 d   1      -9.263  46.426  -0.502  0.00  0.00    -0.001 C 
ATOM     36  H   4D2 d   1      -9.900  46.624  -1.377  0.00  0.00     0.064 H 
ATOM     37  H   4D2 d   1      -8.263  46.852  -0.673  0.00  0.00     0.064 H 
BRANCH  35  38
ATOM     38  N23 4D2 d   1      -9.850  47.061   0.657  0.00  0.00    -0.356 N 
ATOM     39  C12 4D2 d   1      -9.099  47.924   1.418  0.00  0.00     0.253 C 
ATOM     40  O25 4D2 d   1      -7.983  48.338   1.153  0.00  0.00    -0.268 OA
ATOM     41  H   4D2 d   1     -10.800  46.872   0.904  0.00  0.00     0.162 HD
BRANCH  39  42
ATOM     42  C7  4D2 d   1      -9.739  48.356   2.663  0.00  0.00     0.049 A 
ATOM     43  C2  4D2 d   1      -9.276  47.870   3.861  0.00  0.00    -0.065 A 
ATOM     44  C1  4D2 d   1      -9.898  48.300   5.011  0.00  0.00    -0.065 A 
ATOM     45  H   4D2 d   1      -8.448  47.171   3.900  0.00  0.00     0.085 H 
ATOM     46  C5  4D2 d   1     -10.943  49.189   4.901  0.00  0.00     0.002 A 
ATOM     47  H   4D2 d   1      -9.572  47.946   5.982  0.00  0.00     0.085 H 
ATOM     48  N22 4D2 d   1     -11.408  49.678   3.748  0.00  0.00    -0.272 NA
ATOM     49  H   4D2 d   1     -11.423  49.516   5.816  0.00  0.00     0.114 H 
ATOM     50  C6  4D2 d   1     -10.788  49.244   2.645  0.00  0.00     0.017 A 
ATOM     51  H   4D2 d   1     -11.131  49.612   1.685  0.00  0.00     0.116 H 
ENDBRANCH  39  42
ENDBRANCH  35  38
ENDBRANCH   1  35
TORSDOF 10
