REMARK  11 active torsions:
REMARK  status: ('A' for Active; 'I' for Inactive)
REMARK    1  A    between atoms: C9_9  and  C15_15 
REMARK    2  A    between atoms: C21_21  and  C10_10 
REMARK    3  A    between atoms: C20_20  and  C11_11 
REMARK    4  A    between atoms: C16_16  and  C20_20 
REMARK       I    between atoms: N27_27  and  C16_16 
REMARK    5  A    between atoms: C24_24  and  C18_18 
REMARK    6  A    between atoms: C24_24  and  C19_19 
REMARK    7  A    between atoms: C25_25  and  C21_21 
REMARK    8  A    between atoms: C22_22  and  C24_24 
REMARK    9  A    between atoms: C25_25  and  C22_22 
REMARK   10  A    between atoms: C23_23  and  C25_25 
REMARK   11  A    between atoms: C23_23  and  N27_27 
ROOT
ATOM      1  C25 VXO d   1      -9.114  45.093  -0.425  0.00  0.00    -0.035 C 
ATOM      2  H   VXO d   1      -8.786  44.735  -1.412  0.00  0.00     0.043 H 
ENDROOT
BRANCH   1   3
ATOM      3  C21 VXO d   1     -10.431  44.430  -0.071  0.00  0.00    -0.035 C 
ATOM      4  H   VXO d   1     -10.235  43.365   0.122  0.00  0.00     0.040 H 
ATOM      5  H   VXO d   1     -10.816  44.904   0.844  0.00  0.00     0.040 H 
BRANCH   3   6
ATOM      6  C10 VXO d   1     -11.493  44.524  -1.124  0.00  0.00    -0.038 A 
ATOM      7  C4  VXO d   1     -11.162  44.087  -2.397  0.00  0.00    -0.073 A 
ATOM      8  C6  VXO d   1     -12.068  44.106  -3.435  0.00  0.00    -0.047 A 
ATOM      9  H   VXO d   1     -10.159  43.719  -2.582  0.00  0.00     0.084 H 
ATOM     10  C13 VXO d   1     -13.326  44.570  -3.165  0.00  0.00     0.106 A 
ATOM     11  H   VXO d   1     -11.794  43.766  -4.427  0.00  0.00     0.087 H 
ATOM     12  C14 VXO d   1     -13.661  44.997  -1.919  0.00  0.00     0.122 A 
ATOM     13  O31 VXO d   1     -14.364  44.653  -4.054  0.00  0.00    -0.323 OA
ATOM     14  C9  VXO d   1     -12.777  44.985  -0.865  0.00  0.00     0.083 A 
ATOM     15  O32 VXO d   1     -14.960  45.405  -1.864  0.00  0.00    -0.322 OA
ATOM     16  C17 VXO d   1     -15.425  44.919  -3.131  0.00  0.00     0.115 C 
ATOM     17  H   VXO d   1     -15.986  43.987  -2.964  0.00  0.00     0.118 H 
ATOM     18  H   VXO d   1     -16.092  45.674  -3.572  0.00  0.00     0.118 H 
BRANCH  14  19
ATOM     19  C15 VXO d   1     -13.253  45.477   0.453  0.00  0.00     0.212 C 
ATOM     20  O28 VXO d   1     -14.378  45.077   0.864  0.00  0.00    -0.644 OA
ATOM     21  O29 VXO d   1     -12.509  46.302   1.050  0.00  0.00    -0.644 OA
ENDBRANCH  14  19
ENDBRANCH   3   6
ENDBRANCH   1   3
BRANCH   1  22
ATOM     22  C22 VXO d   1      -8.048  44.765   0.610  0.00  0.00    -0.057 C 
ATOM     23  H   VXO d   1      -7.096  45.190   0.260  0.00  0.00     0.034 H 
ATOM     24  H   VXO d   1      -8.338  45.245   1.556  0.00  0.00     0.034 H 
BRANCH  22  25
ATOM     25  C24 VXO d   1      -7.825  43.282   0.887  0.00  0.00    -0.061 C 
ATOM     26  H   VXO d   1      -8.762  42.852   1.270  0.00  0.00     0.038 H 
BRANCH  25  27
ATOM     27  C18 VXO d   1      -7.424  42.510  -0.355  0.00  0.00    -0.073 C 
ATOM     28  H   VXO d   1      -7.277  41.451  -0.097  0.00  0.00     0.028 H 
ATOM     29  H   VXO d   1      -6.487  42.923  -0.757  0.00  0.00     0.028 H 
ATOM     30  H   VXO d   1      -8.217  42.596  -1.112  0.00  0.00     0.028 H 
ENDBRANCH  25  27
BRANCH  25  31
ATOM     31  C19 VXO d   1      -6.751  43.159   1.952  0.00  0.00    -0.073 C 
ATOM     32  H   VXO d   1      -7.055  43.723   2.846  0.00  0.00     0.028 H 
ATOM     33  H   VXO d   1      -5.804  43.565   1.567  0.00  0.00     0.028 H 
ATOM     34  H   VXO d   1      -6.615  42.100   2.216  0.00  0.00     0.028 H 
ENDBRANCH  25  31
ENDBRANCH  22  25
ENDBRANCH   1  22
BRANCH   1  35
ATOM     35  C23 VXO d   1      -9.289  46.601  -0.464  0.00  0.00    -0.001 C 
ATOM     36  H   VXO d   1      -9.979  46.853  -1.283  0.00  0.00     0.064 H 
ATOM     37  H   VXO d   1      -8.309  47.063  -0.655  0.00  0.00     0.064 H 
BRANCH  35  38
ATOM     38  N27 VXO d   1      -9.821  47.138   0.771  0.00  0.00    -0.360 N 
ATOM     39  C16 VXO d   1      -9.042  47.919   1.601  0.00  0.00     0.221 C 
ATOM     40  O30 VXO d   1      -8.030  48.520   1.275  0.00  0.00    -0.273 OA
ATOM     41  H   VXO d   1     -10.767  46.940   1.027  0.00  0.00     0.162 HD
BRANCH  39  42
ATOM     42  C20 VXO d   1      -9.551  47.946   3.011  0.00  0.00     0.035 C 
ATOM     43  H   VXO d   1     -10.055  46.990   3.216  0.00  0.00     0.054 H 
ATOM     44  H   VXO d   1      -8.691  48.059   3.688  0.00  0.00     0.054 H 
BRANCH  42  45
ATOM     45  C11 VXO d   1     -10.502  49.040   3.282  0.00  0.00    -0.022 A 
ATOM     46  C7  VXO d   1     -10.897  50.066   2.451  0.00  0.00    -0.015 A 
ATOM     47  N26 VXO d   1     -11.796  50.838   3.132  0.00  0.00    -0.365 N 
ATOM     48  H   VXO d   1     -10.553  50.232   1.431  0.00  0.00     0.112 H 
ATOM     49  C12 VXO d   1     -11.993  50.334   4.388  0.00  0.00     0.042 A 
ATOM     50  H   VXO d   1     -12.258  51.677   2.754  0.00  0.00     0.165 HD
ATOM     51  C5  VXO d   1     -12.809  50.796   5.394  0.00  0.00    -0.056 A 
ATOM     52  C8  VXO d   1     -11.197  49.212   4.507  0.00  0.00    -0.001 A 
ATOM     53  C2  VXO d   1     -12.798  50.069   6.564  0.00  0.00    -0.081 A 
ATOM     54  H   VXO d   1     -13.425  51.680   5.273  0.00  0.00     0.086 H 
ATOM     55  C1  VXO d   1     -12.012  48.949   6.709  0.00  0.00    -0.082 A 
ATOM     56  H   VXO d   1     -13.424  50.387   7.390  0.00  0.00     0.083 H 
ATOM     57  C3  VXO d   1     -11.201  48.499   5.691  0.00  0.00    -0.070 A 
ATOM     58  H   VXO d   1     -12.032  48.407   7.648  0.00  0.00     0.083 H 
ATOM     59  H   VXO d   1     -10.586  47.615   5.814  0.00  0.00     0.084 H 
ENDBRANCH  42  45
ENDBRANCH  39  42
ENDBRANCH  35  38
ENDBRANCH   1  35
TORSDOF 11
