REMARK  13 active torsions:
REMARK  status: ('A' for Active; 'I' for Inactive)
REMARK    1  A    between atoms: C10_10  and  C19_19 
REMARK    2  A    between atoms: C11_11  and  C20_20 
REMARK    3  A    between atoms: C25_25  and  C12_12 
REMARK    4  A    between atoms: C26_26  and  C13_13 
REMARK    5  A    between atoms: C27_27  and  C14_14 
REMARK    6  A    between atoms: C17_17  and  O35_35 
REMARK    7  A    between atoms: C18_18  and  O36_36 
REMARK       I    between atoms: C19_19  and  N28_28 
REMARK    8  A    between atoms: N29_29  and  C22_22 
REMARK    9  A    between atoms: O35_35  and  C23_23 
REMARK   10  A    between atoms: O36_36  and  C24_24 
REMARK   11  A    between atoms: N28_28  and  C25_25 
REMARK   12  A    between atoms: N29_29  and  C26_26 
REMARK   13  A    between atoms: C27_27  and  N29_29 
ROOT
ATOM      1  C8  FYM d   1      10.990  36.045  -4.015  0.00  0.00    -0.032 A 
ATOM      2  C9  FYM d   1      13.163  35.109  -2.492  0.00  0.00    -0.039 A 
ATOM      3  C10 FYM d   1      11.065  36.247  -2.650  0.00  0.00     0.042 A 
ATOM      4  C14 FYM d   1      12.127  35.793  -1.890  0.00  0.00    -0.014 A 
ATOM      5  C15 FYM d   1      12.035  35.361  -4.588  0.00  0.00     0.106 A 
ATOM      6  C16 FYM d   1      13.084  34.910  -3.851  0.00  0.00     0.105 A 
ATOM      7  C21 FYM d   1      13.374  34.305  -5.893  0.00  0.00     0.115 A 
ATOM      8  O33 FYM d   1      12.154  35.055  -5.922  0.00  0.00    -0.323 OA
ATOM      9  O34 FYM d   1      14.014  34.252  -4.611  0.00  0.00    -0.323 OA
ATOM     10  H   FYM d   1      10.153  36.406  -4.601  0.00  0.00     0.089 H 
ATOM     11  H   FYM d   1      14.006  34.743  -1.917  0.00  0.00     0.088 H 
ATOM     12  H   FYM d   1      14.075  34.762  -6.607  0.00  0.00     0.118 H 
ATOM     13  H   FYM d   1      13.151  33.275  -6.207  0.00  0.00     0.118 H 
ENDROOT
BRANCH   4  14
ATOM     14  C27 FYM d   1      12.166  36.038  -0.419  0.00  0.00     0.108 C 
ATOM     15  H   FYM d   1      11.424  36.815  -0.181  0.00  0.00     0.083 H 
ATOM     16  H   FYM d   1      13.172  36.400  -0.159  0.00  0.00     0.083 H 
BRANCH  14  17
ATOM     17  N29 FYM d   1      11.872  34.846   0.418  0.00  0.00    -0.067 N 
ATOM     18  H   FYM d   1      12.362  34.076  -0.011  0.00  0.00     0.280 HD
BRANCH  17  19
ATOM     19  C22 FYM d   1      12.495  35.040   1.753  0.00  0.00     0.067 C 
ATOM     20  H   FYM d   1      12.286  34.165   2.386  0.00  0.00     0.068 H 
ATOM     21  H   FYM d   1      12.077  35.942   2.225  0.00  0.00     0.068 H 
ATOM     22  H   FYM d   1      13.582  35.157   1.637  0.00  0.00     0.068 H 
ENDBRANCH  17  19
BRANCH  17  23
ATOM     23  C26 FYM d   1      10.434  34.419   0.446  0.00  0.00     0.108 C 
ATOM     24  H   FYM d   1       9.800  35.282   0.699  0.00  0.00     0.083 H 
ATOM     25  H   FYM d   1      10.147  34.030  -0.542  0.00  0.00     0.083 H 
BRANCH  23  26
ATOM     26  C13 FYM d   1      10.254  33.348   1.476  0.00  0.00    -0.013 A 
ATOM     27  C2  FYM d   1       9.632  33.694   2.661  0.00  0.00    -0.074 A 
ATOM     28  C1  FYM d   1       9.442  32.765   3.659  0.00  0.00    -0.080 A 
ATOM     29  H   FYM d   1       9.289  34.712   2.807  0.00  0.00     0.084 H 
ATOM     30  C5  FYM d   1       9.884  31.474   3.479  0.00  0.00    -0.050 A 
ATOM     31  H   FYM d   1       8.947  33.048   4.581  0.00  0.00     0.083 H 
ATOM     32  C18 FYM d   1      10.509  31.127   2.298  0.00  0.00     0.085 A 
ATOM     33  H   FYM d   1       9.742  30.735   4.259  0.00  0.00     0.087 H 
ATOM     34  C11 FYM d   1      10.703  32.049   1.284  0.00  0.00     0.082 A 
BRANCH  32  35
ATOM     35  O36 FYM d   1      10.969  29.838   2.110  0.00  0.00    -0.355 OA
BRANCH  35  36
ATOM     36  C24 FYM d   1      10.918  29.130   3.341  0.00  0.00     0.010 C 
ATOM     37  H   FYM d   1      11.285  28.104   3.189  0.00  0.00     0.066 H 
ATOM     38  H   FYM d   1       9.880  29.099   3.703  0.00  0.00     0.066 H 
ATOM     39  H   FYM d   1      11.550  29.639   4.083  0.00  0.00     0.066 H 
ENDBRANCH  35  36
ENDBRANCH  32  35
BRANCH  34  40
ATOM     40  C20 FYM d   1      11.371  31.633   0.016  0.00  0.00     0.212 C 
ATOM     41  O30 FYM d   1      11.080  30.473  -0.423  0.00  0.00    -0.644 OA
ATOM     42  O32 FYM d   1      12.134  32.463  -0.558  0.00  0.00    -0.644 OA
ENDBRANCH  34  40
ENDBRANCH  23  26
ENDBRANCH  17  23
ENDBRANCH  14  17
ENDBRANCH   4  14
BRANCH   3  43
ATOM     43  C19 FYM d   1       9.972  36.973  -2.001  0.00  0.00     0.252 C 
ATOM     44  N28 FYM d   1       8.737  36.473  -2.303  0.00  0.00    -0.353 N 
ATOM     45  H   FYM d   1       8.656  35.740  -2.979  0.00  0.00     0.163 HD
ATOM     46  O31 FYM d   1      10.207  37.925  -1.270  0.00  0.00    -0.268 OA
BRANCH  44  47
ATOM     47  C25 FYM d   1       7.555  36.980  -1.668  0.00  0.00     0.019 C 
ATOM     48  H   FYM d   1       7.742  38.009  -1.329  0.00  0.00     0.071 H 
ATOM     49  H   FYM d   1       6.728  36.978  -2.393  0.00  0.00     0.071 H 
BRANCH  47  50
ATOM     50  C12 FYM d   1       7.177  36.139  -0.493  0.00  0.00    -0.040 A 
ATOM     51  C3  FYM d   1       6.826  36.758   0.686  0.00  0.00    -0.073 A 
ATOM     52  C6  FYM d   1       6.470  36.003   1.781  0.00  0.00    -0.050 A 
ATOM     53  H   FYM d   1       6.830  37.840   0.752  0.00  0.00     0.084 H 
ATOM     54  C17 FYM d   1       6.461  34.627   1.701  0.00  0.00     0.068 A 
ATOM     55  H   FYM d   1       6.196  36.492   2.709  0.00  0.00     0.087 H 
ATOM     56  C7  FYM d   1       6.817  33.995   0.524  0.00  0.00    -0.050 A 
ATOM     57  C4  FYM d   1       7.173  34.759  -0.570  0.00  0.00    -0.073 A 
ATOM     58  H   FYM d   1       6.817  32.913   0.461  0.00  0.00     0.087 H 
ATOM     59  H   FYM d   1       7.452  34.272  -1.497  0.00  0.00     0.084 H 
BRANCH  54  60
ATOM     60  O35 FYM d   1       6.090  33.930   2.846  0.00  0.00    -0.356 OA
BRANCH  60  61
ATOM     61  C23 FYM d   1       5.977  32.544   2.530  0.00  0.00     0.010 C 
ATOM     62  H   FYM d   1       5.684  31.985   3.431  0.00  0.00     0.066 H 
ATOM     63  H   FYM d   1       6.946  32.171   2.166  0.00  0.00     0.066 H 
ATOM     64  H   FYM d   1       5.215  32.407   1.749  0.00  0.00     0.066 H 
ENDBRANCH  60  61
ENDBRANCH  54  60
ENDBRANCH  47  50
ENDBRANCH  44  47
ENDBRANCH   3  43
TORSDOF 13
