REMARK  13 active torsions:
REMARK  status: ('A' for Active; 'I' for Inactive)
REMARK    1  A    between atoms: C1_1  and  C2_2 
REMARK    2  A    between atoms: C2_2  and  C3_3 
REMARK    3  A    between atoms: C2_2  and  C4_4 
REMARK    4  A    between atoms: C4_4  and  C5_5 
REMARK    5  A    between atoms: C5_5  and  C7_6 
REMARK    6  A    between atoms: C5_5  and  C20_19 
REMARK    7  A    between atoms: C7_6  and  C8_7 
REMARK    8  A    between atoms: C9_8  and  C17_16 
REMARK    9  A    between atoms: C20_19  and  N21_20 
REMARK       I    between atoms: N21_20  and  C22_21 
REMARK   10  A    between atoms: C22_21  and  C24_23 
REMARK   11  A    between atoms: C24_23  and  C25_24 
REMARK   12  A    between atoms: C25_24  and  C26_25 
REMARK   13  A    between atoms: C26_25  and  N27_26 
ROOT
ATOM      1  C5  K1T d   1      70.258  51.182  -0.162  0.00  0.00    -0.035 C 
ATOM      2  H   K1T d   1      70.060  50.659  -1.109  0.00  0.00     0.043 H 
ENDROOT
BRANCH   1   3
ATOM      3  C4  K1T d   1      70.514  50.165   0.941  0.00  0.00    -0.057 C 
ATOM      4  H   K1T d   1      71.385  49.560   0.650  0.00  0.00     0.034 H 
ATOM      5  H   K1T d   1      70.743  50.717   1.865  0.00  0.00     0.034 H 
BRANCH   3   6
ATOM      6  C2  K1T d   1      69.361  49.216   1.234  0.00  0.00    -0.061 C 
ATOM      7  H   K1T d   1      68.519  49.790   1.648  0.00  0.00     0.038 H 
BRANCH   6   8
ATOM      8  C1  K1T d   1      68.898  48.502  -0.016  0.00  0.00    -0.073 C 
ATOM      9  H   K1T d   1      68.066  47.827   0.234  0.00  0.00     0.028 H 
ATOM     10  H   K1T d   1      69.731  47.918  -0.435  0.00  0.00     0.028 H 
ATOM     11  H   K1T d   1      68.560  49.242  -0.757  0.00  0.00     0.028 H 
ENDBRANCH   6   8
BRANCH   6  12
ATOM     12  C3  K1T d   1      69.832  48.198   2.257  0.00  0.00    -0.073 C 
ATOM     13  H   K1T d   1      70.168  48.719   3.165  0.00  0.00     0.028 H 
ATOM     14  H   K1T d   1      70.666  47.616   1.838  0.00  0.00     0.028 H 
ATOM     15  H   K1T d   1      69.003  47.521   2.509  0.00  0.00     0.028 H 
ENDBRANCH   6  12
ENDBRANCH   3   6
ENDBRANCH   1   3
BRANCH   1  16
ATOM     16  C7  K1T d   1      69.069  52.045   0.197  0.00  0.00    -0.035 C 
ATOM     17  H   K1T d   1      69.332  52.626   1.093  0.00  0.00     0.040 H 
ATOM     18  H   K1T d   1      68.225  51.378   0.427  0.00  0.00     0.040 H 
BRANCH  16  19
ATOM     19  C8  K1T d   1      68.620  53.010  -0.864  0.00  0.00    -0.038 A 
ATOM     20  C9  K1T d   1      68.390  54.362  -0.618  0.00  0.00     0.083 A 
ATOM     21  C10 K1T d   1      67.952  55.124  -1.677  0.00  0.00     0.122 A 
ATOM     22  C11 K1T d   1      67.735  54.601  -2.914  0.00  0.00     0.106 A 
ATOM     23  O16 K1T d   1      67.662  56.465  -1.641  0.00  0.00    -0.322 OA
ATOM     24  C12 K1T d   1      67.950  53.273  -3.173  0.00  0.00    -0.047 A 
ATOM     25  O14 K1T d   1      67.285  55.527  -3.810  0.00  0.00    -0.323 OA
ATOM     26  C13 K1T d   1      68.389  52.489  -2.129  0.00  0.00    -0.073 A 
ATOM     27  H   K1T d   1      67.781  52.856  -4.159  0.00  0.00     0.087 H 
ATOM     28  H   K1T d   1      68.559  51.432  -2.301  0.00  0.00     0.084 H 
ATOM     29  C15 K1T d   1      66.996  56.594  -2.905  0.00  0.00     0.115 C 
ATOM     30  H   K1T d   1      65.911  56.616  -2.727  0.00  0.00     0.118 H 
ATOM     31  H   K1T d   1      67.310  57.540  -3.370  0.00  0.00     0.118 H 
BRANCH  20  32
ATOM     32  C17 K1T d   1      68.590  55.049   0.688  0.00  0.00     0.212 C 
ATOM     33  O18 K1T d   1      67.655  55.789   1.111  0.00  0.00    -0.644 OA
ATOM     34  O19 K1T d   1      69.698  54.877   1.271  0.00  0.00    -0.644 OA
ENDBRANCH  20  32
ENDBRANCH  16  19
ENDBRANCH   1  16
BRANCH   1  35
ATOM     35  C20 K1T d   1      71.485  52.057  -0.306  0.00  0.00    -0.001 C 
ATOM     36  H   K1T d   1      71.346  52.726  -1.168  0.00  0.00     0.064 H 
ATOM     37  H   K1T d   1      72.362  51.416  -0.477  0.00  0.00     0.064 H 
BRANCH  35  38
ATOM     38  N21 K1T d   1      71.713  52.856   0.875  0.00  0.00    -0.361 N 
ATOM     39  C22 K1T d   1      72.866  52.676   1.606  0.00  0.00     0.217 C 
ATOM     40  O23 K1T d   1      73.626  51.726   1.493  0.00  0.00    -0.274 OA
ATOM     41  H   K1T d   1      71.038  53.536   1.160  0.00  0.00     0.162 HD
BRANCH  39  42
ATOM     42  C24 K1T d   1      73.128  53.784   2.580  0.00  0.00     0.011 C 
ATOM     43  H   K1T d   1      72.523  54.662   2.309  0.00  0.00     0.047 H 
ATOM     44  H   K1T d   1      74.195  54.051   2.554  0.00  0.00     0.047 H 
BRANCH  42  45
ATOM     45  C25 K1T d   1      72.758  53.328   3.968  0.00  0.00    -0.035 C 
ATOM     46  H   K1T d   1      73.278  52.387   4.203  0.00  0.00     0.036 H 
ATOM     47  H   K1T d   1      71.671  53.172   4.032  0.00  0.00     0.036 H 
BRANCH  45  48
ATOM     48  C26 K1T d   1      73.180  54.403   4.942  0.00  0.00     0.080 C 
ATOM     49  H   K1T d   1      72.725  55.361   4.651  0.00  0.00     0.075 H 
ATOM     50  H   K1T d   1      74.276  54.499   4.931  0.00  0.00     0.075 H 
BRANCH  48  51
ATOM     51  N27 K1T d   1      72.730  54.036   6.304  0.00  0.00    -0.079 N 
ATOM     52  H   K1T d   1      73.011  54.752   6.955  0.00  0.00     0.274 HD
ATOM     53  H   K1T d   1      73.147  53.158   6.570  0.00  0.00     0.274 HD
ATOM     54  H   K1T d   1      71.726  53.948   6.314  0.00  0.00     0.274 HD
ENDBRANCH  48  51
ENDBRANCH  45  48
ENDBRANCH  42  45
ENDBRANCH  39  42
ENDBRANCH  35  38
ENDBRANCH   1  35
TORSDOF 13
