REMARK  4 active torsions:
REMARK  status: ('A' for Active; 'I' for Inactive)
REMARK    1  A    between atoms: NAL_12  and  CAI_9 
REMARK    2  A    between atoms: CAI_9  and  CAP_16 
REMARK    3  A    between atoms: CAS_19  and  NAL_12 
REMARK    4  A    between atoms: CAQ_17  and  CAR_18 
ROOT
ATOM      1  NAL 7SB d   1     -38.035  56.946   6.249  0.00  0.00    -0.219 N 
ATOM      2  H11 7SB d   1     -38.966  57.350   6.073  0.00  0.00     0.178 HD
ENDROOT
BRANCH   1   3
ATOM      3  CAI 7SB d   1     -36.855  57.507   5.539  0.00  0.00     0.033 C 
ATOM      4  H8  7SB d   1     -36.100  56.712   5.450  0.00  0.00     0.072 H 
ATOM      5  H9  7SB d   1     -36.450  58.330   6.147  0.00  0.00     0.072 H 
BRANCH   3   6
ATOM      6  CAP 7SB d   1     -37.116  58.001   4.261  0.00  0.00    -0.040 A 
ATOM      7  CAG 7SB d   1     -37.355  59.368   4.124  0.00  0.00    -0.074 A 
ATOM      8  CAE 7SB d   1     -37.610  59.934   2.878  0.00  0.00    -0.061 A 
ATOM      9  H6  7SB d   1     -37.342  60.001   5.004  0.00  0.00     0.084 H 
ATOM     10  CAO 7SB d   1     -37.613  59.143   1.721  0.00  0.00     0.034 A 
ATOM     11  H4  7SB d   1     -37.808  60.997   2.802  0.00  0.00     0.086 H 
ATOM     12 CL   7SB d   1     -37.933  59.962   0.066  0.00  0.00    -0.084 Cl
ATOM     13  CAF 7SB d   1     -37.371  57.769   1.854  0.00  0.00    -0.061 A 
ATOM     14  CAH 7SB d   1     -37.118  57.191   3.113  0.00  0.00    -0.074 A 
ATOM     15  H5  7SB d   1     -37.379  57.140   0.972  0.00  0.00     0.086 H 
ATOM     16  H7  7SB d   1     -36.926  56.127   3.196  0.00  0.00     0.084 H 
ENDBRANCH   3   6
ENDBRANCH   1   3
BRANCH   1  17
ATOM     17  CAS 7SB d   1     -37.918  55.920   7.119  0.00  0.00     0.720 A 
ATOM     18  NAK 7SB d   1     -36.785  55.280   7.484  0.00  0.00    -0.167 N 
ATOM     19  CAQ 7SB d   1     -37.219  54.359   8.348  0.00  0.00     0.199 A 
ATOM     20  H10 7SB d   1     -35.820  55.459   7.171  0.00  0.00     0.186 HD
ATOM     21  NAJ 7SB d   1     -38.541  54.414   8.425  0.00  0.00    -0.112 NA
ATOM     22  NAM 7SB d   1     -38.950  55.349   7.731  0.00  0.00     0.044 NA
BRANCH  19  23
ATOM     23  CAR 7SB d   1     -36.470  53.463   8.974  0.00  0.00     0.123 A 
ATOM     24  CAD 7SB d   1     -35.165  53.543   9.147  0.00  0.00    -0.045 A 
ATOM     25  CAB 7SB d   1     -34.762  52.448   9.756  0.00  0.00    -0.059 A 
ATOM     26  H3  7SB d   1     -34.530  54.372   8.839  0.00  0.00     0.088 H 
ATOM     27  CAC 7SB d   1     -35.793  51.648   9.963  0.00  0.00     0.019 A 
ATOM     28  H1  7SB d   1     -33.734  52.234  10.046  0.00  0.00     0.086 H 
ATOM     29  OAN 7SB d   1     -36.910  52.321   9.423  0.00  0.00    -0.319 OA
ATOM     30  H2  7SB d   1     -35.783  50.673  10.449  0.00  0.00     0.123 H 
ENDBRANCH  19  23
ENDBRANCH   1  17
TORSDOF 4
