REMARK  4 active torsions:
REMARK  status: ('A' for Active; 'I' for Inactive)
REMARK    1  A    between atoms: C2_15  and  N17_27 
REMARK    2  A    between atoms: C8_18  and  C9_19 
REMARK    3  A    between atoms: N20_25  and  C25_20 
REMARK    4  A    between atoms: N26_26  and  C29_21 
ROOT
ATOM      1  C23 5P8 d   1     -26.402 -20.014  59.844  0.00  0.00     0.120 C 
ATOM      2  C12 5P8 d   1     -34.419 -18.763  61.152  0.00  0.00    -0.064 A 
ATOM      3  C13 5P8 d   1     -34.901 -18.584  62.465  0.00  0.00    -0.045 A 
ATOM      4  C6  5P8 d   1     -29.973 -17.345  60.906  0.00  0.00    -0.035 A 
ATOM      5  C15 5P8 d   1     -33.708 -16.431  62.619  0.00  0.00    -0.036 A 
ATOM      6  C4  5P8 d   1     -27.886 -17.858  61.894  0.00  0.00     0.015 A 
ATOM      7  C19 5P8 d   1     -27.815 -20.246  59.713  0.00  0.00     0.145 A 
ATOM      8  C5  5P8 d   1     -28.901 -18.250  61.000  0.00  0.00    -0.000 A 
ATOM      9  C18 5P8 d   1     -28.922 -19.508  60.195  0.00  0.00     0.043 A 
ATOM     10  C11 5P8 d   1     -33.569 -17.776  60.551  0.00  0.00     0.041 A 
ATOM     11  C10 5P8 d   1     -33.194 -16.575  61.282  0.00  0.00    -0.011 A 
ATOM     12  C1  5P8 d   1     -30.066 -16.137  61.633  0.00  0.00     0.116 A 
ATOM     13  C14 5P8 d   1     -34.544 -17.425  63.184  0.00  0.00     0.117 A 
ATOM     14  C22 5P8 d   1     -30.069 -20.282  59.717  0.00  0.00     0.086 A 
ATOM     15  C2  5P8 d   1     -28.991 -15.841  62.505  0.00  0.00     0.154 A 
ATOM     16  C27 5P8 d   1     -33.110 -18.062  59.152  0.00  0.00     0.254 C 
ATOM     17  C28 5P8 d   1     -31.567 -20.066  59.873  0.00  0.00     0.040 C 
ATOM     18  C8  5P8 d   1     -32.275 -15.469  60.705  0.00  0.00     0.068 C 
ATOM     19  N24 5P8 d   1     -25.269 -19.816  59.970  0.00  0.00    -0.190 NA
ATOM     20  N3  5P8 d   1     -27.915 -16.690  62.630  0.00  0.00    -0.240 NA
ATOM     21  N21 5P8 d   1     -29.686 -21.361  59.028  0.00  0.00    -0.174 NA
ATOM     22  N20 5P8 d   1     -28.349 -21.321  59.037  0.00  0.00    -0.263 N 
ATOM     23  N26 5P8 d   1     -32.187 -19.126  58.871  0.00  0.00    -0.347 N 
ATOM     24  O30 5P8 d   1     -33.593 -17.313  58.295  0.00  0.00    -0.267 OA
ATOM     25  O7  5P8 d   1     -31.118 -15.232  61.568  0.00  0.00    -0.338 OA
ATOM     26  F16 5P8 d   1     -35.002 -17.260  64.423  0.00  0.00    -0.206 F 
ATOM     27  H   5P8 d   1     -34.692 -19.651  60.594  0.00  0.00     0.085 H 
ATOM     28  H   5P8 d   1     -35.541 -19.332  62.918  0.00  0.00     0.088 H 
ATOM     29  H   5P8 d   1     -30.784 -17.591  60.230  0.00  0.00     0.089 H 
ATOM     30  H   5P8 d   1     -33.452 -15.552  63.200  0.00  0.00     0.089 H 
ATOM     31  H   5P8 d   1     -27.030 -18.513  62.011  0.00  0.00     0.116 H 
ATOM     32  H   5P8 d   1     -31.750 -19.660  60.879  0.00  0.00     0.074 H 
ATOM     33  H   5P8 d   1     -32.064 -21.043  59.776  0.00  0.00     0.074 H 
ATOM     34  H   5P8 d   1     -31.931 -15.786  59.710  0.00  0.00     0.091 H 
ENDROOT
BRANCH  22  35
ATOM     35  C25 5P8 d   1     -27.631 -22.384  58.354  0.00  0.00     0.004 C 
ATOM     36  H   5P8 d   1     -28.352 -23.090  57.915  0.00  0.00     0.059 H 
ATOM     37  H   5P8 d   1     -26.990 -22.915  59.074  0.00  0.00     0.059 H 
ATOM     38  H   5P8 d   1     -27.008 -21.952  57.557  0.00  0.00     0.059 H 
ENDBRANCH  22  35
BRANCH  23  39
ATOM     39  C29 5P8 d   1     -31.820 -19.316  57.456  0.00  0.00    -0.015 C 
ATOM     40  H   5P8 d   1     -32.340 -18.569  56.839  0.00  0.00     0.056 H 
ATOM     41  H   5P8 d   1     -32.114 -20.326  57.133  0.00  0.00     0.056 H 
ATOM     42  H   5P8 d   1     -30.733 -19.195  57.340  0.00  0.00     0.056 H 
ENDBRANCH  23  39
BRANCH  15  43
ATOM     43  N17 5P8 d   1     -29.006 -14.668  63.268  0.00  0.00    -0.382 N 
ATOM     44  H   5P8 d   1     -28.222 -14.456  63.901  0.00  0.00     0.157 HD
ATOM     45  H   5P8 d   1     -29.801 -14.017  63.196  0.00  0.00     0.157 HD
ENDBRANCH  15  43
BRANCH  18  46
ATOM     46  C9  5P8 d   1     -33.012 -14.126  60.587  0.00  0.00    -0.048 C 
ATOM     47  H   5P8 d   1     -32.329 -13.368  60.175  0.00  0.00     0.031 H 
ATOM     48  H   5P8 d   1     -33.356 -13.808  61.582  0.00  0.00     0.031 H 
ATOM     49  H   5P8 d   1     -33.879 -14.241  59.919  0.00  0.00     0.031 H 
ENDBRANCH  18  46
TORSDOF 4
