REMARK  10 active torsions:
REMARK  status: ('A' for Active; 'I' for Inactive)
REMARK    1  A    between atoms: C1_1  and  O8_8 
REMARK    2  A    between atoms: C2_2  and  N7_7 
REMARK    3  A    between atoms: C5_5  and  C17_17 
REMARK    4  A    between atoms: O8_8  and  C9_9 
REMARK    5  A    between atoms: C9_9  and  C10_10 
REMARK    6  A    between atoms: C9_9  and  C29_29 
REMARK    7  A    between atoms: C11_11  and  C25_25 
REMARK    8  A    between atoms: C18_18  and  O23_23 
REMARK    9  A    between atoms: O23_23  and  C24_24 
REMARK       I    between atoms: C25_25  and  N26_26 
REMARK   10  A    between atoms: N26_26  and  C28_28 
ROOT
ATOM      1  O8  YPW d   1      31.016  43.708   9.137  0.00  0.00    -0.322 OA
ENDROOT
BRANCH   1   2
ATOM      2  C1  YPW d   1      29.979  44.636   9.220  0.00  0.00     0.212 A 
ATOM      3  C2  YPW d   1      28.900  44.315  10.064  0.00  0.00     0.174 A 
ATOM      4  N3  YPW d   1      27.854  45.196  10.176  0.00  0.00    -0.237 NA
ATOM      5  C4  YPW d   1      27.890  46.372   9.467  0.00  0.00     0.033 A 
ATOM      6  C5  YPW d   1      28.958  46.711   8.623  0.00  0.00     0.091 A 
ATOM      7  H   YPW d   1      27.062  47.064   9.563  0.00  0.00     0.118 H 
ATOM      8  N6  YPW d   1      30.009  45.812   8.512  0.00  0.00    -0.219 NA
BRANCH   3   9
ATOM      9  N7  YPW d   1      28.874  43.114  10.787  0.00  0.00    -0.380 N 
ATOM     10  H   YPW d   1      28.074  42.899  11.399  0.00  0.00     0.157 HD
ATOM     11  H   YPW d   1      29.655  42.447  10.706  0.00  0.00     0.157 HD
ENDBRANCH   3   9
BRANCH   6  12
ATOM     12  C17 YPW d   1      29.069  47.979   7.838  0.00  0.00     0.047 A 
ATOM     13  C18 YPW d   1      27.985  48.781   7.338  0.00  0.00     0.176 A 
ATOM     14  N19 YPW d   1      28.175  49.958   6.619  0.00  0.00    -0.236 NA
ATOM     15  C20 YPW d   1      29.452  50.383   6.370  0.00  0.00     0.005 A 
ATOM     16  C21 YPW d   1      30.584  49.694   6.803  0.00  0.00    -0.065 A 
ATOM     17  H   YPW d   1      29.590  51.300   5.809  0.00  0.00     0.114 H 
ATOM     18  C22 YPW d   1      30.374  48.496   7.534  0.00  0.00    -0.065 A 
ATOM     19  H   YPW d   1      31.583  50.058   6.590  0.00  0.00     0.085 H 
ATOM     20  H   YPW d   1      31.241  47.944   7.880  0.00  0.00     0.085 H 
BRANCH  13  21
ATOM     21  O23 YPW d   1      26.682  48.356   7.590  0.00  0.00    -0.339 OA
BRANCH  21  22
ATOM     22  C24 YPW d   1      25.618  49.182   7.090  0.00  0.00     0.012 C 
ATOM     23  H   YPW d   1      24.650  48.734   7.357  0.00  0.00     0.067 H 
ATOM     24  H   YPW d   1      25.697  49.259   5.996  0.00  0.00     0.067 H 
ATOM     25  H   YPW d   1      25.693  50.185   7.535  0.00  0.00     0.067 H 
ENDBRANCH  21  22
ENDBRANCH  13  21
ENDBRANCH   6  12
ENDBRANCH   1   2
BRANCH   1  26
ATOM     26  C9  YPW d   1      32.142  43.983   8.265  0.00  0.00     0.070 C 
ATOM     27  H   YPW d   1      31.766  44.389   7.314  0.00  0.00     0.091 H 
BRANCH  26  28
ATOM     28  C10 YPW d   1      33.151  44.993   8.840  0.00  0.00    -0.011 A 
ATOM     29  C11 YPW d   1      33.793  46.024   8.034  0.00  0.00     0.041 A 
ATOM     30  C12 YPW d   1      34.726  46.931   8.642  0.00  0.00    -0.064 A 
ATOM     31  C13 YPW d   1      35.033  46.835  10.022  0.00  0.00    -0.045 A 
ATOM     32  H   YPW d   1      35.200  47.697   8.039  0.00  0.00     0.085 H 
ATOM     33  C14 YPW d   1      34.416  45.836  10.804  0.00  0.00     0.117 A 
ATOM     34  H   YPW d   1      35.737  47.524  10.474  0.00  0.00     0.088 H 
ATOM     35  C15 YPW d   1      33.491  44.926  10.240  0.00  0.00    -0.036 A 
ATOM     36  F16 YPW d   1      34.707  45.747  12.106  0.00  0.00    -0.206 F 
ATOM     37  H   YPW d   1      33.033  44.170  10.867  0.00  0.00     0.089 H 
BRANCH  29  38
ATOM     38  C25 YPW d   1      33.534  46.195   6.557  0.00  0.00     0.251 C 
ATOM     39  N26 YPW d   1      33.344  47.506   6.121  0.00  0.00    -0.361 N 
ATOM     40  H   YPW d   1      33.379  48.245   6.794  0.00  0.00     0.162 HD
ATOM     41  O27 YPW d   1      33.518  45.201   5.831  0.00  0.00    -0.268 OA
BRANCH  39  42
ATOM     42  C28 YPW d   1      33.097  47.841   4.731  0.00  0.00    -0.018 C 
ATOM     43  H   YPW d   1      32.980  48.930   4.632  0.00  0.00     0.056 H 
ATOM     44  H   YPW d   1      32.178  47.341   4.391  0.00  0.00     0.056 H 
ATOM     45  H   YPW d   1      33.946  47.506   4.117  0.00  0.00     0.056 H 
ENDBRANCH  39  42
ENDBRANCH  29  38
ENDBRANCH  26  28
BRANCH  26  46
ATOM     46  C29 YPW d   1      32.803  42.617   8.015  0.00  0.00    -0.048 C 
ATOM     47  H   YPW d   1      33.674  42.746   7.355  0.00  0.00     0.031 H 
ATOM     48  H   YPW d   1      32.078  41.941   7.538  0.00  0.00     0.031 H 
ATOM     49  H   YPW d   1      33.130  42.187   8.973  0.00  0.00     0.031 H 
ENDBRANCH  26  46
ENDBRANCH   1  26
TORSDOF 10
