REMARK  12 active torsions:
REMARK  status: ('A' for Active; 'I' for Inactive)
REMARK    1  A    between atoms: C1_6  and  C_1 
REMARK    2  A    between atoms: C2_10  and  N_2 
REMARK    3  A    between atoms: C1_6  and  O_3 
REMARK    4  A    between atoms: O_3  and  C8_26 
REMARK    5  A    between atoms: P_4  and  S_5 
REMARK    6  A    between atoms: P_4  and  O2_12 
REMARK    7  A    between atoms: C8_26  and  P_4 
REMARK    8  A    between atoms: C1_6  and  C2_10 
REMARK    9  A    between atoms: O2_12  and  P1_9 
REMARK   10  A    between atoms: P1_9  and  O5_21 
REMARK   11  A    between atoms: O5_21  and  P2_13 
REMARK   12  A    between atoms: C7_24  and  N4_18 
ROOT
ATOM      1  C1  EOI d   1      49.626 -51.868  76.193  0.00  0.00     0.051 C 
ATOM      2  H5  EOI d   1      49.040 -51.930  75.264  0.00  0.00     0.085 H 
ENDROOT
BRANCH   1   3
ATOM      3  C   EOI d   1      49.327 -53.082  77.033  0.00  0.00    -0.051 C 
ATOM      4  H1  EOI d   1      49.647 -53.987  76.496  0.00  0.00     0.030 H 
ATOM      5  H2  EOI d   1      48.246 -53.135  77.229  0.00  0.00     0.030 H 
ATOM      6  H3  EOI d   1      49.870 -53.010  77.987  0.00  0.00     0.030 H 
ENDBRANCH   1   3
BRANCH   1   7
ATOM      7  O   EOI d   1      49.191 -50.730  76.937  0.00  0.00    -0.374 OA
BRANCH   7   8
ATOM      8  C8  EOI d   1      48.106 -49.954  76.404  0.00  0.00     0.100 C 
ATOM      9  H12 EOI d   1      47.535 -49.518  77.237  0.00  0.00     0.090 H 
ATOM     10  H13 EOI d   1      47.450 -50.613  75.816  0.00  0.00     0.090 H 
BRANCH   8  11
ATOM     11  P   EOI d   1      48.720 -48.592  75.318  0.00  0.00     0.284 P 
ATOM     12  O1  EOI d   1      50.130 -48.234  75.474  0.00  0.00    -0.277 OA
BRANCH  11  13
ATOM     13  S   EOI d   1      47.353 -47.141  75.546  0.00  0.00    -0.084 SA
ATOM     14  H4  EOI d   1      46.431 -47.526  75.412  0.00  0.00     0.111 HD
ENDBRANCH  11  13
BRANCH  11  15
ATOM     15  O2  EOI d   1      48.433 -49.105  73.858  0.00  0.00    -0.217 OA
BRANCH  15  16
ATOM     16  P1  EOI d   1      48.423 -49.952  72.515  0.00  0.00     0.425 P 
ATOM     17  O3  EOI d   1      49.756 -50.530  72.240  0.00  0.00    -0.624 OA
ATOM     18  O4  EOI d   1      47.826 -48.991  71.487  0.00  0.00    -0.624 OA
BRANCH  16  19
ATOM     19  O5  EOI d   1      47.304 -51.008  72.749  0.00  0.00    -0.173 OA
BRANCH  19  20
ATOM     20  P2  EOI d   1      46.065 -51.894  73.189  0.00  0.00     0.431 P 
ATOM     21  O6  EOI d   1      45.728 -53.056  72.315  0.00  0.00    -0.616 OA
ATOM     22  O7  EOI d   1      44.931 -50.854  73.324  0.00  0.00    -0.616 OA
ATOM     23  O8  EOI d   1      46.517 -52.328  74.593  0.00  0.00    -0.616 OA
ENDBRANCH  19  20
ENDBRANCH  16  19
ENDBRANCH  15  16
ENDBRANCH  11  15
ENDBRANCH   8  11
ENDBRANCH   7   8
ENDBRANCH   1   7
BRANCH   1  24
ATOM     24  C2  EOI d   1      51.137 -51.764  75.795  0.00  0.00     0.026 C 
ATOM     25  H6  EOI d   1      51.437 -52.735  75.375  0.00  0.00     0.068 H 
ATOM     26  H7  EOI d   1      51.223 -50.987  75.021  0.00  0.00     0.068 H 
BRANCH  24  27
ATOM     27  N   EOI d   1      52.082 -51.434  76.855  0.00  0.00    -0.322 N 
ATOM     28  C3  EOI d   1      52.272 -50.203  77.413  0.00  0.00     0.068 A 
ATOM     29  N1  EOI d   1      53.195 -50.167  78.344  0.00  0.00    -0.236 NA
ATOM     30  H8  EOI d   1      51.705 -49.324  77.110  0.00  0.00     0.143 H 
ATOM     31  C4  EOI d   1      53.643 -51.478  78.405  0.00  0.00     0.149 A 
ATOM     32  C5  EOI d   1      52.969 -52.267  77.488  0.00  0.00     0.165 A 
ATOM     33  C7  EOI d   1      54.596 -52.118  79.223  0.00  0.00     0.155 A 
ATOM     34  N2  EOI d   1      53.136 -53.583  77.284  0.00  0.00    -0.222 NA
ATOM     35  C6  EOI d   1      54.062 -54.082  78.112  0.00  0.00     0.091 A 
ATOM     36  N3  EOI d   1      54.782 -53.449  79.047  0.00  0.00    -0.222 NA
ATOM     37  H11 EOI d   1      54.255 -55.144  78.012  0.00  0.00     0.146 H 
BRANCH  33  38
ATOM     38  N4  EOI d   1      55.305 -51.493  80.166  0.00  0.00    -0.382 N 
ATOM     39  H9  EOI d   1      55.181 -50.482  80.318  0.00  0.00     0.157 HD
ATOM     40  H10 EOI d   1      55.976 -52.022  80.741  0.00  0.00     0.157 HD
ENDBRANCH  33  38
ENDBRANCH  24  27
ENDBRANCH   1  24
TORSDOF 12
