REMARK  31 active torsions:
REMARK  status: ('A' for Active; 'I' for Inactive)
REMARK    1  A    between atoms: CAO_2  and  CAB_1 
REMARK    2  A    between atoms: CBD_3  and  CAO_2 
REMARK    3  A    between atoms: CBS_4  and  CBD_3 
REMARK    4  A    between atoms: CBH_10  and  CBU_9 
REMARK    5  A    between atoms: CCC_31  and  CBH_10 
REMARK       I    between atoms: CBR_11  and  N_13 
REMARK    6  A    between atoms: CCC_31  and  CBR_11 
REMARK    7  A    between atoms: N_13  and  CA_14 
REMARK    8  A    between atoms: CA_14  and  CB_15 
REMARK    9  A    between atoms: CA_14  and  C_18 
REMARK   10  A    between atoms: CB_15  and  CG1_16 
REMARK   11  A    between atoms: CB_15  and  CG2_17 
REMARK       I    between atoms: C_18  and  NBJ_20 
REMARK   12  A    between atoms: NBJ_20  and  CBB_21 
REMARK   13  A    between atoms: CBB_21  and  CAN_22 
REMARK   14  A    between atoms: CAN_22  and  CAA_23 
REMARK   15  A    between atoms: CCC_31  and  OAM_24 
REMARK   16  A    between atoms: CBF_25  and  CBC_26 
REMARK   17  A    between atoms: CBF_25  and  CCC_31 
REMARK   18  A    between atoms: CBC_26  and  CBE_27 
REMARK   19  A    between atoms: CBE_27  and  NCA_28 
REMARK   20  A    between atoms: NCA_28  and  NBM_29 
REMARK   21  A    between atoms: NCA_28  and  CBG_43 
REMARK       I    between atoms: NBM_29  and  CBQ_30 
REMARK   22  A    between atoms: CBQ_30  and  CBZ_33 
REMARK   23  A    between atoms: CBZ_33  and  CCB_34 
REMARK   24  A    between atoms: CBZ_33  and  NBK_38 
REMARK   25  A    between atoms: CCB_34  and  CAG_35 
REMARK   26  A    between atoms: CCB_34  and  CAH_36 
REMARK   27  A    between atoms: CCB_34  and  CAF_37 
REMARK       I    between atoms: NBK_38  and  CBO_39 
REMARK   28  A    between atoms: CBO_39  and  OBN_41 
REMARK   29  A    between atoms: OBN_41  and  CAC_42 
REMARK   30  A    between atoms: CBG_43  and  CBT_44 
REMARK   31  A    between atoms: CBW_49  and  CBV_50 
ROOT
ATOM      1  CBF 9MW d   1      13.154  23.564   4.998  0.00  0.00    -0.026 C 
ATOM      2  H   9MW d   1      12.737  22.574   5.236  0.00  0.00     0.038 H 
ATOM      3  H   9MW d   1      13.921  23.461   4.216  0.00  0.00     0.038 H 
ENDROOT
BRANCH   1   4
ATOM      4  CBC 9MW d   1      13.771  24.138   6.213  0.00  0.00    -0.037 C 
ATOM      5  H   9MW d   1      13.232  23.785   7.105  0.00  0.00     0.035 H 
ATOM      6  H   9MW d   1      13.726  25.236   6.168  0.00  0.00     0.035 H 
BRANCH   4   7
ATOM      7  CBE 9MW d   1      15.190  23.696   6.278  0.00  0.00     0.105 C 
ATOM      8  H   9MW d   1      15.755  24.395   6.912  0.00  0.00     0.079 H 
ATOM      9  H   9MW d   1      15.614  23.698   5.263  0.00  0.00     0.079 H 
BRANCH   7  10
ATOM     10  NCA 9MW d   1      15.298  22.342   6.841  0.00  0.00     0.015 N 
ATOM     11  H   9MW d   1      14.387  21.950   7.022  0.00  0.00     0.309 HD
BRANCH  10  12
ATOM     12  NBM 9MW d   1      15.911  21.662   6.125  0.00  0.00    -0.185 N 
ATOM     13  CBQ 9MW d   1      15.271  20.617   5.520  0.00  0.00     0.265 C 
ATOM     14  OAK 9MW d   1      14.060  20.338   5.680  0.00  0.00    -0.269 OA
ATOM     15  H   9MW d   1      16.881  21.837   5.956  0.00  0.00     0.197 HD
BRANCH  13  16
ATOM     16  CBZ 9MW d   1      16.187  19.775   4.611  0.00  0.00     0.099 C 
ATOM     17  H   9MW d   1      16.940  20.432   4.151  0.00  0.00     0.088 H 
BRANCH  16  18
ATOM     18  CCB 9MW d   1      15.393  19.051   3.475  0.00  0.00    -0.022 C 
BRANCH  18  19
ATOM     19  CAG 9MW d   1      14.546  20.076   2.688  0.00  0.00    -0.067 C 
ATOM     20  H   9MW d   1      13.991  19.559   1.891  0.00  0.00     0.028 H 
ATOM     21  H   9MW d   1      15.208  20.833   2.242  0.00  0.00     0.028 H 
ATOM     22  H   9MW d   1      13.836  20.566   3.370  0.00  0.00     0.028 H 
ENDBRANCH  18  19
BRANCH  18  23
ATOM     23  CAH 9MW d   1      14.462  17.962   4.090  0.00  0.00    -0.067 C 
ATOM     24  H   9MW d   1      15.069  17.234   4.649  0.00  0.00     0.028 H 
ATOM     25  H   9MW d   1      13.920  17.445   3.284  0.00  0.00     0.028 H 
ATOM     26  H   9MW d   1      13.741  18.438   4.770  0.00  0.00     0.028 H 
ENDBRANCH  18  23
BRANCH  18  27
ATOM     27  CAF 9MW d   1      16.429  18.360   2.496  0.00  0.00    -0.067 C 
ATOM     28  H   9MW d   1      17.088  19.125   2.060  0.00  0.00     0.028 H 
ATOM     29  H   9MW d   1      15.885  17.843   1.692  0.00  0.00     0.028 H 
ATOM     30  H   9MW d   1      17.034  17.632   3.057  0.00  0.00     0.028 H 
ENDBRANCH  18  27
ENDBRANCH  16  18
BRANCH  16  31
ATOM     31  NBK 9MW d   1      16.850  18.781   5.456  0.00  0.00    -0.323 N 
ATOM     32  CBO 9MW d   1      18.123  18.764   5.594  0.00  0.00     0.360 C 
ATOM     33  OAI 9MW d   1      18.825  19.603   4.998  0.00  0.00    -0.239 OA
ATOM     34  H   9MW d   1      16.297  18.100   5.936  0.00  0.00     0.165 HD
BRANCH  32  35
ATOM     35  OBN 9MW d   1      18.718  17.792   6.421  0.00  0.00    -0.309 OA
BRANCH  35  36
ATOM     36  CAC 9MW d   1      20.040  18.164   6.759  0.00  0.00     0.015 C 
ATOM     37  H   9MW d   1      20.485  17.392   7.404  0.00  0.00     0.067 H 
ATOM     38  H   9MW d   1      20.025  19.125   7.294  0.00  0.00     0.067 H 
ATOM     39  H   9MW d   1      20.639  18.265   5.842  0.00  0.00     0.067 H 
ENDBRANCH  35  36
ENDBRANCH  32  35
ENDBRANCH  16  31
ENDBRANCH  13  16
ENDBRANCH  10  12
BRANCH  10  40
ATOM     40  CBG 9MW d   1      16.047  22.468   8.005  0.00  0.00     0.128 C 
ATOM     41  H   9MW d   1      15.539  23.184   8.668  0.00  0.00     0.086 H 
ATOM     42  H   9MW d   1      17.041  22.857   7.737  0.00  0.00     0.086 H 
BRANCH  40  43
ATOM     43  CBT 9MW d   1      16.228  21.187   8.747  0.00  0.00    -0.030 A 
ATOM     44  CAX 9MW d   1      15.162  20.585   9.349  0.00  0.00    -0.074 A 
ATOM     45  CAZ 9MW d   1      15.333  19.379  10.054  0.00  0.00    -0.072 A 
ATOM     46  H   9MW d   1      14.179  21.038   9.284  0.00  0.00     0.084 H 
ATOM     47  CBW 9MW d   1      16.578  18.786  10.147  0.00  0.00    -0.026 A 
ATOM     48  H   9MW d   1      14.479  18.910  10.529  0.00  0.00     0.084 H 
ATOM     49  CBA 9MW d   1      17.679  19.390   9.542  0.00  0.00    -0.072 A 
ATOM     50  CAY 9MW d   1      17.512  20.594   8.837  0.00  0.00    -0.074 A 
ATOM     51  H   9MW d   1      18.659  18.933   9.615  0.00  0.00     0.084 H 
ATOM     52  H   9MW d   1      18.364  21.068   8.363  0.00  0.00     0.084 H 
BRANCH  47  53
ATOM     53  CBV 9MW d   1      16.729  17.568  10.874  0.00  0.00    -0.023 A 
ATOM     54  CAR 9MW d   1      17.902  17.390  11.661  0.00  0.00    -0.055 A 
ATOM     55  CAP 9MW d   1      18.098  16.228  12.395  0.00  0.00     0.003 A 
ATOM     56  H   9MW d   1      18.652  18.172  11.688  0.00  0.00     0.087 H 
ATOM     57  NBI 9MW d   1      17.152  15.230  12.372  0.00  0.00    -0.273 NA
ATOM     58  H   9MW d   1      18.998  16.107  12.987  0.00  0.00     0.114 H 
ATOM     59  CAQ 9MW d   1      15.980  15.389  11.601  0.00  0.00     0.003 A 
ATOM     60  CAS 9MW d   1      15.777  16.587  10.845  0.00  0.00    -0.055 A 
ATOM     61  H   9MW d   1      15.233  14.603  11.582  0.00  0.00     0.114 H 
ATOM     62  H   9MW d   1      14.877  16.715  10.255  0.00  0.00     0.087 H 
ENDBRANCH  47  53
ENDBRANCH  40  43
ENDBRANCH  10  40
ENDBRANCH   7  10
ENDBRANCH   4   7
ENDBRANCH   1   4
BRANCH   1  63
ATOM     63  CCC 9MW d   1      12.061  24.453   4.502  0.00  0.00     0.142 C 
BRANCH  63  64
ATOM     64  CBH 9MW d   1      11.550  23.888   3.094  0.00  0.00    -0.004 C 
ATOM     65  H   9MW d   1      12.160  24.317   2.286  0.00  0.00     0.045 H 
ATOM     66  H   9MW d   1      11.647  22.792   3.084  0.00  0.00     0.045 H 
BRANCH  64  67
ATOM     67  CBU 9MW d   1      10.179  24.245   2.894  0.00  0.00    -0.055 A 
ATOM     68  CAV 9MW d   1       9.859  25.472   2.332  0.00  0.00    -0.076 A 
ATOM     69  CAT 9MW d   1       8.508  25.830   2.133  0.00  0.00    -0.076 A 
ATOM     70  H   9MW d   1      10.648  26.158   2.045  0.00  0.00     0.084 H 
ATOM     71  CBS 9MW d   1       7.489  24.945   2.502  0.00  0.00    -0.058 A 
ATOM     72  H   9MW d   1       8.260  26.790   1.695  0.00  0.00     0.084 H 
ATOM     73  CAU 9MW d   1       7.819  23.705   3.070  0.00  0.00    -0.076 A 
ATOM     74  CAW 9MW d   1       9.158  23.356   3.265  0.00  0.00    -0.076 A 
ATOM     75  H   9MW d   1       7.033  23.016   3.358  0.00  0.00     0.084 H 
ATOM     76  H   9MW d   1       9.409  22.397   3.704  0.00  0.00     0.084 H 
BRANCH  71  77
ATOM     77  CBD 9MW d   1       6.110  25.298   2.305  0.00  0.00    -0.041 C 
ATOM     78  H   9MW d   1       5.475  24.438   2.564  0.00  0.00     0.040 H 
ATOM     79  H   9MW d   1       5.857  26.149   2.954  0.00  0.00     0.040 H 
BRANCH  77  80
ATOM     80  CAO 9MW d   1       5.871  25.674   0.888  0.00  0.00    -0.065 C 
ATOM     81  H   9MW d   1       6.015  26.762   0.819  0.00  0.00     0.032 H 
ATOM     82  H   9MW d   1       6.640  25.164   0.289  0.00  0.00     0.032 H 
BRANCH  80  83
ATOM     83  CAB 9MW d   1       4.532  25.365   0.241  0.00  0.00    -0.076 C 
ATOM     84  H   9MW d   1       4.540  25.714  -0.802  0.00  0.00     0.027 H 
ATOM     85  H   9MW d   1       3.731  25.878   0.793  0.00  0.00     0.027 H 
ATOM     86  H   9MW d   1       4.356  24.279   0.264  0.00  0.00     0.027 H 
ENDBRANCH  80  83
ENDBRANCH  77  80
ENDBRANCH  71  77
ENDBRANCH  64  67
ENDBRANCH  63  64
BRANCH  63  87
ATOM     87  CBR 9MW d   1      10.840  24.468   5.534  0.00  0.00     0.253 C 
ATOM     88  OAL 9MW d   1      10.478  23.438   6.114  0.00  0.00    -0.270 OA
ATOM     89  N   9MW d   1      10.258  25.666   5.708  0.00  0.00    -0.345 N 
ATOM     90  H   9MW d   1      10.611  26.460   5.213  0.00  0.00     0.163 HD
BRANCH  89  91
ATOM     91  CA  9MW d   1       9.081  25.835   6.637  0.00  0.00     0.092 C 
ATOM     92  H   9MW d   1       8.610  24.853   6.791  0.00  0.00     0.088 H 
BRANCH  91  93
ATOM     93  CB  9MW d   1       9.524  26.426   8.111  0.00  0.00    -0.033 C 
ATOM     94  H   9MW d   1       8.831  26.032   8.869  0.00  0.00     0.042 H 
BRANCH  93  95
ATOM     95  CG1 9MW d   1      10.958  25.969   8.465  0.00  0.00    -0.071 C 
ATOM     96  H   9MW d   1      11.238  26.371   9.450  0.00  0.00     0.028 H 
ATOM     97  H   9MW d   1      11.660  26.341   7.704  0.00  0.00     0.028 H 
ATOM     98  H   9MW d   1      10.996  24.870   8.493  0.00  0.00     0.028 H 
ENDBRANCH  93  95
BRANCH  93  99
ATOM     99  CG2 9MW d   1       9.443  27.980   8.121  0.00  0.00    -0.071 C 
ATOM    100  H   9MW d   1       8.420  28.295   7.868  0.00  0.00     0.028 H 
ATOM    101  H   9MW d   1      10.146  28.389   7.380  0.00  0.00     0.028 H 
ATOM    102  H   9MW d   1       9.706  28.354   9.121  0.00  0.00     0.028 H 
ENDBRANCH  93  99
ENDBRANCH  91  93
BRANCH  91 103
ATOM    103  C   9MW d   1       8.030  26.809   5.921  0.00  0.00     0.240 C 
ATOM    104  O   9MW d   1       8.372  27.930   5.479  0.00  0.00    -0.271 OA
ATOM    105  NBJ 9MW d   1       6.846  26.348   5.830  0.00  0.00    -0.359 N 
ATOM    106  H   9MW d   1       6.647  25.440   6.198  0.00  0.00     0.162 HD
BRANCH 105 107
ATOM    107  CBB 9MW d   1       5.793  27.098   5.214  0.00  0.00    -0.005 C 
ATOM    108  H   9MW d   1       5.117  26.415   4.679  0.00  0.00     0.064 H 
ATOM    109  H   9MW d   1       6.221  27.822   4.505  0.00  0.00     0.064 H 
BRANCH 107 110
ATOM    110  CAN 9MW d   1       5.049  27.811   6.257  0.00  0.00    -0.054 C 
ATOM    111  H   9MW d   1       4.194  28.297   5.764  0.00  0.00     0.034 H 
ATOM    112  H   9MW d   1       5.724  28.579   6.662  0.00  0.00     0.034 H 
BRANCH 110 113
ATOM    113  CAA 9MW d   1       4.498  27.047   7.435  0.00  0.00    -0.075 C 
ATOM    114  H   9MW d   1       3.974  27.741   8.109  0.00  0.00     0.027 H 
ATOM    115  H   9MW d   1       5.324  26.563   7.977  0.00  0.00     0.027 H 
ATOM    116  H   9MW d   1       3.794  26.281   7.078  0.00  0.00     0.027 H 
ENDBRANCH 110 113
ENDBRANCH 107 110
ENDBRANCH 105 107
ENDBRANCH  91 103
ENDBRANCH  89  91
ENDBRANCH  63  87
BRANCH  63 117
ATOM    117  OAM 9MW d   1      12.558  25.769   4.330  0.00  0.00    -0.380 OA
ATOM    118  H   9MW d   1      11.866  26.326   3.992  0.00  0.00     0.211 HD
ENDBRANCH  63 117
ENDBRANCH   1  63
TORSDOF 31
