REMARK  29 active torsions:
REMARK  status: ('A' for Active; 'I' for Inactive)
REMARK    1  A    between atoms: CA_4  and  C_1 
REMARK       I    between atoms: C_1  and  NBJ_37 
REMARK    2  A    between atoms: N_2  and  CA_4 
REMARK       I    between atoms: CBR_43  and  N_2 
REMARK    3  A    between atoms: CA_4  and  CB_5 
REMARK    4  A    between atoms: CB_5  and  CG1_53 
REMARK    5  A    between atoms: CB_5  and  CG2_54 
REMARK    6  A    between atoms: OBN_40  and  CAC_8 
REMARK    7  A    between atoms: CCB_51  and  CAF_9 
REMARK    8  A    between atoms: CCB_51  and  CAG_10 
REMARK    9  A    between atoms: CCB_51  and  CAH_11 
REMARK   10  A    between atoms: CCC_52  and  OAM_16 
REMARK   11  A    between atoms: CBB_30  and  CAN_17 
REMARK   12  A    between atoms: CBD_32  and  CAO_18 
REMARK   13  A    between atoms: CAS_22  and  CAQ_20 
REMARK   14  A    between atoms: NCA_50  and  CAS_22 
REMARK   15  A    between atoms: CBA_29  and  CAY_27 
REMARK   16  A    between atoms: NBJ_37  and  CBB_30 
REMARK   17  A    between atoms: CBE_33  and  CBC_31 
REMARK   18  A    between atoms: CBC_31  and  CBF_34 
REMARK   19  A    between atoms: CBS_44  and  CBD_32 
REMARK   20  A    between atoms: NCA_50  and  CBE_33 
REMARK   21  A    between atoms: CBF_34  and  CCC_52 
REMARK   22  A    between atoms: CBH_36  and  CBU_46 
REMARK   23  A    between atoms: CCC_52  and  CBH_36 
REMARK       I    between atoms: NBK_38  and  CBO_41 
REMARK   24  A    between atoms: CBZ_49  and  NBK_38 
REMARK       I    between atoms: CBQ_42  and  NBM_39 
REMARK   25  A    between atoms: NBM_39  and  NCA_50 
REMARK   26  A    between atoms: CBO_41  and  OBN_40 
REMARK   27  A    between atoms: CBZ_49  and  CBQ_42 
REMARK   28  A    between atoms: CCC_52  and  CBR_43 
REMARK   29  A    between atoms: CBZ_49  and  CCB_51 
ROOT
ATOM      1  CBC 378 d   1      13.663  24.077   6.297  0.00  0.00    -0.037 C 
ATOM      2  H   378 d   1      13.694  25.170   6.174  0.00  0.00     0.035 H 
ATOM      3  H   378 d   1      13.112  23.827   7.215  0.00  0.00     0.035 H 
ENDROOT
BRANCH   1   4
ATOM      4  CBE 378 d   1      15.085  23.528   6.385  0.00  0.00     0.105 C 
ATOM      5  H   378 d   1      15.687  24.183   7.032  0.00  0.00     0.079 H 
ATOM      6  H   378 d   1      15.527  23.501   5.378  0.00  0.00     0.079 H 
BRANCH   4   7
ATOM      7  NCA 378 d   1      15.074  22.169   6.946  0.00  0.00     0.015 N 
ATOM      8  H   378 d   1      14.132  21.810   6.957  0.00  0.00     0.309 HD
BRANCH   7   9
ATOM      9  CAS 378 d   1      15.542  22.232   8.192  0.00  0.00     0.128 C 
ATOM     10  H   378 d   1      16.408  22.910   8.190  0.00  0.00     0.086 H 
ATOM     11  H   378 d   1      14.748  22.653   8.826  0.00  0.00     0.086 H 
BRANCH   9  12
ATOM     12  CAQ 378 d   1      15.948  21.031   8.765  0.00  0.00    -0.030 A 
ATOM     13  CAP 378 d   1      17.289  20.664   8.745  0.00  0.00    -0.074 A 
ATOM     14  CAR 378 d   1      17.697  19.483   9.356  0.00  0.00    -0.071 A 
ATOM     15  H   378 d   1      18.017  21.299   8.253  0.00  0.00     0.084 H 
ATOM     16  CBA 378 d   1      16.772  18.680  10.015  0.00  0.00    -0.019 A 
ATOM     17  H   378 d   1      18.739  19.187   9.319  0.00  0.00     0.084 H 
ATOM     18  CBW 378 d   1      15.432  19.051  10.037  0.00  0.00    -0.071 A 
ATOM     19  CBV 378 d   1      15.026  20.243   9.445  0.00  0.00    -0.074 A 
ATOM     20  H   378 d   1      14.701  18.410  10.517  0.00  0.00     0.084 H 
ATOM     21  H   378 d   1      13.991  20.557   9.514  0.00  0.00     0.084 H 
BRANCH  16  22
ATOM     22  CAY 378 d   1      17.167  17.534  10.572  0.00  0.00     0.015 C 
ATOM     23  SAI 378 d   1      16.160  16.244  10.828  0.00  0.00    -0.101 SA
ATOM     24  CBG 378 d   1      17.387  15.323  11.788  0.00  0.00    -0.044 C 
ATOM     25  CBT 378 d   1      18.475  16.206  11.880  0.00  0.00    -0.075 C 
ATOM     26  H   378 d   1      17.302  14.318  12.199  0.00  0.00     0.095 H 
ATOM     27  CAZ 378 d   1      18.280  17.419  11.315  0.00  0.00    -0.065 C 
ATOM     28  H   378 d   1      19.408  15.934  12.371  0.00  0.00     0.084 H 
ATOM     29  H   378 d   1      18.977  18.245  11.453  0.00  0.00     0.085 H 
ENDBRANCH  16  22
ENDBRANCH   9  12
ENDBRANCH   7   9
BRANCH   7  30
ATOM     30  NBM 378 d   1      15.751  21.469   6.281  0.00  0.00    -0.185 N 
ATOM     31  CBQ 378 d   1      15.144  20.529   5.529  0.00  0.00     0.265 C 
ATOM     32  OAK 378 d   1      13.940  20.275   5.578  0.00  0.00    -0.269 OA
ATOM     33  H   378 d   1      16.746  21.570   6.275  0.00  0.00     0.197 HD
BRANCH  31  34
ATOM     34  CBZ 378 d   1      16.103  19.683   4.672  0.00  0.00     0.099 C 
ATOM     35  H   378 d   1      16.885  20.345   4.272  0.00  0.00     0.088 H 
BRANCH  34  36
ATOM     36  NBK 378 d   1      16.733  18.645   5.502  0.00  0.00    -0.323 N 
ATOM     37  CBO 378 d   1      18.065  18.527   5.538  0.00  0.00     0.360 C 
ATOM     38  OAI 378 d   1      18.759  19.355   4.948  0.00  0.00    -0.239 OA
ATOM     39  H   378 d   1      16.163  18.025   6.042  0.00  0.00     0.165 HD
BRANCH  37  40
ATOM     40  OBN 378 d   1      18.642  17.482   6.200  0.00  0.00    -0.309 OA
BRANCH  40  41
ATOM     41  CAC 378 d   1      19.483  17.960   7.256  0.00  0.00     0.015 C 
ATOM     42  H   378 d   1      19.939  17.105   7.777  0.00  0.00     0.067 H 
ATOM     43  H   378 d   1      18.882  18.545   7.967  0.00  0.00     0.067 H 
ATOM     44  H   378 d   1      20.275  18.597   6.835  0.00  0.00     0.067 H 
ENDBRANCH  40  41
ENDBRANCH  37  40
ENDBRANCH  34  36
BRANCH  34  45
ATOM     45  CCB 378 d   1      15.383  19.010   3.495  0.00  0.00    -0.022 C 
BRANCH  45  46
ATOM     46  CAF 378 d   1      14.432  17.929   4.015  0.00  0.00    -0.067 C 
ATOM     47  H   378 d   1      13.920  17.452   3.166  0.00  0.00     0.028 H 
ATOM     48  H   378 d   1      13.687  18.386   4.682  0.00  0.00     0.028 H 
ATOM     49  H   378 d   1      15.006  17.172   4.570  0.00  0.00     0.028 H 
ENDBRANCH  45  46
BRANCH  45  50
ATOM     50  CAG 378 d   1      16.429  18.361   2.579  0.00  0.00    -0.067 C 
ATOM     51  H   378 d   1      17.116  19.133   2.202  0.00  0.00     0.028 H 
ATOM     52  H   378 d   1      15.923  17.875   1.732  0.00  0.00     0.028 H 
ATOM     53  H   378 d   1      16.998  17.610   3.147  0.00  0.00     0.028 H 
ENDBRANCH  45  50
BRANCH  45  54
ATOM     54  CAH 378 d   1      14.588  20.053   2.704  0.00  0.00    -0.067 C 
ATOM     55  H   378 d   1      13.838  20.518   3.361  0.00  0.00     0.028 H 
ATOM     56  H   378 d   1      14.082  19.564   1.858  0.00  0.00     0.028 H 
ATOM     57  H   378 d   1      15.273  20.826   2.325  0.00  0.00     0.028 H 
ENDBRANCH  45  54
ENDBRANCH  34  45
ENDBRANCH  31  34
ENDBRANCH   7  30
ENDBRANCH   4   7
ENDBRANCH   1   4
BRANCH   1  58
ATOM     58  CBF 378 d   1      12.970  23.443   5.092  0.00  0.00    -0.026 C 
ATOM     59  H   378 d   1      12.486  22.505   5.401  0.00  0.00     0.038 H 
ATOM     60  H   378 d   1      13.716  23.231   4.312  0.00  0.00     0.038 H 
BRANCH  58  61
ATOM     61  CCC 378 d   1      11.915  24.400   4.538  0.00  0.00     0.142 C 
BRANCH  61  62
ATOM     62  OAM 378 d   1      12.470  25.716   4.478  0.00  0.00    -0.380 OA
ATOM     63  H   378 d   1      11.820  26.317   4.134  0.00  0.00     0.211 HD
ENDBRANCH  61  62
BRANCH  61  64
ATOM     64  CBH 378 d   1      11.544  23.939   3.119  0.00  0.00    -0.004 C 
ATOM     65  H   378 d   1      12.098  24.544   2.386  0.00  0.00     0.045 H 
ATOM     66  H   378 d   1      11.815  22.880   3.000  0.00  0.00     0.045 H 
BRANCH  64  67
ATOM     67  CBU 378 d   1      10.181  24.089   2.898  0.00  0.00    -0.055 A 
ATOM     68  CAV 378 d   1       9.331  23.003   3.060  0.00  0.00    -0.076 A 
ATOM     69  CAT 378 d   1       7.966  23.156   2.845  0.00  0.00    -0.076 A 
ATOM     70  H   378 d   1       9.730  22.039   3.353  0.00  0.00     0.084 H 
ATOM     71  CBS 378 d   1       7.460  24.359   2.363  0.00  0.00    -0.055 A 
ATOM     72  H   378 d   1       7.292  22.333   3.054  0.00  0.00     0.084 H 
ATOM     73  CAU 378 d   1       8.319  25.436   2.168  0.00  0.00    -0.076 A 
ATOM     74  CAW 378 d   1       9.684  25.285   2.392  0.00  0.00    -0.076 A 
ATOM     75  H   378 d   1       7.925  26.392   1.842  0.00  0.00     0.084 H 
ATOM     76  H   378 d   1      10.362  26.102   2.171  0.00  0.00     0.084 H 
BRANCH  71  77
ATOM     77  CBD 378 d   1       6.082  24.494   2.186  0.00  0.00    -0.027 C 
ATOM     78  H   378 d   1       5.692  23.591   1.694  0.00  0.00     0.045 H 
ATOM     79  H   378 d   1       5.603  24.613   3.169  0.00  0.00     0.045 H 
BRANCH  77  80
ATOM     80  CAO 378 d   1       5.760  25.714   1.321  0.00  0.00    -0.108 C 
ATOM     81  CAB 378 d   1       4.564  25.774   0.722  0.00  0.00    -0.124 C 
ATOM     82  H   378 d   1       4.309  26.631   0.101  0.00  0.00     0.066 H 
ATOM     83  H   378 d   1       3.847  24.966   0.856  0.00  0.00     0.066 H 
ATOM     84  H   378 d   1       6.487  26.515   1.195  0.00  0.00     0.076 H 
ENDBRANCH  77  80
ENDBRANCH  71  77
ENDBRANCH  64  67
ENDBRANCH  61  64
BRANCH  61  85
ATOM     85  CBR 378 d   1      10.681  24.397   5.459  0.00  0.00     0.253 C 
ATOM     86  N   378 d   1      10.167  25.604   5.750  0.00  0.00    -0.345 N 
ATOM     87  H   378 d   1      10.636  26.430   5.438  0.00  0.00     0.163 HD
ATOM     88  OAL 378 d   1      10.290  23.355   5.985  0.00  0.00    -0.270 OA
BRANCH  86  89
ATOM     89  CA  378 d   1       8.917  25.721   6.526  0.00  0.00     0.092 C 
ATOM     90  H   378 d   1       8.447  24.727   6.574  0.00  0.00     0.088 H 
BRANCH  89  91
ATOM     91  C   378 d   1       7.944  26.682   5.823  0.00  0.00     0.241 C 
ATOM     92  O   378 d   1       8.312  27.776   5.394  0.00  0.00    -0.271 OA
ATOM     93  NBJ 378 d   1       6.739  26.158   5.563  0.00  0.00    -0.356 N 
ATOM     94  H   378 d   1       6.568  25.198   5.786  0.00  0.00     0.162 HD
BRANCH  93  95
ATOM     95  CBB 378 d   1       5.661  26.953   4.959  0.00  0.00     0.010 C 
ATOM     96  H   378 d   1       6.068  27.563   4.139  0.00  0.00     0.070 H 
ATOM     97  H   378 d   1       4.884  26.281   4.565  0.00  0.00     0.070 H 
BRANCH  95  98
ATOM     98  CAN 378 d   1       5.055  27.867   6.025  0.00  0.00    -0.095 C 
ATOM     99  CAA 378 d   1       5.023  27.449   7.300  0.00  0.00    -0.123 C 
ATOM    100  H   378 d   1       4.595  28.087   8.072  0.00  0.00     0.066 H 
ATOM    101  H   378 d   1       5.425  26.472   7.563  0.00  0.00     0.066 H 
ATOM    102  H   378 d   1       4.655  28.843   5.753  0.00  0.00     0.078 H 
ENDBRANCH  95  98
ENDBRANCH  93  95
ENDBRANCH  89  91
BRANCH  89 103
ATOM    103  CB  378 d   1       9.199  26.187   7.967  0.00  0.00    -0.033 C 
ATOM    104  H   378 d   1       8.454  25.731   8.636  0.00  0.00     0.042 H 
BRANCH 103 105
ATOM    105  CG1 378 d   1       9.092  27.715   8.080  0.00  0.00    -0.071 C 
ATOM    106  H   378 d   1       9.297  28.021   9.116  0.00  0.00     0.028 H 
ATOM    107  H   378 d   1       8.078  28.033   7.798  0.00  0.00     0.028 H 
ATOM    108  H   378 d   1       9.824  28.185   7.407  0.00  0.00     0.028 H 
ENDBRANCH 103 105
BRANCH 103 109
ATOM    109  CG2 378 d   1      10.597  25.734   8.401  0.00  0.00    -0.071 C 
ATOM    110  H   378 d   1      10.670  24.640   8.319  0.00  0.00     0.028 H 
ATOM    111  H   378 d   1      10.773  26.036   9.444  0.00  0.00     0.028 H 
ATOM    112  H   378 d   1      11.352  26.201   7.752  0.00  0.00     0.028 H 
ENDBRANCH 103 109
ENDBRANCH  89 103
ENDBRANCH  86  89
ENDBRANCH  61  85
ENDBRANCH  58  61
ENDBRANCH   1  58
TORSDOF 29
