REMARK  20 active torsions:
REMARK  status: ('A' for Active; 'I' for Inactive)
REMARK    1  A    between atoms: CA_15  and  CB_16 
REMARK    2  A    between atoms: CB_16  and  CG1_17 
REMARK    3  A    between atoms: CB_16  and  CG2_18 
REMARK    4  A    between atoms: CCA_22  and  OAK_23 
REMARK    5  A    between atoms: CCA_22  and  CBD_24 
REMARK    6  A    between atoms: CBD_24  and  CBA_25 
REMARK    7  A    between atoms: CBA_25  and  CBC_26 
REMARK    8  A    between atoms: CBC_26  and  NBY_27 
REMARK    9  A    between atoms: NBY_27  and  NBK_28 
REMARK   10  A    between atoms: NBY_27  and  CBE_41 
REMARK       I    between atoms: NBK_28  and  CBO_29 
REMARK   11  A    between atoms: CBO_29  and  CBX_31 
REMARK   12  A    between atoms: CBX_31  and  CBZ_32 
REMARK   13  A    between atoms: CBX_31  and  NBI_36 
REMARK   14  A    between atoms: CBZ_32  and  CAD_33 
REMARK   15  A    between atoms: CBZ_32  and  CAE_34 
REMARK   16  A    between atoms: CBZ_32  and  CAF_35 
REMARK       I    between atoms: NBI_36  and  CBM_37 
REMARK   17  A    between atoms: CBM_37  and  OBL_39 
REMARK   18  A    between atoms: OBL_39  and  CAA_40 
REMARK   19  A    between atoms: CBE_41  and  CBR_42 
REMARK   20  A    between atoms: CBU_47  and  CAQ_49 
ROOT
ATOM      1  CBC 1T8 d   1      15.174  23.672   6.703  0.00  0.00     0.105 C 
ATOM      2  H   1T8 d   1      15.593  24.321   7.486  0.00  0.00     0.079 H 
ATOM      3  H   1T8 d   1      15.746  23.803   5.773  0.00  0.00     0.079 H 
ENDROOT
BRANCH   1   4
ATOM      4  CBA 1T8 d   1      13.719  24.074   6.451  0.00  0.00    -0.037 C 
ATOM      5  H   1T8 d   1      13.094  23.741   7.293  0.00  0.00     0.035 H 
ATOM      6  H   1T8 d   1      13.651  25.168   6.354  0.00  0.00     0.035 H 
BRANCH   4   7
ATOM      7  CBD 1T8 d   1      13.230  23.413   5.157  0.00  0.00    -0.026 C 
ATOM      8  H   1T8 d   1      14.049  23.411   4.422  0.00  0.00     0.038 H 
ATOM      9  H   1T8 d   1      12.929  22.378   5.373  0.00  0.00     0.038 H 
BRANCH   7  10
ATOM     10  CCA 1T8 d   1      12.032  24.173   4.572  0.00  0.00     0.142 C 
ATOM     11  CBF 1T8 d   1      11.523  23.388   3.348  0.00  0.00    -0.004 C 
ATOM     12  CBS 1T8 d   1      10.263  23.837   2.947  0.00  0.00    -0.055 A 
ATOM     13  H   1T8 d   1      12.232  23.520   2.517  0.00  0.00     0.045 H 
ATOM     14  H   1T8 d   1      11.457  22.321   3.608  0.00  0.00     0.045 H 
ATOM     15  CAT 1T8 d   1       9.133  23.055   3.169  0.00  0.00    -0.076 A 
ATOM     16  CAU 1T8 d   1      10.135  25.045   2.279  0.00  0.00    -0.076 A 
ATOM     17  CAR 1T8 d   1       7.872  23.528   2.820  0.00  0.00    -0.076 A 
ATOM     18  H   1T8 d   1       9.236  22.073   3.616  0.00  0.00     0.084 H 
ATOM     19  CBQ 1T8 d   1       7.738  24.750   2.167  0.00  0.00    -0.055 A 
ATOM     20  H   1T8 d   1       6.991  22.943   3.057  0.00  0.00     0.084 H 
ATOM     21  CAS 1T8 d   1       8.872  25.524   1.947  0.00  0.00    -0.076 A 
ATOM     22  CBB 1T8 d   1       6.479  25.265   1.831  0.00  0.00    -0.026 C 
ATOM     23  H   1T8 d   1       8.771  26.512   1.512  0.00  0.00     0.084 H 
ATOM     24  CAM 1T8 d   1       5.493  24.852   2.732  0.00  0.00    -0.101 C 
ATOM     25  H   1T8 d   1       6.209  24.917   0.823  0.00  0.00     0.045 H 
ATOM     26  H   1T8 d   1       6.530  26.364   1.838  0.00  0.00     0.045 H 
ATOM     27  CAL 1T8 d   1       5.169  25.598   3.869  0.00  0.00    -0.089 C 
ATOM     28  H   1T8 d   1       4.961  23.921   2.542  0.00  0.00     0.076 H 
ATOM     29  CAZ 1T8 d   1       6.045  26.542   4.417  0.00  0.00     0.010 C 
ATOM     30  H   1T8 d   1       4.202  25.439   4.344  0.00  0.00     0.078 H 
ATOM     31  NBH 1T8 d   1       6.967  25.869   5.362  0.00  0.00    -0.356 N 
ATOM     32  H   1T8 d   1       5.468  27.311   4.952  0.00  0.00     0.070 H 
ATOM     33  H   1T8 d   1       6.626  27.014   3.611  0.00  0.00     0.070 H 
ATOM     34  C   1T8 d   1       8.159  26.488   5.747  0.00  0.00     0.241 C 
ATOM     35  H   1T8 d   1       6.735  24.967   5.726  0.00  0.00     0.162 HD
ATOM     36  O   1T8 d   1       8.395  27.603   5.265  0.00  0.00    -0.271 OA
ATOM     37  CA  1T8 d   1       9.121  25.719   6.449  0.00  0.00     0.092 C 
ATOM     38  N   1T8 d   1      10.375  25.571   5.658  0.00  0.00    -0.345 N 
ATOM     39  H   1T8 d   1       8.700  24.711   6.576  0.00  0.00     0.088 H 
ATOM     40  CBP 1T8 d   1      11.004  24.328   5.526  0.00  0.00     0.253 C 
ATOM     41  H   1T8 d   1      10.774  26.373   5.214  0.00  0.00     0.163 HD
ATOM     42  OAJ 1T8 d   1      10.577  23.371   6.186  0.00  0.00    -0.270 OA
ATOM     43  H   1T8 d   1      11.018  25.616   2.016  0.00  0.00     0.084 H 
BRANCH  37  44
ATOM     44  CB  1T8 d   1       9.380  26.281   7.867  0.00  0.00    -0.033 C 
ATOM     45  H   1T8 d   1       8.553  25.963   8.519  0.00  0.00     0.042 H 
BRANCH  44  46
ATOM     46  CG1 1T8 d   1      10.692  25.725   8.434  0.00  0.00    -0.071 C 
ATOM     47  H   1T8 d   1      10.859  26.135   9.441  0.00  0.00     0.028 H 
ATOM     48  H   1T8 d   1      11.526  26.013   7.778  0.00  0.00     0.028 H 
ATOM     49  H   1T8 d   1      10.632  24.628   8.490  0.00  0.00     0.028 H 
ENDBRANCH  44  46
BRANCH  44  50
ATOM     50  CG2 1T8 d   1       9.432  27.811   7.862  0.00  0.00    -0.071 C 
ATOM     51  H   1T8 d   1       8.491  28.209   7.455  0.00  0.00     0.028 H 
ATOM     52  H   1T8 d   1      10.272  28.147   7.237  0.00  0.00     0.028 H 
ATOM     53  H   1T8 d   1       9.570  28.177   8.890  0.00  0.00     0.028 H 
ENDBRANCH  44  50
ENDBRANCH  37  44
BRANCH  10  54
ATOM     54  OAK 1T8 d   1      12.492  25.464   4.138  0.00  0.00    -0.380 OA
ATOM     55  H   1T8 d   1      11.770  25.942   3.747  0.00  0.00     0.211 HD
ENDBRANCH  10  54
ENDBRANCH   7  10
ENDBRANCH   4   7
ENDBRANCH   1   4
BRANCH   1  56
ATOM     56  NBY 1T8 d   1      15.283  22.276   7.135  0.00  0.00     0.015 N 
ATOM     57  H   1T8 d   1      14.365  21.881   7.268  0.00  0.00     0.309 HD
BRANCH  56  58
ATOM     58  NBK 1T8 d   1      15.867  21.656   6.296  0.00  0.00    -0.185 N 
ATOM     59  CBO 1T8 d   1      15.230  20.641   5.672  0.00  0.00     0.265 C 
ATOM     60  OAI 1T8 d   1      14.094  20.255   5.969  0.00  0.00    -0.269 OA
ATOM     61  H   1T8 d   1      16.811  21.885   6.060  0.00  0.00     0.197 HD
BRANCH  59  62
ATOM     62  CBX 1T8 d   1      16.173  19.770   4.821  0.00  0.00     0.099 C 
ATOM     63  H   1T8 d   1      16.950  20.429   4.407  0.00  0.00     0.088 H 
BRANCH  62  64
ATOM     64  CBZ 1T8 d   1      15.471  19.086   3.649  0.00  0.00    -0.022 C 
BRANCH  64  65
ATOM     65  CAD 1T8 d   1      14.608  17.925   4.160  0.00  0.00    -0.067 C 
ATOM     66  H   1T8 d   1      14.107  17.439   3.310  0.00  0.00     0.028 H 
ATOM     67  H   1T8 d   1      13.852  18.311   4.860  0.00  0.00     0.028 H 
ATOM     68  H   1T8 d   1      15.246  17.193   4.676  0.00  0.00     0.028 H 
ENDBRANCH  64  65
BRANCH  64  69
ATOM     69  CAE 1T8 d   1      16.522  18.544   2.687  0.00  0.00    -0.067 C 
ATOM     70  H   1T8 d   1      17.143  19.373   2.318  0.00  0.00     0.028 H 
ATOM     71  H   1T8 d   1      16.024  18.053   1.838  0.00  0.00     0.028 H 
ATOM     72  H   1T8 d   1      17.157  17.815   3.211  0.00  0.00     0.028 H 
ENDBRANCH  64  69
BRANCH  64  73
ATOM     73  CAF 1T8 d   1      14.574  20.078   2.923  0.00  0.00    -0.067 C 
ATOM     74  H   1T8 d   1      13.817  20.467   3.620  0.00  0.00     0.028 H 
ATOM     75  H   1T8 d   1      14.074  19.574   2.083  0.00  0.00     0.028 H 
ATOM     76  H   1T8 d   1      15.182  20.911   2.541  0.00  0.00     0.028 H 
ENDBRANCH  64  73
ENDBRANCH  62  64
BRANCH  62  77
ATOM     77  NBI 1T8 d   1      16.827  18.755   5.659  0.00  0.00    -0.323 N 
ATOM     78  CBM 1T8 d   1      18.155  18.712   5.744  0.00  0.00     0.360 C 
ATOM     79  OAG 1T8 d   1      18.834  19.463   5.039  0.00  0.00    -0.239 OA
ATOM     80  H   1T8 d   1      16.273  18.095   6.167  0.00  0.00     0.165 HD
BRANCH  78  81
ATOM     81  OBL 1T8 d   1      18.737  17.798   6.570  0.00  0.00    -0.309 OA
BRANCH  81  82
ATOM     82  CAA 1T8 d   1      20.013  18.243   7.037  0.00  0.00     0.015 C 
ATOM     83  H   1T8 d   1      20.448  17.479   7.699  0.00  0.00     0.067 H 
ATOM     84  H   1T8 d   1      19.892  19.184   7.593  0.00  0.00     0.067 H 
ATOM     85  H   1T8 d   1      20.681  18.408   6.178  0.00  0.00     0.067 H 
ENDBRANCH  81  82
ENDBRANCH  78  81
ENDBRANCH  62  77
ENDBRANCH  59  62
ENDBRANCH  56  58
BRANCH  56  86
ATOM     86  CBE 1T8 d   1      16.020  22.259   8.406  0.00  0.00     0.128 C 
ATOM     87  H   1T8 d   1      15.448  22.826   9.155  0.00  0.00     0.086 H 
ATOM     88  H   1T8 d   1      16.999  22.736   8.254  0.00  0.00     0.086 H 
BRANCH  86  89
ATOM     89  CBR 1T8 d   1      16.221  20.964   8.882  0.00  0.00    -0.030 A 
ATOM     90  CAW 1T8 d   1      17.514  20.474   9.000  0.00  0.00    -0.074 A 
ATOM     91  CAY 1T8 d   1      17.747  19.238   9.592  0.00  0.00    -0.072 A 
ATOM     92  H   1T8 d   1      18.348  21.059   8.628  0.00  0.00     0.084 H 
ATOM     93  CBU 1T8 d   1      16.678  18.453  10.009  0.00  0.00    -0.026 A 
ATOM     94  H   1T8 d   1      18.763  18.886   9.729  0.00  0.00     0.084 H 
ATOM     95  CAX 1T8 d   1      15.388  18.966   9.937  0.00  0.00    -0.072 A 
ATOM     96  CAV 1T8 d   1      15.163  20.232   9.403  0.00  0.00    -0.074 A 
ATOM     97  H   1T8 d   1      14.553  18.377  10.299  0.00  0.00     0.084 H 
ATOM     98  H   1T8 d   1      14.161  20.646   9.394  0.00  0.00     0.084 H 
BRANCH  93  99
ATOM     99  CAQ 1T8 d   1      16.920  17.207  10.587  0.00  0.00    -0.023 A 
ATOM    100  CBT 1T8 d   1      15.871  16.454  11.102  0.00  0.00    -0.055 A 
ATOM    101  CAP 1T8 d   1      16.127  15.255  11.759  0.00  0.00     0.003 A 
ATOM    102  H   1T8 d   1      14.851  16.802  10.991  0.00  0.00     0.087 H 
ATOM    103  NBG 1T8 d   1      17.435  14.761  11.828  0.00  0.00    -0.273 NA
ATOM    104  H   1T8 d   1      15.314  14.703  12.217  0.00  0.00     0.114 H 
ATOM    105  CAN 1T8 d   1      18.480  15.487  11.249  0.00  0.00     0.003 A 
ATOM    106  CAO 1T8 d   1      18.219  16.710  10.641  0.00  0.00    -0.055 A 
ATOM    107  H   1T8 d   1      19.491  15.098  11.274  0.00  0.00     0.114 H 
ATOM    108  H   1T8 d   1      19.032  17.280  10.206  0.00  0.00     0.087 H 
ENDBRANCH  93  99
ENDBRANCH  86  89
ENDBRANCH  56  86
ENDBRANCH   1  56
TORSDOF 20
