REMARK  20 active torsions:
REMARK  status: ('A' for Active; 'I' for Inactive)
REMARK    1  A    between atoms: CA_15  and  CB_16 
REMARK    2  A    between atoms: CB_16  and  CG1_17 
REMARK    3  A    between atoms: CB_16  and  CG2_18 
REMARK    4  A    between atoms: CCA_22  and  OAK_23 
REMARK    5  A    between atoms: CCA_22  and  CBD_24 
REMARK    6  A    between atoms: CBD_24  and  CBA_25 
REMARK    7  A    between atoms: CBA_25  and  CBC_26 
REMARK    8  A    between atoms: CBC_26  and  NBY_27 
REMARK    9  A    between atoms: NBY_27  and  NBK_28 
REMARK   10  A    between atoms: NBY_27  and  CBE_41 
REMARK   11  A    between atoms: CBO_29  and  CBX_31 
REMARK   12  A    between atoms: CBX_31  and  CBZ_32 
REMARK   13  A    between atoms: CBX_31  and  NBI_36 
REMARK   14  A    between atoms: CBZ_32  and  CAD_33 
REMARK   15  A    between atoms: CBZ_32  and  CAE_34 
REMARK   16  A    between atoms: CBZ_32  and  CAF_35 
REMARK       I    between atoms: NBI_36  and  CBM_37 
REMARK   17  A    between atoms: CBM_37  and  OBL_39 
REMARK   18  A    between atoms: OBL_39  and  CAA_40 
REMARK   19  A    between atoms: CBE_41  and  CBR_42 
REMARK   20  A    between atoms: CBU_47  and  CBT_48 
ROOT
ATOM      1  CBC 1T8 d   1      15.129  23.760   6.779  0.00  0.00     0.105 C 
ATOM      2  H   1T8 d   1      15.398  24.426   7.612  0.00  0.00     0.079 H 
ATOM      3  H   1T8 d   1      15.697  24.047   5.882  0.00  0.00     0.079 H 
ENDROOT
BRANCH   1   4
ATOM      4  CBA 1T8 d   1      13.630  23.923   6.484  0.00  0.00    -0.037 C 
ATOM      5  H   1T8 d   1      13.056  23.343   7.221  0.00  0.00     0.035 H 
ATOM      6  H   1T8 d   1      13.363  24.987   6.566  0.00  0.00     0.035 H 
BRANCH   4   7
ATOM      7  CBD 1T8 d   1      13.276  23.426   5.070  0.00  0.00    -0.026 C 
ATOM      8  H   1T8 d   1      14.122  23.622   4.395  0.00  0.00     0.038 H 
ATOM      9  H   1T8 d   1      13.078  22.345   5.105  0.00  0.00     0.038 H 
BRANCH   7  10
ATOM     10  CCA 1T8 d   1      12.023  24.155   4.540  0.00  0.00     0.142 C 
ATOM     11  CBF 1T8 d   1      11.475  23.464   3.434  0.00  0.00    -0.004 C 
ATOM     12  CBS 1T8 d   1      10.222  23.829   2.923  0.00  0.00    -0.055 A 
ATOM     13  H   1T8 d   1      12.195  23.567   2.609  0.00  0.00     0.045 H 
ATOM     14  H   1T8 d   1      11.401  22.406   3.727  0.00  0.00     0.045 H 
ATOM     15  CAT 1T8 d   1       9.099  23.034   3.141  0.00  0.00    -0.076 A 
ATOM     16  CAU 1T8 d   1      10.068  25.037   2.254  0.00  0.00    -0.076 A 
ATOM     17  CAR 1T8 d   1       7.835  23.484   2.773  0.00  0.00    -0.076 A 
ATOM     18  H   1T8 d   1       9.211  22.058   3.600  0.00  0.00     0.084 H 
ATOM     19  CBQ 1T8 d   1       7.676  24.722   2.154  0.00  0.00    -0.055 A 
ATOM     20  H   1T8 d   1       6.966  22.866   2.970  0.00  0.00     0.084 H 
ATOM     21  CAS 1T8 d   1       8.802  25.497   1.909  0.00  0.00    -0.076 A 
ATOM     22  CBB 1T8 d   1       6.414  25.212   1.789  0.00  0.00    -0.026 C 
ATOM     23  H   1T8 d   1       8.693  26.470   1.444  0.00  0.00     0.084 H 
ATOM     24  CAM 1T8 d   1       5.417  24.874   2.707  0.00  0.00    -0.101 C 
ATOM     25  H   1T8 d   1       6.145  24.794   0.808  0.00  0.00     0.045 H 
ATOM     26  H   1T8 d   1       6.470  26.308   1.718  0.00  0.00     0.045 H 
ATOM     27  CAL 1T8 d   1       5.192  25.562   3.904  0.00  0.00    -0.089 C 
ATOM     28  H   1T8 d   1       4.776  24.024   2.477  0.00  0.00     0.076 H 
ATOM     29  CAZ 1T8 d   1       6.078  26.509   4.423  0.00  0.00     0.010 C 
ATOM     30  H   1T8 d   1       4.280  25.349   4.459  0.00  0.00     0.078 H 
ATOM     31  NBH 1T8 d   1       6.993  25.850   5.384  0.00  0.00    -0.356 N 
ATOM     32  H   1T8 d   1       5.511  27.299   4.938  0.00  0.00     0.070 H 
ATOM     33  H   1T8 d   1       6.663  26.952   3.604  0.00  0.00     0.070 H 
ATOM     34  C   1T8 d   1       8.208  26.452   5.724  0.00  0.00     0.241 C 
ATOM     35  H   1T8 d   1       6.741  24.972   5.791  0.00  0.00     0.162 HD
ATOM     36  O   1T8 d   1       8.474  27.534   5.196  0.00  0.00    -0.271 OA
ATOM     37  CA  1T8 d   1       9.169  25.733   6.470  0.00  0.00     0.092 C 
ATOM     38  N   1T8 d   1      10.373  25.526   5.625  0.00  0.00    -0.345 N 
ATOM     39  H   1T8 d   1       8.755  24.757   6.764  0.00  0.00     0.088 H 
ATOM     40  CBP 1T8 d   1      11.038  24.296   5.534  0.00  0.00     0.253 C 
ATOM     41  H   1T8 d   1      10.725  26.299   5.097  0.00  0.00     0.163 HD
ATOM     42  OAJ 1T8 d   1      10.584  23.323   6.144  0.00  0.00    -0.270 OA
ATOM     43  H   1T8 d   1      10.942  25.626   1.999  0.00  0.00     0.084 H 
BRANCH  37  44
ATOM     44  CB  1T8 d   1       9.533  26.532   7.730  0.00  0.00    -0.033 C 
ATOM     45  H   1T8 d   1       9.925  27.516   7.432  0.00  0.00     0.042 H 
BRANCH  44  46
ATOM     46  CG1 1T8 d   1       8.279  26.728   8.588  0.00  0.00    -0.071 C 
ATOM     47  H   1T8 d   1       8.538  27.300   9.491  0.00  0.00     0.028 H 
ATOM     48  H   1T8 d   1       7.877  25.746   8.879  0.00  0.00     0.028 H 
ATOM     49  H   1T8 d   1       7.522  27.278   8.010  0.00  0.00     0.028 H 
ENDBRANCH  44  46
BRANCH  44  50
ATOM     50  CG2 1T8 d   1      10.604  25.792   8.538  0.00  0.00    -0.071 C 
ATOM     51  H   1T8 d   1      11.502  25.654   7.917  0.00  0.00     0.028 H 
ATOM     52  H   1T8 d   1      10.217  24.810   8.846  0.00  0.00     0.028 H 
ATOM     53  H   1T8 d   1      10.862  26.381   9.430  0.00  0.00     0.028 H 
ENDBRANCH  44  50
ENDBRANCH  37  44
BRANCH  10  54
ATOM     54  OAK 1T8 d   1      12.438  25.466   4.121  0.00  0.00    -0.380 OA
ATOM     55  H   1T8 d   1      13.104  25.386   3.449  0.00  0.00     0.211 HD
ENDBRANCH  10  54
ENDBRANCH   7  10
ENDBRANCH   4   7
ENDBRANCH   1   4
BRANCH   1  56
ATOM     56  NBY 1T8 d   1      15.491  22.377   7.144  0.00  0.00     0.014 N 
ATOM     57  H   1T8 d   1      14.585  21.987   7.349  0.00  0.00     0.309 HD
BRANCH  56  58
ATOM     58  NBK 1T8 d   1      15.893  21.616   6.207  0.00  0.00    -0.196 N 
ATOM     59  CBO 1T8 d   1      15.377  20.526   5.607  0.00  0.00     0.199 C 
ATOM     60  OAI 1T8 d   1      14.071  20.177   6.064  0.00  0.00    -0.173 OA
ATOM     61  H   1T8 d   1      16.782  21.884   5.837  0.00  0.00     0.195 HD
BRANCH  59  62
ATOM     62  CBX 1T8 d   1      16.152  19.738   4.815  0.00  0.00     0.086 C 
ATOM     63  H   1T8 d   1      16.904  20.401   4.362  0.00  0.00     0.087 H 
BRANCH  62  64
ATOM     64  CBZ 1T8 d   1      15.477  18.987   3.654  0.00  0.00    -0.023 C 
BRANCH  64  65
ATOM     65  CAD 1T8 d   1      14.589  17.860   4.195  0.00  0.00    -0.067 C 
ATOM     66  H   1T8 d   1      14.114  17.332   3.355  0.00  0.00     0.028 H 
ATOM     67  H   1T8 d   1      13.812  18.286   4.847  0.00  0.00     0.028 H 
ATOM     68  H   1T8 d   1      15.204  17.153   4.771  0.00  0.00     0.028 H 
ENDBRANCH  64  65
BRANCH  64  69
ATOM     69  CAE 1T8 d   1      14.628  19.955   2.832  0.00  0.00    -0.067 C 
ATOM     70  H   1T8 d   1      15.265  20.763   2.444  0.00  0.00     0.028 H 
ATOM     71  H   1T8 d   1      13.840  20.383   3.469  0.00  0.00     0.028 H 
ATOM     72  H   1T8 d   1      14.168  19.416   1.991  0.00  0.00     0.028 H 
ENDBRANCH  64  69
BRANCH  64  73
ATOM     73  CAF 1T8 d   1      16.551  18.371   2.759  0.00  0.00    -0.067 C 
ATOM     74  H   1T8 d   1      17.164  17.673   3.349  0.00  0.00     0.028 H 
ATOM     75  H   1T8 d   1      17.191  19.168   2.353  0.00  0.00     0.028 H 
ATOM     76  H   1T8 d   1      16.071  17.828   1.931  0.00  0.00     0.028 H 
ENDBRANCH  64  73
ENDBRANCH  62  64
BRANCH  62  77
ATOM     77  NBI 1T8 d   1      16.851  18.751   5.653  0.00  0.00    -0.324 N 
ATOM     78  CBM 1T8 d   1      18.181  18.753   5.789  0.00  0.00     0.360 C 
ATOM     79  OAG 1T8 d   1      18.878  19.510   5.107  0.00  0.00    -0.239 OA
ATOM     80  H   1T8 d   1      16.315  18.058   6.135  0.00  0.00     0.165 HD
BRANCH  78  81
ATOM     81  OBL 1T8 d   1      18.745  17.901   6.690  0.00  0.00    -0.309 OA
BRANCH  81  82
ATOM     82  CAA 1T8 d   1      20.159  18.094   6.791  0.00  0.00     0.015 C 
ATOM     83  H   1T8 d   1      20.574  17.389   7.526  0.00  0.00     0.067 H 
ATOM     84  H   1T8 d   1      20.366  19.125   7.114  0.00  0.00     0.067 H 
ATOM     85  H   1T8 d   1      20.624  17.917   5.810  0.00  0.00     0.067 H 
ENDBRANCH  81  82
ENDBRANCH  78  81
ENDBRANCH  62  77
ENDBRANCH  59  62
ENDBRANCH  56  58
BRANCH  56  86
ATOM     86  CBE 1T8 d   1      16.138  22.199   8.320  0.00  0.00     0.128 C 
ATOM     87  H   1T8 d   1      15.617  22.808   9.073  0.00  0.00     0.086 H 
ATOM     88  H   1T8 d   1      17.162  22.577   8.187  0.00  0.00     0.086 H 
BRANCH  86  89
ATOM     89  CBR 1T8 d   1      16.240  20.905   8.836  0.00  0.00    -0.030 C 
ATOM     90  CAW 1T8 d   1      17.481  20.290   8.972  0.00  0.00    -0.074 C 
ATOM     91  CAY 1T8 d   1      17.605  19.059   9.622  0.00  0.00    -0.072 C 
ATOM     92  H   1T8 d   1      18.364  20.773   8.568  0.00  0.00     0.084 H 
ATOM     93  CBU 1T8 d   1      16.488  18.466  10.199  0.00  0.00    -0.025 C 
ATOM     94  H   1T8 d   1      18.570  18.568   9.676  0.00  0.00     0.084 H 
ATOM     95  CAX 1T8 d   1      15.267  19.119  10.123  0.00  0.00    -0.072 C 
ATOM     96  CAV 1T8 d   1      15.156  20.358   9.503  0.00  0.00    -0.074 C 
ATOM     97  H   1T8 d   1      14.386  18.656  10.553  0.00  0.00     0.084 H 
ATOM     98  H   1T8 d   1      14.217  20.899   9.541  0.00  0.00     0.084 H 
BRANCH  93  99
ATOM     99  CBT 1T8 d   1      16.569  17.236  10.856  0.00  0.00    -0.008 A 
ATOM    100  CAQ 1T8 d   1      17.683  16.928  11.628  0.00  0.00    -0.070 A 
ATOM    101  CAO 1T8 d   1      17.725  15.747  12.362  0.00  0.00    -0.065 A 
ATOM    102  H   1T8 d   1      18.524  17.612  11.658  0.00  0.00     0.085 H 
ATOM    103  CAN 1T8 d   1      16.627  14.897  12.385  0.00  0.00     0.002 A 
ATOM    104  H   1T8 d   1      18.619  15.489  12.918  0.00  0.00     0.085 H 
ATOM    105  NBG 1T8 d   1      15.465  15.246  11.690  0.00  0.00    -0.272 NA
ATOM    106  H   1T8 d   1      16.671  13.967  12.940  0.00  0.00     0.114 H 
ATOM    107  CAP 1T8 d   1      15.447  16.415  10.917  0.00  0.00     0.012 A 
ATOM    108  H   1T8 d   1      14.554  16.681  10.363  0.00  0.00     0.116 H 
ENDBRANCH  93  99
ENDBRANCH  86  89
ENDBRANCH  56  86
ENDBRANCH   1  56
TORSDOF 20
