REMARK  19 active torsions:
REMARK  status: ('A' for Active; 'I' for Inactive)
REMARK    1  A    between atoms: CA_15  and  CB_16 
REMARK    2  A    between atoms: CB_16  and  CG1_17 
REMARK    3  A    between atoms: CB_16  and  CG2_18 
REMARK    4  A    between atoms: CCA_22  and  OAK_23 
REMARK    5  A    between atoms: CCA_22  and  CBD_24 
REMARK    6  A    between atoms: CBD_24  and  CBA_25 
REMARK    7  A    between atoms: CBA_25  and  CBC_26 
REMARK    8  A    between atoms: CBC_26  and  NBY_27 
REMARK    9  A    between atoms: NBY_27  and  NBK_28 
REMARK       I    between atoms: NBK_28  and  CBO_29 
REMARK   10  A    between atoms: CBO_29  and  CBX_31 
REMARK   11  A    between atoms: CBX_31  and  CBZ_32 
REMARK   12  A    between atoms: CBX_31  and  NBI_36 
REMARK   13  A    between atoms: CBZ_32  and  CAD_33 
REMARK   14  A    between atoms: CBZ_32  and  CAE_34 
REMARK   15  A    between atoms: CBZ_32  and  CAF_35 
REMARK       I    between atoms: NBI_36  and  CBM_37 
REMARK   16  A    between atoms: CBM_37  and  OBL_39 
REMARK   17  A    between atoms: OBL_39  and  CAA_40 
REMARK   18  A    between atoms: CBE_41  and  CXQ_42 
REMARK   19  A    between atoms: CXA_47  and  CXY_48 
ROOT
ATOM      1  CBA V78 d   1      13.817  23.967   6.190  0.00  0.00    -0.045 C 
ATOM      2  H   V78 d   1      13.437  23.655   7.174  0.00  0.00     0.035 H 
ATOM      3  H   V78 d   1      13.687  25.053   6.074  0.00  0.00     0.035 H 
ENDROOT
BRANCH   1   4
ATOM      4  CBD V78 d   1      13.052  23.237   5.088  0.00  0.00    -0.026 C 
ATOM      5  H   V78 d   1      13.753  22.942   4.293  0.00  0.00     0.038 H 
ATOM      6  H   V78 d   1      12.577  22.339   5.510  0.00  0.00     0.038 H 
BRANCH   4   7
ATOM      7  CCA V78 d   1      11.976  24.147   4.499  0.00  0.00     0.142 C 
ATOM      8  CBF V78 d   1      11.530  23.576   3.304  0.00  0.00    -0.004 C 
ATOM      9  CBS V78 d   1      10.236  23.811   2.860  0.00  0.00    -0.055 C 
ATOM     10  H   V78 d   1      12.206  23.930   2.512  0.00  0.00     0.045 H 
ATOM     11  H   V78 d   1      11.634  22.487   3.415  0.00  0.00     0.045 H 
ATOM     12  CAT V78 d   1       9.221  22.911   3.169  0.00  0.00    -0.076 C 
ATOM     13  CAU V78 d   1       9.935  25.006   2.223  0.00  0.00    -0.076 C 
ATOM     14  CAR V78 d   1       7.902  23.234   2.877  0.00  0.00    -0.076 C 
ATOM     15  H   V78 d   1       9.459  21.962   3.636  0.00  0.00     0.084 H 
ATOM     16  CBQ V78 d   1       7.610  24.395   2.167  0.00  0.00    -0.058 C 
ATOM     17  H   V78 d   1       7.100  22.582   3.202  0.00  0.00     0.084 H 
ATOM     18  CAS V78 d   1       8.615  25.322   1.928  0.00  0.00    -0.076 C 
ATOM     19  CBB V78 d   1       6.285  24.745   1.930  0.00  0.00    -0.038 C 
ATOM     20  H   V78 d   1       8.370  26.292   1.511  0.00  0.00     0.084 H 
ATOM     21  CAM V78 d   1       5.643  24.855   3.160  0.00  0.00    -0.045 C 
ATOM     22  H   V78 d   1       5.797  23.969   1.322  0.00  0.00     0.040 H 
ATOM     23  H   V78 d   1       6.242  25.707   1.399  0.00  0.00     0.040 H 
ATOM     24  CAL V78 d   1       5.394  26.197   3.445  0.00  0.00    -0.088 C 
ATOM     25  H   V78 d   1       6.283  24.428   3.946  0.00  0.00     0.039 H 
ATOM     26  H   V78 d   1       4.690  24.306   3.125  0.00  0.00     0.039 H 
ATOM     27  CAZ V78 d   1       5.948  26.812   4.573  0.00  0.00    -0.024 C 
ATOM     28  H   V78 d   1       4.757  26.776   2.778  0.00  0.00     0.079 H 
ATOM     29  NBH V78 d   1       6.961  25.945   5.224  0.00  0.00    -0.336 N 
ATOM     30  H   V78 d   1       5.670  27.803   4.929  0.00  0.00     0.110 H 
ATOM     31  C   V78 d   1       8.149  26.534   5.680  0.00  0.00     0.244 C 
ATOM     32  H   V78 d   1       6.800  24.964   5.335  0.00  0.00     0.168 HD
ATOM     33  O   V78 d   1       8.406  27.678   5.291  0.00  0.00    -0.271 OA
ATOM     34  CA  V78 d   1       9.102  25.762   6.367  0.00  0.00     0.092 C 
ATOM     35  N   V78 d   1      10.274  25.546   5.485  0.00  0.00    -0.345 N 
ATOM     36  H   V78 d   1       8.662  24.789   6.630  0.00  0.00     0.088 H 
ATOM     37  CBP V78 d   1      10.909  24.306   5.401  0.00  0.00     0.253 C 
ATOM     38  H   V78 d   1      10.618  26.308   4.936  0.00  0.00     0.163 HD
ATOM     39  OAJ V78 d   1      10.492  23.373   6.089  0.00  0.00    -0.270 OA
ATOM     40  H   V78 d   1      10.730  25.693   1.956  0.00  0.00     0.084 H 
BRANCH  34  41
ATOM     41  CB  V78 d   1       9.525  26.487   7.655  0.00  0.00    -0.033 C 
ATOM     42  H   V78 d   1       9.913  27.483   7.396  0.00  0.00     0.042 H 
BRANCH  41  43
ATOM     43  CG1 V78 d   1       8.312  26.645   8.573  0.00  0.00    -0.071 C 
ATOM     44  H   V78 d   1       8.615  27.164   9.495  0.00  0.00     0.028 H 
ATOM     45  H   V78 d   1       7.912  25.652   8.826  0.00  0.00     0.028 H 
ATOM     46  H   V78 d   1       7.537  27.233   8.059  0.00  0.00     0.028 H 
ENDBRANCH  41  43
BRANCH  41  47
ATOM     47  CG2 V78 d   1      10.623  25.696   8.374  0.00  0.00    -0.071 C 
ATOM     48  H   V78 d   1      11.492  25.586   7.708  0.00  0.00     0.028 H 
ATOM     49  H   V78 d   1      10.241  24.701   8.645  0.00  0.00     0.028 H 
ATOM     50  H   V78 d   1      10.925  26.233   9.285  0.00  0.00     0.028 H 
ENDBRANCH  41  47
ENDBRANCH  34  41
BRANCH   7  51
ATOM     51  OAK V78 d   1      12.556  25.430   4.221  0.00  0.00    -0.380 OA
ATOM     52  H   V78 d   1      13.277  25.325   3.612  0.00  0.00     0.211 HD
ENDBRANCH   7  51
ENDBRANCH   4   7
ENDBRANCH   1   4
BRANCH   1  53
ATOM     53  CBC V78 d   1      15.299  23.612   6.075  0.00  0.00     0.015 C 
ATOM     54  H   V78 d   1      15.904  24.433   6.488  0.00  0.00     0.067 H 
ATOM     55  H   V78 d   1      15.557  23.462   5.016  0.00  0.00     0.067 H 
BRANCH  53  56
ATOM     56  NBY V78 d   1      15.575  22.378   6.824  0.00  0.00    -0.300 N 
ATOM     57  CBE V78 d   1      15.658  22.396   8.160  0.00  0.00     0.006 C 
ATOM     58  H   V78 d   1      15.483  23.303   8.737  0.00  0.00     0.115 H 
BRANCH  56  59
ATOM     59  NBK V78 d   1      16.087  21.475   6.302  0.00  0.00    -0.266 N 
ATOM     60  CBO V78 d   1      15.327  20.671   5.533  0.00  0.00     0.259 C 
ATOM     61  OAI V78 d   1      14.157  20.378   5.810  0.00  0.00    -0.269 OA
ATOM     62  H   V78 d   1      17.064  21.299   6.420  0.00  0.00     0.190 HD
BRANCH  60  63
ATOM     63  CBX V78 d   1      16.193  19.724   4.693  0.00  0.00     0.099 C 
ATOM     64  H   V78 d   1      16.970  20.327   4.200  0.00  0.00     0.088 H 
BRANCH  63  65
ATOM     65  CBZ V78 d   1      15.412  18.982   3.608  0.00  0.00    -0.022 C 
BRANCH  65  66
ATOM     66  CAD V78 d   1      14.428  18.000   4.251  0.00  0.00    -0.067 C 
ATOM     67  H   V78 d   1      13.871  17.471   3.464  0.00  0.00     0.028 H 
ATOM     68  H   V78 d   1      13.724  18.552   4.891  0.00  0.00     0.028 H 
ATOM     69  H   V78 d   1      14.983  17.271   4.860  0.00  0.00     0.028 H 
ENDBRANCH  65  66
BRANCH  65  70
ATOM     70  CAE V78 d   1      14.657  19.977   2.728  0.00  0.00    -0.067 C 
ATOM     71  H   V78 d   1      15.371  20.678   2.271  0.00  0.00     0.028 H 
ATOM     72  H   V78 d   1      13.937  20.537   3.342  0.00  0.00     0.028 H 
ATOM     73  H   V78 d   1      14.120  19.433   1.937  0.00  0.00     0.028 H 
ENDBRANCH  65  70
BRANCH  65  74
ATOM     74  CAF V78 d   1      16.407  18.199   2.751  0.00  0.00    -0.067 C 
ATOM     75  H   V78 d   1      16.951  17.482   3.384  0.00  0.00     0.028 H 
ATOM     76  H   V78 d   1      17.121  18.896   2.289  0.00  0.00     0.028 H 
ATOM     77  H   V78 d   1      15.864  17.655   1.964  0.00  0.00     0.028 H 
ENDBRANCH  65  74
ENDBRANCH  63  65
BRANCH  63  78
ATOM     78  NBI V78 d   1      16.844  18.741   5.569  0.00  0.00    -0.323 N 
ATOM     79  CBM V78 d   1      18.166  18.748   5.703  0.00  0.00     0.360 C 
ATOM     80  OAG V78 d   1      18.827  19.537   5.027  0.00  0.00    -0.239 OA
ATOM     81  H   V78 d   1      16.294  18.068   6.063  0.00  0.00     0.165 HD
BRANCH  79  82
ATOM     82  OBL V78 d   1      18.764  17.870   6.557  0.00  0.00    -0.309 OA
BRANCH  82  83
ATOM     83  CAA V78 d   1      20.027  18.359   7.013  0.00  0.00     0.015 C 
ATOM     84  H   V78 d   1      20.478  17.626   7.698  0.00  0.00     0.067 H 
ATOM     85  H   V78 d   1      19.882  19.313   7.541  0.00  0.00     0.067 H 
ATOM     86  H   V78 d   1      20.693  18.514   6.151  0.00  0.00     0.067 H 
ENDBRANCH  82  83
ENDBRANCH  79  82
ENDBRANCH  63  78
ENDBRANCH  60  63
ENDBRANCH  56  59
BRANCH  57  87
ATOM     87  CXQ V78 d   1      15.982  21.185   8.769  0.00  0.00    -0.019 A 
ATOM     88  CXV V78 d   1      17.299  20.745   8.820  0.00  0.00    -0.071 A 
ATOM     89  CXW V78 d   1      17.618  19.557   9.475  0.00  0.00    -0.071 A 
ATOM     90  H   V78 d   1      18.082  21.328   8.348  0.00  0.00     0.084 H 
ATOM     91  CXA V78 d   1      16.611  18.772  10.025  0.00  0.00    -0.025 A 
ATOM     92  H   V78 d   1      18.653  19.244   9.556  0.00  0.00     0.084 H 
ATOM     93  CXR V78 d   1      15.293  19.203   9.950  0.00  0.00    -0.071 A 
ATOM     94  CXP V78 d   1      14.980  20.413   9.342  0.00  0.00    -0.071 A 
ATOM     95  H   V78 d   1      14.502  18.591  10.369  0.00  0.00     0.084 H 
ATOM     96  H   V78 d   1      13.952  20.755   9.315  0.00  0.00     0.084 H 
BRANCH  91  97
ATOM     97  CXY V78 d   1      16.901  17.632  10.652  0.00  0.00    -0.019 C 
ATOM     98  CXZ V78 d   1      16.075  16.567  10.573  0.00  0.00    -0.066 C 
ATOM     99  CXT V78 d   1      16.436  15.548  11.365  0.00  0.00    -0.044 C 
ATOM    100  H   V78 d   1      15.199  16.539   9.927  0.00  0.00     0.085 H 
ATOM    101  SAI V78 d   1      17.689  16.075  12.312  0.00  0.00    -0.113 SA
ATOM    102  H   V78 d   1      15.988  14.556  11.383  0.00  0.00     0.095 H 
ATOM    103  CXG V78 d   1      17.770  17.602  11.671  0.00  0.00    -0.034 C 
ATOM    104  H   V78 d   1      18.404  18.419  12.011  0.00  0.00     0.096 H 
ENDBRANCH  91  97
ENDBRANCH  57  87
ENDBRANCH  53  56
ENDBRANCH   1  53
TORSDOF 19
