REMARK  10 active torsions:
REMARK  status: ('A' for Active; 'I' for Inactive)
REMARK    1  A    between atoms: C1_1  and  C2_4 
REMARK    2  A    between atoms: C4_6  and  N4_20 
REMARK    3  A    between atoms: C5_7  and  N5_8 
REMARK       I    between atoms: N5_8  and  C10_9 
REMARK    4  A    between atoms: C10_9  and  C11_11 
REMARK    5  A    between atoms: C6_12  and  O7_14 
REMARK    6  A    between atoms: O7_14  and  C8_15 
REMARK    7  A    between atoms: C8_15  and  C9_16 
REMARK    8  A    between atoms: C8_15  and  C81_17 
REMARK    9  A    between atoms: C9_16  and  C91_19 
REMARK   10  A    between atoms: C81_17  and  C82_18 
ROOT
ATOM      1  C2  G39 d   1     -22.005  90.567  12.432  0.00  0.00     0.019 C 
ATOM      2  C3  G39 d   1     -22.666  90.004  13.670  0.00  0.00    -0.006 C 
ATOM      3  C4  G39 d   1     -21.661  89.235  14.544  0.00  0.00     0.126 C 
ATOM      4  C5  G39 d   1     -20.415  90.082  14.813  0.00  0.00     0.068 C 
ATOM      5  C6  G39 d   1     -19.707  90.390  13.506  0.00  0.00     0.077 C 
ATOM      6  C7  G39 d   1     -20.672  90.788  12.398  0.00  0.00    -0.061 C 
ATOM      7  H   G39 d   1     -23.472  89.320  13.366  0.00  0.00     0.043 H 
ATOM      8  H   G39 d   1     -23.090  90.832  14.257  0.00  0.00     0.043 H 
ATOM      9  H   G39 d   1     -21.358  88.319  14.015  0.00  0.00     0.087 H 
ATOM     10  H   G39 d   1     -20.717  91.021  15.299  0.00  0.00     0.080 H 
ATOM     11  H   G39 d   1     -19.163  89.490  13.183  0.00  0.00     0.093 H 
ATOM     12  H   G39 d   1     -20.261  91.284  11.520  0.00  0.00     0.082 H 
ENDROOT
BRANCH   5  13
ATOM     13  O7  G39 d   1     -18.766  91.450  13.737  0.00  0.00    -0.375 OA
BRANCH  13  14
ATOM     14  C8  G39 d   1     -17.413  91.158  13.354  0.00  0.00     0.039 C 
ATOM     15  H   G39 d   1     -17.214  90.091  13.532  0.00  0.00     0.083 H 
BRANCH  14  16
ATOM     16  C9  G39 d   1     -17.182  91.451  11.870  0.00  0.00    -0.044 C 
ATOM     17  H   G39 d   1     -17.610  90.633  11.272  0.00  0.00     0.036 H 
ATOM     18  H   G39 d   1     -16.100  91.516  11.681  0.00  0.00     0.036 H 
BRANCH  16  19
ATOM     19  C91 G39 d   1     -17.835  92.756  11.460  0.00  0.00    -0.074 C 
ATOM     20  H   G39 d   1     -17.651  92.938  10.391  0.00  0.00     0.027 H 
ATOM     21  H   G39 d   1     -17.409  93.581  12.050  0.00  0.00     0.027 H 
ATOM     22  H   G39 d   1     -18.918  92.697  11.641  0.00  0.00     0.027 H 
ENDBRANCH  16  19
ENDBRANCH  14  16
BRANCH  14  23
ATOM     23  C81 G39 d   1     -16.479  91.987  14.224  0.00  0.00    -0.044 C 
ATOM     24  H   G39 d   1     -15.578  92.229  13.642  0.00  0.00     0.036 H 
ATOM     25  H   G39 d   1     -16.197  91.392  15.105  0.00  0.00     0.036 H 
BRANCH  23  26
ATOM     26  C82 G39 d   1     -17.114  93.279  14.695  0.00  0.00    -0.074 C 
ATOM     27  H   G39 d   1     -16.397  93.835  15.317  0.00  0.00     0.027 H 
ATOM     28  H   G39 d   1     -18.013  93.051  15.287  0.00  0.00     0.027 H 
ATOM     29  H   G39 d   1     -17.393  93.889  13.823  0.00  0.00     0.027 H 
ENDBRANCH  23  26
ENDBRANCH  14  23
ENDBRANCH  13  14
ENDBRANCH   5  13
BRANCH   4  30
ATOM     30  N5  G39 d   1     -19.484  89.371  15.673  0.00  0.00    -0.352 N 
ATOM     31  C10 G39 d   1     -19.025  89.799  16.860  0.00  0.00     0.214 C 
ATOM     32  O10 G39 d   1     -19.291  90.871  17.360  0.00  0.00    -0.274 OA
ATOM     33  H   G39 d   1     -19.156  88.483  15.352  0.00  0.00     0.163 HD
BRANCH  31  34
ATOM     34  C11 G39 d   1     -18.087  88.876  17.575  0.00  0.00    -0.003 C 
ATOM     35  H   G39 d   1     -17.781  89.331  18.529  0.00  0.00     0.040 H 
ATOM     36  H   G39 d   1     -17.199  88.700  16.951  0.00  0.00     0.040 H 
ATOM     37  H   G39 d   1     -18.593  87.919  17.771  0.00  0.00     0.040 H 
ENDBRANCH  31  34
ENDBRANCH   4  30
BRANCH   3  38
ATOM     38  N4  G39 d   1     -22.291  88.869  15.798  0.00  0.00    -0.073 N 
ATOM     39  H   G39 d   1     -23.110  88.312  15.612  0.00  0.00     0.274 HD
ATOM     40  H   G39 d   1     -22.558  89.704  16.296  0.00  0.00     0.274 HD
ATOM     41  H   G39 d   1     -21.642  88.337  16.357  0.00  0.00     0.274 HD
ENDBRANCH   3  38
BRANCH   1  42
ATOM     42  C1  G39 d   1     -22.795  90.825  11.208  0.00  0.00     0.205 C 
ATOM     43  O1A G39 d   1     -24.035  90.653  11.201  0.00  0.00    -0.644 OA
ATOM     44  O1B G39 d   1     -22.198  91.221  10.176  0.00  0.00    -0.644 OA
ENDBRANCH   1  42
TORSDOF 10
