REMARK  10 active torsions:
REMARK  status: ('A' for Active; 'I' for Inactive)
REMARK    1  A    between atoms: C1_1  and  C2_4 
REMARK    2  A    between atoms: C4_6  and  NE_20 
REMARK    3  A    between atoms: C5_7  and  N5_8 
REMARK       I    between atoms: N5_8  and  C10_9 
REMARK    4  A    between atoms: C10_9  and  C11_11 
REMARK    5  A    between atoms: C6_12  and  C7_14 
REMARK    6  A    between atoms: C7_14  and  O7_15 
REMARK    7  A    between atoms: C7_14  and  C8_16 
REMARK    8  A    between atoms: C8_16  and  O8_17 
REMARK    9  A    between atoms: C8_16  and  C9_18 
REMARK   10  A    between atoms: C9_18  and  O9_19 
REMARK       I    between atoms: NE_20  and  CZ_21 
REMARK       I    between atoms: CZ_21  and  NH1_22 
ROOT
ATOM      1  C2  ZMR d   1      -5.393  46.142  55.472  0.00  0.00     0.124 C 
ATOM      2  C3  ZMR d   1      -4.394  44.956  55.258  0.00  0.00    -0.010 C 
ATOM      3  C4  ZMR d   1      -3.296  45.247  54.312  0.00  0.00     0.051 C 
ATOM      4  C5  ZMR d   1      -3.306  46.552  53.772  0.00  0.00     0.059 C 
ATOM      5  C6  ZMR d   1      -4.590  46.931  53.226  0.00  0.00     0.088 C 
ATOM      6  O6  ZMR d   1      -5.689  46.687  54.113  0.00  0.00    -0.365 OA
ATOM      7  H   ZMR d   1      -4.910  46.902  56.104  0.00  0.00     0.100 H 
ATOM      8  H   ZMR d   1      -4.960  44.094  54.874  0.00  0.00     0.040 H 
ATOM      9  H   ZMR d   1      -3.951  44.699  56.231  0.00  0.00     0.040 H 
ATOM     10  H   ZMR d   1      -3.402  44.548  53.470  0.00  0.00     0.076 H 
ATOM     11  H   ZMR d   1      -3.016  47.269  54.554  0.00  0.00     0.079 H 
ATOM     12  H   ZMR d   1      -4.738  46.285  52.349  0.00  0.00     0.090 H 
ENDROOT
BRANCH   5  13
ATOM     13  C7  ZMR d   1      -4.691  48.377  52.725  0.00  0.00     0.089 C 
ATOM     14  H   ZMR d   1      -3.968  48.521  51.908  0.00  0.00     0.091 H 
BRANCH  13  15
ATOM     15  O7  ZMR d   1      -4.422  49.276  53.718  0.00  0.00    -0.390 OA
ATOM     16  H   ZMR d   1      -5.045  49.160  54.426  0.00  0.00     0.210 HD
ENDBRANCH  13  15
BRANCH  13  17
ATOM     17  C8  ZMR d   1      -6.098  48.627  52.205  0.00  0.00     0.083 C 
ATOM     18  H   ZMR d   1      -6.795  48.604  53.055  0.00  0.00     0.090 H 
BRANCH  17  19
ATOM     19  O8  ZMR d   1      -6.431  47.622  51.318  0.00  0.00    -0.391 OA
ATOM     20  H   ZMR d   1      -7.309  47.771  50.988  0.00  0.00     0.210 HD
ENDBRANCH  17  19
BRANCH  17  21
ATOM     21  C9  ZMR d   1      -6.226  49.971  51.515  0.00  0.00     0.043 C 
ATOM     22  H   ZMR d   1      -6.018  50.756  52.257  0.00  0.00     0.078 H 
ATOM     23  H   ZMR d   1      -7.261  50.072  51.156  0.00  0.00     0.078 H 
BRANCH  21  24
ATOM     24  O9  ZMR d   1      -5.370  50.166  50.428  0.00  0.00    -0.398 OA
ATOM     25  H   ZMR d   1      -5.543  49.505  49.768  0.00  0.00     0.209 HD
ENDBRANCH  21  24
ENDBRANCH  17  21
ENDBRANCH  13  17
ENDBRANCH   5  13
BRANCH   4  26
ATOM     26  N5  ZMR d   1      -2.290  46.586  52.603  0.00  0.00    -0.352 N 
ATOM     27  C10 ZMR d   1      -1.024  47.241  52.676  0.00  0.00     0.214 C 
ATOM     28  O10 ZMR d   1      -0.649  47.850  53.671  0.00  0.00    -0.274 OA
ATOM     29  H   ZMR d   1      -2.535  46.124  51.751  0.00  0.00     0.163 HD
BRANCH  27  30
ATOM     30  C11 ZMR d   1      -0.185  47.140  51.449  0.00  0.00    -0.003 C 
ATOM     31  H   ZMR d   1       0.763  47.674  51.608  0.00  0.00     0.040 H 
ATOM     32  H   ZMR d   1      -0.721  47.589  50.600  0.00  0.00     0.040 H 
ATOM     33  H   ZMR d   1       0.022  46.082  51.233  0.00  0.00     0.040 H 
ENDBRANCH  27  30
ENDBRANCH   4  26
BRANCH   3  34
ATOM     34  NE  ZMR d   1      -1.924  44.977  54.994  0.00  0.00    -0.220 N 
ATOM     35  CZ  ZMR d   1      -0.844  44.255  54.356  0.00  0.00     0.665 C 
ATOM     36  NH1 ZMR d   1      -1.014  43.527  53.254  0.00  0.00    -0.235 N 
ATOM     37  NH2 ZMR d   1       0.318  44.294  54.929  0.00  0.00    -0.235 N 
ATOM     38  H   ZMR d   1      -0.214  43.031  52.836  0.00  0.00     0.174 HD
ATOM     39  H   ZMR d   1      -1.945  43.460  52.819  0.00  0.00     0.174 HD
ATOM     40  H   ZMR d   1       0.453  44.856  55.782  0.00  0.00     0.174 HD
ATOM     41  H   ZMR d   1       1.106  43.763  54.532  0.00  0.00     0.174 HD
ATOM     42  H   ZMR d   1      -1.776  45.331  55.950  0.00  0.00     0.178 HD
ENDBRANCH   3  34
BRANCH   1  43
ATOM     43  C1  ZMR d   1      -6.615  45.818  56.019  0.00  0.00     0.203 C 
ATOM     44  O1A ZMR d   1      -7.642  46.504  55.756  0.00  0.00    -0.646 OA
ATOM     45  O1B ZMR d   1      -6.744  44.856  56.814  0.00  0.00    -0.646 OA
ENDBRANCH   1  43
TORSDOF 10
