REMARK  0 active torsions:
REMARK  status: ('A' for Active; 'I' for Inactive)
ROOT
ATOM      1 CL   0TU d   1     -20.693 -45.147 -12.405  0.00  0.00    -0.084 Cl
ATOM      2  NAC 0TU d   1     -19.181 -50.765 -11.478  0.00  0.00    -0.323 N 
ATOM      3  CAA 0TU d   1     -19.524 -49.424 -11.691  0.00  0.00     0.045 A 
ATOM      4  CAD 0TU d   1     -18.552 -48.444 -11.649  0.00  0.00    -0.055 A 
ATOM      5  CAI 0TU d   1     -18.929 -47.133 -11.871  0.00  0.00    -0.060 A 
ATOM      6  CAK 0TU d   1     -20.249 -46.804 -12.115  0.00  0.00     0.035 A 
ATOM      7  CAF 0TU d   1     -21.217 -47.787 -12.133  0.00  0.00    -0.050 A 
ATOM      8  CAB 0TU d   1     -20.844 -49.101 -11.921  0.00  0.00    -0.008 A 
ATOM      9  CAE 0TU d   1     -21.846 -50.149 -11.941  0.00  0.00    -0.066 A 
ATOM     10  CAJ 0TU d   1     -21.534 -51.434 -11.737  0.00  0.00    -0.017 A 
ATOM     11  CAG 0TU d   1     -20.112 -51.795 -11.492  0.00  0.00     0.245 A 
ATOM     12  OAL 0TU d   1     -19.836 -52.976 -11.314  0.00  0.00    -0.268 OA
ATOM     13  H1  0TU d   1     -18.222 -50.991 -11.308  0.00  0.00     0.169 HD
ATOM     14  H2  0TU d   1     -17.517 -48.697 -11.447  0.00  0.00     0.087 H 
ATOM     15  H3  0TU d   1     -18.178 -46.351 -11.854  0.00  0.00     0.086 H 
ATOM     16  H4  0TU d   1     -22.256 -47.532 -12.311  0.00  0.00     0.087 H 
ATOM     17  H5  0TU d   1     -22.885 -49.882 -12.128  0.00  0.00     0.085 H 
ATOM     18  H6  0TU d   1     -22.307 -52.201 -11.750  0.00  0.00     0.092 H 
ENDROOT
TORSDOF 0
