REMARK  3 active torsions:
REMARK  status: ('A' for Active; 'I' for Inactive)
REMARK    1  A    between atoms: C1_1  and  C2_2 
REMARK    2  A    between atoms: C4_4  and  N13_13 
REMARK    3  A    between atoms: C9_9  and  N12_12 
ROOT
ATOM      1  C2  OTW d   1      49.930  21.602  11.874  0.00  0.00    -0.046 A 
ATOM      2  C3  OTW d   1      48.839  20.768  11.823  0.00  0.00    -0.033 A 
ATOM      3  C4  OTW d   1      49.027  19.410  11.774  0.00  0.00     0.122 A 
ATOM      4  N5  OTW d   1      50.245  18.859  11.777  0.00  0.00    -0.231 NA
ATOM      5  C6  OTW d   1      51.308  19.671  11.829  0.00  0.00     0.070 A 
ATOM      6  C7  OTW d   1      51.201  21.054  11.879  0.00  0.00     0.001 A 
ATOM      7  C8  OTW d   1      52.330  21.851  11.930  0.00  0.00    -0.045 A 
ATOM      8  C9  OTW d   1      53.587  21.275  11.934  0.00  0.00     0.026 A 
ATOM      9  C10 OTW d   1      53.703  19.905  11.885  0.00  0.00    -0.056 A 
ATOM     10  C11 OTW d   1      52.575  19.124  11.834  0.00  0.00    -0.052 A 
ATOM     11  H4  OTW d   1      47.837  21.180  11.822  0.00  0.00     0.090 H 
ATOM     12  H5  OTW d   1      52.229  22.930  11.967  0.00  0.00     0.088 H 
ATOM     13  H6  OTW d   1      54.684  19.443  11.887  0.00  0.00     0.087 H 
ATOM     14  H7  OTW d   1      52.683  18.046  11.797  0.00  0.00     0.087 H 
ENDROOT
BRANCH   1  15
ATOM     15  C1  OTW d   1      49.675  23.071  11.923  0.00  0.00    -0.050 C 
ATOM     16  H1  OTW d   1      48.591  23.256  11.908  0.00  0.00     0.033 H 
ATOM     17  H2  OTW d   1      50.141  23.553  11.051  0.00  0.00     0.033 H 
ATOM     18  H3  OTW d   1      50.105  23.487  12.846  0.00  0.00     0.033 H 
ENDBRANCH   1  15
BRANCH   3  19
ATOM     19  N13 OTW d   1      47.881  18.609  11.719  0.00  0.00    -0.384 N 
ATOM     20  H10 OTW d   1      47.971  17.584  11.681  0.00  0.00     0.157 HD
ATOM     21  H11 OTW d   1      46.948  19.045  11.717  0.00  0.00     0.157 HD
ENDBRANCH   3  19
BRANCH   8  22
ATOM     22  N12 OTW d   1      54.752  22.045  11.986  0.00  0.00    -0.399 N 
ATOM     23  H8  OTW d   1      54.689  23.072  12.023  0.00  0.00     0.156 HD
ATOM     24  H9  OTW d   1      55.674  21.585  11.987  0.00  0.00     0.156 HD
ENDBRANCH   8  22
TORSDOF 3
