REMARK  9 active torsions:
REMARK  status: ('A' for Active; 'I' for Inactive)
REMARK    1  A    between atoms: C25_1  and  C27_3 
REMARK       I    between atoms: N24_15  and  C25_1 
REMARK    2  A    between atoms: C33_9  and  O38_14 
REMARK    3  A    between atoms: C21_16  and  N24_15 
REMARK    4  A    between atoms: C22_17  and  C21_16 
REMARK    5  A    between atoms: C21_16  and  C20_19 
REMARK       I    between atoms: N13_38  and  C22_17 
REMARK    6  A    between atoms: C20_19  and  C17_20 
REMARK    7  A    between atoms: C12_37  and  C5_30 
REMARK    8  A    between atoms: C8_33  and  N10_35 
REMARK    9  A    between atoms: C12_37  and  N13_38 
ROOT
ATOM      1  C21 XJ8 d   1     -25.941 -54.063 -11.701  0.00  0.00     0.093 C 
ATOM      2  H8  XJ8 d   1     -25.319 -54.906 -12.037  0.00  0.00     0.088 H 
ENDROOT
BRANCH   1   3
ATOM      3  N24 XJ8 d   1     -26.694 -54.424 -10.500  0.00  0.00    -0.343 N 
ATOM      4  C25 XJ8 d   1     -26.423 -55.516  -9.750  0.00  0.00     0.252 C 
ATOM      5  O26 XJ8 d   1     -25.514 -56.271 -10.054  0.00  0.00    -0.268 OA
ATOM      6  H7  XJ8 d   1     -27.449 -53.832 -10.219  0.00  0.00     0.163 HD
BRANCH   4   7
ATOM      7  C27 XJ8 d   1     -27.300 -55.838  -8.592  0.00  0.00     0.033 A 
ATOM      8  C28 XJ8 d   1     -28.501 -55.125  -8.403  0.00  0.00    -0.066 A 
ATOM      9  C29 XJ8 d   1     -29.355 -55.412  -7.366  0.00  0.00    -0.055 A 
ATOM     10  H1  XJ8 d   1     -28.757 -54.330  -9.094  0.00  0.00     0.085 H 
ATOM     11  C30 XJ8 d   1     -29.042 -56.438  -6.465  0.00  0.00     0.048 A 
ATOM     12  H2  XJ8 d   1     -30.271 -54.845  -7.245  0.00  0.00     0.087 H 
ATOM     13  C31 XJ8 d   1     -27.842 -57.181  -6.655  0.00  0.00     0.025 A 
ATOM     14  N37 XJ8 d   1     -29.897 -56.777  -5.424  0.00  0.00    -0.323 N 
ATOM     15  C32 XJ8 d   1     -26.978 -56.882  -7.720  0.00  0.00    -0.053 A 
ATOM     16  C33 XJ8 d   1     -27.527 -58.277  -5.722  0.00  0.00     0.083 A 
ATOM     17  H3  XJ8 d   1     -26.070 -57.455  -7.865  0.00  0.00     0.086 H 
ATOM     18  C34 XJ8 d   1     -28.429 -58.577  -4.728  0.00  0.00     0.015 A 
ATOM     19  C35 XJ8 d   1     -29.626 -57.821  -4.594  0.00  0.00     0.248 A 
ATOM     20  H4  XJ8 d   1     -28.226 -59.397  -4.041  0.00  0.00     0.096 H 
ATOM     21  O36 XJ8 d   1     -30.423 -58.099  -3.699  0.00  0.00    -0.268 OA
ATOM     22  H5  XJ8 d   1     -30.730 -56.242  -5.281  0.00  0.00     0.169 HD
BRANCH  16  23
ATOM     23  O38 XJ8 d   1     -26.360 -58.959  -5.874  0.00  0.00    -0.360 OA
ATOM     24  H6  XJ8 d   1     -25.839 -58.873  -5.084  0.00  0.00     0.217 HD
ENDBRANCH  16  23
ENDBRANCH   4   7
ENDBRANCH   1   3
BRANCH   1  25
ATOM     25  C22 XJ8 d   1     -25.115 -52.828 -11.522  0.00  0.00     0.241 C 
ATOM     26  O23 XJ8 d   1     -25.282 -52.128 -10.547  0.00  0.00    -0.271 OA
ATOM     27  N13 XJ8 d   1     -24.246 -52.493 -12.502  0.00  0.00    -0.355 N 
ATOM     28  H25 XJ8 d   1     -24.157 -53.087 -13.301  0.00  0.00     0.162 HD
BRANCH  27  29
ATOM     29  C12 XJ8 d   1     -23.434 -51.282 -12.419  0.00  0.00     0.020 C 
ATOM     30  H23 XJ8 d   1     -23.531 -50.725 -13.363  0.00  0.00     0.071 H 
ATOM     31  H24 XJ8 d   1     -23.805 -50.663 -11.589  0.00  0.00     0.071 H 
BRANCH  29  32
ATOM     32  C5  XJ8 d   1     -21.983 -51.586 -12.184  0.00  0.00    -0.028 A 
ATOM     33  C4  XJ8 d   1     -21.523 -52.880 -12.096  0.00  0.00    -0.074 A 
ATOM     34  C3  XJ8 d   1     -20.170 -53.159 -11.855  0.00  0.00    -0.080 A 
ATOM     35  H18 XJ8 d   1     -22.221 -53.701 -12.216  0.00  0.00     0.084 H 
ATOM     36  C2  XJ8 d   1     -19.273 -52.135 -11.692  0.00  0.00    -0.054 A 
ATOM     37  H17 XJ8 d   1     -19.832 -54.187 -11.797  0.00  0.00     0.083 H 
ATOM     38  C1  XJ8 d   1     -19.730 -50.795 -11.761  0.00  0.00     0.070 A 
ATOM     39  H16 XJ8 d   1     -18.225 -52.348 -11.512  0.00  0.00     0.087 H 
ATOM     40  C6  XJ8 d   1     -21.103 -50.506 -12.010  0.00  0.00     0.001 A 
ATOM     41  N7  XJ8 d   1     -18.883 -49.783 -11.602  0.00  0.00    -0.231 NA
ATOM     42  C11 XJ8 d   1     -21.544 -49.146 -12.082  0.00  0.00    -0.067 A 
ATOM     43  C9  XJ8 d   1     -20.613 -48.152 -11.910  0.00  0.00    -0.038 A 
ATOM     44  H22 XJ8 d   1     -22.585 -48.907 -12.267  0.00  0.00     0.085 H 
ATOM     45  C8  XJ8 d   1     -19.274 -48.525 -11.658  0.00  0.00     0.121 A 
ATOM     46  H19 XJ8 d   1     -20.898 -47.108 -11.966  0.00  0.00     0.089 H 
BRANCH  45  47
ATOM     47  N10 XJ8 d   1     -18.293 -47.562 -11.467  0.00  0.00    -0.384 N 
ATOM     48  H20 XJ8 d   1     -18.539 -46.562 -11.500  0.00  0.00     0.157 HD
ATOM     49  H21 XJ8 d   1     -17.319 -47.847 -11.293  0.00  0.00     0.157 HD
ENDBRANCH  45  47
ENDBRANCH  29  32
ENDBRANCH  27  29
ENDBRANCH   1  25
BRANCH   1  50
ATOM     50  C20 XJ8 d   1     -27.000 -53.664 -12.742  0.00  0.00    -0.014 C 
ATOM     51  H9  XJ8 d   1     -26.476 -53.274 -13.627  0.00  0.00     0.043 H 
ATOM     52  H10 XJ8 d   1     -27.624 -52.870 -12.305  0.00  0.00     0.043 H 
BRANCH  50  53
ATOM     53  C17 XJ8 d   1     -27.918 -54.784 -13.197  0.00  0.00    -0.056 A 
ATOM     54  C16 XJ8 d   1     -29.291 -54.645 -13.022  0.00  0.00    -0.077 A 
ATOM     55  C15 XJ8 d   1     -30.150 -55.658 -13.442  0.00  0.00    -0.082 A 
ATOM     56  H11 XJ8 d   1     -29.692 -53.750 -12.560  0.00  0.00     0.084 H 
ATOM     57  C14 XJ8 d   1     -29.631 -56.796 -14.060  0.00  0.00    -0.083 A 
ATOM     58  H13 XJ8 d   1     -31.219 -55.562 -13.289  0.00  0.00     0.083 H 
ATOM     59  C19 XJ8 d   1     -28.257 -56.938 -14.257  0.00  0.00    -0.082 A 
ATOM     60  H15 XJ8 d   1     -30.303 -57.579 -14.391  0.00  0.00     0.083 H 
ATOM     61  C18 XJ8 d   1     -27.402 -55.922 -13.829  0.00  0.00    -0.077 A 
ATOM     62  H14 XJ8 d   1     -27.859 -57.825 -14.736  0.00  0.00     0.083 H 
ATOM     63  H12 XJ8 d   1     -26.333 -56.014 -13.986  0.00  0.00     0.084 H 
ENDBRANCH  50  53
ENDBRANCH   1  50
TORSDOF 9
