REMARK  10 active torsions:
REMARK  status: ('A' for Active; 'I' for Inactive)
REMARK    1  A    between atoms: C20_1  and  C21_3 
REMARK       I    between atoms: N19_15  and  C20_1 
REMARK    2  A    between atoms: C31_9  and  O40_14 
REMARK    3  A    between atoms: C17_16  and  N19_15 
REMARK    4  A    between atoms: C16_17  and  C17_16 
REMARK    5  A    between atoms: C17_16  and  C18_19 
REMARK       I    between atoms: N15_40  and  C16_17 
REMARK    6  A    between atoms: C18_19  and  C33_20 
REMARK    7  A    between atoms: C13_38  and  C5_30 
REMARK    8  A    between atoms: C6_31  and  N8_33 
REMARK    9  A    between atoms: C14_39  and  C13_38 
REMARK   10  A    between atoms: C14_39  and  N15_40 
ROOT
ATOM      1  C17 7P0 d   1      25.606  11.279  53.379  0.00  0.00     0.093 C 
ATOM      2  H8  7P0 d   1      24.927  11.602  54.182  0.00  0.00     0.088 H 
ENDROOT
BRANCH   1   3
ATOM      3  N19 7P0 d   1      26.340  10.095  53.754  0.00  0.00    -0.343 N 
ATOM      4  C20 7P0 d   1      26.200   9.537  55.011  0.00  0.00     0.252 C 
ATOM      5  O22 7P0 d   1      25.357   9.908  55.824  0.00  0.00    -0.268 OA
ATOM      6  H7  7P0 d   1      26.960   9.671  53.094  0.00  0.00     0.163 HD
BRANCH   4   7
ATOM      7  C21 7P0 d   1      27.174   8.473  55.367  0.00  0.00     0.033 A 
ATOM      8  C23 7P0 d   1      28.386   8.375  54.705  0.00  0.00    -0.066 A 
ATOM      9  C24 7P0 d   1      29.270   7.379  55.066  0.00  0.00    -0.055 A 
ATOM     10  H1  7P0 d   1      28.637   9.072  53.913  0.00  0.00     0.085 H 
ATOM     11  C27 7P0 d   1      28.945   6.494  56.084  0.00  0.00     0.048 A 
ATOM     12  H2  7P0 d   1      30.221   7.288  54.553  0.00  0.00     0.087 H 
ATOM     13  C26 7P0 d   1      27.743   6.593  56.740  0.00  0.00     0.025 A 
ATOM     14  N28 7P0 d   1      29.840   5.480  56.471  0.00  0.00    -0.323 N 
ATOM     15  C25 7P0 d   1      26.857   7.588  56.381  0.00  0.00    -0.053 A 
ATOM     16  C31 7P0 d   1      27.461   5.635  57.818  0.00  0.00     0.083 A 
ATOM     17  H3  7P0 d   1      25.907   7.676  56.897  0.00  0.00     0.086 H 
ATOM     18  C30 7P0 d   1      28.319   4.672  58.180  0.00  0.00     0.015 A 
ATOM     19  C29 7P0 d   1      29.609   4.556  57.478  0.00  0.00     0.248 A 
ATOM     20  H4  7P0 d   1      28.066   3.983  58.984  0.00  0.00     0.096 H 
ATOM     21  O32 7P0 d   1      30.406   3.678  57.801  0.00  0.00    -0.268 OA
ATOM     22  H5  7P0 d   1      30.710   5.421  55.982  0.00  0.00     0.169 HD
BRANCH  16  23
ATOM     23  O40 7P0 d   1      26.258   5.778  58.440  0.00  0.00    -0.360 OA
ATOM     24  H6  7P0 d   1      25.752   4.981  58.334  0.00  0.00     0.217 HD
ENDBRANCH  16  23
ENDBRANCH   4   7
ENDBRANCH   1   3
BRANCH   1  25
ATOM     25  C16 7P0 d   1      24.857  10.883  52.129  0.00  0.00     0.240 C 
ATOM     26  O39 7P0 d   1      25.239  10.002  51.377  0.00  0.00    -0.271 OA
ATOM     27  N15 7P0 d   1      23.703  11.605  51.914  0.00  0.00    -0.359 N 
ATOM     28  H24 7P0 d   1      23.459  12.359  52.524  0.00  0.00     0.162 HD
BRANCH  27  29
ATOM     29  C14 7P0 d   1      22.847  11.263  50.797  0.00  0.00    -0.001 C 
ATOM     30  H22 7P0 d   1      23.473  10.977  49.939  0.00  0.00     0.064 H 
ATOM     31  H23 7P0 d   1      22.205  10.416  51.081  0.00  0.00     0.064 H 
BRANCH  29  32
ATOM     32  C13 7P0 d   1      21.977  12.432  50.406  0.00  0.00    -0.024 C 
ATOM     33  H20 7P0 d   1      21.530  12.857  51.317  0.00  0.00     0.042 H 
ATOM     34  H21 7P0 d   1      22.607  13.191  49.919  0.00  0.00     0.042 H 
BRANCH  32  35
ATOM     35  C5  7P0 d   1      20.872  12.050  49.464  0.00  0.00    -0.026 A 
ATOM     36  C4  7P0 d   1      21.063  12.214  48.102  0.00  0.00    -0.054 A 
ATOM     37  C3  7P0 d   1      20.079  11.894  47.184  0.00  0.00     0.034 A 
ATOM     38  H18 7P0 d   1      22.010  12.604  47.746  0.00  0.00     0.087 H 
ATOM     39  C2  7P0 d   1      18.870  11.394  47.623  0.00  0.00    -0.060 A 
ATOM     40 CL7  7P0 d   1      20.365  12.135  45.471  0.00  0.00    -0.084 Cl
ATOM     41  C1  7P0 d   1      18.660  11.217  48.985  0.00  0.00    -0.053 A 
ATOM     42  H17 7P0 d   1      18.092  11.142  46.912  0.00  0.00     0.086 H 
ATOM     43  C6  7P0 d   1      19.654  11.546  49.897  0.00  0.00     0.061 A 
ATOM     44  H16 7P0 d   1      17.715  10.820  49.338  0.00  0.00     0.087 H 
BRANCH  43  45
ATOM     45  N8  7P0 d   1      19.402  11.372  51.276  0.00  0.00    -0.234 N 
ATOM     46  C9  7P0 d   1      19.917  10.429  52.124  0.00  0.00     0.101 A 
ATOM     47  N10 7P0 d   1      19.375  10.576  53.320  0.00  0.00    -0.156 NA
ATOM     48  H19 7P0 d   1      20.657   9.676  51.855  0.00  0.00     0.148 H 
ATOM     49  N11 7P0 d   1      18.508  11.631  53.191  0.00  0.00     0.017 NA
ATOM     50  N12 7P0 d   1      18.517  12.124  51.957  0.00  0.00     0.002 NA
ENDBRANCH  43  45
ENDBRANCH  32  35
ENDBRANCH  29  32
ENDBRANCH  27  29
ENDBRANCH   1  25
BRANCH   1  51
ATOM     51  C18 7P0 d   1      26.566  12.395  53.001  0.00  0.00    -0.014 C 
ATOM     52  H9  7P0 d   1      25.979  13.303  52.801  0.00  0.00     0.043 H 
ATOM     53  H10 7P0 d   1      27.101  12.096  52.087  0.00  0.00     0.043 H 
BRANCH  51  54
ATOM     54  C33 7P0 d   1      27.582  12.714  54.059  0.00  0.00    -0.056 A 
ATOM     55  C34 7P0 d   1      27.184  13.218  55.281  0.00  0.00    -0.077 A 
ATOM     56  C35 7P0 d   1      28.110  13.521  56.253  0.00  0.00    -0.082 A 
ATOM     57  H11 7P0 d   1      26.130  13.377  55.477  0.00  0.00     0.084 H 
ATOM     58  C36 7P0 d   1      29.449  13.314  56.004  0.00  0.00    -0.083 A 
ATOM     59  H13 7P0 d   1      27.788  13.920  57.208  0.00  0.00     0.083 H 
ATOM     60  C37 7P0 d   1      29.853  12.810  54.786  0.00  0.00    -0.082 A 
ATOM     61  H15 7P0 d   1      30.185  13.547  56.765  0.00  0.00     0.083 H 
ATOM     62  C38 7P0 d   1      28.921  12.515  53.812  0.00  0.00    -0.077 A 
ATOM     63  H14 7P0 d   1      30.907  12.645  54.593  0.00  0.00     0.083 H 
ATOM     64  H12 7P0 d   1      29.244  12.127  52.853  0.00  0.00     0.084 H 
ENDBRANCH  51  54
ENDBRANCH   1  51
TORSDOF 10
