REMARK  9 active torsions:
REMARK  status: ('A' for Active; 'I' for Inactive)
REMARK    1  A    between atoms: C24_1  and  C26_3 
REMARK       I    between atoms: C24_1  and  N23_17 
REMARK    2  A    between atoms: C27_4  and  C28_5 
REMARK    3  A    between atoms: C33_10  and  N34_11 
REMARK    4  A    between atoms: N23_17  and  C8_18 
REMARK    5  A    between atoms: C8_18  and  C9_19 
REMARK    6  A    between atoms: C8_18  and  C7_21 
REMARK       I    between atoms: C9_19  and  N11_28 
REMARK    7  A    between atoms: C7_21  and  C4_22 
REMARK    8  A    between atoms: N11_28  and  C12_29 
REMARK    9  A    between atoms: C15_32  and  C18_35 
ROOT
ATOM      1  C8  OTM d   1     -51.173 -11.251 -24.616  0.00  0.00     0.093 C 
ATOM      2  H8  OTM d   1     -50.532 -10.912 -25.443  0.00  0.00     0.088 H 
ENDROOT
BRANCH   1   3
ATOM      3  N23 OTM d   1     -50.457 -11.115 -23.347  0.00  0.00    -0.344 N 
ATOM      4  C24 OTM d   1     -49.648 -10.019 -23.183  0.00  0.00     0.241 C 
ATOM      5  O25 OTM d   1     -49.549  -9.153 -24.037  0.00  0.00    -0.269 OA
ATOM      6  H7  OTM d   1     -50.554 -11.798 -22.623  0.00  0.00     0.163 HD
BRANCH   4   7
ATOM      7  C26 OTM d   1     -48.837  -9.891 -21.937  0.00  0.00    -0.017 C 
ATOM      8  C27 OTM d   1     -48.965 -10.723 -20.891  0.00  0.00    -0.066 C 
ATOM      9  H2  OTM d   1     -49.681 -11.543 -20.911  0.00  0.00     0.085 H 
ATOM     10  H1  OTM d   1     -48.107  -9.085 -21.873  0.00  0.00     0.092 H 
BRANCH   8  11
ATOM     11  C28 OTM d   1     -48.104 -10.491 -19.711  0.00  0.00    -0.006 A 
ATOM     12  C29 OTM d   1     -46.724 -10.533 -19.831  0.00  0.00    -0.050 A 
ATOM     13  C30 OTM d   1     -45.888 -10.321 -18.744  0.00  0.00     0.035 A 
ATOM     14  H3  OTM d   1     -46.285 -10.737 -20.801  0.00  0.00     0.087 H 
ATOM     15  C31 OTM d   1     -46.433 -10.060 -17.500  0.00  0.00    -0.060 A 
ATOM     16 CL   OTM d   1     -44.156 -10.384 -18.927  0.00  0.00    -0.084 Cl
ATOM     17  C32 OTM d   1     -47.802 -10.020 -17.355  0.00  0.00    -0.053 A 
ATOM     18  H4  OTM d   1     -45.788  -9.888 -16.646  0.00  0.00     0.086 H 
ATOM     19  C33 OTM d   1     -48.619 -10.232 -18.451  0.00  0.00     0.065 A 
ATOM     20  H5  OTM d   1     -48.239  -9.822 -16.383  0.00  0.00     0.087 H 
BRANCH  19  21
ATOM     21  N34 OTM d   1     -50.005 -10.178 -18.241  0.00  0.00    -0.233 N 
ATOM     22  C35 OTM d   1     -50.752 -10.946 -17.402  0.00  0.00     0.101 A 
ATOM     23  N36 OTM d   1     -52.015 -10.606 -17.535  0.00  0.00    -0.156 NA
ATOM     24  H6  OTM d   1     -50.368 -11.714 -16.732  0.00  0.00     0.148 H 
ATOM     25  N37 OTM d   1     -52.043  -9.612 -18.475  0.00  0.00     0.017 NA
ATOM     26  N38 OTM d   1     -50.817  -9.350 -18.909  0.00  0.00     0.002 NA
ENDBRANCH  19  21
ENDBRANCH   8  11
ENDBRANCH   4   7
ENDBRANCH   1   3
BRANCH   1  27
ATOM     27  C9  OTM d   1     -52.435 -10.413 -24.554  0.00  0.00     0.245 C 
ATOM     28  O10 OTM d   1     -53.268 -10.501 -23.658  0.00  0.00    -0.271 OA
ATOM     29  N11 OTM d   1     -52.527  -9.574 -25.650  0.00  0.00    -0.325 N 
ATOM     30  H16 OTM d   1     -51.801  -9.655 -26.333  0.00  0.00     0.169 HD
BRANCH  29  31
ATOM     31  C12 OTM d   1     -53.533  -8.613 -25.914  0.00  0.00     0.034 A 
ATOM     32  C13 OTM d   1     -53.456  -7.909 -27.093  0.00  0.00    -0.056 A 
ATOM     33  C14 OTM d   1     -54.396  -6.953 -27.418  0.00  0.00    -0.067 A 
ATOM     34  H17 OTM d   1     -52.642  -8.109 -27.780  0.00  0.00     0.086 H 
ATOM     35  C15 OTM d   1     -55.437  -6.692 -26.547  0.00  0.00     0.015 A 
ATOM     36  H18 OTM d   1     -54.319  -6.409 -28.352  0.00  0.00     0.085 H 
ATOM     37  C16 OTM d   1     -55.518  -7.400 -25.368  0.00  0.00    -0.067 A 
ATOM     38  C17 OTM d   1     -54.582  -8.362 -25.049  0.00  0.00    -0.056 A 
ATOM     39  H19 OTM d   1     -56.331  -7.198 -24.680  0.00  0.00     0.085 H 
ATOM     40  H20 OTM d   1     -54.669  -8.919 -24.123  0.00  0.00     0.086 H 
BRANCH  35  41
ATOM     41  C18 OTM d   1     -56.405  -5.662 -26.834  0.00  0.00     0.197 A 
ATOM     42  N19 OTM d   1     -56.693  -5.196 -28.082  0.00  0.00    -0.139 NA
ATOM     43  N20 OTM d   1     -57.621  -4.234 -28.001  0.00  0.00    -0.200 N 
ATOM     44  N21 OTM d   1     -57.884  -4.110 -26.706  0.00  0.00     0.022 NA
ATOM     45  H21 OTM d   1     -58.041  -3.704 -28.778  0.00  0.00     0.208 HD
ATOM     46  N22 OTM d   1     -57.139  -4.988 -25.973  0.00  0.00    -0.136 NA
ENDBRANCH  35  41
ENDBRANCH  29  31
ENDBRANCH   1  27
BRANCH   1  47
ATOM     47  C7  OTM d   1     -51.578 -12.700 -24.835  0.00  0.00    -0.014 C 
ATOM     48  H9  OTM d   1     -52.331 -12.967 -24.079  0.00  0.00     0.043 H 
ATOM     49  H10 OTM d   1     -50.687 -13.332 -24.705  0.00  0.00     0.043 H 
BRANCH  47  50
ATOM     50  C4  OTM d   1     -52.155 -12.972 -26.191  0.00  0.00    -0.056 A 
ATOM     51  C3  OTM d   1     -53.222 -13.840 -26.298  0.00  0.00    -0.077 A 
ATOM     52  C2  OTM d   1     -53.780 -14.127 -27.531  0.00  0.00    -0.082 A 
ATOM     53  H11 OTM d   1     -53.628 -14.303 -25.406  0.00  0.00     0.084 H 
ATOM     54  C1  OTM d   1     -53.267 -13.548 -28.673  0.00  0.00    -0.083 A 
ATOM     55  H13 OTM d   1     -54.621 -14.807 -27.600  0.00  0.00     0.083 H 
ATOM     56  C6  OTM d   1     -52.201 -12.676 -28.576  0.00  0.00    -0.082 A 
ATOM     57  H15 OTM d   1     -53.698 -13.776 -29.641  0.00  0.00     0.083 H 
ATOM     58  C5  OTM d   1     -51.652 -12.394 -27.341  0.00  0.00    -0.077 A 
ATOM     59  H14 OTM d   1     -51.795 -12.213 -29.468  0.00  0.00     0.083 H 
ATOM     60  H12 OTM d   1     -50.814 -11.709 -27.273  0.00  0.00     0.084 H 
ENDBRANCH  47  50
ENDBRANCH   1  47
TORSDOF 9
