REMARK  8 active torsions:
REMARK  status: ('A' for Active; 'I' for Inactive)
REMARK    1  A    between atoms: C27_1  and  C15_3 
REMARK       I    between atoms: N29_15  and  C27_1 
REMARK    2  A    between atoms: C24_9  and  O25_14 
REMARK    3  A    between atoms: C30_16  and  N29_15 
REMARK    4  A    between atoms: C31_17  and  C30_16 
REMARK    5  A    between atoms: C30_16  and  C33_19 
REMARK       I    between atoms: N14_39  and  C31_17 
REMARK    6  A    between atoms: C33_19  and  C34_20 
REMARK    7  A    between atoms: C13_38  and  C11_36 
REMARK    8  A    between atoms: C13_38  and  N14_39 
ROOT
ATOM      1  C30 R9B d   1      53.496  25.534  11.491  0.00  0.00     0.093 C 
ATOM      2  H8  R9B d   1      54.279  24.787  11.688  0.00  0.00     0.088 H 
ENDROOT
BRANCH   1   3
ATOM      3  N29 R9B d   1      53.913  26.409  10.394  0.00  0.00    -0.343 N 
ATOM      4  C27 R9B d   1      55.108  26.291   9.746  0.00  0.00     0.252 C 
ATOM      5  O28 R9B d   1      55.903  25.439  10.089  0.00  0.00    -0.268 OA
ATOM      6  H7  R9B d   1      53.288  27.133  10.104  0.00  0.00     0.163 HD
BRANCH   4   7
ATOM      7  C15 R9B d   1      55.503  27.210   8.638  0.00  0.00     0.033 A 
ATOM      8  C16 R9B d   1      54.853  28.446   8.484  0.00  0.00    -0.066 A 
ATOM      9  C17 R9B d   1      55.224  29.287   7.480  0.00  0.00    -0.055 A 
ATOM     10  H1  R9B d   1      54.057  28.729   9.164  0.00  0.00     0.085 H 
ATOM     11  C20 R9B d   1      56.273  28.969   6.611  0.00  0.00     0.048 A 
ATOM     12  H2  R9B d   1      54.695  30.224   7.351  0.00  0.00     0.087 H 
ATOM     13  C19 R9B d   1      56.958  27.758   6.755  0.00  0.00     0.025 A 
ATOM     14  N21 R9B d   1      56.653  29.850   5.609  0.00  0.00    -0.323 N 
ATOM     15  C18 R9B d   1      56.558  26.884   7.770  0.00  0.00    -0.053 A 
ATOM     16  C24 R9B d   1      58.087  27.491   5.813  0.00  0.00     0.083 A 
ATOM     17  H3  R9B d   1      57.072  25.937   7.889  0.00  0.00     0.086 H 
ATOM     18  C23 R9B d   1      58.405  28.419   4.842  0.00  0.00     0.015 A 
ATOM     19  C22 R9B d   1      57.660  29.613   4.753  0.00  0.00     0.248 A 
ATOM     20  H4  R9B d   1      59.225  28.231   4.150  0.00  0.00     0.096 H 
ATOM     21  O26 R9B d   1      57.935  30.447   3.898  0.00  0.00    -0.268 OA
ATOM     22  H5  R9B d   1      56.149  30.709   5.519  0.00  0.00     0.169 HD
BRANCH  16  23
ATOM     23  O25 R9B d   1      58.832  26.378   5.883  0.00  0.00    -0.360 OA
ATOM     24  H6  R9B d   1      58.774  25.907   5.060  0.00  0.00     0.217 HD
ENDBRANCH  16  23
ENDBRANCH   4   7
ENDBRANCH   1   3
BRANCH   1  25
ATOM     25  C31 R9B d   1      52.185  24.858  11.187  0.00  0.00     0.241 C 
ATOM     26  O32 R9B d   1      51.572  25.090  10.157  0.00  0.00    -0.271 OA
ATOM     27  N14 R9B d   1      51.698  24.023  12.133  0.00  0.00    -0.355 N 
ATOM     28  H23 R9B d   1      52.232  23.912  12.971  0.00  0.00     0.162 HD
BRANCH  27  29
ATOM     29  C13 R9B d   1      50.466  23.280  12.024  0.00  0.00     0.020 C 
ATOM     30  H21 R9B d   1      49.879  23.398  12.947  0.00  0.00     0.071 H 
ATOM     31  H22 R9B d   1      49.883  23.652  11.169  0.00  0.00     0.071 H 
BRANCH  29  32
ATOM     32  C11 R9B d   1      50.801  21.822  11.816  0.00  0.00    -0.023 A 
ATOM     33  C6  R9B d   1      49.720  20.819  11.750  0.00  0.00     0.000 A 
ATOM     34  C4  R9B d   1      48.394  21.191  11.975  0.00  0.00    -0.049 A 
ATOM     35  C7  R9B d   1      50.030  19.471  11.458  0.00  0.00     0.046 A 
ATOM     36  C3  R9B d   1      47.432  20.205  11.906  0.00  0.00     0.035 A 
ATOM     37  H18 R9B d   1      48.129  22.219  12.196  0.00  0.00     0.087 H 
ATOM     38  C2  R9B d   1      47.716  18.880  11.620  0.00  0.00    -0.060 A 
ATOM     39 CL5  R9B d   1      45.791  20.615  12.166  0.00  0.00    -0.084 Cl
ATOM     40  C1  R9B d   1      49.021  18.507  11.395  0.00  0.00    -0.055 A 
ATOM     41  H17 R9B d   1      46.920  18.146  11.574  0.00  0.00     0.086 H 
ATOM     42  H16 R9B d   1      49.264  17.475  11.171  0.00  0.00     0.087 H 
ATOM     43  N8  R9B d   1      51.348  19.082  11.293  0.00  0.00    -0.323 N 
ATOM     44  C9  R9B d   1      52.349  19.988  11.449  0.00  0.00     0.246 A 
ATOM     45  H19 R9B d   1      51.564  18.134  11.059  0.00  0.00     0.169 HD
ATOM     46  C10 R9B d   1      52.091  21.383  11.696  0.00  0.00    -0.009 A 
ATOM     47  O12 R9B d   1      53.507  19.607  11.337  0.00  0.00    -0.268 OA
ATOM     48  H20 R9B d   1      52.919  22.085  11.787  0.00  0.00     0.093 H 
ENDBRANCH  29  32
ENDBRANCH  27  29
ENDBRANCH   1  25
BRANCH   1  49
ATOM     49  C33 R9B d   1      53.225  26.383  12.730  0.00  0.00    -0.014 C 
ATOM     50  H9  R9B d   1      53.336  25.750  13.623  0.00  0.00     0.043 H 
ATOM     51  H10 R9B d   1      52.195  26.766  12.678  0.00  0.00     0.043 H 
BRANCH  49  52
ATOM     52  C34 R9B d   1      54.160  27.538  12.842  0.00  0.00    -0.056 A 
ATOM     53  C35 R9B d   1      53.707  28.801  12.482  0.00  0.00    -0.077 A 
ATOM     54  C36 R9B d   1      54.570  29.881  12.587  0.00  0.00    -0.082 A 
ATOM     55  H11 R9B d   1      52.693  28.940  12.124  0.00  0.00     0.084 H 
ATOM     56  C37 R9B d   1      55.870  29.671  13.048  0.00  0.00    -0.083 A 
ATOM     57  H13 R9B d   1      54.239  30.877  12.314  0.00  0.00     0.083 H 
ATOM     58  C38 R9B d   1      56.333  28.405  13.400  0.00  0.00    -0.082 A 
ATOM     59  H15 R9B d   1      56.540  30.519  13.135  0.00  0.00     0.083 H 
ATOM     60  C39 R9B d   1      55.467  27.327  13.299  0.00  0.00    -0.077 A 
ATOM     61  H14 R9B d   1      57.351  28.265  13.746  0.00  0.00     0.083 H 
ATOM     62  H12 R9B d   1      55.798  26.331  13.571  0.00  0.00     0.084 H 
ENDBRANCH  49  52
ENDBRANCH   1  49
TORSDOF 8
