REMARK  7 active torsions:
REMARK  status: ('A' for Active; 'I' for Inactive)
REMARK    1  A    between atoms: C1_1  and  N2_2 
REMARK    2  A    between atoms: N2_2  and  C3_3 
REMARK    3  A    between atoms: N2_2  and  C4_4 
REMARK    4  A    between atoms: C15_14  and  O17_15 
REMARK    5  A    between atoms: C18_16  and  O20_17 
REMARK    6  A    between atoms: C23_20  and  C24_21 
REMARK    7  A    between atoms: C25_22  and  C29_26 
ROOT
ATOM      1  C4  C1I d   1       2.576  15.607  -3.704  0.00  0.00     0.133 C 
ATOM      2  C6  C1I d   1       1.077  15.447  -3.875  0.00  0.00    -0.003 C 
ATOM      3  C7  C1I d   1       0.693  14.622  -5.096  0.00  0.00     0.090 C 
ATOM      4  C8  C1I d   1       0.740  13.106  -4.880  0.00  0.00    -0.029 C 
ATOM      5  C9  C1I d   1      -0.363  12.607  -5.857  0.00  0.00    -0.029 C 
ATOM      6  C10 C1I d   1      -1.068  13.874  -6.371  0.00  0.00     0.093 C 
ATOM      7  O11 C1I d   1      -0.700  14.881  -5.410  0.00  0.00    -0.359 OA
ATOM      8  C12 C1I d   1      -0.406  14.324  -7.677  0.00  0.00    -0.027 C 
ATOM      9  C13 C1I d   1       0.962  14.790  -7.534  0.00  0.00    -0.066 C 
ATOM     10  C14 C1I d   1       1.535  14.960  -6.307  0.00  0.00    -0.014 C 
ATOM     11  C15 C1I d   1       2.953  15.428  -6.181  0.00  0.00     0.087 C 
ATOM     12  C18 C1I d   1       3.168  16.279  -4.940  0.00  0.00     0.091 C 
ATOM     13  C21 C1I d   1      -1.028  14.305  -8.830  0.00  0.00    -0.093 C 
ATOM     14  C22 C1I d   1      -2.445  13.841  -9.008  0.00  0.00    -0.041 C 
ATOM     15  C23 C1I d   1      -2.967  13.074  -7.818  0.00  0.00    -0.026 C 
ATOM     16  C25 C1I d   1      -4.465  13.078  -7.571  0.00  0.00    -0.021 C 
ATOM     17  C26 C1I d   1      -4.588  12.511  -6.140  0.00  0.00    -0.057 C 
ATOM     18  C27 C1I d   1      -3.275  12.925  -5.436  0.00  0.00    -0.057 C 
ATOM     19  C28 C1I d   1      -2.566  13.778  -6.494  0.00  0.00    -0.012 C 
ATOM     20  H8  C1I d   1       3.044  14.623  -3.554  0.00  0.00     0.088 H 
ATOM     21  H9  C1I d   1       0.629  16.447  -3.974  0.00  0.00     0.041 H 
ATOM     22  H10 C1I d   1       0.674  14.952  -2.979  0.00  0.00     0.041 H 
ATOM     23  H11 C1I d   1       0.501  12.843  -3.839  0.00  0.00     0.038 H 
ATOM     24  H12 C1I d   1       1.725  12.695  -5.145  0.00  0.00     0.038 H 
ATOM     25  H13 C1I d   1      -1.077  11.958  -5.330  0.00  0.00     0.038 H 
ATOM     26  H14 C1I d   1       0.088  12.053  -6.694  0.00  0.00     0.038 H 
ATOM     27  H15 C1I d   1       1.545  15.009  -8.428  0.00  0.00     0.085 H 
ATOM     28  H16 C1I d   1       3.612  14.549  -6.131  0.00  0.00     0.094 H 
ATOM     29  H18 C1I d   1       2.691  17.260  -5.083  0.00  0.00     0.090 H 
ATOM     30  H20 C1I d   1      -0.486  14.646  -9.711  0.00  0.00     0.077 H 
ATOM     31  H21 C1I d   1      -2.492  13.190  -9.893  0.00  0.00     0.040 H 
ATOM     32  H22 C1I d   1      -3.085  14.722  -9.166  0.00  0.00     0.040 H 
ATOM     33  H26 C1I d   1      -4.827  14.117  -7.581  0.00  0.00     0.048 H 
ATOM     34  H27 C1I d   1      -4.686  11.416  -6.164  0.00  0.00     0.034 H 
ATOM     35  H28 C1I d   1      -5.457  12.945  -5.625  0.00  0.00     0.034 H 
ATOM     36  H29 C1I d   1      -2.673  12.043  -5.172  0.00  0.00     0.033 H 
ATOM     37  H30 C1I d   1      -3.482  13.512  -4.529  0.00  0.00     0.033 H 
ATOM     38  H31 C1I d   1      -2.970  14.801  -6.466  0.00  0.00     0.046 H 
ENDROOT
BRANCH  16  39
ATOM     39  C29 C1I d   1      -5.274  12.320  -8.592  0.00  0.00    -0.052 A 
ATOM     40  C30 C1I d   1      -5.929  11.176  -8.271  0.00  0.00    -0.064 A 
ATOM     41  C31 C1I d   1      -6.685  10.521  -9.246  0.00  0.00    -0.008 A 
ATOM     42  H32 C1I d   1      -5.866  10.774  -7.266  0.00  0.00     0.085 H 
ATOM     43  C32 C1I d   1      -7.378   9.334  -8.988  0.00  0.00     0.013 A 
ATOM     44  C36 C1I d   1      -6.764  11.068 -10.542  0.00  0.00    -0.023 A 
ATOM     45  N33 C1I d   1      -8.075   8.765  -9.933  0.00  0.00    -0.272 NA
ATOM     46  H33 C1I d   1      -7.336   8.886  -8.002  0.00  0.00     0.116 H 
ATOM     47  C34 C1I d   1      -8.160   9.249 -11.152  0.00  0.00     0.003 A 
ATOM     48  C35 C1I d   1      -7.528  10.394 -11.498  0.00  0.00    -0.055 A 
ATOM     49  H34 C1I d   1      -8.748   8.721 -11.894  0.00  0.00     0.114 H 
ATOM     50  H35 C1I d   1      -7.613  10.784 -12.506  0.00  0.00     0.087 H 
ATOM     51  C37 C1I d   1      -6.086  12.251 -10.834  0.00  0.00    -0.072 A 
ATOM     52  C38 C1I d   1      -5.363  12.856  -9.865  0.00  0.00    -0.076 A 
ATOM     53  H36 C1I d   1      -6.138  12.681 -11.828  0.00  0.00     0.084 H 
ATOM     54  H37 C1I d   1      -4.842  13.780 -10.090  0.00  0.00     0.084 H 
ENDBRANCH  16  39
BRANCH  15  55
ATOM     55  C24 C1I d   1      -2.447  11.639  -7.852  0.00  0.00    -0.068 C 
ATOM     56  H23 C1I d   1      -2.833  11.088  -6.981  0.00  0.00     0.028 H 
ATOM     57  H24 C1I d   1      -1.347  11.647  -7.823  0.00  0.00     0.028 H 
ATOM     58  H25 C1I d   1      -2.786  11.148  -8.776  0.00  0.00     0.028 H 
ENDBRANCH  15  55
BRANCH  11  59
ATOM     59  O17 C1I d   1       3.290  16.212  -7.318  0.00  0.00    -0.388 OA
ATOM     60  H17 C1I d   1       4.189  16.510  -7.241  0.00  0.00     0.210 HD
ENDBRANCH  11  59
BRANCH   1  61
ATOM     61  N2  C1I d   1       2.814  16.463  -2.538  0.00  0.00    -0.072 N 
ATOM     62  H4  C1I d   1       3.810  16.572  -2.429  0.00  0.00     0.279 HD
BRANCH  61  63
ATOM     63  C1  C1I d   1       2.219  17.791  -2.715  0.00  0.00     0.066 C 
ATOM     64  H1  C1I d   1       2.417  18.403  -1.823  0.00  0.00     0.068 H 
ATOM     65  H2  C1I d   1       1.133  17.690  -2.857  0.00  0.00     0.068 H 
ATOM     66  H3  C1I d   1       2.660  18.276  -3.598  0.00  0.00     0.068 H 
ENDBRANCH  61  63
BRANCH  61  67
ATOM     67  C3  C1I d   1       2.275  15.857  -1.319  0.00  0.00     0.066 C 
ATOM     68  H5  C1I d   1       2.717  14.860  -1.179  0.00  0.00     0.068 H 
ATOM     69  H6  C1I d   1       1.183  15.765  -1.407  0.00  0.00     0.068 H 
ATOM     70  H7  C1I d   1       2.521  16.491  -0.455  0.00  0.00     0.068 H 
ENDBRANCH  61  67
ENDBRANCH   1  61
BRANCH  12  71
ATOM     71  O20 C1I d   1       4.566  16.447  -4.747  0.00  0.00    -0.391 OA
ATOM     72  H19 C1I d   1       4.940  16.879  -5.506  0.00  0.00     0.210 HD
ENDBRANCH  12  71
TORSDOF 7
