REMARK  6 active torsions:
REMARK  status: ('A' for Active; 'I' for Inactive)
REMARK    1  A    between atoms: C1_1  and  O1_7 
REMARK    2  A    between atoms: C2_2  and  O2_8 
REMARK    3  A    between atoms: C3_3  and  O3_9 
REMARK    4  A    between atoms: C4_4  and  O4_10 
REMARK    5  A    between atoms: C5_5  and  C6_6 
REMARK    6  A    between atoms: O1_7  and  CM_12 
ROOT
ATOM      1  C1  MFU d   1     -11.543  -4.047  40.830  0.00  0.00     0.158 C 
ATOM      2  C2  MFU d   1     -10.129  -4.162  41.386  0.00  0.00     0.110 C 
ATOM      3  C3  MFU d   1     -10.074  -5.331  42.388  0.00  0.00     0.092 C 
ATOM      4  C4  MFU d   1     -10.561  -6.577  41.627  0.00  0.00     0.087 C 
ATOM      5  C5  MFU d   1     -12.018  -6.372  41.164  0.00  0.00     0.065 C 
ATOM      6  O5  MFU d   1     -12.010  -5.257  40.251  0.00  0.00    -0.351 OA
ATOM      7  H   MFU d   1     -11.543  -3.273  40.048  0.00  0.00     0.133 H 
ATOM      8  H   MFU d   1      -9.433  -4.376  40.562  0.00  0.00     0.094 H 
ATOM      9  H   MFU d   1     -10.745  -5.131  43.237  0.00  0.00     0.091 H 
ATOM     10  H   MFU d   1     -10.525  -7.430  42.320  0.00  0.00     0.091 H 
ATOM     11  H   MFU d   1     -12.651  -6.155  42.037  0.00  0.00     0.086 H 
ENDROOT
BRANCH   1  12
ATOM     12  O1  MFU d   1     -12.421  -3.640  41.882  0.00  0.00    -0.363 OA
BRANCH  12  13
ATOM     13  CM  MFU d   1     -13.781  -3.456  41.507  0.00  0.00     0.007 C 
ATOM     14  H   MFU d   1     -14.365  -3.145  42.386  0.00  0.00     0.066 H 
ATOM     15  H   MFU d   1     -14.184  -4.401  41.114  0.00  0.00     0.066 H 
ATOM     16  H   MFU d   1     -13.845  -2.679  40.731  0.00  0.00     0.066 H 
ENDBRANCH  12  13
ENDBRANCH   1  12
BRANCH   2  17
ATOM     17  O2  MFU d   1      -9.761  -2.919  41.979  0.00  0.00    -0.388 OA
ATOM     18  H   MFU d   1     -10.356  -2.722  42.693  0.00  0.00     0.210 HD
ENDBRANCH   2  17
BRANCH   3  19
ATOM     19  O3  MFU d   1      -8.738  -5.492  42.880  0.00  0.00    -0.390 OA
ATOM     20  H   MFU d   1      -8.149  -5.644  42.150  0.00  0.00     0.210 HD
ENDBRANCH   3  19
BRANCH   5  21
ATOM     21  C6  MFU d   1     -12.597  -7.571  40.406  0.00  0.00    -0.050 C 
ATOM     22  H   MFU d   1     -13.633  -7.352  40.110  0.00  0.00     0.031 H 
ATOM     23  H   MFU d   1     -12.582  -8.458  41.056  0.00  0.00     0.031 H 
ATOM     24  H   MFU d   1     -11.992  -7.764  39.508  0.00  0.00     0.031 H 
ENDBRANCH   5  21
BRANCH   4  25
ATOM     25  O4  MFU d   1      -9.759  -6.901  40.478  0.00  0.00    -0.390 OA
ATOM     26  H   MFU d   1      -8.858  -7.030  40.749  0.00  0.00     0.210 HD
ENDBRANCH   4  25
TORSDOF 6
