REMARK  11 active torsions:
REMARK  status: ('A' for Active; 'I' for Inactive)
REMARK    1  A    between atoms: CAR_1  and  NAQ_2 
REMARK    2  A    between atoms: NAQ_2  and  SAN_3 
REMARK    3  A    between atoms: SAN_3  and  CAK_6 
REMARK    4  A    between atoms: CAH_11  and  CAE_12 
REMARK    5  A    between atoms: CAB_17  and  O1_18 
REMARK    6  A    between atoms: O1_18  and  C1_19 
REMARK    7  A    between atoms: C5_21  and  C6_22 
REMARK    8  A    between atoms: C6_22  and  O6_23 
REMARK    9  A    between atoms: C4_24  and  O4_25 
REMARK   10  A    between atoms: C3_26  and  O3_27 
REMARK   11  A    between atoms: C2_28  and  O2_29 
ROOT
ATOM      1  CAE CWX d   1      -7.083  47.036 -11.269  0.00  0.00    -0.026 A 
ATOM      2  CAD CWX d   1      -6.394  48.236 -11.321  0.00  0.00    -0.070 A 
ATOM      3  CAC CWX d   1      -5.031  48.300 -10.993  0.00  0.00    -0.050 A 
ATOM      4  CAF CWX d   1      -6.392  45.873 -10.908  0.00  0.00    -0.070 A 
ATOM      5  CAG CWX d   1      -5.017  45.923 -10.605  0.00  0.00    -0.050 A 
ATOM      6  CAB CWX d   1      -4.357  47.131 -10.648  0.00  0.00     0.072 A 
ATOM      7  H9  CWX d   1      -6.915  49.139 -11.619  0.00  0.00     0.085 H 
ATOM      8  H10 CWX d   1      -4.508  49.249 -11.008  0.00  0.00     0.087 H 
ATOM      9  H11 CWX d   1      -6.919  44.927 -10.861  0.00  0.00     0.085 H 
ATOM     10  H12 CWX d   1      -4.483  45.018 -10.340  0.00  0.00     0.087 H 
ENDROOT
BRANCH   6  11
ATOM     11  O1  CWX d   1      -2.952  47.083 -10.341  0.00  0.00    -0.318 OA
BRANCH  11  12
ATOM     12  C1  CWX d   1      -2.191  48.162 -10.146  0.00  0.00     0.164 C 
ATOM     13  O5  CWX d   1      -2.711  49.155  -9.283  0.00  0.00    -0.348 OA
ATOM     14  C5  CWX d   1      -2.957  48.609  -7.947  0.00  0.00     0.089 C 
ATOM     15  C4  CWX d   1      -1.699  48.007  -7.397  0.00  0.00     0.090 C 
ATOM     16  H14 CWX d   1      -3.737  47.835  -7.991  0.00  0.00     0.090 H 
ATOM     17  C3  CWX d   1      -1.168  46.998  -8.358  0.00  0.00     0.092 C 
ATOM     18  H18 CWX d   1      -0.951  48.799  -7.246  0.00  0.00     0.091 H 
ATOM     19  C2  CWX d   1      -0.937  47.622  -9.717  0.00  0.00     0.110 C 
ATOM     20  H20 CWX d   1      -1.894  46.178  -8.461  0.00  0.00     0.091 H 
ATOM     21  H22 CWX d   1      -0.597  46.853 -10.426  0.00  0.00     0.094 H 
ATOM     22  H13 CWX d   1      -2.044  48.653 -11.119  0.00  0.00     0.134 H 
BRANCH  14  23
ATOM     23  C6  CWX d   1      -3.421  49.748  -7.115  0.00  0.00     0.043 C 
ATOM     24  H15 CWX d   1      -3.647  49.381  -6.103  0.00  0.00     0.078 H 
ATOM     25  H16 CWX d   1      -4.332  50.170  -7.564  0.00  0.00     0.078 H 
BRANCH  23  26
ATOM     26  O6  CWX d   1      -2.441  50.764  -7.026  0.00  0.00    -0.398 OA
ATOM     27  H17 CWX d   1      -2.771  51.474  -6.488  0.00  0.00     0.209 HD
ENDBRANCH  23  26
ENDBRANCH  14  23
BRANCH  15  28
ATOM     28  O4  CWX d   1      -1.975  47.372  -6.151  0.00  0.00    -0.390 OA
ATOM     29  H19 CWX d   1      -2.312  48.014  -5.537  0.00  0.00     0.210 HD
ENDBRANCH  15  28
BRANCH  17  30
ATOM     30  O3  CWX d   1       0.066  46.480  -7.835  0.00  0.00    -0.390 OA
ATOM     31  H21 CWX d   1       0.418  45.835  -8.437  0.00  0.00     0.210 HD
ENDBRANCH  17  30
BRANCH  19  32
ATOM     32  O2  CWX d   1       0.043  48.658  -9.646  0.00  0.00    -0.388 OA
ATOM     33  H23 CWX d   1       0.864  48.295  -9.334  0.00  0.00     0.210 HD
ENDBRANCH  19  32
ENDBRANCH  11  12
ENDBRANCH   6  11
BRANCH   1  34
ATOM     34  CAH CWX d   1      -8.514  46.972 -11.585  0.00  0.00    -0.026 A 
ATOM     35  CAI CWX d   1      -9.262  48.130 -11.814  0.00  0.00    -0.071 A 
ATOM     36  CAJ CWX d   1     -10.629  48.049 -12.105  0.00  0.00    -0.059 A 
ATOM     37  H6  CWX d   1      -8.780  49.099 -11.766  0.00  0.00     0.084 H 
ATOM     38  CAK CWX d   1     -11.240  46.823 -12.182  0.00  0.00     0.079 A 
ATOM     39  H5  CWX d   1     -11.204  48.953 -12.269  0.00  0.00     0.085 H 
ATOM     40  CAL CWX d   1     -10.503  45.663 -11.949  0.00  0.00    -0.059 A 
ATOM     41  CAM CWX d   1      -9.160  45.745 -11.654  0.00  0.00    -0.071 A 
ATOM     42  H7  CWX d   1     -10.988  44.695 -12.000  0.00  0.00     0.085 H 
ATOM     43  H8  CWX d   1      -8.598  44.836 -11.473  0.00  0.00     0.084 H 
BRANCH  38  44
ATOM     44  SAN CWX d   1     -12.951  46.668 -12.539  0.00  0.00     0.258 S 
ATOM     45  OAO CWX d   1     -13.132  45.567 -13.475  0.00  0.00    -0.201 OA
ATOM     46  OAP CWX d   1     -13.630  46.393 -11.304  0.00  0.00    -0.201 OA
BRANCH  44  47
ATOM     47  NAQ CWX d   1     -13.522  48.094 -13.192  0.00  0.00    -0.320 N 
ATOM     48  H4  CWX d   1     -14.231  48.610 -12.712  0.00  0.00     0.171 HD
BRANCH  47  49
ATOM     49  CAR CWX d   1     -13.008  48.582 -14.428  0.00  0.00    -0.011 C 
ATOM     50  H1  CWX d   1     -13.509  49.527 -14.686  0.00  0.00     0.057 H 
ATOM     51  H2  CWX d   1     -13.193  47.841 -15.220  0.00  0.00     0.057 H 
ATOM     52  H3  CWX d   1     -11.926  48.755 -14.332  0.00  0.00     0.057 H 
ENDBRANCH  47  49
ENDBRANCH  44  47
ENDBRANCH  38  44
ENDBRANCH   1  34
TORSDOF 11
