REMARK  8 active torsions:
REMARK  status: ('A' for Active; 'I' for Inactive)
REMARK    1  A    between atoms: O1_3  and  C1_2 
REMARK    2  A    between atoms: CAA_14  and  O1_3 
REMARK    3  A    between atoms: C2_4  and  O2_5 
REMARK    4  A    between atoms: C3_6  and  O3_7 
REMARK    5  A    between atoms: C4_8  and  O4_9 
REMARK    6  A    between atoms: C5_10  and  C6_12 
REMARK    7  A    between atoms: C6_12  and  O6_13 
REMARK    8  A    between atoms: CAD_17  and  CAG_20 
ROOT
ATOM      1  CAG CWK d   1      -8.559   8.181  11.779  0.00  0.00    -0.026 A 
ATOM      2  CAH CWK d   1      -9.164   7.020  12.243  0.00  0.00    -0.071 A 
ATOM      3  CAI CWK d   1     -10.513   7.012  12.615  0.00  0.00    -0.062 A 
ATOM      4  CAJ CWK d   1     -11.289   8.145  12.543  0.00  0.00     0.044 A 
ATOM      5  CAK CWK d   1     -10.721   9.311  12.098  0.00  0.00    -0.062 A 
ATOM      6  CAL CWK d   1      -9.382   9.310  11.731  0.00  0.00    -0.071 A 
ATOM      7  CAN CWK d   1     -12.681   8.100  12.942  0.00  0.00     0.099 C 
ATOM      8  NAO CWK d   1     -13.786   8.053  13.261  0.00  0.00    -0.191 NA
ATOM      9  H15 CWK d   1      -8.583   6.108  12.318  0.00  0.00     0.084 H 
ATOM     10  H16 CWK d   1     -10.958   6.089  12.969  0.00  0.00     0.085 H 
ATOM     11  H17 CWK d   1     -11.309  10.220  12.034  0.00  0.00     0.085 H 
ATOM     12  H18 CWK d   1      -8.948  10.242  11.386  0.00  0.00     0.084 H 
ENDROOT
BRANCH   1  13
ATOM     13  CAD CWK d   1      -7.188   8.238  11.383  0.00  0.00    -0.024 A 
ATOM     14  CAC CWK d   1      -6.321   7.137  11.439  0.00  0.00    -0.070 A 
ATOM     15  CAB CWK d   1      -4.980   7.247  11.029  0.00  0.00    -0.048 A 
ATOM     16  H13 CWK d   1      -6.690   6.186  11.804  0.00  0.00     0.085 H 
ATOM     17  CAA CWK d   1      -4.540   8.478  10.545  0.00  0.00     0.093 A 
ATOM     18  H12 CWK d   1      -4.308   6.399  11.088  0.00  0.00     0.087 H 
ATOM     19  CAF CWK d   1      -5.391   9.572  10.555  0.00  0.00     0.068 A 
ATOM     20 CL   CWK d   1      -4.897  11.066   9.972  0.00  0.00    -0.081 Cl
ATOM     21  CAE CWK d   1      -6.718   9.447  10.914  0.00  0.00    -0.049 A 
ATOM     22  H14 CWK d   1      -7.388  10.295  10.828  0.00  0.00     0.087 H 
BRANCH  17  23
ATOM     23  O1  CWK d   1      -3.285   8.761  10.117  0.00  0.00    -0.316 OA
BRANCH  23  24
ATOM     24  C1  CWK d   1      -2.284   7.742   9.991  0.00  0.00     0.164 C 
ATOM     25  C2  CWK d   1      -1.059   8.436   9.492  0.00  0.00     0.110 C 
ATOM     26  C3  CWK d   1      -1.352   9.046   8.083  0.00  0.00     0.092 C 
ATOM     27  H2  CWK d   1      -0.751   9.232  10.186  0.00  0.00     0.094 H 
ATOM     28  C4  CWK d   1      -1.831   7.964   7.142  0.00  0.00     0.090 C 
ATOM     29  H4  CWK d   1      -2.108   9.841   8.161  0.00  0.00     0.091 H 
ATOM     30  C5  CWK d   1      -3.075   7.338   7.726  0.00  0.00     0.089 C 
ATOM     31  H6  CWK d   1      -1.049   7.205   6.992  0.00  0.00     0.091 H 
ATOM     32  O5  CWK d   1      -2.784   6.767   9.022  0.00  0.00    -0.348 OA
ATOM     33  H8  CWK d   1      -3.849   8.115   7.815  0.00  0.00     0.090 H 
ATOM     34  H1  CWK d   1      -2.084   7.253  10.956  0.00  0.00     0.134 H 
BRANCH  25  35
ATOM     35  O2  CWK d   1      -0.058   7.440   9.406  0.00  0.00    -0.388 OA
ATOM     36  H3  CWK d   1       0.749   7.830   9.091  0.00  0.00     0.210 HD
ENDBRANCH  25  35
BRANCH  26  37
ATOM     37  O3  CWK d   1      -0.102   9.577   7.571  0.00  0.00    -0.390 OA
ATOM     38  H5  CWK d   1       0.223  10.246   8.162  0.00  0.00     0.210 HD
ENDBRANCH  26  37
BRANCH  28  39
ATOM     39  O4  CWK d   1      -2.181   8.586   5.899  0.00  0.00    -0.390 OA
ATOM     40  H7  CWK d   1      -2.486   7.924   5.290  0.00  0.00     0.210 HD
ENDBRANCH  28  39
BRANCH  30  41
ATOM     41  C6  CWK d   1      -3.618   6.159   6.900  0.00  0.00     0.043 C 
ATOM     42  H9  CWK d   1      -3.894   6.520   5.898  0.00  0.00     0.078 H 
ATOM     43  H10 CWK d   1      -4.508   5.750   7.401  0.00  0.00     0.078 H 
BRANCH  41  44
ATOM     44  O6  CWK d   1      -2.644   5.130   6.771  0.00  0.00    -0.398 OA
ATOM     45  H11 CWK d   1      -3.005   4.417   6.258  0.00  0.00     0.209 HD
ENDBRANCH  41  44
ENDBRANCH  30  41
ENDBRANCH  23  24
ENDBRANCH  17  23
ENDBRANCH   1  13
TORSDOF 8
