REMARK  4 active torsions:
REMARK  status: ('A' for Active; 'I' for Inactive)
REMARK    1  A    between atoms: C5_10  and  O_3 
REMARK    2  A    between atoms: C1_4  and  O2_7 
REMARK    3  A    between atoms: C2_6  and  O1_5 
REMARK    4  A    between atoms: C3_8  and  C5_10 
ROOT
ATOM      1  C   GIF d   1      97.776  12.918   8.226  0.00  0.00     0.107 C 
ATOM      2  N   GIF d   1      98.162  11.505   8.251  0.00  0.00    -0.072 N 
ATOM      3  C1  GIF d   1      97.135  13.252   6.873  0.00  0.00     0.084 C 
ATOM      4  C2  GIF d   1      97.992  12.747   5.682  0.00  0.00     0.069 C 
ATOM      5  C3  GIF d   1      98.189  11.246   5.788  0.00  0.00     0.017 C 
ATOM      6  C4  GIF d   1      98.911  10.961   7.112  0.00  0.00     0.089 C 
ATOM      7  H   GIF d   1      98.668  13.544   8.373  0.00  0.00     0.079 H 
ATOM      8  H   GIF d   1      97.054  13.115   9.032  0.00  0.00     0.079 H 
ATOM      9  H   GIF d   1      97.314  10.967   8.333  0.00  0.00     0.277 HD
ATOM     10  H   GIF d   1      98.729  11.366   9.073  0.00  0.00     0.277 HD
ATOM     11  H   GIF d   1      96.160  12.745   6.823  0.00  0.00     0.089 H 
ATOM     12  H   GIF d   1      97.446  12.959   4.751  0.00  0.00     0.087 H 
ATOM     13  H   GIF d   1      97.199  10.767   5.822  0.00  0.00     0.049 H 
ATOM     14  H   GIF d   1      99.015   9.873   7.237  0.00  0.00     0.076 H 
ATOM     15  H   GIF d   1      99.908  11.424   7.084  0.00  0.00     0.076 H 
ENDROOT
BRANCH   5  16
ATOM     16  C5  GIF d   1      98.940  10.671   4.576  0.00  0.00     0.024 C 
ATOM     17  H   GIF d   1      98.367  10.906   3.667  0.00  0.00     0.074 H 
ATOM     18  H   GIF d   1      99.929  11.149   4.520  0.00  0.00     0.074 H 
BRANCH  16  19
ATOM     19  O   GIF d   1      99.126   9.230   4.645  0.00  0.00    -0.400 OA
ATOM     20  H   GIF d   1      98.278   8.804   4.685  0.00  0.00     0.209 HD
ENDBRANCH  16  19
ENDBRANCH   5  16
BRANCH   4  21
ATOM     21  O1  GIF d   1      99.267  13.434   5.621  0.00  0.00    -0.392 OA
ATOM     22  H   GIF d   1      99.768  13.105   4.884  0.00  0.00     0.210 HD
ENDBRANCH   4  21
BRANCH   3  23
ATOM     23  O2  GIF d   1      96.912  14.665   6.786  0.00  0.00    -0.391 OA
ATOM     24  H   GIF d   1      96.386  14.948   7.525  0.00  0.00     0.210 HD
ENDBRANCH   3  23
TORSDOF 4
