REMARK  5 active torsions:
REMARK  status: ('A' for Active; 'I' for Inactive)
REMARK    1  A    between atoms: C2_2  and  O2_3 
REMARK    2  A    between atoms: C3_4  and  O3_5 
REMARK    3  A    between atoms: C4_6  and  O4_7 
REMARK    4  A    between atoms: C5_8  and  C6_10 
REMARK    5  A    between atoms: C6_10  and  O6_11 
ROOT
ATOM      1  C1  DGJ d   1      40.092 -46.889   8.251  0.00  0.00     0.108 C 
ATOM      2  C2  DGJ d   1      39.602 -45.464   8.175  0.00  0.00     0.086 C 
ATOM      3  C3  DGJ d   1      38.726 -45.224   6.905  0.00  0.00     0.088 C 
ATOM      4  C4  DGJ d   1      39.519 -45.667   5.689  0.00  0.00     0.092 C 
ATOM      5  C5  DGJ d   1      39.819 -47.132   5.865  0.00  0.00     0.149 C 
ATOM      6  N5  DGJ d   1      40.747 -47.310   6.997  0.00  0.00    -0.064 N 
ATOM      7  H   DGJ d   1      39.235 -47.551   8.445  0.00  0.00     0.079 H 
ATOM      8  H   DGJ d   1      40.815 -46.974   9.076  0.00  0.00     0.079 H 
ATOM      9  H   DGJ d   1      40.461 -44.778   8.157  0.00  0.00     0.089 H 
ATOM     10  H   DGJ d   1      37.801 -45.814   6.984  0.00  0.00     0.091 H 
ATOM     11  H   DGJ d   1      38.944 -45.497   4.766  0.00  0.00     0.090 H 
ATOM     12  H   DGJ d   1      38.880 -47.651   6.106  0.00  0.00     0.091 H 
ATOM     13  H   DGJ d   1      41.009 -48.281   7.066  0.00  0.00     0.277 HD
ATOM     14  H   DGJ d   1      41.571 -46.750   6.845  0.00  0.00     0.277 HD
ENDROOT
BRANCH   5  15
ATOM     15  C6  DGJ d   1      40.371 -47.735   4.583  0.00  0.00     0.046 C 
ATOM     16  H   DGJ d   1      41.331 -47.263   4.329  0.00  0.00     0.077 H 
ATOM     17  H   DGJ d   1      39.658 -47.583   3.759  0.00  0.00     0.077 H 
BRANCH  15  18
ATOM     18  O6  DGJ d   1      40.562 -49.145   4.815  0.00  0.00    -0.399 OA
ATOM     19  H   DGJ d   1      39.729 -49.544   5.038  0.00  0.00     0.209 HD
ENDBRANCH  15  18
ENDBRANCH   5  15
BRANCH   4  20
ATOM     20  O4  DGJ d   1      40.770 -44.925   5.649  0.00  0.00    -0.391 OA
ATOM     21  H   DGJ d   1      41.273 -45.196   4.890  0.00  0.00     0.210 HD
ENDBRANCH   4  20
BRANCH   3  22
ATOM     22  O3  DGJ d   1      38.384 -43.802   6.750  0.00  0.00    -0.390 OA
ATOM     23  H   DGJ d   1      37.898 -43.510   7.512  0.00  0.00     0.210 HD
ENDBRANCH   3  22
BRANCH   2  24
ATOM     24  O2  DGJ d   1      38.834 -45.239   9.310  0.00  0.00    -0.391 OA
ATOM     25  H   DGJ d   1      38.103 -45.846   9.322  0.00  0.00     0.210 HD
ENDBRANCH   2  24
TORSDOF 5
