REMARK  4 active torsions:
REMARK  status: ('A' for Active; 'I' for Inactive)
REMARK    1  A    between atoms: C5_5  and  C12_12 
REMARK    2  A    between atoms: C7_7  and  N10_10 
REMARK    3  A    between atoms: C12_12  and  C14_14 
REMARK    4  A    between atoms: C14_14  and  C17_17 
ROOT
ATOM      1  C1  H05 d   1       6.251  11.916  24.055  0.00  0.00     0.159 A 
ATOM      2  N2  H05 d   1       5.292  11.091  23.596  0.00  0.00    -0.186 N 
ATOM      3  N3  H05 d   1       7.457  11.358  23.783  0.00  0.00    -0.171 N 
ATOM      4  N4  H05 d   1       5.816   9.934  22.992  0.00  0.00     0.027 NA
ATOM      5  C5  H05 d   1       3.981  11.408  23.752  0.00  0.00     0.131 A 
ATOM      6  N6  H05 d   1       3.653  12.589  24.369  0.00  0.00    -0.233 NA
ATOM      7  C7  H05 d   1       7.140  10.189  23.153  0.00  0.00     0.717 A 
ATOM      8  C8  H05 d   1       5.974  13.128  24.690  0.00  0.00     0.039 A 
ATOM      9  C9  H05 d   1       4.618  13.451  24.838  0.00  0.00     0.072 A 
ATOM     10  C11 H05 d   1       6.982  13.986  25.160  0.00  0.00    -0.067 A 
ATOM     11  C13 H05 d   1       4.279  14.655  25.472  0.00  0.00    -0.054 A 
ATOM     12  C15 H05 d   1       6.629  15.173  25.787  0.00  0.00    -0.082 A 
ATOM     13  C16 H05 d   1       5.287  15.503  25.939  0.00  0.00    -0.081 A 
ATOM     14  H   H05 d   1       8.026  13.723  25.034  0.00  0.00     0.085 H 
ATOM     15  H   H05 d   1       3.237  14.927  25.600  0.00  0.00     0.087 H 
ATOM     16  H   H05 d   1       7.398  15.841  26.157  0.00  0.00     0.083 H 
ATOM     17  H   H05 d   1       5.018  16.433  26.427  0.00  0.00     0.083 H 
ATOM     18  H1  H05 d   1       8.393  11.729  24.001  0.00  0.00     0.186 HD
ENDROOT
BRANCH   5  19
ATOM     19  C12 H05 d   1       2.878  10.487  23.262  0.00  0.00    -0.008 C 
ATOM     20  H   H05 d   1       3.102  10.170  22.233  0.00  0.00     0.044 H 
ATOM     21  H   H05 d   1       1.920  11.028  23.279  0.00  0.00     0.044 H 
BRANCH  19  22
ATOM     22  C14 H05 d   1       2.774   9.249  24.159  0.00  0.00    -0.062 C 
ATOM     23  H   H05 d   1       3.767   8.780  24.227  0.00  0.00     0.033 H 
ATOM     24  H   H05 d   1       2.066   8.543  23.701  0.00  0.00     0.033 H 
BRANCH  22  25
ATOM     25  C17 H05 d   1       2.295   9.574  25.562  0.00  0.00    -0.076 C 
ATOM     26  H   H05 d   1       2.241   8.649  26.155  0.00  0.00     0.027 H 
ATOM     27  H   H05 d   1       1.298  10.035  25.511  0.00  0.00     0.027 H 
ATOM     28  H   H05 d   1       2.999  10.273  26.037  0.00  0.00     0.027 H 
ENDBRANCH  22  25
ENDBRANCH  19  22
ENDBRANCH   5  19
BRANCH   7  29
ATOM     29  N10 H05 d   1       8.105   9.341  22.713  0.00  0.00    -0.231 N 
ATOM     30  H   H05 d   1       9.098   9.573  22.856  0.00  0.00     0.174 HD
ATOM     31  H   H05 d   1       7.844   8.466  22.237  0.00  0.00     0.174 HD
ENDBRANCH   7  29
TORSDOF 4
