REMARK  7 active torsions:
REMARK  status: ('A' for Active; 'I' for Inactive)
REMARK    1  A    between atoms: N1_1  and  C2_2 
REMARK    2  A    between atoms: C10_7  and  C15_15 
REMARK    3  A    between atoms: C15_15  and  C16_16 
REMARK    4  A    between atoms: C22_18  and  O24_19 
REMARK    5  A    between atoms: O24_19  and  C25_20 
REMARK    6  A    between atoms: C18_22  and  O19_24 
REMARK    7  A    between atoms: O19_24  and  C20_25 
ROOT
ATOM      1  C15 6LV d   1       2.915  10.520  23.573  0.00  0.00     0.016 C 
ATOM      2  H   6LV d   1       2.242  10.899  22.790  0.00  0.00     0.051 H 
ATOM      3  H   6LV d   1       3.482   9.661  23.185  0.00  0.00     0.051 H 
ENDROOT
BRANCH   1   4
ATOM      4  C10 6LV d   1       2.101  10.085  24.763  0.00  0.00     0.135 A 
ATOM      5  N9  6LV d   1       0.810  10.447  24.905  0.00  0.00    -0.186 N 
ATOM      6  N8  6LV d   1       0.087  11.215  24.004  0.00  0.00     0.027 NA
ATOM      7  C4  6LV d   1       0.096  10.049  25.956  0.00  0.00     0.159 A 
ATOM      8  C2  6LV d   1      -1.103  11.209  24.652  0.00  0.00     0.717 A 
ATOM      9  N3  6LV d   1      -1.166  10.540  25.832  0.00  0.00    -0.171 N 
ATOM     10  H1  6LV d   1      -1.967  10.432  26.471  0.00  0.00     0.186 HD
ATOM     11  C5  6LV d   1       0.649   9.276  26.969  0.00  0.00     0.039 A 
ATOM     12  C12 6LV d   1       1.992   8.916  26.810  0.00  0.00     0.072 A 
ATOM     13  C6  6LV d   1      -0.072   8.854  28.089  0.00  0.00    -0.067 A 
ATOM     14  N11 6LV d   1       2.691   9.331  25.713  0.00  0.00    -0.232 NA
ATOM     15  C13 6LV d   1       2.611   8.135  27.781  0.00  0.00    -0.054 A 
ATOM     16  C14 6LV d   1       1.906   7.712  28.907  0.00  0.00    -0.081 A 
ATOM     17  H   6LV d   1       3.651   7.853  27.661  0.00  0.00     0.087 H 
ATOM     18  C7  6LV d   1       0.562   8.064  29.059  0.00  0.00    -0.082 A 
ATOM     19  H   6LV d   1       2.399   7.112  29.663  0.00  0.00     0.083 H 
ATOM     20  H   6LV d   1       0.009   7.726  29.928  0.00  0.00     0.083 H 
ATOM     21  H   6LV d   1      -1.112   9.135  28.207  0.00  0.00     0.085 H 
BRANCH   8  22
ATOM     22  N1  6LV d   1      -2.182  11.851  24.134  0.00  0.00    -0.231 N 
ATOM     23  H   6LV d   1      -2.103  12.350  23.236  0.00  0.00     0.174 HD
ATOM     24  H   6LV d   1      -3.080  11.839  24.639  0.00  0.00     0.174 HD
ENDBRANCH   8  22
ENDBRANCH   1   4
BRANCH   1  25
ATOM     25  C16 6LV d   1       3.876  11.611  23.977  0.00  0.00    -0.046 A 
ATOM     26  C23 6LV d   1       3.379  12.791  24.523  0.00  0.00    -0.044 A 
ATOM     27  C22 6LV d   1       4.236  13.824  24.899  0.00  0.00     0.071 A 
ATOM     28  H   6LV d   1       2.310  12.908  24.658  0.00  0.00     0.088 H 
ATOM     29  C21 6LV d   1       5.612  13.659  24.717  0.00  0.00    -0.019 A 
ATOM     30  C18 6LV d   1       6.111  12.473  24.170  0.00  0.00     0.071 A 
ATOM     31  H   6LV d   1       6.294  14.453  25.001  0.00  0.00     0.092 H 
ATOM     32  C17 6LV d   1       5.244  11.437  23.798  0.00  0.00    -0.044 A 
ATOM     33  H   6LV d   1       5.633  10.516  23.378  0.00  0.00     0.088 H 
BRANCH  27  34
ATOM     34  O24 6LV d   1       3.687  14.969  25.439  0.00  0.00    -0.356 OA
BRANCH  34  35
ATOM     35  C25 6LV d   1       4.510  16.050  25.904  0.00  0.00     0.010 C 
ATOM     36  H   6LV d   1       3.871  16.856  26.293  0.00  0.00     0.066 H 
ATOM     37  H   6LV d   1       5.117  16.433  25.071  0.00  0.00     0.066 H 
ATOM     38  H   6LV d   1       5.172  15.689  26.705  0.00  0.00     0.066 H 
ENDBRANCH  34  35
ENDBRANCH  27  34
BRANCH  30  39
ATOM     39  O19 6LV d   1       7.468  12.354  24.000  0.00  0.00    -0.356 OA
BRANCH  39  40
ATOM     40  C20 6LV d   1       8.120  11.111  23.733  0.00  0.00     0.010 C 
ATOM     41  H   6LV d   1       9.203  11.278  23.638  0.00  0.00     0.066 H 
ATOM     42  H   6LV d   1       7.731  10.687  22.796  0.00  0.00     0.066 H 
ATOM     43  H   6LV d   1       7.928  10.411  24.560  0.00  0.00     0.066 H 
ENDBRANCH  39  40
ENDBRANCH  30  39
ENDBRANCH   1  25
TORSDOF 7
