REMARK  5 active torsions:
REMARK  status: ('A' for Active; 'I' for Inactive)
REMARK    1  A    between atoms: C20_9  and  C19_10 
REMARK    2  A    between atoms: C19_10  and  C9_11 
REMARK    3  A    between atoms: C5_15  and  S2_16 
REMARK    4  A    between atoms: S2_16  and  N4_19 
REMARK    5  A    between atoms: C12_27  and  N13_28 
ROOT
ATOM      1  C9  W2D d   1       1.977  10.119  24.659  0.00  0.00     0.135 A 
ATOM      2  N8  W2D d   1       2.485   9.324  25.617  0.00  0.00    -0.232 NA
ATOM      3  C7  W2D d   1       1.716   8.908  26.665  0.00  0.00     0.074 A 
ATOM      4  C6  W2D d   1       2.253   8.084  27.652  0.00  0.00    -0.032 A 
ATOM      5  C5  W2D d   1       1.477   7.641  28.719  0.00  0.00     0.081 A 
ATOM      6  C18 W2D d   1       0.147   8.023  28.806  0.00  0.00    -0.059 A 
ATOM      7  C17 W2D d   1      -0.404   8.850  27.825  0.00  0.00    -0.066 A 
ATOM      8  C16 W2D d   1       0.377   9.305  26.748  0.00  0.00     0.039 A 
ATOM      9  C15 W2D d   1      -0.125  10.098  25.781  0.00  0.00     0.159 A 
ATOM     10  N14 W2D d   1      -1.340  10.633  25.582  0.00  0.00    -0.171 N 
ATOM     11  N10 W2D d   1       0.682  10.495  24.774  0.00  0.00    -0.186 N 
ATOM     12  N11 W2D d   1       0.011  11.253  23.981  0.00  0.00     0.027 NA
ATOM     13  C12 W2D d   1      -1.244  11.327  24.453  0.00  0.00     0.717 A 
ATOM     14  H   W2D d   1       3.292   7.783  27.588  0.00  0.00     0.089 H 
ATOM     15  H   W2D d   1      -0.464   7.681  29.634  0.00  0.00     0.085 H 
ATOM     16  H   W2D d   1      -1.445   9.144  27.895  0.00  0.00     0.085 H 
ATOM     17  H1  W2D d   1      -2.172  10.528  26.179  0.00  0.00     0.186 HD
ENDROOT
BRANCH   1  18
ATOM     18  C19 W2D d   1       2.817  10.539  23.594  0.00  0.00     0.016 C 
ATOM     19  H   W2D d   1       3.400   9.675  23.243  0.00  0.00     0.051 H 
ATOM     20  H   W2D d   1       2.186  10.914  22.774  0.00  0.00     0.051 H 
BRANCH  18  21
ATOM     21  C20 W2D d   1       3.718  11.568  23.982  0.00  0.00    -0.048 A 
ATOM     22  C21 W2D d   1       3.210  12.799  24.395  0.00  0.00    -0.041 A 
ATOM     23  C22 W2D d   1       4.032  13.801  24.771  0.00  0.00     0.105 A 
ATOM     24  H   W2D d   1       2.137  12.954  24.414  0.00  0.00     0.088 H 
ATOM     25  O23 W2D d   1       3.681  15.049  25.208  0.00  0.00    -0.323 OA
ATOM     26  C26 W2D d   1       5.359  13.653  24.752  0.00  0.00     0.105 A 
ATOM     27  C24 W2D d   1       4.941  15.770  25.406  0.00  0.00     0.115 A 
ATOM     28  O25 W2D d   1       5.975  14.815  25.171  0.00  0.00    -0.323 OA
ATOM     29  H   W2D d   1       5.003  16.157  26.434  0.00  0.00     0.118 H 
ATOM     30  H   W2D d   1       5.021  16.605  24.694  0.00  0.00     0.118 H 
ATOM     31  C27 W2D d   1       5.916  12.483  24.351  0.00  0.00    -0.047 A 
ATOM     32  C28 W2D d   1       5.114  11.392  23.958  0.00  0.00    -0.074 A 
ATOM     33  H   W2D d   1       6.995  12.385  24.332  0.00  0.00     0.087 H 
ATOM     34  H   W2D d   1       5.556  10.452  23.649  0.00  0.00     0.084 H 
ENDBRANCH  18  21
ENDBRANCH   1  18
BRANCH  13  35
ATOM     35  N13 W2D d   1      -2.241  12.020  23.876  0.00  0.00    -0.231 N 
ATOM     36  H   W2D d   1      -3.178  12.026  24.303  0.00  0.00     0.174 HD
ATOM     37  H   W2D d   1      -2.067  12.545  23.007  0.00  0.00     0.174 HD
ENDBRANCH  13  35
BRANCH   5  38
ATOM     38  S2  W2D d   1       2.132   6.592  29.972  0.00  0.00     0.256 S 
ATOM     39  O3  W2D d   1       3.599   6.348  29.739  0.00  0.00    -0.201 OA
ATOM     40  O1  W2D d   1       1.398   5.258  29.926  0.00  0.00    -0.201 OA
BRANCH  38  41
ATOM     41  N4  W2D d   1       1.789   7.296  31.536  0.00  0.00    -0.324 N 
ATOM     42  H   W2D d   1       2.090   6.833  32.370  0.00  0.00     0.169 HD
ATOM     43  H   W2D d   1       1.292   8.162  31.596  0.00  0.00     0.169 HD
ENDBRANCH  38  41
ENDBRANCH   5  38
TORSDOF 5
