REMARK  7 active torsions:
REMARK  status: ('A' for Active; 'I' for Inactive)
REMARK    1  A    between atoms: O1_1  and  C2_2 
REMARK    2  A    between atoms: C2_2  and  C3_3 
REMARK    3  A    between atoms: C3_3  and  N4_4 
REMARK    4  A    between atoms: N4_4  and  C6_5 
REMARK    5  A    between atoms: C11_12  and  C20_19 
REMARK    6  A    between atoms: C14_17  and  N15_18 
REMARK    7  A    between atoms: C20_19  and  C21_20 
ROOT
ATOM      1  C6  G3R d   1       2.337   8.101  28.833  0.00  0.00     0.030 A 
ATOM      2  C7  G3R d   1       0.977   8.397  29.014  0.00  0.00    -0.057 A 
ATOM      3  C19 G3R d   1       0.274   9.213  28.110  0.00  0.00    -0.065 A 
ATOM      4  C8  G3R d   1       3.008   8.592  27.705  0.00  0.00    -0.029 A 
ATOM      5  C9  G3R d   1       2.309   9.384  26.783  0.00  0.00     0.075 A 
ATOM      6  C18 G3R d   1       0.944   9.708  26.993  0.00  0.00     0.039 A 
ATOM      7  N10 G3R d   1       2.957   9.841  25.674  0.00  0.00    -0.232 NA
ATOM      8  C11 G3R d   1       2.322  10.613  24.779  0.00  0.00     0.135 A 
ATOM      9  N12 G3R d   1       1.027  10.933  24.967  0.00  0.00    -0.186 N 
ATOM     10  N13 G3R d   1       0.274  11.724  24.108  0.00  0.00     0.027 NA
ATOM     11  C17 G3R d   1       0.351  10.494  26.018  0.00  0.00     0.159 A 
ATOM     12  N16 G3R d   1      -0.902  10.962  25.920  0.00  0.00    -0.171 N 
ATOM     13  C14 G3R d   1      -0.890  11.664  24.758  0.00  0.00     0.717 A 
ATOM     14  H   G3R d   1       0.456   7.987  29.871  0.00  0.00     0.086 H 
ATOM     15  H   G3R d   1      -0.770   9.453  28.279  0.00  0.00     0.085 H 
ATOM     16  H   G3R d   1       4.056   8.362  27.547  0.00  0.00     0.090 H 
ATOM     17  H1  G3R d   1      -1.687  10.822  26.572  0.00  0.00     0.186 HD
ENDROOT
BRANCH   8  18
ATOM     18  C20 G3R d   1       3.121  11.099  23.594  0.00  0.00     0.016 C 
ATOM     19  H   G3R d   1       2.428  11.435  22.809  0.00  0.00     0.051 H 
ATOM     20  H   G3R d   1       3.734  10.270  23.212  0.00  0.00     0.051 H 
BRANCH  18  21
ATOM     21  C21 G3R d   1       4.034  12.255  23.975  0.00  0.00    -0.048 A 
ATOM     22  C22 G3R d   1       3.483  13.408  24.507  0.00  0.00    -0.041 A 
ATOM     23  C23 G3R d   1       4.347  14.443  24.814  0.00  0.00     0.105 A 
ATOM     24  H   G3R d   1       2.416  13.496  24.676  0.00  0.00     0.088 H 
ATOM     25  O24 G3R d   1       4.049  15.666  25.342  0.00  0.00    -0.323 OA
ATOM     26  C27 G3R d   1       5.678  14.351  24.604  0.00  0.00     0.105 A 
ATOM     27  C25 G3R d   1       5.257  16.377  25.590  0.00  0.00     0.115 A 
ATOM     28  O26 G3R d   1       6.252  15.522  25.000  0.00  0.00    -0.323 OA
ATOM     29  H   G3R d   1       5.430  16.501  26.669  0.00  0.00     0.118 H 
ATOM     30  H   G3R d   1       5.244  17.364  25.105  0.00  0.00     0.118 H 
ATOM     31  C28 G3R d   1       6.287  13.203  24.075  0.00  0.00    -0.047 A 
ATOM     32  C29 G3R d   1       5.419  12.159  23.769  0.00  0.00    -0.074 A 
ATOM     33  H   G3R d   1       7.357  13.134  23.916  0.00  0.00     0.087 H 
ATOM     34  H   G3R d   1       5.826  11.242  23.358  0.00  0.00     0.084 H 
ENDBRANCH  18  21
ENDBRANCH   8  18
BRANCH  13  35
ATOM     35  N15 G3R d   1      -1.993  12.328  24.276  0.00  0.00    -0.231 N 
ATOM     36  H   G3R d   1      -1.934  12.848  23.389  0.00  0.00     0.174 HD
ATOM     37  H   G3R d   1      -2.878  12.306  24.802  0.00  0.00     0.174 HD
ENDBRANCH  13  35
BRANCH   1  38
ATOM     38  N4  G3R d   1       3.014   7.322  29.738  0.00  0.00    -0.388 N 
ATOM     39  H   G3R d   1       2.498   6.655  30.330  0.00  0.00     0.159 HD
BRANCH  38  40
ATOM     40  C3  G3R d   1       4.467   7.437  29.864  0.00  0.00     0.012 C 
ATOM     41  H   G3R d   1       4.906   7.427  28.856  0.00  0.00     0.067 H 
ATOM     42  H   G3R d   1       4.700   8.393  30.356  0.00  0.00     0.067 H 
BRANCH  40  43
ATOM     43  C2  G3R d   1       5.094   6.311  30.675  0.00  0.00     0.031 C 
ATOM     44  H   G3R d   1       4.725   5.339  30.315  0.00  0.00     0.076 H 
ATOM     45  H   G3R d   1       6.189   6.346  30.580  0.00  0.00     0.076 H 
BRANCH  43  46
ATOM     46  O1  G3R d   1       4.718   6.499  32.039  0.00  0.00    -0.399 OA
ATOM     47  H   G3R d   1       5.036   7.342  32.341  0.00  0.00     0.209 HD
ENDBRANCH  43  46
ENDBRANCH  40  43
ENDBRANCH  38  40
ENDBRANCH   1  38
TORSDOF 7
