REMARK  7 active torsions:
REMARK  status: ('A' for Active; 'I' for Inactive)
REMARK    1  A    between atoms: C25_6  and  N26_7 
REMARK    2  A    between atoms: N26_7  and  C27_8 
REMARK    3  A    between atoms: C27_8  and  C28_9 
REMARK    4  A    between atoms: C28_9  and  O29_10 
REMARK    5  A    between atoms: C20_14  and  N21_15 
REMARK    6  A    between atoms: C7_18  and  C8_20 
REMARK    7  A    between atoms: C8_20  and  C9_21 
ROOT
ATOM      1  F1  IK9 d   1       3.935  16.778  26.264  0.00  0.00    -0.206 F 
ATOM      2  C2  IK9 d   1       4.464  15.671  25.698  0.00  0.00     0.120 A 
ATOM      3  C4  IK9 d   1       3.650  14.644  25.231  0.00  0.00    -0.017 A 
ATOM      4  C5  IK9 d   1       4.245  13.510  24.671  0.00  0.00     0.078 A 
ATOM      5  C24 IK9 d   1       5.636  13.393  24.570  0.00  0.00     0.066 A 
ATOM      6  C25 IK9 d   1       6.456  14.430  25.037  0.00  0.00     0.047 A 
ATOM      7  C3  IK9 d   1       5.848  15.560  25.586  0.00  0.00    -0.019 A 
ATOM      8  C23 IK9 d   1       6.126  12.217  23.990  0.00  0.00     0.162 A 
ATOM      9  N22 IK9 d   1       7.401  11.809  23.752  0.00  0.00    -0.171 N 
ATOM     10  C20 IK9 d   1       7.255  10.581  23.162  0.00  0.00     0.717 A 
ATOM     11  N19 IK9 d   1       5.986  10.151  23.009  0.00  0.00     0.027 NA
ATOM     12  N18 IK9 d   1       5.318  11.247  23.570  0.00  0.00    -0.186 N 
ATOM     13  C7  IK9 d   1       3.984  11.386  23.654  0.00  0.00     0.135 A 
ATOM     14  N6  IK9 d   1       3.456  12.500  24.226  0.00  0.00    -0.232 NA
ATOM     15  H   IK9 d   1       2.571  14.722  25.300  0.00  0.00     0.091 H 
ATOM     16  H   IK9 d   1       6.471  16.375  25.936  0.00  0.00     0.091 H 
ATOM     17  H1  IK9 d   1       8.276  12.309  23.966  0.00  0.00     0.186 HD
ENDROOT
BRANCH  13  18
ATOM     18  C8  IK9 d   1       3.059  10.277  23.220  0.00  0.00     0.016 C 
ATOM     19  H   IK9 d   1       3.401   9.818  22.280  0.00  0.00     0.051 H 
ATOM     20  H   IK9 d   1       2.029  10.643  23.096  0.00  0.00     0.051 H 
BRANCH  18  21
ATOM     21  C9  IK9 d   1       3.159   9.290  24.387  0.00  0.00    -0.048 A 
ATOM     22  C17 IK9 d   1       3.661   7.998  24.154  0.00  0.00    -0.074 A 
ATOM     23  C16 IK9 d   1       3.802   7.029  25.160  0.00  0.00    -0.047 A 
ATOM     24  H   IK9 d   1       3.955   7.736  23.144  0.00  0.00     0.084 H 
ATOM     25  C15 IK9 d   1       3.425   7.395  26.447  0.00  0.00     0.105 A 
ATOM     26  H   IK9 d   1       4.188   6.040  24.943  0.00  0.00     0.087 H 
ATOM     27  C11 IK9 d   1       2.909   8.727  26.712  0.00  0.00     0.105 A 
ATOM     28  O14 IK9 d   1       3.435   6.687  27.617  0.00  0.00    -0.323 OA
ATOM     29  C10 IK9 d   1       2.779   9.670  25.692  0.00  0.00    -0.041 A 
ATOM     30  O12 IK9 d   1       2.620   8.807  28.053  0.00  0.00    -0.323 OA
ATOM     31  H   IK9 d   1       2.398  10.664  25.896  0.00  0.00     0.088 H 
ATOM     32  C13 IK9 d   1       2.841   7.508  28.651  0.00  0.00     0.115 A 
ATOM     33  H   IK9 d   1       3.523   7.594  29.510  0.00  0.00     0.118 H 
ATOM     34  H   IK9 d   1       1.887   7.073  28.983  0.00  0.00     0.118 H 
ENDBRANCH  18  21
ENDBRANCH  13  18
BRANCH  10  35
ATOM     35  N21 IK9 d   1       8.322   9.818  22.759  0.00  0.00    -0.231 N 
ATOM     36  H   IK9 d   1       9.282  10.168  22.886  0.00  0.00     0.174 HD
ATOM     37  H   IK9 d   1       8.162   8.896  22.329  0.00  0.00     0.174 HD
ENDBRANCH  10  35
BRANCH   6  38
ATOM     38  N26 IK9 d   1       7.819  14.353  24.953  0.00  0.00    -0.387 N 
ATOM     39  H   IK9 d   1       8.245  13.515  24.532  0.00  0.00     0.159 HD
BRANCH  38  40
ATOM     40  C27 IK9 d   1       8.695  15.426  25.443  0.00  0.00     0.012 C 
ATOM     41  H   IK9 d   1       8.246  16.411  25.250  0.00  0.00     0.067 H 
ATOM     42  H   IK9 d   1       9.682  15.371  24.960  0.00  0.00     0.067 H 
BRANCH  40  43
ATOM     43  C28 IK9 d   1       8.817  15.174  26.954  0.00  0.00     0.031 C 
ATOM     44  H   IK9 d   1       9.045  14.111  27.121  0.00  0.00     0.076 H 
ATOM     45  H   IK9 d   1       7.860  15.424  27.436  0.00  0.00     0.076 H 
BRANCH  43  46
ATOM     46  O29 IK9 d   1       9.855  15.970  27.541  0.00  0.00    -0.399 OA
ATOM     47  H   IK9 d   1       9.902  15.790  28.473  0.00  0.00     0.209 HD
ENDBRANCH  43  46
ENDBRANCH  40  43
ENDBRANCH  38  40
ENDBRANCH   6  38
TORSDOF 7
