REMARK  25 active torsions:
REMARK  status: ('A' for Active; 'I' for Inactive)
REMARK    1  A    between atoms: OAF_1  and  CAG_2 
REMARK    2  A    between atoms: N_16  and  OAF_1 
REMARK    3  A    between atoms: CAG_2  and  CAH_3 
REMARK    4  A    between atoms: CAH_3  and  O1_4 
REMARK    5  A    between atoms: O1_4  and  C1_5 
REMARK    6  A    between atoms: C5_7  and  C6_8 
REMARK    7  A    between atoms: C6_8  and  O6_9 
REMARK    8  A    between atoms: C4_10  and  O4_11 
REMARK    9  A    between atoms: C3_12  and  O3_13 
REMARK   10  A    between atoms: C2_14  and  O2_15 
REMARK   11  A    between atoms: CA_17  and  N_16 
REMARK   12  A    between atoms: C_18  and  CA_17 
REMARK       I    between atoms: N_20  and  C_18 
REMARK   13  A    between atoms: CA_21  and  N_20 
REMARK   14  A    between atoms: C_22  and  CA_21 
REMARK   15  A    between atoms: CA_21  and  CB_24 
REMARK       I    between atoms: N_34  and  C_22 
REMARK   16  A    between atoms: CB_24  and  CG_25 
REMARK   17  A    between atoms: CA_35  and  N_34 
REMARK   18  A    between atoms: C_36  and  CA_35 
REMARK   19  A    between atoms: CA_35  and  CB_38 
REMARK       I    between atoms: N_47  and  C_36 
REMARK   20  A    between atoms: CB_38  and  CG_39 
REMARK   21  A    between atoms: CZ_44  and  OH_45 
REMARK   22  A    between atoms: CA_49  and  C_46 
REMARK       I    between atoms: C_46  and  N1_54 
REMARK   23  A    between atoms: N_47  and  CA_49 
REMARK   24  A    between atoms: CA_49  and  CB_50 
REMARK   25  A    between atoms: CB_50  and  CG_51 
ROOT
ATOM      1  CA  TRP d   1     -90.509 -79.675  50.231  0.00  0.00     0.093 C 
ATOM      2  H21 TRP d   1     -91.596 -79.552  50.120  0.00  0.00     0.088 H 
ENDROOT
BRANCH   1   3
ATOM      3  N   TRP d   1     -90.143 -79.429  51.609  0.00  0.00    -0.346 N 
ATOM      4  C   GLY d   1     -90.432 -80.378  52.667  0.00  0.00     0.246 C 
ATOM      5  O   GLY d   1     -90.985 -81.457  52.413  0.00  0.00    -0.272 OA
ATOM      6  H20 TRP d   1     -89.675 -78.576  51.840  0.00  0.00     0.163 HD
BRANCH   4   7
ATOM      7  CA  GLY d   1     -90.035 -80.036  54.081  0.00  0.00     0.181 C 
ATOM      8  H18 GLY d   1     -90.620 -80.641  54.789  0.00  0.00     0.095 H 
ATOM      9  H19 GLY d   1     -88.963 -80.237  54.226  0.00  0.00     0.095 H 
BRANCH   7  10
ATOM     10  N   GLY d   1     -90.303 -78.637  54.297  0.00  0.00     0.047 N 
ATOM     11  H16 GLY d   1     -89.734 -78.089  53.670  0.00  0.00     0.315 HD
ATOM     12  H17 GLY d   1     -91.277 -78.454  54.114  0.00  0.00     0.315 HD
BRANCH  10  13
ATOM     13  OAF 8LR d   1     -90.007 -78.282  55.616  0.00  0.00    -0.203 OA
BRANCH  13  14
ATOM     14  CAG 8LR d   1     -89.915 -76.857  55.744  0.00  0.00     0.071 C 
ATOM     15  H1  8LR d   1     -90.472 -76.519  56.630  0.00  0.00     0.081 H 
ATOM     16  H2  8LR d   1     -90.322 -76.368  54.846  0.00  0.00     0.081 H 
BRANCH  14  17
ATOM     17  CAH 8LR d   1     -88.417 -76.525  55.898  0.00  0.00     0.044 C 
ATOM     18  H3  8LR d   1     -87.877 -76.877  55.007  0.00  0.00     0.077 H 
ATOM     19  H4  8LR d   1     -88.025 -77.036  56.790  0.00  0.00     0.077 H 
BRANCH  17  20
ATOM     20  O1  8LR d   1     -88.216 -75.106  56.041  0.00  0.00    -0.356 OA
BRANCH  20  21
ATOM     21  C1  8LR d   1     -86.899 -74.794  56.424  0.00  0.00     0.158 C 
ATOM     22  O5  8LR d   1     -85.963 -75.290  55.388  0.00  0.00    -0.348 OA
ATOM     23  C5  8LR d   1     -86.211 -74.624  54.099  0.00  0.00     0.089 C 
ATOM     24  C4  8LR d   1     -86.057 -73.135  54.233  0.00  0.00     0.090 C 
ATOM     25  H6  8LR d   1     -87.240 -74.838  53.773  0.00  0.00     0.090 H 
ATOM     26  C3  8LR d   1     -86.991 -72.646  55.282  0.00  0.00     0.092 C 
ATOM     27  H10 8LR d   1     -85.020 -72.898  54.514  0.00  0.00     0.091 H 
ATOM     28  C2  8LR d   1     -86.765 -73.309  56.572  0.00  0.00     0.110 C 
ATOM     29  H12 8LR d   1     -88.021 -72.847  54.951  0.00  0.00     0.091 H 
ATOM     30  H14 8LR d   1     -87.501 -72.938  57.301  0.00  0.00     0.094 H 
ATOM     31  H5  8LR d   1     -86.670 -75.278  57.385  0.00  0.00     0.133 H 
BRANCH  23  32
ATOM     32  C6  8LR d   1     -85.244 -75.202  53.086  0.00  0.00     0.043 C 
ATOM     33  H7  8LR d   1     -85.313 -74.644  52.141  0.00  0.00     0.078 H 
ATOM     34  H8  8LR d   1     -85.480 -76.261  52.905  0.00  0.00     0.078 H 
BRANCH  32  35
ATOM     35  O6  8LR d   1     -83.940 -75.083  53.622  0.00  0.00    -0.398 OA
ATOM     36  H9  8LR d   1     -83.746 -74.166  53.780  0.00  0.00     0.209 HD
ENDBRANCH  32  35
ENDBRANCH  23  32
BRANCH  24  37
ATOM     37  O4  8LR d   1     -86.385 -72.473  52.988  0.00  0.00    -0.390 OA
ATOM     38  H11 8LR d   1     -85.803 -72.782  52.303  0.00  0.00     0.210 HD
ENDBRANCH  24  37
BRANCH  26  39
ATOM     39  O3  8LR d   1     -86.821 -71.201  55.494  0.00  0.00    -0.390 OA
ATOM     40  H13 8LR d   1     -87.425 -70.907  56.166  0.00  0.00     0.210 HD
ENDBRANCH  26  39
BRANCH  28  41
ATOM     41  O2  8LR d   1     -85.418 -73.049  57.058  0.00  0.00    -0.388 OA
ATOM     42  H15 8LR d   1     -85.298 -72.113  57.169  0.00  0.00     0.210 HD
ENDBRANCH  28  41
ENDBRANCH  20  21
ENDBRANCH  17  20
ENDBRANCH  14  17
ENDBRANCH  13  14
ENDBRANCH  10  13
ENDBRANCH   7  10
ENDBRANCH   4   7
ENDBRANCH   1   3
BRANCH   1  43
ATOM     43  C   TRP d   1     -90.113 -81.056  49.692  0.00  0.00     0.241 C 
ATOM     44  O   TRP d   1     -90.936 -81.771  49.124  0.00  0.00    -0.271 OA
ATOM     45  N   TYR d   1     -88.777 -81.521  49.837  0.00  0.00    -0.346 N 
ATOM     46  H30 TYR d   1     -88.095 -80.971  50.320  0.00  0.00     0.163 HD
BRANCH  45  47
ATOM     47  CA  TYR d   1     -88.429 -82.786  49.281  0.00  0.00     0.093 C 
ATOM     48  H31 TYR d   1     -88.810 -82.851  48.251  0.00  0.00     0.088 H 
BRANCH  47  49
ATOM     49  C   TYR d   1     -88.921 -83.960  50.092  0.00  0.00     0.241 C 
ATOM     50  O   TYR d   1     -88.957 -85.058  49.549  0.00  0.00    -0.271 OA
ATOM     51  N   XSN d   1     -89.270 -83.724  51.510  0.00  0.00    -0.346 N 
ATOM     52  H39 XSN d   1     -89.211 -82.784  51.846  0.00  0.00     0.163 HD
BRANCH  51  53
ATOM     53  CA  XSN d   1     -89.685 -84.729  52.440  0.00  0.00     0.098 C 
ATOM     54  H40 XSN d   1     -90.153 -84.248  53.312  0.00  0.00     0.088 H 
BRANCH  53  55
ATOM     55  C   XSN d   1     -88.444 -85.466  52.885  0.00  0.00     0.238 C 
ATOM     56  O   XSN d   1     -87.639 -84.908  53.632  0.00  0.00    -0.271 OA
ATOM     57  N1  XSN d   1     -88.190 -86.820  52.420  0.00  0.00    -0.368 N 
ATOM     58  H43 XSN d   1     -88.845 -87.272  51.814  0.00  0.00     0.159 HD
ATOM     59  H44 XSN d   1     -87.361 -87.300  52.707  0.00  0.00     0.159 HD
ENDBRANCH  53  55
BRANCH  53  60
ATOM     60  CB  XSN d   1     -90.690 -85.662  51.813  0.00  0.00     0.043 C 
ATOM     61  H41 XSN d   1     -90.720 -86.611  52.368  0.00  0.00     0.052 H 
ATOM     62  H42 XSN d   1     -90.419 -85.858  50.765  0.00  0.00     0.052 H 
BRANCH  60  63
ATOM     63  CG  XSN d   1     -92.032 -84.983  51.880  0.00  0.00     0.175 C 
ATOM     64  OD1 XSN d   1     -92.828 -85.325  52.819  0.00  0.00    -0.648 OA
ATOM     65  OD2 XSN d   1     -92.333 -84.084  51.023  0.00  0.00    -0.648 OA
ENDBRANCH  60  63
ENDBRANCH  53  60
ENDBRANCH  51  53
ENDBRANCH  47  49
BRANCH  47  66
ATOM     66  CB  TYR d   1     -86.927 -82.908  49.319  0.00  0.00    -0.014 C 
ATOM     67  H32 TYR d   1     -86.625 -83.836  48.812  0.00  0.00     0.043 H 
ATOM     68  H33 TYR d   1     -86.591 -82.937  50.366  0.00  0.00     0.043 H 
BRANCH  66  69
ATOM     69  CG  TYR d   1     -86.283 -81.719  48.617  0.00  0.00    -0.056 A 
ATOM     70  CD1 TYR d   1     -86.241 -81.706  47.227  0.00  0.00    -0.074 A 
ATOM     71  CE1 TYR d   1     -85.663 -80.639  46.573  0.00  0.00    -0.051 A 
ATOM     72  H34 TYR d   1     -86.660 -82.530  46.661  0.00  0.00     0.084 H 
ATOM     73  CZ  TYR d   1     -85.130 -79.593  47.312  0.00  0.00     0.065 A 
ATOM     74  H36 TYR d   1     -85.625 -80.618  45.490  0.00  0.00     0.087 H 
ATOM     75  CE2 TYR d   1     -85.170 -79.604  48.697  0.00  0.00    -0.051 A 
ATOM     76  CD2 TYR d   1     -85.760 -80.677  49.353  0.00  0.00    -0.074 A 
ATOM     77  H37 TYR d   1     -84.745 -78.783  49.263  0.00  0.00     0.087 H 
ATOM     78  H35 TYR d   1     -85.809 -80.695  50.436  0.00  0.00     0.084 H 
BRANCH  73  79
ATOM     79  OH  TYR d   1     -84.528 -78.474  46.605  0.00  0.00    -0.361 OA
ATOM     80  H38 TYR d   1     -83.616 -78.393  46.860  0.00  0.00     0.217 HD
ENDBRANCH  73  79
ENDBRANCH  66  69
ENDBRANCH  47  66
ENDBRANCH  45  47
ENDBRANCH   1  43
BRANCH   1  81
ATOM     81  CB  TRP d   1     -89.788 -78.658  49.440  0.00  0.00    -0.012 C 
ATOM     82  H22 TRP d   1     -88.707 -78.813  49.571  0.00  0.00     0.044 H 
ATOM     83  H23 TRP d   1     -90.064 -77.661  49.815  0.00  0.00     0.044 H 
BRANCH  81  84
ATOM     84  CG  TRP d   1     -90.126 -78.728  47.885  0.00  0.00    -0.028 A 
ATOM     85  CD1 TRP d   1     -89.339 -79.278  46.856  0.00  0.00    -0.015 A 
ATOM     86  NE1 TRP d   1     -89.970 -79.110  45.705  0.00  0.00    -0.365 N 
ATOM     87  H24 TRP d   1     -88.372 -79.761  46.985  0.00  0.00     0.112 H 
ATOM     88  CE2 TRP d   1     -91.146 -78.463  45.900  0.00  0.00     0.042 A 
ATOM     89  H25 TRP d   1     -89.618 -79.426  44.790  0.00  0.00     0.165 HD
ATOM     90  CD2 TRP d   1     -91.305 -78.191  47.257  0.00  0.00    -0.002 A 
ATOM     91  CZ2 TRP d   1     -92.161 -78.069  44.972  0.00  0.00    -0.056 A 
ATOM     92  CE3 TRP d   1     -92.440 -77.516  47.732  0.00  0.00    -0.070 A 
ATOM     93  CZ3 TRP d   1     -93.444 -77.124  46.821  0.00  0.00    -0.082 A 
ATOM     94  H26 TRP d   1     -92.544 -77.298  48.789  0.00  0.00     0.084 H 
ATOM     95  CH2 TRP d   1     -93.291 -77.409  45.443  0.00  0.00    -0.081 A 
ATOM     96  H28 TRP d   1     -94.329 -76.607  47.175  0.00  0.00     0.083 H 
ATOM     97  H29 TRP d   1     -94.065 -77.109  44.746  0.00  0.00     0.083 H 
ATOM     98  H27 TRP d   1     -92.051 -78.282  43.915  0.00  0.00     0.086 H 
ENDBRANCH  81  84
ENDBRANCH   1  81
TORSDOF 25
