REMARK  5 active torsions:
REMARK  status: ('A' for Active; 'I' for Inactive)
REMARK    1  A    between atoms: C2_2  and  O2_3 
REMARK    2  A    between atoms: C3_4  and  O3_5 
REMARK    3  A    between atoms: C4_6  and  O4_7 
REMARK    4  A    between atoms: C5_8  and  C6_10 
REMARK    5  A    between atoms: C6_10  and  O6_11 
ROOT
ATOM      1  C1  DGJ d   1      64.064  28.814  33.255  0.00  0.00     0.108 C 
ATOM      2  C2  DGJ d   1      62.804  27.960  33.322  0.00  0.00     0.086 C 
ATOM      3  C3  DGJ d   1      61.836  28.569  34.346  0.00  0.00     0.088 C 
ATOM      4  C4  DGJ d   1      62.542  28.735  35.685  0.00  0.00     0.092 C 
ATOM      5  C5  DGJ d   1      63.695  29.705  35.513  0.00  0.00     0.149 C 
ATOM      6  N5  DGJ d   1      64.674  29.083  34.573  0.00  0.00    -0.064 N 
ATOM      7  H   DGJ d   1      63.806  29.777  32.790  0.00  0.00     0.079 H 
ATOM      8  H   DGJ d   1      64.804  28.292  32.631  0.00  0.00     0.079 H 
ATOM      9  H   DGJ d   1      63.088  26.946  33.641  0.00  0.00     0.089 H 
ATOM     10  H   DGJ d   1      61.535  29.562  33.981  0.00  0.00     0.091 H 
ATOM     11  H   DGJ d   1      61.833  29.153  36.415  0.00  0.00     0.090 H 
ATOM     12  H   DGJ d   1      63.315  30.647  35.092  0.00  0.00     0.091 H 
ATOM     13  H   DGJ d   1      65.454  29.709  34.451  0.00  0.00     0.277 HD
ATOM     14  H   DGJ d   1      64.999  28.214  34.967  0.00  0.00     0.277 HD
ENDROOT
BRANCH   5  15
ATOM     15  C6  DGJ d   1      64.412  30.001  36.825  0.00  0.00     0.046 C 
ATOM     16  H   DGJ d   1      65.312  30.593  36.600  0.00  0.00     0.077 H 
ATOM     17  H   DGJ d   1      64.707  29.044  37.281  0.00  0.00     0.077 H 
BRANCH  15  18
ATOM     18  O6  DGJ d   1      63.636  30.715  37.760  0.00  0.00    -0.399 OA
ATOM     19  H   DGJ d   1      64.147  30.861  38.548  0.00  0.00     0.209 HD
ENDBRANCH  15  18
ENDBRANCH   5  15
BRANCH   4  20
ATOM     20  O4  DGJ d   1      62.997  27.459  36.168  0.00  0.00    -0.391 OA
ATOM     21  H   DGJ d   1      62.252  26.880  36.278  0.00  0.00     0.210 HD
ENDBRANCH   4  20
BRANCH   3  22
ATOM     22  O3  DGJ d   1      60.651  27.781  34.522  0.00  0.00    -0.390 OA
ATOM     23  H   DGJ d   1      60.193  27.711  33.693  0.00  0.00     0.210 HD
ENDBRANCH   3  22
BRANCH   2  24
ATOM     24  O2  DGJ d   1      62.092  27.868  32.036  0.00  0.00    -0.391 OA
ATOM     25  H   DGJ d   1      61.834  28.738  31.756  0.00  0.00     0.210 HD
ENDBRANCH   2  24
TORSDOF 5
