REMARK  4 active torsions:
REMARK  status: ('A' for Active; 'I' for Inactive)
REMARK    1  A    between atoms: C2'_10  and  O2'_11 
REMARK    2  A    between atoms: C1'_12  and  N9_13 
REMARK    3  A    between atoms: C2'1_32  and  O2'1_33 
REMARK    4  A    between atoms: C1'1_34  and  N91_35 
ROOT
ATOM      1  P   2BA d   1      -8.674  -7.627  -9.522  0.00  0.00     0.408 P 
ATOM      2  O1P 2BA d   1      -7.866  -8.438  -8.546  0.00  0.00    -0.624 OA
ATOM      3  O2P 2BA d   1      -8.583  -6.176  -9.715  0.00  0.00    -0.624 OA
ATOM      4  O5' 2BA d   1      -8.164  -8.251 -10.973  0.00  0.00    -0.287 OA
ATOM      5  C5' 2BA d   1      -8.435  -7.575 -12.203  0.00  0.00     0.058 C 
ATOM      6  C4' 2BA d   1      -7.847  -8.465 -13.307  0.00  0.00     0.090 C 
ATOM      7  O4' 2BA d   1      -6.411  -8.472 -13.127  0.00  0.00    -0.353 OA
ATOM      8  C3' 2BA d   1      -8.211  -9.933 -13.241  0.00  0.00     0.106 C 
ATOM      9  O3' 2BA d   1      -9.436 -10.322 -13.880  0.00  0.00    -0.279 OA
ATOM     10  C2' 2BA d   1      -6.992 -10.600 -13.832  0.00  0.00     0.106 C 
ATOM     11  C1' 2BA d   1      -5.841  -9.728 -13.409  0.00  0.00     0.140 C 
ATOM     12  P1  2BA d   1     -10.312 -11.504 -13.278  0.00  0.00     0.408 P 
ATOM     13  O1P 2BA d   1      -9.506 -12.783 -13.094  0.00  0.00    -0.624 OA
ATOM     14  O2P 2BA d   1     -11.438 -11.638 -14.224  0.00  0.00    -0.624 OA
ATOM     15  O5' 2BA d   1     -10.684 -10.923 -11.801  0.00  0.00    -0.287 OA
ATOM     16  C5' 2BA d   1     -11.554  -9.800 -11.660  0.00  0.00     0.058 C 
ATOM     17  C4' 2BA d   1     -11.858  -9.530 -10.205  0.00  0.00     0.090 C 
ATOM     18  O4' 2BA d   1     -12.502 -10.704  -9.676  0.00  0.00    -0.353 OA
ATOM     19  C3' 2BA d   1     -10.622  -9.375  -9.346  0.00  0.00     0.106 C 
ATOM     20  O3' 2BA d   1     -10.207  -8.059  -9.485  0.00  0.00    -0.279 OA
ATOM     21  C2' 2BA d   1     -11.141  -9.729  -7.969  0.00  0.00     0.106 C 
ATOM     22  C1' 2BA d   1     -12.143 -10.826  -8.288  0.00  0.00     0.140 C 
ATOM     23  H   2BA d   1      -7.953  -6.586 -12.211  0.00  0.00     0.079 H 
ATOM     24  H   2BA d   1      -9.519  -7.456 -12.344  0.00  0.00     0.079 H 
ATOM     25  H   2BA d   1      -8.131  -8.055 -14.287  0.00  0.00     0.090 H 
ATOM     26  H   2BA d   1      -8.305 -10.222 -12.184  0.00  0.00     0.092 H 
ATOM     27  H   2BA d   1      -6.883 -11.621 -13.437  0.00  0.00     0.093 H 
ATOM     28  H   2BA d   1      -5.137  -9.641 -14.249  0.00  0.00     0.122 H 
ATOM     29  H   2BA d   1     -12.495 -10.005 -12.192  0.00  0.00     0.079 H 
ATOM     30  H   2BA d   1     -11.071  -8.914 -12.097  0.00  0.00     0.079 H 
ATOM     31  H   2BA d   1     -12.499  -8.640 -10.118  0.00  0.00     0.090 H 
ATOM     32  H   2BA d   1      -9.813 -10.058  -9.646  0.00  0.00     0.092 H 
ATOM     33  H   2BA d   1     -10.332 -10.096  -7.320  0.00  0.00     0.093 H 
ATOM     34  H   2BA d   1     -13.021 -10.709  -7.635  0.00  0.00     0.122 H 
ENDROOT
BRANCH  11  35
ATOM     35  N9  2BA d   1      -5.068 -10.211 -12.202  0.00  0.00    -0.294 N 
ATOM     36  C8  2BA d   1      -5.254  -9.847 -10.876  0.00  0.00     0.071 A 
ATOM     37  N7  2BA d   1      -4.355 -10.440 -10.048  0.00  0.00    -0.236 NA
ATOM     38  H   2BA d   1      -6.032  -9.164 -10.538  0.00  0.00     0.144 H 
ATOM     39  C5  2BA d   1      -3.601 -11.203 -10.877  0.00  0.00     0.149 A 
ATOM     40  C6  2BA d   1      -2.500 -12.131 -10.665  0.00  0.00     0.155 A 
ATOM     41  C4  2BA d   1      -4.081 -11.092 -12.243  0.00  0.00     0.167 A 
ATOM     42  N6  2BA d   1      -2.031 -12.324  -9.438  0.00  0.00    -0.382 N 
ATOM     43  N1  2BA d   1      -1.973 -12.750 -11.745  0.00  0.00    -0.222 NA
ATOM     44  H   2BA d   1      -1.252 -12.979  -9.282  0.00  0.00     0.157 HD
ATOM     45  H   2BA d   1      -2.446 -11.818  -8.643  0.00  0.00     0.157 HD
ATOM     46  C2  2BA d   1      -2.459 -12.586 -12.979  0.00  0.00     0.091 A 
ATOM     47  N3  2BA d   1      -3.474 -11.779 -13.253  0.00  0.00    -0.222 NA
ATOM     48  H   2BA d   1      -2.002 -13.138 -13.793  0.00  0.00     0.146 H 
ENDBRANCH  11  35
BRANCH  10  49
ATOM     49  O2' 2BA d   1      -7.040 -10.641 -15.268  0.00  0.00    -0.388 OA
ATOM     50  H   2BA d   1      -6.258 -11.067 -15.598  0.00  0.00     0.210 HD
ENDBRANCH  10  49
BRANCH  21  51
ATOM     51  O2' 2BA d   1     -11.806  -8.599  -7.330  0.00  0.00    -0.388 OA
ATOM     52  H   2BA d   1     -12.117  -8.860  -6.471  0.00  0.00     0.210 HD
ENDBRANCH  21  51
BRANCH  22  53
ATOM     53  N91 2BA d   1     -11.624 -12.208  -8.186  0.00  0.00    -0.294 N 
ATOM     54  C81 2BA d   1     -10.781 -12.818  -9.056  0.00  0.00     0.071 A 
ATOM     55  N71 2BA d   1     -10.503 -14.096  -8.686  0.00  0.00    -0.236 NA
ATOM     56  H   2BA d   1     -10.375 -12.340  -9.946  0.00  0.00     0.144 H 
ATOM     57  C51 2BA d   1     -11.183 -14.308  -7.575  0.00  0.00     0.149 A 
ATOM     58  C61 2BA d   1     -11.352 -15.446  -6.635  0.00  0.00     0.155 A 
ATOM     59  C41 2BA d   1     -11.922 -13.073  -7.256  0.00  0.00     0.167 A 
ATOM     60  N61 2BA d   1     -10.730 -16.618  -6.842  0.00  0.00    -0.382 N 
ATOM     61  N11 2BA d   1     -12.131 -15.242  -5.558  0.00  0.00    -0.222 NA
ATOM     62  H   2BA d   1     -10.861 -17.395  -6.178  0.00  0.00     0.157 HD
ATOM     63  H   2BA d   1     -10.122 -16.740  -7.665  0.00  0.00     0.157 HD
ATOM     64  C21 2BA d   1     -12.785 -14.085  -5.325  0.00  0.00     0.091 A 
ATOM     65  N31 2BA d   1     -12.695 -13.026  -6.145  0.00  0.00    -0.222 NA
ATOM     66  H   2BA d   1     -13.408 -14.008  -4.441  0.00  0.00     0.146 H 
ENDBRANCH  22  53
TORSDOF 4
