REMARK  6 active torsions:
REMARK  status: ('A' for Active; 'I' for Inactive)
REMARK    1  A    between atoms: C12_2  and  C4_3 
REMARK    2  A    between atoms: C12_2  and  C14_14 
REMARK    3  A    between atoms: C2_5  and  O7_6 
REMARK    4  A    between atoms: C6_8  and  N9_9 
REMARK    5  A    between atoms: C1_12  and  O8_13 
REMARK    6  A    between atoms: C17_17  and  C20_18 
ROOT
ATOM      1  O13 TCW d   1       1.799   2.105  -7.278  0.00  0.00    -0.287 OA
ATOM      2  C12 TCW d   1       0.876   1.327  -7.012  0.00  0.00     0.192 C 
ENDROOT
BRANCH   2   3
ATOM      3  C4  TCW d   1       0.655   0.887  -5.597  0.00  0.00     0.020 A 
ATOM      4  C3  TCW d   1       1.262   1.600  -4.561  0.00  0.00    -0.034 A 
ATOM      5  C2  TCW d   1       1.034   1.226  -3.237  0.00  0.00     0.102 A 
ATOM      6  H1  TCW d   1       1.908   2.441  -4.785  0.00  0.00     0.089 H 
ATOM      7  C1  TCW d   1       0.219   0.129  -2.919  0.00  0.00     0.132 A 
ATOM      8  C6  TCW d   1      -0.412  -0.568  -3.966  0.00  0.00     0.139 A 
ATOM      9  C5  TCW d   1      -0.210  -0.167  -5.298  0.00  0.00    -0.034 A 
ATOM     10  H3  TCW d   1      -0.730  -0.680  -6.099  0.00  0.00     0.088 H 
BRANCH   5  11
ATOM     11  O7  TCW d   1       1.674   1.870  -2.211  0.00  0.00    -0.358 OA
ATOM     12  H2  TCW d   1       1.404   1.490  -1.383  0.00  0.00     0.217 HD
ENDBRANCH   5  11
BRANCH   7  13
ATOM     13  O8  TCW d   1       0.015  -0.241  -1.642  0.00  0.00    -0.356 OA
ATOM     14  H4  TCW d   1       0.511   0.329  -1.065  0.00  0.00     0.218 HD
ENDBRANCH   7  13
BRANCH   8  15
ATOM     15  N9  TCW d   1      -1.317  -1.742  -3.720  0.00  0.00    -0.113 N 
ATOM     16  O11 TCW d   1      -1.221  -2.383  -2.727  0.00  0.00    -0.532 OA
ATOM     17  O10 TCW d   1      -2.099  -2.006  -4.557  0.00  0.00    -0.532 OA
ENDBRANCH   8  15
ENDBRANCH   2   3
BRANCH   2  18
ATOM     18  C14 TCW d   1       0.007   0.831  -8.135  0.00  0.00     0.015 A 
ATOM     19  C19 TCW d   1       0.573   0.431  -9.346  0.00  0.00    -0.069 A 
ATOM     20  C18 TCW d   1      -0.169  -0.055 -10.413  0.00  0.00    -0.076 A 
ATOM     21  H5  TCW d   1       1.649   0.504  -9.459  0.00  0.00     0.085 H 
ATOM     22  C17 TCW d   1      -1.544  -0.108 -10.340  0.00  0.00    -0.062 A 
ATOM     23  H6  TCW d   1       0.336  -0.395 -11.310  0.00  0.00     0.084 H 
ATOM     24  C16 TCW d   1      -2.115   0.324  -9.146  0.00  0.00    -0.076 A 
ATOM     25  C15 TCW d   1      -1.401   0.764  -8.035  0.00  0.00    -0.069 A 
ATOM     26  H10 TCW d   1      -3.197   0.317  -9.076  0.00  0.00     0.084 H 
ATOM     27  H11 TCW d   1      -1.910   1.047  -7.120  0.00  0.00     0.085 H 
BRANCH  22  28
ATOM     28  C20 TCW d   1      -2.312  -0.585 -11.477  0.00  0.00    -0.051 C 
ATOM     29  H7  TCW d   1      -3.384  -0.555 -11.233  0.00  0.00     0.033 H 
ATOM     30  H8  TCW d   1      -2.018  -1.619 -11.711  0.00  0.00     0.033 H 
ATOM     31  H9  TCW d   1      -2.116   0.058 -12.348  0.00  0.00     0.033 H 
ENDBRANCH  22  28
ENDBRANCH   2  18
TORSDOF 6
