REMARK  6 active torsions:
REMARK  status: ('A' for Active; 'I' for Inactive)
REMARK    1  A    between atoms: C1_1  and  C3_3 
REMARK    2  A    between atoms: C4_9  and  C1_1 
REMARK    3  A    between atoms: C4_9  and  C2_2 
REMARK    4  A    between atoms: C8_15  and  C4_9 
REMARK    5  A    between atoms: C10_19  and  N3_10 
REMARK    6  A    between atoms: C9_16  and  O4_18 
ROOT
ATOM      1  N1  0J2 d   1     -12.703  24.397   7.246  0.00  0.00    -0.150 NA
ATOM      2  N2  0J2 d   1     -13.551  23.833   6.337  0.00  0.00    -0.128 NA
ATOM      3  O3  0J2 d   1     -14.281  27.913   3.758  0.00  0.00    -0.171 OA
ATOM      4  C5  0J2 d   1     -14.534  26.580   3.990  0.00  0.00     0.210 A 
ATOM      5  C6  0J2 d   1     -13.906  25.885   5.089  0.00  0.00     0.104 A 
ATOM      6  N4  0J2 d   1     -15.387  25.880   3.128  0.00  0.00    -0.165 N 
ATOM      7  C7  0J2 d   1     -14.164  24.558   5.258  0.00  0.00     0.207 A 
ATOM      8  C8  0J2 d   1     -12.406  25.673   7.169  0.00  0.00     0.095 A 
ATOM      9  C9  0J2 d   1     -12.988  26.503   6.078  0.00  0.00     0.111 A 
ATOM     10  N5  0J2 d   1     -14.989  23.840   4.435  0.00  0.00    -0.042 NA
ATOM     11  C10 0J2 d   1     -15.618  24.458   3.349  0.00  0.00     0.702 A 
ATOM     12  H9  0J2 d   1     -15.834  26.352   2.368  0.00  0.00     0.186 HD
ENDROOT
BRANCH   8  13
ATOM     13  C4  0J2 d   1     -11.440  26.311   8.118  0.00  0.00    -0.002 C 
ATOM     14  H6  0J2 d   1     -11.543  27.404   8.044  0.00  0.00     0.050 H 
BRANCH  13  15
ATOM     15  C1  0J2 d   1     -11.700  25.900   9.531  0.00  0.00     0.024 C 
ATOM     16  H1  0J2 d   1     -11.614  24.807   9.618  0.00  0.00     0.050 H 
ATOM     17  H2  0J2 d   1     -10.966  26.380  10.195  0.00  0.00     0.050 H 
BRANCH  15  18
ATOM     18  C3  0J2 d   1     -13.073  26.324   9.918  0.00  0.00     0.173 C 
ATOM     19  O1  0J2 d   1     -13.470  27.502   9.670  0.00  0.00    -0.648 OA
ATOM     20  O2  0J2 d   1     -13.878  25.439  10.302  0.00  0.00    -0.648 OA
ENDBRANCH  15  18
ENDBRANCH  13  15
BRANCH  13  21
ATOM     21  C2  0J2 d   1     -10.049  25.923   7.741  0.00  0.00    -0.067 C 
ATOM     22  H3  0J2 d   1      -9.854  26.224   6.701  0.00  0.00     0.028 H 
ATOM     23  H4  0J2 d   1      -9.934  24.833   7.835  0.00  0.00     0.028 H 
ATOM     24  H5  0J2 d   1      -9.334  26.426   8.409  0.00  0.00     0.028 H 
ENDBRANCH  13  21
ENDBRANCH   8  13
BRANCH   9  25
ATOM     25  O4  0J2 d   1     -12.697  27.847   6.037  0.00  0.00    -0.357 OA
ATOM     26  H10 0J2 d   1     -13.135  28.242   5.292  0.00  0.00     0.217 HD
ENDBRANCH   9  25
BRANCH  11  27
ATOM     27  N3  0J2 d   1     -16.457  23.702   2.490  0.00  0.00    -0.233 N 
ATOM     28  H7  0J2 d   1     -16.920  24.157   1.690  0.00  0.00     0.174 HD
ATOM     29  H8  0J2 d   1     -16.603  22.698   2.666  0.00  0.00     0.174 HD
ENDBRANCH  11  27
TORSDOF 6
