REMARK  4 active torsions:
REMARK  status: ('A' for Active; 'I' for Inactive)
REMARK    1  A    between atoms: O1_1  and  C2_2 
REMARK    2  A    between atoms: C2_2  and  C3_3 
REMARK    3  A    between atoms: C2_2  and  C11_11 
REMARK    4  A    between atoms: C2_2  and  C17_17 
ROOT
ATOM      1  C3  0H7 d   1     -10.812 -14.022   5.043  0.00  0.00     0.012 C 
ATOM      2  C4  0H7 d   1     -11.232 -12.686   4.402  0.00  0.00     0.090 C 
ATOM      3  N5  0H7 d   1     -10.106 -12.144   3.607  0.00  0.00    -0.070 N 
ATOM      4  C6  0H7 d   1      -8.915 -11.923   4.460  0.00  0.00     0.084 C 
ATOM      5  C7  0H7 d   1      -8.379 -13.285   4.951  0.00  0.00    -0.038 C 
ATOM      6  C8  0H7 d   1      -9.374 -14.393   4.536  0.00  0.00    -0.043 C 
ATOM      7  C9  0H7 d   1      -9.399 -14.435   2.993  0.00  0.00    -0.038 C 
ATOM      8  C10 0H7 d   1      -9.775 -13.031   2.468  0.00  0.00     0.084 C 
ATOM      9  H2  0H7 d   1     -11.508 -14.805   4.707  0.00  0.00     0.048 H 
ATOM     10  H3  0H7 d   1     -11.502 -11.969   5.192  0.00  0.00     0.076 H 
ATOM     11  H4  0H7 d   1     -12.099 -12.851   3.745  0.00  0.00     0.076 H 
ATOM     12  H5  0H7 d   1     -10.392 -11.252   3.233  0.00  0.00     0.279 HD
ATOM     13  H6  0H7 d   1      -9.193 -11.304   5.326  0.00  0.00     0.076 H 
ATOM     14  H7  0H7 d   1      -8.136 -11.410   3.877  0.00  0.00     0.076 H 
ATOM     15  H8  0H7 d   1      -8.279 -13.270   6.046  0.00  0.00     0.035 H 
ATOM     16  H9  0H7 d   1      -7.397 -13.481   4.496  0.00  0.00     0.035 H 
ATOM     17  H10 0H7 d   1      -9.063 -15.364   4.947  0.00  0.00     0.041 H 
ATOM     18  H11 0H7 d   1     -10.145 -15.169   2.654  0.00  0.00     0.035 H 
ATOM     19  H12 0H7 d   1      -8.406 -14.719   2.614  0.00  0.00     0.035 H 
ATOM     20  H13 0H7 d   1      -8.925 -12.609   1.911  0.00  0.00     0.076 H 
ATOM     21  H14 0H7 d   1     -10.647 -13.111   1.802  0.00  0.00     0.076 H 
ENDROOT
BRANCH   1  22
ATOM     22  C2  0H7 d   1     -10.892 -13.948   6.605  0.00  0.00     0.130 C 
BRANCH  22  23
ATOM     23  O1  0H7 d   1     -10.210 -12.789   7.108  0.00  0.00    -0.379 OA
ATOM     24  H1  0H7 d   1      -9.296 -12.825   6.853  0.00  0.00     0.211 HD
ENDBRANCH  22  23
BRANCH  22  25
ATOM     25  C11 0H7 d   1     -10.308 -15.182   7.184  0.00  0.00     0.024 A 
ATOM     26  C12 0H7 d   1     -10.559 -16.416   6.744  0.00  0.00    -0.065 A 
ATOM     27  C13 0H7 d   1      -9.968 -17.418   7.473  0.00  0.00    -0.054 A 
ATOM     28  H15 0H7 d   1     -11.184 -16.613   5.874  0.00  0.00     0.085 H 
ATOM     29  C14 0H7 d   1      -9.300 -17.001   8.538  0.00  0.00     0.075 A 
ATOM     30  H16 0H7 d   1     -10.042 -18.469   7.198  0.00  0.00     0.086 H 
ATOM     31 CL1  0H7 d   1      -8.479 -18.031   9.644  0.00  0.00    -0.076 Cl
ATOM     32  S16 0H7 d   1      -9.354 -15.249   8.646  0.00  0.00    -0.079 SA
ENDBRANCH  22  25
BRANCH  22  33
ATOM     33  C17 0H7 d   1     -12.322 -13.902   7.100  0.00  0.00     0.024 A 
ATOM     34  C18 0H7 d   1     -12.710 -13.444   8.299  0.00  0.00    -0.065 A 
ATOM     35  C19 0H7 d   1     -14.067 -13.523   8.547  0.00  0.00    -0.054 A 
ATOM     36  H17 0H7 d   1     -12.006 -13.039   9.025  0.00  0.00     0.085 H 
ATOM     37  C20 0H7 d   1     -14.777 -14.121   7.583  0.00  0.00     0.075 A 
ATOM     38  H18 0H7 d   1     -14.523 -13.130   9.455  0.00  0.00     0.086 H 
ATOM     39 CL2  0H7 d   1     -16.506 -14.368   7.585  0.00  0.00    -0.076 Cl
ATOM     40  S22 0H7 d   1     -13.705 -14.588   6.274  0.00  0.00    -0.079 SA
ENDBRANCH  22  33
ENDBRANCH   1  22
TORSDOF 4
