REMARK  7 active torsions:
REMARK  status: ('A' for Active; 'I' for Inactive)
REMARK    1  A    between atoms: N14_24  and  C15_2 
REMARK    2  A    between atoms: N22_27  and  C24_6 
REMARK    3  A    between atoms: N02_9  and  C01_10 
REMARK    4  A    between atoms: O10_19  and  C09_12 
REMARK    5  A    between atoms: C11_20  and  O10_19 
REMARK    6  A    between atoms: C11_20  and  C12_21 
REMARK    7  A    between atoms: N22_27  and  C23_28 
ROOT
ATOM      1  C13 0J0 d   1     -25.216  22.149  -9.357  0.00  0.00     0.022 A 
ATOM      2  C12 0J0 d   1     -25.463  21.027 -10.324  0.00  0.00     0.093 A 
ATOM      3  N26 0J0 d   1     -25.945  19.942  -9.531  0.00  0.00    -0.161 NA
ATOM      4  N25 0J0 d   1     -26.004  20.362  -8.207  0.00  0.00     0.005 NA
ATOM      5  N14 0J0 d   1     -25.594  21.607  -8.049  0.00  0.00    -0.278 N 
ATOM      6  H1  0J0 d   1     -24.839  23.146  -9.579  0.00  0.00     0.116 H 
ENDROOT
BRANCH   5   7
ATOM      7  C15 0J0 d   1     -25.477  22.426  -6.817  0.00  0.00     0.035 C 
ATOM      8  C21 0J0 d   1     -26.406  21.890  -5.714  0.00  0.00    -0.014 C 
ATOM      9  C20 0J0 d   1     -26.673  22.892  -4.653  0.00  0.00     0.124 C 
ATOM     10  H5  0J0 d   1     -25.935  21.008  -5.255  0.00  0.00     0.039 H 
ATOM     11  H6  0J0 d   1     -27.363  21.598  -6.171  0.00  0.00     0.039 H 
ATOM     12  C19 0J0 d   1     -25.461  23.381  -4.096  0.00  0.00    -0.075 C 
ATOM     13  N22 0J0 d   1     -27.050  24.122  -5.205  0.00  0.00    -0.060 N 
ATOM     14  H4  0J0 d   1     -27.382  22.497  -3.910  0.00  0.00     0.091 H 
ATOM     15  C18 0J0 d   1     -24.998  24.421  -4.884  0.00  0.00    -0.075 C 
ATOM     16  H20 0J0 d   1     -24.976  23.001  -3.198  0.00  0.00     0.079 H 
ATOM     17  C17 0J0 d   1     -25.987  24.718  -5.888  0.00  0.00     0.124 C 
ATOM     18  H21 0J0 d   1     -24.043  24.931  -4.764  0.00  0.00     0.079 H 
ATOM     19  C16 0J0 d   1     -25.641  23.973  -7.101  0.00  0.00    -0.014 C 
ATOM     20  H3  0J0 d   1     -26.130  25.789  -6.096  0.00  0.00     0.091 H 
ATOM     21  H25 0J0 d   1     -26.439  24.115  -7.845  0.00  0.00     0.039 H 
ATOM     22  H26 0J0 d   1     -24.693  24.364  -7.500  0.00  0.00     0.039 H 
ATOM     23  H2  0J0 d   1     -24.450  22.293  -6.447  0.00  0.00     0.075 H 
BRANCH  13  24
ATOM     24  C24 0J0 d   1     -27.515  25.013  -4.141  0.00  0.00     0.069 C 
ATOM     25  H7  0J0 d   1     -27.811  25.979  -4.575  0.00  0.00     0.068 H 
ATOM     26  H8  0J0 d   1     -26.704  25.171  -3.414  0.00  0.00     0.068 H 
ATOM     27  H9  0J0 d   1     -28.379  24.559  -3.634  0.00  0.00     0.068 H 
ENDBRANCH  13  24
BRANCH  13  28
ATOM     28  C23 0J0 d   1     -28.254  24.004  -6.023  0.00  0.00     0.069 C 
ATOM     29  H22 0J0 d   1     -28.051  23.347  -6.882  0.00  0.00     0.068 H 
ATOM     30  H23 0J0 d   1     -28.551  25.000  -6.385  0.00  0.00     0.068 H 
ATOM     31  H24 0J0 d   1     -29.067  23.576  -5.419  0.00  0.00     0.068 H 
ENDBRANCH  13  28
ENDBRANCH   5   7
BRANCH   2  32
ATOM     32  C11 0J0 d   1     -25.238  21.023 -11.835  0.00  0.00     0.068 C 
ATOM     33  H18 0J0 d   1     -24.492  20.252 -12.079  0.00  0.00     0.085 H 
ATOM     34  H19 0J0 d   1     -26.189  20.784 -12.333  0.00  0.00     0.085 H 
BRANCH  32  35
ATOM     35  O10 0J0 d   1     -24.774  22.275 -12.315  0.00  0.00    -0.344 OA
BRANCH  35  36
ATOM     36  C09 0J0 d   1     -23.436  22.687 -12.424  0.00  0.00     0.087 A 
ATOM     37  C27 0J0 d   1     -23.213  24.045 -12.924  0.00  0.00     0.016 A 
ATOM     38  C28 0J0 d   1     -21.811  24.607 -13.076  0.00  0.00     0.250 A 
ATOM     39  H13 0J0 d   1     -24.069  24.663 -13.192  0.00  0.00     0.096 H 
ATOM     40  O29 0J0 d   1     -21.639  25.743 -13.492  0.00  0.00    -0.268 OA
ATOM     41  N02 0J0 d   1     -20.664  23.791 -12.726  0.00  0.00    -0.318 N 
ATOM     42  C03 0J0 d   1     -20.864  22.427 -12.226  0.00  0.00     0.050 A 
ATOM     43  C08 0J0 d   1     -22.245  21.852 -12.068  0.00  0.00     0.024 A 
ATOM     44  C04 0J0 d   1     -19.668  21.617 -11.874  0.00  0.00    -0.056 A 
ATOM     45  C07 0J0 d   1     -22.381  20.433 -11.546  0.00  0.00    -0.068 A 
ATOM     46  C06 0J0 d   1     -21.174  19.618 -11.194  0.00  0.00    -0.082 A 
ATOM     47  H14 0J0 d   1     -23.368  20.002 -11.426  0.00  0.00     0.085 H 
ATOM     48  C05 0J0 d   1     -19.803  20.184 -11.353  0.00  0.00    -0.081 A 
ATOM     49  H15 0J0 d   1     -21.298  18.608 -10.820  0.00  0.00     0.083 H 
ATOM     50  H16 0J0 d   1     -18.926  19.596 -11.106  0.00  0.00     0.083 H 
ATOM     51  H17 0J0 d   1     -18.681  22.050 -11.989  0.00  0.00     0.087 H 
BRANCH  41  52
ATOM     52  C01 0J0 d   1     -19.358  24.328 -12.878  0.00  0.00    -0.011 C 
ATOM     53  H10 0J0 d   1     -19.427  25.356 -13.263  0.00  0.00     0.057 H 
ATOM     54  H11 0J0 d   1     -18.787  23.709 -13.586  0.00  0.00     0.057 H 
ATOM     55  H12 0J0 d   1     -18.849  24.335 -11.903  0.00  0.00     0.057 H 
ENDBRANCH  41  52
ENDBRANCH  35  36
ENDBRANCH  32  35
ENDBRANCH   2  32
TORSDOF 7
