REMARK  9 active torsions:
REMARK  status: ('A' for Active; 'I' for Inactive)
REMARK    1  A    between atoms: PB_1  and  O3A_5 
REMARK    2  A    between atoms: O3A_5  and  PA_6 
REMARK    3  A    between atoms: PA_6  and  O5'_9 
REMARK    4  A    between atoms: O5'_9  and  C5'_10 
REMARK    5  A    between atoms: C5'_10  and  C4'_11 
REMARK    6  A    between atoms: C3'_13  and  O3'_14 
REMARK    7  A    between atoms: C2'_15  and  O2'_16 
REMARK    8  A    between atoms: C1'_17  and  N9_18 
REMARK    9  A    between atoms: C2_25  and  N2_26 
ROOT
ATOM      1  C4' GDP d   1     -18.982 -10.046 -36.974  0.00  0.00     0.089 C 
ATOM      2  O4' GDP d   1     -18.497 -11.136 -37.771  0.00  0.00    -0.353 OA
ATOM      3  C3' GDP d   1     -20.091 -10.606 -36.091  0.00  0.00     0.091 C 
ATOM      4  C2' GDP d   1     -19.901 -12.108 -36.149  0.00  0.00     0.105 C 
ATOM      5  C1' GDP d   1     -19.292 -12.311 -37.530  0.00  0.00     0.139 C 
ATOM      6  H3  GDP d   1     -19.392  -9.261 -37.627  0.00  0.00     0.090 H 
ATOM      7  H4  GDP d   1     -20.035 -10.217 -35.063  0.00  0.00     0.091 H 
ATOM      8  H6  GDP d   1     -19.205 -12.442 -35.366  0.00  0.00     0.093 H 
ATOM      9  H8  GDP d   1     -20.082 -12.388 -38.292  0.00  0.00     0.122 H 
ENDROOT
BRANCH   5  10
ATOM     10  N9  GDP d   1     -18.495 -13.558 -37.536  0.00  0.00    -0.295 N 
ATOM     11  C8  GDP d   1     -17.520 -13.877 -36.661  0.00  0.00     0.071 A 
ATOM     12  N7  GDP d   1     -17.000 -15.098 -36.944  0.00  0.00    -0.234 NA
ATOM     13  H9  GDP d   1     -17.194 -13.241 -35.839  0.00  0.00     0.144 H 
ATOM     14  C5  GDP d   1     -17.640 -15.580 -38.024  0.00  0.00     0.171 A 
ATOM     15  C6  GDP d   1     -17.572 -16.809 -38.848  0.00  0.00     0.292 A 
ATOM     16  C4  GDP d   1     -18.629 -14.563 -38.411  0.00  0.00     0.161 A 
ATOM     17  O6  GDP d   1     -16.765 -17.725 -38.594  0.00  0.00    -0.265 OA
ATOM     18  N1  GDP d   1     -18.423 -16.918 -39.878  0.00  0.00    -0.154 N 
ATOM     19  C2  GDP d   1     -19.314 -15.957 -40.201  0.00  0.00     0.680 A 
ATOM     20  H10 GDP d   1     -18.396 -17.750 -40.433  0.00  0.00     0.187 HD
ATOM     21  N3  GDP d   1     -19.413 -14.797 -39.492  0.00  0.00    -0.174 N 
ATOM     22  H13 GDP d   1     -20.097 -14.084 -39.783  0.00  0.00     0.186 HD
BRANCH  19  23
ATOM     23  N2  GDP d   1     -20.121 -16.157 -41.278  0.00  0.00    -0.234 N 
ATOM     24  H11 GDP d   1     -20.810 -15.439 -41.546  0.00  0.00     0.174 HD
ATOM     25  H12 GDP d   1     -20.043 -17.026 -41.825  0.00  0.00     0.174 HD
ENDBRANCH  19  23
ENDBRANCH   5  10
BRANCH   4  26
ATOM     26  O2' GDP d   1     -21.136 -12.810 -35.996  0.00  0.00    -0.388 OA
ATOM     27  H7  GDP d   1     -21.730 -12.559 -36.693  0.00  0.00     0.210 HD
ENDBRANCH   4  26
BRANCH   1  28
ATOM     28  C5' GDP d   1     -17.850  -9.452 -36.142  0.00  0.00     0.058 C 
ATOM     29  H1  GDP d   1     -16.988  -9.240 -36.791  0.00  0.00     0.079 H 
ATOM     30  H2  GDP d   1     -18.191  -8.519 -35.669  0.00  0.00     0.079 H 
BRANCH  28  31
ATOM     31  O5' GDP d   1     -17.469 -10.390 -35.132  0.00  0.00    -0.287 OA
BRANCH  31  32
ATOM     32  PA  GDP d   1     -16.606  -9.989 -33.831  0.00  0.00     0.418 P 
ATOM     33  O1A GDP d   1     -16.296 -11.295 -33.139  0.00  0.00    -0.624 OA
ATOM     34  O2A GDP d   1     -17.348  -8.917 -33.059  0.00  0.00    -0.624 OA
BRANCH  32  35
ATOM     35  O3A GDP d   1     -15.316  -9.342 -34.540  0.00  0.00    -0.173 OA
BRANCH  35  36
ATOM     36  PB  GDP d   1     -14.127  -8.568 -33.783  0.00  0.00     0.431 P 
ATOM     37  O1B GDP d   1     -14.387  -7.105 -34.025  0.00  0.00    -0.616 OA
ATOM     38  O2B GDP d   1     -12.886  -9.049 -34.498  0.00  0.00    -0.616 OA
ATOM     39  O3B GDP d   1     -14.220  -8.998 -32.342  0.00  0.00    -0.616 OA
ENDBRANCH  35  36
ENDBRANCH  32  35
ENDBRANCH  31  32
ENDBRANCH  28  31
ENDBRANCH   1  28
BRANCH   3  40
ATOM     40  O3' GDP d   1     -21.350 -10.314 -36.690  0.00  0.00    -0.390 OA
ATOM     41  H5  GDP d   1     -22.047 -10.660 -36.145  0.00  0.00     0.210 HD
ENDBRANCH   3  40
TORSDOF 9
