REMARK  4 active torsions:
REMARK  status: ('A' for Active; 'I' for Inactive)
REMARK    1  A    between atoms: C4_4  and  C7_6 
REMARK    2  A    between atoms: C7_6  and  C10_7 
REMARK    3  A    between atoms: C18_12  and  O21_14 
REMARK    4  A    between atoms: O21_14  and  C22_15 
ROOT
ATOM      1  O1  MS0 d   1      13.702  10.709  -0.255  0.00  0.00    -0.321 OA
ATOM      2  C2  MS0 d   1      14.005  10.407  -1.596  0.00  0.00     0.088 A 
ATOM      3  C3  MS0 d   1      15.356  10.332  -1.654  0.00  0.00     0.006 A 
ATOM      4  C4  MS0 d   1      15.830  10.568  -0.394  0.00  0.00    -0.013 A 
ATOM      5  C5  MS0 d   1      14.821  10.767   0.455  0.00  0.00     0.027 A 
ATOM      6  C14 MS0 d   1      15.959  10.081  -2.840  0.00  0.00    -0.067 A 
ATOM      7  C16 MS0 d   1      15.211   9.889  -4.007  0.00  0.00    -0.050 A 
ATOM      8  C18 MS0 d   1      13.823   9.956  -3.935  0.00  0.00     0.070 A 
ATOM      9  C19 MS0 d   1      13.207  10.249  -2.691  0.00  0.00    -0.017 A 
ATOM     10  H1  MS0 d   1      14.900  10.943   1.527  0.00  0.00     0.124 H 
ATOM     11  H4  MS0 d   1      17.041  10.028  -2.886  0.00  0.00     0.085 H 
ATOM     12  H5  MS0 d   1      15.705   9.691  -4.952  0.00  0.00     0.087 H 
ATOM     13  H6  MS0 d   1      12.130  10.345  -2.613  0.00  0.00     0.092 H 
ENDROOT
BRANCH   4  14
ATOM     14  C7  MS0 d   1      17.292  10.482   0.167  0.00  0.00     0.042 C 
ATOM     15  H2  MS0 d   1      17.633   9.450  -0.000  0.00  0.00     0.056 H 
ATOM     16  H3  MS0 d   1      17.226  10.676   1.248  0.00  0.00     0.056 H 
BRANCH  14  17
ATOM     17  C10 MS0 d   1      18.340  11.356  -0.350  0.00  0.00     0.177 C 
ATOM     18  O11 MS0 d   1      19.443  10.784  -0.465  0.00  0.00    -0.648 OA
ATOM     19  O12 MS0 d   1      18.082  12.578  -0.529  0.00  0.00    -0.648 OA
ENDBRANCH  14  17
ENDBRANCH   4  14
BRANCH   8  20
ATOM     20  O21 MS0 d   1      13.103   9.745  -5.077  0.00  0.00    -0.356 OA
BRANCH  20  21
ATOM     21  C22 MS0 d   1      11.675   9.586  -4.855  0.00  0.00     0.010 C 
ATOM     22  H7  MS0 d   1      11.170   9.421  -5.818  0.00  0.00     0.066 H 
ATOM     23  H8  MS0 d   1      11.274  10.495  -4.382  0.00  0.00     0.066 H 
ATOM     24  H9  MS0 d   1      11.500   8.722  -4.197  0.00  0.00     0.066 H 
ENDBRANCH  20  21
ENDBRANCH   8  20
TORSDOF 4
