REMARK  1 active torsions:
REMARK  status: ('A' for Active; 'I' for Inactive)
REMARK    1  A    between atoms: CAI_2  and  CAJ_4 
ROOT
ATOM      1  CAJ 0HN d   1     -14.840  -0.565   2.175  0.00  0.00     0.043 A 
ATOM      2  CAE 0HN d   1     -13.497  -0.963   2.013  0.00  0.00    -0.031 A 
ATOM      3  CAL 0HN d   1     -12.696  -1.219   3.098  0.00  0.00     0.106 A 
ATOM      4  OAH 0HN d   1     -11.387  -1.630   3.116  0.00  0.00    -0.323 OA
ATOM      5  CAF 0HN d   1     -11.033  -1.833   4.540  0.00  0.00     0.115 C 
ATOM      6  OAG 0HN d   1     -12.184  -1.357   5.341  0.00  0.00    -0.323 OA
ATOM      7  CAK 0HN d   1     -13.170  -1.091   4.385  0.00  0.00     0.105 A 
ATOM      8  CAD 0HN d   1     -14.441  -0.687   4.585  0.00  0.00    -0.047 A 
ATOM      9  CAC 0HN d   1     -15.287  -0.421   3.505  0.00  0.00    -0.064 A 
ATOM     10  H1  0HN d   1     -13.090  -1.069   1.014  0.00  0.00     0.089 H 
ATOM     11  H2  0HN d   1     -10.132  -1.255   4.792  0.00  0.00     0.118 H 
ATOM     12  H3  0HN d   1     -10.851  -2.900   4.736  0.00  0.00     0.118 H 
ATOM     13  H4  0HN d   1     -14.811  -0.567   5.597  0.00  0.00     0.087 H 
ATOM     14  H5  0HN d   1     -16.305  -0.098   3.693  0.00  0.00     0.085 H 
ENDROOT
BRANCH   1  15
ATOM     15  CAI 0HN d   1     -15.733  -0.265   1.098  0.00  0.00     0.209 C 
ATOM     16  OAA 0HN d   1     -15.386  -0.344  -0.104  0.00  0.00    -0.644 OA
ATOM     17  OAB 0HN d   1     -16.906   0.157   1.323  0.00  0.00    -0.644 OA
ENDBRANCH   1  15
TORSDOF 1
