REMARK  3 active torsions:
REMARK  status: ('A' for Active; 'I' for Inactive)
REMARK    1  A    between atoms: C13_2  and  C15_3 
REMARK       I    between atoms: C13_2  and  N12_12 
REMARK    2  A    between atoms: N12_12  and  C8_13 
REMARK    3  A    between atoms: C6_18  and  C2_19 
ROOT
ATOM      1  O14 0JB d   1      -9.147  55.414  13.736  0.00  0.00    -0.267 OA
ATOM      2  C13 0JB d   1      -8.748  55.488  12.570  0.00  0.00     0.258 C 
ATOM      3  N12 0JB d   1      -7.661  54.867  12.123  0.00  0.00    -0.323 N 
ATOM      4  H6  0JB d   1      -7.439  54.984  11.155  0.00  0.00     0.169 HD
ENDROOT
BRANCH   3   5
ATOM      5  C8  0JB d   1      -6.792  54.059  12.885  0.00  0.00     0.035 A 
ATOM      6  C7  0JB d   1      -5.448  53.997  12.508  0.00  0.00    -0.043 A 
ATOM      7  C6  0JB d   1      -4.559  53.248  13.273  0.00  0.00     0.017 A 
ATOM      8  H7  0JB d   1      -5.101  54.527  11.628  0.00  0.00     0.088 H 
ATOM      9  C11 0JB d   1      -4.976  52.513  14.384  0.00  0.00    -0.069 A 
ATOM     10  C10 0JB d   1      -6.321  52.566  14.704  0.00  0.00    -0.080 A 
ATOM     11  H10 0JB d   1      -4.277  51.927  14.970  0.00  0.00     0.085 H 
ATOM     12  C9  0JB d   1      -7.252  53.306  13.980  0.00  0.00    -0.057 A 
ATOM     13  H9  0JB d   1      -6.668  52.002  15.563  0.00  0.00     0.083 H 
ATOM     14  H8  0JB d   1      -8.301  53.302  14.252  0.00  0.00     0.086 H 
BRANCH   7  15
ATOM     15  C2  0JB d   1      -3.151  53.212  12.868  0.00  0.00     0.198 A 
ATOM     16  N3  0JB d   1      -2.146  52.887  13.668  0.00  0.00    -0.136 NA
ATOM     17  N4  0JB d   1      -0.998  52.933  12.952  0.00  0.00     0.022 NA
ATOM     18  N5  0JB d   1      -1.292  53.331  11.690  0.00  0.00    -0.200 N 
ATOM     19  N1  0JB d   1      -2.678  53.473  11.637  0.00  0.00    -0.139 NA
ATOM     20  H11 0JB d   1      -0.625  53.496  10.923  0.00  0.00     0.208 HD
ENDBRANCH   7  15
ENDBRANCH   3   5
BRANCH   2  21
ATOM     21  C15 0JB d   1      -9.475  56.348  11.594  0.00  0.00     0.061 A 
ATOM     22  C20 0JB d   1      -9.139  56.371  10.241  0.00  0.00     0.078 A 
ATOM     23  N21 0JB d   1      -8.237  55.664   9.473  0.00  0.00    -0.348 N 
ATOM     24  C19 0JB d   1      -9.857  57.229   9.373  0.00  0.00     0.085 A 
ATOM     25  C22 0JB d   1      -8.369  56.106   8.213  0.00  0.00     0.065 A 
ATOM     26  H1  0JB d   1      -7.587  54.937   9.803  0.00  0.00     0.167 HD
ATOM     27  N23 0JB d   1      -9.372  57.008   8.121  0.00  0.00    -0.242 NA
ATOM     28  H2  0JB d   1      -7.751  55.782   7.377  0.00  0.00     0.143 H 
ATOM     29  C18 0JB d   1     -10.860  58.070   9.860  0.00  0.00    -0.053 A 
ATOM     30  C17 0JB d   1     -11.152  58.024  11.223  0.00  0.00    -0.080 A 
ATOM     31  H3  0JB d   1     -11.396  58.740   9.197  0.00  0.00     0.087 H 
ATOM     32  C16 0JB d   1     -10.463  57.186  12.065  0.00  0.00    -0.065 A 
ATOM     33  H4  0JB d   1     -11.934  58.659  11.623  0.00  0.00     0.083 H 
ATOM     34  H5  0JB d   1     -10.701  57.184  13.123  0.00  0.00     0.085 H 
ENDBRANCH   2  21
TORSDOF 3
