REMARK  1 active torsions:
REMARK  status: ('A' for Active; 'I' for Inactive)
REMARK    1  A    between atoms: CAJ_2  and  CAM_4 
ROOT
ATOM      1  CAM 0JD d   1      15.058  10.704   4.343  0.00  0.00     0.149 C 
ATOM      2  OAI 0JD d   1      14.259  11.170   5.444  0.00  0.00    -0.330 OA
ATOM      3  CAL 0JD d   1      14.076  10.199   6.382  0.00  0.00     0.103 A 
ATOM      4  CAF 0JD d   1      13.825  10.526   7.717  0.00  0.00    -0.048 A 
ATOM      5  CAD 0JD d   1      13.627   9.536   8.671  0.00  0.00    -0.080 A 
ATOM      6  CAC 0JD d   1      13.689   8.221   8.231  0.00  0.00    -0.080 A 
ATOM      7  CAE 0JD d   1      13.911   7.869   6.906  0.00  0.00    -0.048 A 
ATOM      8  CAK 0JD d   1      14.107   8.865   5.965  0.00  0.00     0.102 A 
ATOM      9  OAH 0JD d   1      14.343   8.564   4.636  0.00  0.00    -0.345 OA
ATOM     10  CAG 0JD d   1      14.256   9.631   3.700  0.00  0.00     0.060 C 
ATOM     11  H1  0JD d   1      16.003  10.290   4.724  0.00  0.00     0.104 H 
ATOM     12  H2  0JD d   1      13.784  11.568   8.013  0.00  0.00     0.087 H 
ATOM     13  H3  0JD d   1      13.433   9.779   9.710  0.00  0.00     0.083 H 
ATOM     14  H4  0JD d   1      13.557   7.428   8.959  0.00  0.00     0.083 H 
ATOM     15  H5  0JD d   1      13.931   6.826   6.612  0.00  0.00     0.087 H 
ATOM     16  H6  0JD d   1      14.687   9.342   2.730  0.00  0.00     0.080 H 
ATOM     17  H7  0JD d   1      13.212   9.948   3.558  0.00  0.00     0.080 H 
ENDROOT
BRANCH   1  18
ATOM     18  CAJ 0JD d   1      15.380  11.806   3.339  0.00  0.00     0.205 C 
ATOM     19  OAA 0JD d   1      15.228  12.971   3.694  0.00  0.00    -0.646 OA
ATOM     20  OAB 0JD d   1      15.823  11.445   2.232  0.00  0.00    -0.646 OA
ENDBRANCH   1  18
TORSDOF 1
