REMARK  4 active torsions:
REMARK  status: ('A' for Active; 'I' for Inactive)
REMARK    1  A    between atoms: C1_1  and  C2_2 
REMARK    2  A    between atoms: C2_2  and  O1P_6 
REMARK    3  A    between atoms: N2_3  and  O2_4 
REMARK    4  A    between atoms: O1P_6  and  P_10 
ROOT
ATOM      1  C2  PGH d   1       7.724  41.543  21.230  0.00  0.00     0.095 C 
ATOM      2  H1  PGH d   1       7.566  42.619  21.063  0.00  0.00     0.088 H 
ATOM      3  H2  PGH d   1       6.769  41.070  21.504  0.00  0.00     0.088 H 
ENDROOT
BRANCH   1   4
ATOM      4  C1  PGH d   1       8.711  41.350  22.335  0.00  0.00     0.199 C 
ATOM      5  N2  PGH d   1       9.029  42.360  23.114  0.00  0.00    -0.247 N 
ATOM      6  H3  PGH d   1       8.627  43.264  22.967  0.00  0.00     0.196 HD
ATOM      7  O1  PGH d   1       9.265  40.101  22.508  0.00  0.00    -0.173 OA
BRANCH   5   8
ATOM      8  O2  PGH d   1       9.923  42.149  24.133  0.00  0.00    -0.288 OA
ATOM      9  H4  PGH d   1      10.056  42.960  24.609  0.00  0.00     0.244 HD
ENDBRANCH   5   8
ENDBRANCH   1   4
BRANCH   1  10
ATOM     10  O1P PGH d   1       8.223  40.949  20.044  0.00  0.00    -0.275 OA
BRANCH  10  11
ATOM     11  P   PGH d   1       7.460  41.311  18.662  0.00  0.00     0.422 P 
ATOM     12  O2P PGH d   1       7.949  40.391  17.573  0.00  0.00    -0.617 OA
ATOM     13  O3P PGH d   1       5.991  41.072  18.918  0.00  0.00    -0.617 OA
ATOM     14  O4P PGH d   1       7.751  42.772  18.354  0.00  0.00    -0.617 OA
ENDBRANCH  10  11
ENDBRANCH   1  10
TORSDOF 4
