REMARK  4 active torsions:
REMARK  status: ('A' for Active; 'I' for Inactive)
REMARK    1  A    between atoms: CAM_3  and  OAB_4 
REMARK    2  A    between atoms: CAP_7  and  CAQ_8 
REMARK    3  A    between atoms: CAN_16  and  OAC_17 
REMARK    4  A    between atoms: CAO_19  and  OAD_20 
ROOT
ATOM      1  CAQ AGI d   1      21.514  42.533  38.255  0.00  0.00     0.090 A 
ATOM      2  OAL AGI d   1      22.504  43.128  37.566  0.00  0.00    -0.309 OA
ATOM      3  CAJ AGI d   1      20.475  41.878  37.631  0.00  0.00    -0.000 A 
ATOM      4  CAR AGI d   1      20.437  41.781  36.274  0.00  0.00     0.190 A 
ATOM      5  OAA AGI d   1      19.517  41.178  35.726  0.00  0.00    -0.287 OA
ATOM      6  CAT AGI d   1      21.416  42.424  35.570  0.00  0.00     0.081 A 
ATOM      7  CAS AGI d   1      22.416  43.094  36.233  0.00  0.00     0.095 A 
ATOM      8  CAK AGI d   1      23.389  43.761  35.538  0.00  0.00    -0.017 A 
ATOM      9  CAN AGI d   1      23.335  43.741  34.165  0.00  0.00     0.071 A 
ATOM     10  CAI AGI d   1      22.328  43.068  33.492  0.00  0.00    -0.018 A 
ATOM     11  CAO AGI d   1      21.364  42.410  34.205  0.00  0.00     0.085 A 
ATOM     12  H6  AGI d   1      19.679  41.435  38.227  0.00  0.00     0.094 H 
ATOM     13  H7  AGI d   1      24.180  44.290  36.057  0.00  0.00     0.092 H 
ATOM     14  H9  AGI d   1      22.304  43.063  32.408  0.00  0.00     0.092 H 
ENDROOT
BRANCH   1  15
ATOM     15  CAP AGI d   1      21.535  42.559  39.612  0.00  0.00    -0.002 A 
ATOM     16  CAG AGI d   1      21.333  43.748  40.284  0.00  0.00    -0.068 A 
ATOM     17  CAE AGI d   1      21.353  43.755  41.636  0.00  0.00    -0.050 A 
ATOM     18  H1  AGI d   1      21.160  44.666  39.734  0.00  0.00     0.085 H 
ATOM     19  CAM AGI d   1      21.566  42.564  42.296  0.00  0.00     0.065 A 
ATOM     20  H2  AGI d   1      21.205  44.676  42.188  0.00  0.00     0.087 H 
ATOM     21  CAF AGI d   1      21.763  41.371  41.638  0.00  0.00    -0.050 A 
ATOM     22  CAH AGI d   1      21.748  41.374  40.287  0.00  0.00    -0.068 A 
ATOM     23  H4  AGI d   1      21.926  40.452  42.190  0.00  0.00     0.087 H 
ATOM     24  H5  AGI d   1      21.902  40.453  39.737  0.00  0.00     0.085 H 
BRANCH  19  25
ATOM     25  OAB AGI d   1      21.583  42.564  43.622  0.00  0.00    -0.361 OA
ATOM     26  H3  AGI d   1      20.746  42.874  43.948  0.00  0.00     0.217 HD
ENDBRANCH  19  25
ENDBRANCH   1  15
BRANCH  11  27
ATOM     27  OAD AGI d   1      20.359  41.739  33.618  0.00  0.00    -0.360 OA
ATOM     28  H10 AGI d   1      19.802  41.356  34.286  0.00  0.00     0.217 HD
ENDBRANCH  11  27
BRANCH   9  29
ATOM     29  OAC AGI d   1      24.298  44.376  33.514  0.00  0.00    -0.361 OA
ATOM     30  H8  AGI d   1      24.154  44.293  32.579  0.00  0.00     0.217 HD
ENDBRANCH   9  29
TORSDOF 4
