REMARK  3 active torsions:
REMARK  status: ('A' for Active; 'I' for Inactive)
REMARK    1  A    between atoms: C1'_19  and  C2_1 
REMARK    2  A    between atoms: C6_5  and  O5_12 
REMARK    3  A    between atoms: C8_7  and  O7_13 
ROOT
ATOM      1  C2  57D d   1      21.884   0.156  -7.238  0.00  0.00     0.090 A 
ATOM      2  C3  57D d   1      22.966  -0.712  -7.151  0.00  0.00    -0.000 A 
ATOM      3  C4  57D d   1      23.346  -1.215  -5.919  0.00  0.00     0.190 A 
ATOM      4  C5  57D d   1      22.629  -0.835  -4.797  0.00  0.00     0.081 A 
ATOM      5  C6  57D d   1      22.989  -1.326  -3.547  0.00  0.00     0.085 A 
ATOM      6  C7  57D d   1      22.273  -0.947  -2.418  0.00  0.00    -0.018 A 
ATOM      7  C8  57D d   1      21.196  -0.078  -2.543  0.00  0.00     0.071 A 
ATOM      8  C9  57D d   1      20.839   0.411  -3.794  0.00  0.00    -0.017 A 
ATOM      9  C10 57D d   1      21.552   0.036  -4.927  0.00  0.00     0.095 A 
ATOM     10  O1  57D d   1      21.168   0.539  -6.138  0.00  0.00    -0.309 OA
ATOM     11  O4  57D d   1      24.301  -1.984  -5.823  0.00  0.00    -0.287 OA
ATOM     12  H1  57D d   1      23.513  -0.995  -8.049  0.00  0.00     0.094 H 
ATOM     13  H2  57D d   1      22.554  -1.328  -1.443  0.00  0.00     0.092 H 
ATOM     14  H3  57D d   1      19.999   1.089  -3.887  0.00  0.00     0.092 H 
ENDROOT
BRANCH   1  15
ATOM     15  C1' 57D d   1      21.517   0.651  -8.484  0.00  0.00    -0.002 A 
ATOM     16  C2' 57D d   1      21.297   2.013  -8.653  0.00  0.00    -0.070 A 
ATOM     17  C3' 57D d   1      20.930   2.508  -9.899  0.00  0.00    -0.082 A 
ATOM     18  H6  57D d   1      21.412   2.689  -7.813  0.00  0.00     0.084 H 
ATOM     19  C4' 57D d   1      20.782   1.641 -10.976  0.00  0.00    -0.083 A 
ATOM     20  H7  57D d   1      20.759   3.570 -10.031  0.00  0.00     0.083 H 
ATOM     21  C5' 57D d   1      21.002   0.279 -10.806  0.00  0.00    -0.082 A 
ATOM     22  H8  57D d   1      20.495   2.027 -11.947  0.00  0.00     0.083 H 
ATOM     23  C6' 57D d   1      21.369  -0.216  -9.560  0.00  0.00    -0.070 A 
ATOM     24  H9  57D d   1      20.887  -0.397 -11.645  0.00  0.00     0.083 H 
ATOM     25  H10 57D d   1      21.540  -1.278  -9.428  0.00  0.00     0.084 H 
ENDBRANCH   1  15
BRANCH   5  26
ATOM     26  O5  57D d   1      24.044  -2.176  -3.429  0.00  0.00    -0.360 OA
ATOM     27  H4  57D d   1      24.421  -2.332  -4.287  0.00  0.00     0.217 HD
ENDBRANCH   5  26
BRANCH   7  28
ATOM     28  O7  57D d   1      20.492   0.295  -1.440  0.00  0.00    -0.361 OA
ATOM     29  H5  57D d   1      20.863  -0.125  -0.672  0.00  0.00     0.217 HD
ENDBRANCH   7  28
TORSDOF 3
