REMARK  5 active torsions:
REMARK  status: ('A' for Active; 'I' for Inactive)
REMARK    1  A    between atoms: C2_2  and  O6_21 
REMARK    2  A    between atoms: C6_6  and  O5_20 
REMARK    3  A    between atoms: C8_8  and  O4_19 
REMARK    4  A    between atoms: C9_9  and  C10_10 
REMARK    5  A    between atoms: C13_13  and  O3_18 
ROOT
ATOM      1  C1  KMP d   1      20.259   0.885  -0.934  0.00  0.00    -0.018 A 
ATOM      2  C2  KMP d   1      21.355   0.191  -1.357  0.00  0.00     0.085 A 
ATOM      3  C3  KMP d   1      21.575   0.029  -2.689  0.00  0.00     0.084 A 
ATOM      4  C4  KMP d   1      20.717   0.564  -3.584  0.00  0.00     0.096 A 
ATOM      5  C5  KMP d   1      19.611   1.241  -3.202  0.00  0.00    -0.017 A 
ATOM      6  C6  KMP d   1      19.382   1.400  -1.878  0.00  0.00     0.071 A 
ATOM      7  C7  KMP d   1      22.668  -0.648  -3.096  0.00  0.00     0.223 A 
ATOM      8  C8  KMP d   1      22.852  -0.697  -4.432  0.00  0.00     0.152 A 
ATOM      9  C9  KMP d   1      21.918  -0.137  -5.294  0.00  0.00     0.123 A 
ATOM     10  O1  KMP d   1      20.842   0.448  -4.866  0.00  0.00    -0.306 OA
ATOM     11  O2  KMP d   1      23.496  -1.117  -2.315  0.00  0.00    -0.284 OA
ATOM     12  H1  KMP d   1      20.076   1.032   0.124  0.00  0.00     0.092 H 
ATOM     13  H2  KMP d   1      18.925   1.646  -3.937  0.00  0.00     0.092 H 
ENDROOT
BRANCH   9  14
ATOM     14  C10 KMP d   1      21.884  -0.120  -6.662  0.00  0.00     0.001 A 
ATOM     15  C11 KMP d   1      21.421  -1.206  -7.366  0.00  0.00    -0.068 A 
ATOM     16  C12 KMP d   1      21.353  -1.157  -8.713  0.00  0.00    -0.050 A 
ATOM     17  H3  KMP d   1      21.111  -2.101  -6.840  0.00  0.00     0.085 H 
ATOM     18  C13 KMP d   1      21.676  -0.011  -9.352  0.00  0.00     0.065 A 
ATOM     19  H4  KMP d   1      21.042  -2.029  -9.277  0.00  0.00     0.087 H 
ATOM     20  C14 KMP d   1      22.072   1.090  -8.678  0.00  0.00    -0.050 A 
ATOM     21  C15 KMP d   1      22.169   1.041  -7.331  0.00  0.00    -0.068 A 
ATOM     22  H5  KMP d   1      22.309   2.003  -9.212  0.00  0.00     0.087 H 
ATOM     23  H6  KMP d   1      22.473   1.923  -6.779  0.00  0.00     0.085 H 
BRANCH  18  24
ATOM     24  O3  KMP d   1      21.601   0.030 -10.657  0.00  0.00    -0.361 OA
ATOM     25  H7  KMP d   1      20.981   0.702 -10.916  0.00  0.00     0.217 HD
ENDBRANCH  18  24
ENDBRANCH   9  14
BRANCH   8  26
ATOM     26  O4  KMP d   1      23.936  -1.348  -4.807  0.00  0.00    -0.355 OA
ATOM     27  H8  KMP d   1      24.414  -1.634  -4.038  0.00  0.00     0.218 HD
ENDBRANCH   8  26
BRANCH   2  28
ATOM     28  O6  KMP d   1      22.228  -0.343  -0.553  0.00  0.00    -0.360 OA
ATOM     29  H10 KMP d   1      23.084   0.033  -0.722  0.00  0.00     0.217 HD
ENDBRANCH   2  28
BRANCH   6  30
ATOM     30  O5  KMP d   1      18.289   2.074  -1.551  0.00  0.00    -0.361 OA
ATOM     31  H9  KMP d   1      18.223   2.128  -0.605  0.00  0.00     0.217 HD
ENDBRANCH   6  30
TORSDOF 5
