REMARK  4 active torsions:
REMARK  status: ('A' for Active; 'I' for Inactive)
REMARK    1  A    between atoms: C2_2  and  O4_19 
REMARK    2  A    between atoms: C4_4  and  O5_20 
REMARK    3  A    between atoms: C9_9  and  C10_12 
REMARK    4  A    between atoms: C13_15  and  O3_18 
ROOT
ATOM      1  C1  NAR d   1      20.843  41.985  37.605  0.00  0.00    -0.018 A 
ATOM      2  C2  NAR d   1      20.942  42.005  36.272  0.00  0.00     0.071 A 
ATOM      3  C3  NAR d   1      21.986  42.628  35.650  0.00  0.00    -0.018 A 
ATOM      4  C4  NAR d   1      22.951  43.238  36.408  0.00  0.00     0.085 A 
ATOM      5  C5  NAR d   1      22.885  43.227  37.744  0.00  0.00     0.076 A 
ATOM      6  C6  NAR d   1      21.825  42.593  38.344  0.00  0.00     0.089 A 
ATOM      7  C7  NAR d   1      23.844  43.772  38.606  0.00  0.00     0.167 C 
ATOM      8  C8  NAR d   1      23.788  43.348  40.074  0.00  0.00     0.024 C 
ATOM      9  C9  NAR d   1      22.797  42.141  40.175  0.00  0.00     0.077 C 
ATOM     10  O1  NAR d   1      21.715  42.600  39.661  0.00  0.00    -0.340 OA
ATOM     11  O2  NAR d   1      24.788  44.460  38.256  0.00  0.00    -0.292 OA
ATOM     12  H1  NAR d   1      20.005  41.499  38.091  0.00  0.00     0.092 H 
ATOM     13  H2  NAR d   1      22.051  42.640  34.568  0.00  0.00     0.092 H 
ATOM     14  H3  NAR d   1      23.428  44.183  40.693  0.00  0.00     0.049 H 
ATOM     15  H4  NAR d   1      24.788  43.043  40.416  0.00  0.00     0.049 H 
ATOM     16  H5  NAR d   1      23.223  41.282  39.636  0.00  0.00     0.092 H 
ENDROOT
BRANCH   9  17
ATOM     17  C10 NAR d   1      22.200  41.680  41.516  0.00  0.00    -0.028 A 
ATOM     18  C11 NAR d   1      21.722  42.614  42.356  0.00  0.00    -0.072 A 
ATOM     19  C12 NAR d   1      21.160  42.121  43.531  0.00  0.00    -0.050 A 
ATOM     20  H6  NAR d   1      21.770  43.674  42.135  0.00  0.00     0.084 H 
ATOM     21  C13 NAR d   1      21.004  40.772  43.851  0.00  0.00     0.065 A 
ATOM     22  H7  NAR d   1      20.815  42.847  44.258  0.00  0.00     0.087 H 
ATOM     23  C14 NAR d   1      21.452  39.778  43.022  0.00  0.00    -0.050 A 
ATOM     24  C15 NAR d   1      22.031  40.173  41.799  0.00  0.00    -0.072 A 
ATOM     25  H8  NAR d   1      21.365  38.733  43.295  0.00  0.00     0.087 H 
ATOM     26  H9  NAR d   1      22.351  39.434  41.073  0.00  0.00     0.084 H 
BRANCH  21  27
ATOM     27  O3  NAR d   1      20.431  40.482  45.025  0.00  0.00    -0.361 OA
ATOM     28  H10 NAR d   1      19.657  39.951  44.876  0.00  0.00     0.217 HD
ENDBRANCH  21  27
ENDBRANCH   9  17
BRANCH   4  29
ATOM     29  O5  NAR d   1      23.976  43.855  35.840  0.00  0.00    -0.360 OA
ATOM     30  H12 NAR d   1      24.786  43.448  36.124  0.00  0.00     0.217 HD
ENDBRANCH   4  29
BRANCH   2  31
ATOM     31  O4  NAR d   1      19.981  41.397  35.576  0.00  0.00    -0.361 OA
ATOM     32  H11 NAR d   1      19.345  41.024  36.175  0.00  0.00     0.217 HD
ENDBRANCH   2  31
TORSDOF 4
