REMARK  5 active torsions:
REMARK  status: ('A' for Active; 'I' for Inactive)
REMARK    1  A    between atoms: C18_8  and  O19_20 
REMARK    2  A    between atoms: C1_9  and  O20_21 
REMARK    3  A    between atoms: C9_10  and  C10_12 
REMARK    4  A    between atoms: O19_20  and  C22_15 
REMARK    5  A    between atoms: O20_21  and  C21_16 
ROOT
ATOM      1  C17 0JP d   1       7.661  38.334  56.997  0.00  0.00    -0.035 A 
ATOM      2  C2  0JP d   1       8.575  38.472  59.652  0.00  0.00    -0.041 A 
ATOM      3  C7  0JP d   1      10.944  41.491  55.705  0.00  0.00     0.067 A 
ATOM      4  C16 0JP d   1       8.813  39.078  57.308  0.00  0.00     0.002 A 
ATOM      5  C3  0JP d   1       9.265  39.138  58.657  0.00  0.00    -0.041 A 
ATOM      6  C18 0JP d   1       6.928  37.680  57.997  0.00  0.00     0.102 A 
ATOM      7  C1  0JP d   1       7.387  37.736  59.326  0.00  0.00     0.102 A 
ATOM      8  C9  0JP d   1       9.820  39.873  54.918  0.00  0.00     0.104 A 
ATOM      9  C15 0JP d   1       9.570  39.829  56.297  0.00  0.00     0.076 A 
ATOM     10  C4  0JP d   1      10.467  39.981  59.002  0.00  0.00    -0.025 C 
ATOM     11  C5  0JP d   1      10.341  41.274  58.186  0.00  0.00     0.005 C 
ATOM     12  N8  0JP d   1      10.692  40.891  54.590  0.00  0.00    -0.240 NA
ATOM     13  N6  0JP d   1      10.305  40.894  56.758  0.00  0.00    -0.339 N 
ATOM     14  H1  0JP d   1       7.334  38.265  55.966  0.00  0.00     0.089 H 
ATOM     15  H2  0JP d   1       8.930  38.505  60.676  0.00  0.00     0.088 H 
ATOM     16  H4  0JP d   1      11.587  42.365  55.797  0.00  0.00     0.143 H 
ATOM     17  H6  0JP d   1      11.393  39.451  58.733  0.00  0.00     0.042 H 
ATOM     18  H7  0JP d   1      10.475  40.210  60.078  0.00  0.00     0.042 H 
ATOM     19  H8  0JP d   1      11.205  41.926  58.380  0.00  0.00     0.065 H 
ATOM     20  H9  0JP d   1       9.415  41.801  58.458  0.00  0.00     0.065 H 
ENDROOT
BRANCH   8  21
ATOM     21  C10 0JP d   1       9.402  38.992  53.824  0.00  0.00     0.054 A 
ATOM     22  C11 0JP d   1       9.086  37.661  53.935  0.00  0.00     0.021 A 
ATOM     23  N12 0JP d   1       8.741  36.994  52.765  0.00  0.00    -0.265 NA
ATOM     24  H3  0JP d   1       9.105  37.150  54.897  0.00  0.00     0.117 H 
ATOM     25  C13 0JP d   1       8.825  37.876  51.752  0.00  0.00     0.040 A 
ATOM     26  S14 0JP d   1       9.329  39.486  52.166  0.00  0.00    -0.079 SA
ATOM     27  H5  0JP d   1       8.589  37.595  50.727  0.00  0.00     0.126 H 
ENDBRANCH   8  21
BRANCH   6  28
ATOM     28  O19 0JP d   1       5.796  36.890  57.812  0.00  0.00    -0.353 OA
BRANCH  28  29
ATOM     29  C22 0JP d   1       5.143  36.783  56.540  0.00  0.00     0.010 C 
ATOM     30  H10 0JP d   1       4.277  36.110  56.628  0.00  0.00     0.066 H 
ATOM     31  H11 0JP d   1       5.848  36.379  55.799  0.00  0.00     0.066 H 
ATOM     32  H12 0JP d   1       4.803  37.778  56.218  0.00  0.00     0.066 H 
ENDBRANCH  28  29
ENDBRANCH   6  28
BRANCH   7  33
ATOM     33  O20 0JP d   1       6.622  36.973  60.166  0.00  0.00    -0.353 OA
BRANCH  33  34
ATOM     34  C21 0JP d   1       6.764  36.999  61.596  0.00  0.00     0.010 C 
ATOM     35  H13 0JP d   1       6.042  36.304  62.049  0.00  0.00     0.066 H 
ATOM     36  H14 0JP d   1       6.573  38.017  61.965  0.00  0.00     0.066 H 
ATOM     37  H15 0JP d   1       7.786  36.696  61.869  0.00  0.00     0.066 H 
ENDBRANCH  33  34
ENDBRANCH   7  33
TORSDOF 5
