REMARK  20 active torsions:
REMARK  status: ('A' for Active; 'I' for Inactive)
REMARK    1  A    between atoms: O39_1  and  C40_2 
REMARK    2  A    between atoms: C2_3  and  O39_1 
REMARK    3  A    between atoms: S8_9  and  C5_6 
REMARK    4  A    between atoms: N11_12  and  S8_9 
REMARK    5  A    between atoms: N11_12  and  C12_13 
REMARK    6  A    between atoms: C16_17  and  N11_12 
REMARK    7  A    between atoms: C12_13  and  C13_14 
REMARK    8  A    between atoms: C13_14  and  C14_15 
REMARK    9  A    between atoms: C13_14  and  C15_16 
REMARK   10  A    between atoms: C17_18  and  C16_17 
REMARK   11  A    between atoms: C17_18  and  O18_19 
REMARK   12  A    between atoms: C19_20  and  C17_18 
REMARK   13  A    between atoms: C19_20  and  N20_21 
REMARK   14  A    between atoms: C32_38  and  C19_20 
REMARK       I    between atoms: N20_21  and  C21_22 
REMARK   15  A    between atoms: C21_22  and  O23_24 
REMARK   16  A    between atoms: O23_24  and  C24_25 
REMARK   17  A    between atoms: C29_30  and  N41_33 
REMARK       I    between atoms: N41_33  and  C42_34 
REMARK   18  A    between atoms: C42_34  and  O44_36 
REMARK   19  A    between atoms: O44_36  and  C45_37 
REMARK   20  A    between atoms: C38_44  and  C32_38 
ROOT
ATOM      1  C19 0JV d   1      15.081  22.917  17.077  0.00  0.00     0.044 C 
ATOM      2  H21 0JV d   1      16.005  22.397  16.783  0.00  0.00     0.077 H 
ENDROOT
BRANCH   1   3
ATOM      3  C17 0JV d   1      15.473  24.046  18.027  0.00  0.00     0.071 C 
ATOM      4  H19 0JV d   1      15.844  23.569  18.946  0.00  0.00     0.088 H 
BRANCH   3   5
ATOM      5  C16 0JV d   1      16.616  24.950  17.544  0.00  0.00     0.031 C 
ATOM      6  H17 0JV d   1      16.387  25.303  16.528  0.00  0.00     0.069 H 
ATOM      7  H18 0JV d   1      16.700  25.812  18.222  0.00  0.00     0.069 H 
BRANCH   5   8
ATOM      8  N11 0JV d   1      17.886  24.242  17.522  0.00  0.00    -0.304 N 
BRANCH   8   9
ATOM      9  S8  0JV d   1      18.585  23.956  16.053  0.00  0.00     0.260 S 
ATOM     10  O9  0JV d   1      17.487  23.893  15.068  0.00  0.00    -0.200 OA
ATOM     11  O10 0JV d   1      19.412  22.742  16.223  0.00  0.00    -0.200 OA
BRANCH   9  12
ATOM     12  C5  0JV d   1      19.577  25.348  15.658  0.00  0.00     0.079 A 
ATOM     13  C4  0JV d   1      18.984  26.489  15.143  0.00  0.00    -0.058 A 
ATOM     14  C3  0JV d   1      19.756  27.588  14.829  0.00  0.00    -0.049 A 
ATOM     15  H5  0JV d   1      17.912  26.518  14.986  0.00  0.00     0.086 H 
ATOM     16  C2  0JV d   1      21.129  27.588  15.017  0.00  0.00     0.068 A 
ATOM     17  H4  0JV d   1      19.277  28.473  14.425  0.00  0.00     0.087 H 
ATOM     18  C7  0JV d   1      21.755  26.453  15.534  0.00  0.00    -0.049 A 
ATOM     19  C6  0JV d   1      20.939  25.378  15.833  0.00  0.00    -0.058 A 
ATOM     20  H7  0JV d   1      22.827  26.416  15.693  0.00  0.00     0.087 H 
ATOM     21  H6  0JV d   1      21.411  24.490  16.237  0.00  0.00     0.086 H 
BRANCH  16  22
ATOM     22  O39 0JV d   1      21.739  28.737  14.662  0.00  0.00    -0.356 OA
BRANCH  22  23
ATOM     23  C40 0JV d   1      23.127  28.695  14.951  0.00  0.00     0.010 C 
ATOM     24  H1  0JV d   1      23.593  29.645  14.650  0.00  0.00     0.066 H 
ATOM     25  H2  0JV d   1      23.592  27.867  14.397  0.00  0.00     0.066 H 
ATOM     26  H3  0JV d   1      23.272  28.541  16.030  0.00  0.00     0.066 H 
ENDBRANCH  22  23
ENDBRANCH  16  22
ENDBRANCH   9  12
ENDBRANCH   8   9
BRANCH   8  27
ATOM     27  C12 0JV d   1      18.814  24.556  18.589  0.00  0.00     0.008 C 
ATOM     28  H8  0JV d   1      18.764  25.636  18.792  0.00  0.00     0.066 H 
ATOM     29  H9  0JV d   1      19.830  24.291  18.261  0.00  0.00     0.066 H 
BRANCH  27  30
ATOM     30  C13 0JV d   1      18.506  23.799  19.887  0.00  0.00    -0.045 C 
ATOM     31  H10 0JV d   1      17.478  24.035  20.200  0.00  0.00     0.041 H 
BRANCH  30  32
ATOM     32  C14 0JV d   1      18.634  22.274  19.726  0.00  0.00    -0.072 C 
ATOM     33  H11 0JV d   1      18.403  21.784  20.683  0.00  0.00     0.028 H 
ATOM     34  H12 0JV d   1      19.661  22.022  19.423  0.00  0.00     0.028 H 
ATOM     35  H13 0JV d   1      17.929  21.926  18.956  0.00  0.00     0.028 H 
ENDBRANCH  30  32
BRANCH  30  36
ATOM     36  C15 0JV d   1      19.496  24.277  20.967  0.00  0.00    -0.072 C 
ATOM     37  H14 0JV d   1      19.410  25.367  21.087  0.00  0.00     0.028 H 
ATOM     38  H15 0JV d   1      20.522  24.022  20.663  0.00  0.00     0.028 H 
ATOM     39  H16 0JV d   1      19.263  23.783  21.922  0.00  0.00     0.028 H 
ENDBRANCH  30  36
ENDBRANCH  27  30
ENDBRANCH   8  27
ENDBRANCH   5   8
ENDBRANCH   3   5
BRANCH   3  40
ATOM     40  O18 0JV d   1      14.282  24.756  18.377  0.00  0.00    -0.392 OA
ATOM     41  H20 0JV d   1      13.964  25.232  17.619  0.00  0.00     0.210 HD
ENDBRANCH   3  40
ENDBRANCH   1   3
BRANCH   1  42
ATOM     42  N20 0JV d   1      14.230  21.955  17.762  0.00  0.00    -0.329 N 
ATOM     43  C21 0JV d   1      14.471  20.668  18.008  0.00  0.00     0.361 C 
ATOM     44  O22 0JV d   1      15.570  20.149  17.755  0.00  0.00    -0.238 OA
ATOM     45  H22 0JV d   1      13.352  22.305  18.090  0.00  0.00     0.165 HD
BRANCH  43  46
ATOM     46  O23 0JV d   1      13.419  20.009  18.584  0.00  0.00    -0.299 OA
BRANCH  46  47
ATOM     47  C24 0JV d   1      13.736  18.614  18.867  0.00  0.00     0.052 C 
ATOM     48  C25 0JV d   1      12.644  18.182  19.860  0.00  0.00    -0.016 C 
ATOM     49  C26 0JV d   1      11.407  17.842  19.039  0.00  0.00     0.046 C 
ATOM     50  H24 0JV d   1      12.421  19.003  20.557  0.00  0.00     0.040 H 
ATOM     51  H25 0JV d   1      12.976  17.299  20.427  0.00  0.00     0.040 H 
ATOM     52  O27 0JV d   1      10.700  19.005  18.632  0.00  0.00    -0.383 OA
ATOM     53  C30 0JV d   1      11.965  17.237  17.778  0.00  0.00    -0.005 C 
ATOM     54  H26 0JV d   1      10.745  17.151  19.582  0.00  0.00     0.084 H 
ATOM     55  C28 0JV d   1      10.577  19.064  17.213  0.00  0.00     0.039 C 
ATOM     56  C29 0JV d   1      10.930  17.664  16.733  0.00  0.00     0.041 C 
ATOM     57  H27 0JV d   1      11.274  19.804  16.794  0.00  0.00     0.077 H 
ATOM     58  H28 0JV d   1       9.548  19.325  16.924  0.00  0.00     0.077 H 
ATOM     59  H29 0JV d   1      10.036  17.025  16.790  0.00  0.00     0.076 H 
ATOM     60  C31 0JV d   1      13.381  17.773  17.637  0.00  0.00    -0.033 C 
ATOM     61  H30 0JV d   1      12.005  16.139  17.830  0.00  0.00     0.047 H 
ATOM     62  H31 0JV d   1      14.084  16.931  17.553  0.00  0.00     0.037 H 
ATOM     63  H32 0JV d   1      13.448  18.398  16.734  0.00  0.00     0.037 H 
ATOM     64  H23 0JV d   1      14.766  18.466  19.222  0.00  0.00     0.084 H 
BRANCH  56  65
ATOM     65  N41 0JV d   1      11.470  17.539  15.392  0.00  0.00    -0.330 N 
ATOM     66  C42 0JV d   1      10.765  17.805  14.276  0.00  0.00     0.360 C 
ATOM     67  O43 0JV d   1       9.639  18.335  14.255  0.00  0.00    -0.239 OA
ATOM     68  H33 0JV d   1      12.418  17.239  15.291  0.00  0.00     0.165 HD
BRANCH  66  69
ATOM     69  O44 0JV d   1      11.270  17.562  13.032  0.00  0.00    -0.309 OA
BRANCH  69  70
ATOM     70  C45 0JV d   1      10.247  17.835  12.045  0.00  0.00     0.015 C 
ATOM     71  H34 0JV d   1      10.647  17.641  11.039  0.00  0.00     0.067 H 
ATOM     72  H35 0JV d   1       9.937  18.888  12.120  0.00  0.00     0.067 H 
ATOM     73  H36 0JV d   1       9.379  17.183  12.226  0.00  0.00     0.067 H 
ENDBRANCH  69  70
ENDBRANCH  66  69
ENDBRANCH  56  65
ENDBRANCH  46  47
ENDBRANCH  43  46
ENDBRANCH   1  42
BRANCH   1  74
ATOM     74  C32 0JV d   1      14.422  23.434  15.792  0.00  0.00    -0.020 C 
ATOM     75  H37 0JV d   1      15.103  24.126  15.275  0.00  0.00     0.043 H 
ATOM     76  H38 0JV d   1      13.485  23.956  16.036  0.00  0.00     0.043 H 
BRANCH  74  77
ATOM     77  C38 0JV d   1      14.126  22.222  14.891  0.00  0.00    -0.056 A 
ATOM     78  C33 0JV d   1      12.829  21.717  14.871  0.00  0.00    -0.077 A 
ATOM     79  C34 0JV d   1      12.492  20.626  14.080  0.00  0.00    -0.082 A 
ATOM     80  H39 0JV d   1      12.067  22.184  15.485  0.00  0.00     0.084 H 
ATOM     81  C35 0JV d   1      13.477  20.039  13.301  0.00  0.00    -0.083 A 
ATOM     82  H40 0JV d   1      11.479  20.241  14.072  0.00  0.00     0.083 H 
ATOM     83  C36 0JV d   1      14.767  20.526  13.308  0.00  0.00    -0.082 A 
ATOM     84  H41 0JV d   1      13.230  19.186  12.679  0.00  0.00     0.083 H 
ATOM     85  C37 0JV d   1      15.107  21.628  14.108  0.00  0.00    -0.077 A 
ATOM     86  H42 0JV d   1      15.524  20.055  12.691  0.00  0.00     0.083 H 
ATOM     87  H43 0JV d   1      16.121  22.010  14.114  0.00  0.00     0.084 H 
ENDBRANCH  74  77
ENDBRANCH   1  74
TORSDOF 20
