REMARK  3 active torsions:
REMARK  status: ('A' for Active; 'I' for Inactive)
REMARK    1  A    between atoms: CAL_3  and  CAA_4 
REMARK    2  A    between atoms: CAM_7  and  CAO_8 
REMARK    3  A    between atoms: CAN_12  and  CAK_13 
ROOT
ATOM      1  CAF 0K7 d   1     -70.139  33.371 -45.747  0.00  0.00    -0.070 A 
ATOM      2  CAD 0K7 d   1     -70.356  33.411 -47.120  0.00  0.00    -0.076 A 
ATOM      3  CAL 0K7 d   1     -71.488  34.030 -47.635  0.00  0.00    -0.062 A 
ATOM      4  CAE 0K7 d   1     -72.414  34.606 -46.770  0.00  0.00    -0.076 A 
ATOM      5  CAG 0K7 d   1     -72.202  34.561 -45.395  0.00  0.00    -0.070 A 
ATOM      6  CAM 0K7 d   1     -71.063  33.944 -44.878  0.00  0.00    -0.000 A 
ATOM      7  H1  0K7 d   1     -69.249  32.893 -45.353  0.00  0.00     0.085 H 
ATOM      8  H2  0K7 d   1     -69.638  32.956 -47.792  0.00  0.00     0.084 H 
ATOM      9  H6  0K7 d   1     -73.299  35.089 -47.167  0.00  0.00     0.084 H 
ATOM     10  H7  0K7 d   1     -72.926  35.008 -44.723  0.00  0.00     0.085 H 
ENDROOT
BRANCH   6  11
ATOM     11  CAO 0K7 d   1     -70.842  33.891 -43.397  0.00  0.00     0.108 A 
ATOM     12  NAI 0K7 d   1     -70.205  32.909 -42.711  0.00  0.00    -0.233 NA
ATOM     13  CAN 0K7 d   1     -70.153  33.102 -41.350  0.00  0.00     0.141 A 
ATOM     14  CAH 0K7 d   1     -70.766  34.274 -40.875  0.00  0.00    -0.008 A 
ATOM     15  SAJ 0K7 d   1     -71.374  35.035 -42.265  0.00  0.00    -0.079 SA
ATOM     16  H8  0K7 d   1     -70.835  34.618 -39.844  0.00  0.00     0.099 H 
BRANCH  13  17
ATOM     17  CAK 0K7 d   1     -69.486  32.153 -40.424  0.00  0.00     0.229 C 
ATOM     18  OAC 0K7 d   1     -69.913  32.025 -39.266  0.00  0.00    -0.643 OA
ATOM     19  OAB 0K7 d   1     -68.480  31.502 -40.772  0.00  0.00    -0.643 OA
ENDBRANCH  13  17
ENDBRANCH   6  11
BRANCH   3  20
ATOM     20  CAA 0K7 d   1     -71.708  34.072 -49.112  0.00  0.00    -0.051 C 
ATOM     21  H3  0K7 d   1     -72.649  34.599 -49.328  0.00  0.00     0.033 H 
ATOM     22  H4  0K7 d   1     -71.764  33.046 -49.504  0.00  0.00     0.033 H 
ATOM     23  H5  0K7 d   1     -70.873  34.602 -49.592  0.00  0.00     0.033 H 
ENDBRANCH   3  20
TORSDOF 3
