REMARK  21 active torsions:
REMARK  status: ('A' for Active; 'I' for Inactive)
REMARK    1  A    between atoms: C1_1  and  O1_2 
REMARK    2  A    between atoms: O1_2  and  C2_3 
REMARK    3  A    between atoms: C5_8  and  S8_9 
REMARK    4  A    between atoms: S8_9  and  N11_12 
REMARK    5  A    between atoms: N11_12  and  C12_13 
REMARK    6  A    between atoms: N11_12  and  C16_18 
REMARK    7  A    between atoms: C12_13  and  C13_14 
REMARK    8  A    between atoms: C13_14  and  C14_15 
REMARK    9  A    between atoms: C13_14  and  C15_16 
REMARK   10  A    between atoms: C15_16  and  C18_17 
REMARK   11  A    between atoms: C16_18  and  C17_19 
REMARK   12  A    between atoms: C17_19  and  O18_20 
REMARK   13  A    between atoms: C17_19  and  C19_21 
REMARK   14  A    between atoms: C19_21  and  C32_22 
REMARK   15  A    between atoms: C19_21  and  N20_29 
REMARK   16  A    between atoms: C32_22  and  C38_23 
REMARK       I    between atoms: N20_29  and  C21_30 
REMARK   17  A    between atoms: C21_30  and  O23_32 
REMARK   18  A    between atoms: O23_32  and  C23_33 
REMARK   19  A    between atoms: C23_33  and  C24_34 
REMARK   20  A    between atoms: C24_34  and  N25_35 
REMARK       I    between atoms: N25_35  and  C26_36 
REMARK   21  A    between atoms: C26_36  and  C28_38 
ROOT
ATOM      1  C17 MK5 d   1      19.966  29.341  15.685  0.00  0.00     0.067 C 
ATOM      2  H21 MK5 d   1      20.992  29.736  15.696  0.00  0.00     0.088 H 
ENDROOT
BRANCH   1   3
ATOM      3  C16 MK5 d   1      19.027  30.439  16.209  0.00  0.00     0.019 C 
ATOM      4  H19 MK5 d   1      17.985  30.195  15.955  0.00  0.00     0.061 H 
ATOM      5  H20 MK5 d   1      19.127  30.529  17.301  0.00  0.00     0.061 H 
BRANCH   3   6
ATOM      6  N11 MK5 d   1      19.421  31.704  15.560  0.00  0.00    -0.204 NA
BRANCH   6   7
ATOM      7  S8  MK5 d   1      18.129  32.378  14.751  0.00  0.00     0.243 S 
ATOM      8  O9  MK5 d   1      18.663  33.264  13.663  0.00  0.00    -0.206 OA
ATOM      9  O10 MK5 d   1      17.293  31.288  14.189  0.00  0.00    -0.206 OA
BRANCH   7  10
ATOM     10  C5  MK5 d   1      17.175  33.358  15.856  0.00  0.00     0.074 A 
ATOM     11  C6  MK5 d   1      16.181  32.771  16.629  0.00  0.00    -0.058 A 
ATOM     12  C7  MK5 d   1      15.438  33.548  17.511  0.00  0.00    -0.049 A 
ATOM     13  H5  MK5 d   1      15.985  31.708  16.545  0.00  0.00     0.086 H 
ATOM     14  C2  MK5 d   1      15.686  34.912  17.626  0.00  0.00     0.068 A 
ATOM     15  H4  MK5 d   1      14.662  33.089  18.112  0.00  0.00     0.087 H 
ATOM     16  C3  MK5 d   1      16.678  35.501  16.848  0.00  0.00    -0.049 A 
ATOM     17  C4  MK5 d   1      17.420  34.723  15.967  0.00  0.00    -0.058 A 
ATOM     18  H6  MK5 d   1      16.872  36.565  16.929  0.00  0.00     0.087 H 
ATOM     19  H7  MK5 d   1      18.194  35.182  15.363  0.00  0.00     0.086 H 
BRANCH  14  20
ATOM     20  O1  MK5 d   1      14.939  35.657  18.496  0.00  0.00    -0.356 OA
BRANCH  20  21
ATOM     21  C1  MK5 d   1      15.499  36.961  18.702  0.00  0.00     0.010 C 
ATOM     22  H1  MK5 d   1      14.868  37.524  19.406  0.00  0.00     0.066 H 
ATOM     23  H2  MK5 d   1      15.545  37.496  17.742  0.00  0.00     0.066 H 
ATOM     24  H3  MK5 d   1      16.513  36.863  19.116  0.00  0.00     0.066 H 
ENDBRANCH  20  21
ENDBRANCH  14  20
ENDBRANCH   7  10
ENDBRANCH   6   7
BRANCH   6  25
ATOM     25  C12 MK5 d   1      20.025  32.611  16.558  0.00  0.00    -0.004 C 
ATOM     26  H8  MK5 d   1      20.240  32.040  17.473  0.00  0.00     0.058 H 
ATOM     27  H9  MK5 d   1      19.309  33.414  16.787  0.00  0.00     0.058 H 
BRANCH  25  28
ATOM     28  C13 MK5 d   1      21.327  33.238  16.049  0.00  0.00    -0.046 C 
ATOM     29  H10 MK5 d   1      21.051  34.014  15.319  0.00  0.00     0.041 H 
BRANCH  28  30
ATOM     30  C14 MK5 d   1      22.127  33.928  17.169  0.00  0.00    -0.072 C 
ATOM     31  H11 MK5 d   1      23.048  34.359  16.750  0.00  0.00     0.028 H 
ATOM     32  H12 MK5 d   1      22.387  33.190  17.942  0.00  0.00     0.028 H 
ATOM     33  H13 MK5 d   1      21.518  34.728  17.615  0.00  0.00     0.028 H 
ENDBRANCH  28  30
BRANCH  28  34
ATOM     34  C15 MK5 d   1      22.189  32.209  15.322  0.00  0.00    -0.064 C 
ATOM     35  H14 MK5 d   1      21.542  31.427  14.898  0.00  0.00     0.033 H 
ATOM     36  H15 MK5 d   1      22.893  31.756  16.035  0.00  0.00     0.033 H 
BRANCH  34  37
ATOM     37  C18 MK5 d   1      22.972  32.877  14.199  0.00  0.00    -0.076 C 
ATOM     38  H16 MK5 d   1      23.588  32.125  13.684  0.00  0.00     0.027 H 
ATOM     39  H17 MK5 d   1      23.622  33.658  14.620  0.00  0.00     0.027 H 
ATOM     40  H18 MK5 d   1      22.271  33.330  13.482  0.00  0.00     0.027 H 
ENDBRANCH  34  37
ENDBRANCH  28  34
ENDBRANCH  25  28
ENDBRANCH   6  25
ENDBRANCH   3   6
ENDBRANCH   1   3
BRANCH   1  41
ATOM     41  O18 MK5 d   1      19.921  28.189  16.522  0.00  0.00    -0.392 OA
ATOM     42  H22 MK5 d   1      20.190  28.427  17.401  0.00  0.00     0.210 HD
ENDBRANCH   1  41
BRANCH   1  43
ATOM     43  C19 MK5 d   1      19.616  28.954  14.248  0.00  0.00     0.044 C 
ATOM     44  H23 MK5 d   1      19.531  29.873  13.649  0.00  0.00     0.077 H 
BRANCH  43  45
ATOM     45  C32 MK5 d   1      18.285  28.188  14.164  0.00  0.00    -0.020 C 
ATOM     46  H24 MK5 d   1      17.477  28.817  14.566  0.00  0.00     0.043 H 
ATOM     47  H25 MK5 d   1      18.359  27.264  14.756  0.00  0.00     0.043 H 
BRANCH  45  48
ATOM     48  C38 MK5 d   1      17.974  27.833  12.706  0.00  0.00    -0.056 A 
ATOM     49  C33 MK5 d   1      18.199  26.540  12.250  0.00  0.00    -0.077 A 
ATOM     50  C34 MK5 d   1      17.934  26.205  10.929  0.00  0.00    -0.082 A 
ATOM     51  H26 MK5 d   1      18.584  25.788  12.930  0.00  0.00     0.084 H 
ATOM     52  C35 MK5 d   1      17.437  27.169  10.058  0.00  0.00    -0.083 A 
ATOM     53  H27 MK5 d   1      18.114  25.195  10.578  0.00  0.00     0.083 H 
ATOM     54  C36 MK5 d   1      17.214  28.464  10.509  0.00  0.00    -0.082 A 
ATOM     55  H28 MK5 d   1      17.224  26.910   9.027  0.00  0.00     0.083 H 
ATOM     56  C37 MK5 d   1      17.477  28.791  11.835  0.00  0.00    -0.077 A 
ATOM     57  H29 MK5 d   1      16.836  29.218   9.829  0.00  0.00     0.083 H 
ATOM     58  H30 MK5 d   1      17.293  29.799  12.189  0.00  0.00     0.084 H 
ENDBRANCH  45  48
ENDBRANCH  43  45
BRANCH  43  59
ATOM     59  N20 MK5 d   1      20.686  28.117  13.695  0.00  0.00    -0.329 N 
ATOM     60  C21 MK5 d   1      21.628  28.549  12.866  0.00  0.00     0.361 C 
ATOM     61  O22 MK5 d   1      21.720  29.706  12.464  0.00  0.00    -0.239 OA
ATOM     62  H31 MK5 d   1      20.707  27.153  13.961  0.00  0.00     0.165 HD
BRANCH  60  63
ATOM     63  O23 MK5 d   1      22.537  27.630  12.437  0.00  0.00    -0.302 OA
BRANCH  63  64
ATOM     64  C23 MK5 d   1      23.561  28.301  11.700  0.00  0.00     0.045 C 
ATOM     65  H32 MK5 d   1      24.263  28.781  12.397  0.00  0.00     0.077 H 
ATOM     66  H33 MK5 d   1      23.108  29.065  11.051  0.00  0.00     0.077 H 
BRANCH  64  67
ATOM     67  C24 MK5 d   1      24.307  27.278  10.844  0.00  0.00     0.015 C 
ATOM     68  H34 MK5 d   1      24.936  26.649  11.491  0.00  0.00     0.067 H 
ATOM     69  H35 MK5 d   1      24.941  27.804  10.115  0.00  0.00     0.067 H 
BRANCH  67  70
ATOM     70  N25 MK5 d   1      23.342  26.432  10.130  0.00  0.00    -0.357 N 
ATOM     71  C26 MK5 d   1      23.243  25.137  10.396  0.00  0.00     0.250 C 
ATOM     72  O27 MK5 d   1      23.914  24.580  11.264  0.00  0.00    -0.271 OA
ATOM     73  H36 MK5 d   1      22.751  26.839   9.433  0.00  0.00     0.162 HD
BRANCH  71  74
ATOM     74  C28 MK5 d   1      22.210  24.346   9.584  0.00  0.00     0.165 C 
ATOM     75 CL2  MK5 d   1      21.506  25.274   8.210  0.00  0.00    -0.098 Cl
ATOM     76 CL1  MK5 d   1      20.900  23.909  10.710  0.00  0.00    -0.098 Cl
ATOM     77  H37 MK5 d   1      22.685  23.437   9.187  0.00  0.00     0.104 H 
ENDBRANCH  71  74
ENDBRANCH  67  70
ENDBRANCH  64  67
ENDBRANCH  63  64
ENDBRANCH  60  63
ENDBRANCH  43  59
ENDBRANCH   1  43
TORSDOF 21
