REMARK  23 active torsions:
REMARK  status: ('A' for Active; 'I' for Inactive)
REMARK    1  A    between atoms: C21_2  and  O23_3 
REMARK       I    between atoms: C21_2  and  N20_11 
REMARK    2  A    between atoms: O23_3  and  C22_4 
REMARK    3  A    between atoms: C22_4  and  C23_5 
REMARK    4  A    between atoms: C23_5  and  C24_6 
REMARK    5  A    between atoms: C23_5  and  C25_7 
REMARK    6  A    between atoms: C25_7  and  O27_9 
REMARK    7  A    between atoms: O27_9  and  C28_10 
REMARK    8  A    between atoms: N20_11  and  C19_12 
REMARK    9  A    between atoms: C19_12  and  C32_13 
REMARK   10  A    between atoms: C19_12  and  C17_20 
REMARK   11  A    between atoms: C32_13  and  C38_14 
REMARK   12  A    between atoms: C17_20  and  O18_21 
REMARK   13  A    between atoms: C17_20  and  C16_22 
REMARK   14  A    between atoms: C16_22  and  N11_23 
REMARK   15  A    between atoms: N11_23  and  C12_24 
REMARK   16  A    between atoms: N11_23  and  S8_29 
REMARK   17  A    between atoms: C12_24  and  C13_25 
REMARK   18  A    between atoms: C13_25  and  C14_26 
REMARK   19  A    between atoms: C13_25  and  C15_27 
REMARK   20  A    between atoms: C15_27  and  C18_28 
REMARK   21  A    between atoms: S8_29  and  C5_32 
REMARK   22  A    between atoms: C2_37  and  O1_38 
REMARK   23  A    between atoms: O1_38  and  C1_39 
ROOT
ATOM      1  C17 M73 d   1      19.882  29.491  15.706  0.00  0.00     0.067 C 
ATOM      2  H19 M73 d   1      20.906  29.891  15.661  0.00  0.00     0.088 H 
ENDROOT
BRANCH   1   3
ATOM      3  C19 M73 d   1      19.486  29.029  14.302  0.00  0.00     0.044 C 
ATOM      4  H11 M73 d   1      19.338  29.934  13.694  0.00  0.00     0.077 H 
BRANCH   3   5
ATOM      5  N20 M73 d   1      20.570  28.248  13.716  0.00  0.00    -0.329 N 
ATOM      6  C21 M73 d   1      21.040  28.535  12.521  0.00  0.00     0.360 C 
ATOM      7  O22 M73 d   1      20.829  29.530  11.851  0.00  0.00    -0.239 OA
ATOM      8  H10 M73 d   1      20.961  27.484  14.229  0.00  0.00     0.165 HD
BRANCH   6   9
ATOM      9  O23 M73 d   1      21.791  27.477  11.962  0.00  0.00    -0.303 OA
BRANCH   9  10
ATOM     10  C22 M73 d   1      22.028  27.561  10.551  0.00  0.00     0.042 C 
ATOM     11  H1  M73 d   1      22.625  28.456  10.323  0.00  0.00     0.076 H 
ATOM     12  H2  M73 d   1      21.070  27.612  10.012  0.00  0.00     0.076 H 
BRANCH  10  13
ATOM     13  C23 M73 d   1      22.789  26.311  10.139  0.00  0.00     0.048 C 
ATOM     14  H3  M73 d   1      23.078  26.400   9.082  0.00  0.00     0.058 H 
BRANCH  13  15
ATOM     15  C24 M73 d   1      21.937  25.063  10.285  0.00  0.00    -0.062 C 
ATOM     16  H4  M73 d   1      22.521  24.183   9.978  0.00  0.00     0.028 H 
ATOM     17  H5  M73 d   1      21.045  25.151   9.648  0.00  0.00     0.028 H 
ATOM     18  H6  M73 d   1      21.628  24.951  11.335  0.00  0.00     0.028 H 
ENDBRANCH  13  15
BRANCH  13  19
ATOM     19  C25 M73 d   1      24.020  26.266  10.970  0.00  0.00     0.264 C 
ATOM     20  O26 M73 d   1      24.335  25.332  11.687  0.00  0.00    -0.265 OA
BRANCH  19  21
ATOM     21  O27 M73 d   1      24.871  27.389  10.913  0.00  0.00    -0.326 OA
BRANCH  21  22
ATOM     22  C28 M73 d   1      26.062  27.460  11.711  0.00  0.00     0.013 C 
ATOM     23  H7  M73 d   1      26.577  28.412  11.517  0.00  0.00     0.067 H 
ATOM     24  H8  M73 d   1      26.728  26.624  11.451  0.00  0.00     0.067 H 
ATOM     25  H9  M73 d   1      25.794  27.398  12.776  0.00  0.00     0.067 H 
ENDBRANCH  21  22
ENDBRANCH  19  21
ENDBRANCH  13  19
ENDBRANCH  10  13
ENDBRANCH   9  10
ENDBRANCH   6   9
ENDBRANCH   3   5
BRANCH   3  26
ATOM     26  C32 M73 d   1      18.192  28.199  14.211  0.00  0.00    -0.020 C 
ATOM     27  H12 M73 d   1      17.355  28.770  14.640  0.00  0.00     0.043 H 
ATOM     28  H13 M73 d   1      18.317  27.258  14.767  0.00  0.00     0.043 H 
BRANCH  26  29
ATOM     29  C38 M73 d   1      17.907  27.895  12.751  0.00  0.00    -0.056 A 
ATOM     30  C37 M73 d   1      17.326  28.862  11.947  0.00  0.00    -0.077 A 
ATOM     31  C36 M73 d   1      17.131  28.611  10.595  0.00  0.00    -0.082 A 
ATOM     32  H14 M73 d   1      17.024  29.812  12.372  0.00  0.00     0.084 H 
ATOM     33  C35 M73 d   1      17.491  27.379  10.054  0.00  0.00    -0.083 A 
ATOM     34  H15 M73 d   1      16.698  29.375   9.960  0.00  0.00     0.083 H 
ATOM     35  C34 M73 d   1      18.061  26.400  10.852  0.00  0.00    -0.082 A 
ATOM     36  H16 M73 d   1      17.324  27.185   9.001  0.00  0.00     0.083 H 
ATOM     37  C33 M73 d   1      18.266  26.660  12.200  0.00  0.00    -0.077 A 
ATOM     38  H17 M73 d   1      18.343  25.443  10.429  0.00  0.00     0.083 H 
ATOM     39  H18 M73 d   1      18.709  25.899  12.832  0.00  0.00     0.084 H 
ENDBRANCH  26  29
ENDBRANCH   3  26
ENDBRANCH   1   3
BRANCH   1  40
ATOM     40  O18 M73 d   1      19.847  28.348  16.593  0.00  0.00    -0.392 OA
ATOM     41  H20 M73 d   1      18.969  27.985  16.606  0.00  0.00     0.210 HD
ENDBRANCH   1  40
BRANCH   1  42
ATOM     42  C16 M73 d   1      18.964  30.575  16.300  0.00  0.00     0.019 C 
ATOM     43  H21 M73 d   1      19.238  30.764  17.348  0.00  0.00     0.061 H 
ATOM     44  H22 M73 d   1      17.916  30.246  16.249  0.00  0.00     0.061 H 
BRANCH  42  45
ATOM     45  N11 M73 d   1      19.143  31.806  15.505  0.00  0.00    -0.204 NA
BRANCH  45  46
ATOM     46  C12 M73 d   1      19.952  32.837  16.206  0.00  0.00    -0.004 C 
ATOM     47  H23 M73 d   1      19.643  32.872  17.261  0.00  0.00     0.058 H 
ATOM     48  H24 M73 d   1      19.764  33.814  15.737  0.00  0.00     0.058 H 
BRANCH  46  49
ATOM     49  C13 M73 d   1      21.455  32.540  16.141  0.00  0.00    -0.046 C 
ATOM     50  H25 M73 d   1      21.624  31.544  16.575  0.00  0.00     0.041 H 
BRANCH  49  51
ATOM     51  C14 M73 d   1      21.951  32.493  14.697  0.00  0.00    -0.072 C 
ATOM     52  H26 M73 d   1      23.030  32.279  14.687  0.00  0.00     0.028 H 
ATOM     53  H27 M73 d   1      21.765  33.464  14.214  0.00  0.00     0.028 H 
ATOM     54  H28 M73 d   1      21.415  31.703  14.151  0.00  0.00     0.028 H 
ENDBRANCH  49  51
BRANCH  49  55
ATOM     55  C15 M73 d   1      22.205  33.559  17.011  0.00  0.00    -0.064 C 
ATOM     56  H29 M73 d   1      23.279  33.323  16.974  0.00  0.00     0.033 H 
ATOM     57  H30 M73 d   1      21.844  33.463  18.046  0.00  0.00     0.033 H 
BRANCH  55  58
ATOM     58  C18 M73 d   1      22.017  34.994  16.572  0.00  0.00    -0.076 C 
ATOM     59  H31 M73 d   1      22.582  35.659  17.241  0.00  0.00     0.027 H 
ATOM     60  H32 M73 d   1      20.949  35.253  16.614  0.00  0.00     0.027 H 
ATOM     61  H33 M73 d   1      22.383  35.113  15.542  0.00  0.00     0.027 H 
ENDBRANCH  55  58
ENDBRANCH  49  55
ENDBRANCH  46  49
ENDBRANCH  45  46
BRANCH  45  62
ATOM     62  S8  M73 d   1      17.834  32.397  14.751  0.00  0.00     0.243 S 
ATOM     63  O9  M73 d   1      18.348  33.239  13.690  0.00  0.00    -0.206 OA
ATOM     64  O10 M73 d   1      17.048  31.299  14.343  0.00  0.00    -0.206 OA
BRANCH  62  65
ATOM     65  C5  M73 d   1      16.943  33.328  15.778  0.00  0.00     0.074 A 
ATOM     66  C4  M73 d   1      17.145  34.721  15.914  0.00  0.00    -0.058 A 
ATOM     67  C3  M73 d   1      16.447  35.501  16.836  0.00  0.00    -0.049 A 
ATOM     68  H34 M73 d   1      17.874  35.204  15.274  0.00  0.00     0.086 H 
ATOM     69  C2  M73 d   1      15.522  34.895  17.676  0.00  0.00     0.068 A 
ATOM     70  H35 M73 d   1      16.625  36.569  16.896  0.00  0.00     0.087 H 
ATOM     71  C7  M73 d   1      15.298  33.528  17.574  0.00  0.00    -0.049 A 
ATOM     72  C6  M73 d   1      15.983  32.755  16.624  0.00  0.00    -0.058 A 
ATOM     73  H37 M73 d   1      14.585  33.052  18.237  0.00  0.00     0.087 H 
ATOM     74  H36 M73 d   1      15.766  31.696  16.543  0.00  0.00     0.086 H 
BRANCH  69  75
ATOM     75  O1  M73 d   1      14.816  35.609  18.619  0.00  0.00    -0.356 OA
BRANCH  75  76
ATOM     76  C1  M73 d   1      15.122  36.994  18.816  0.00  0.00     0.010 C 
ATOM     77  H38 M73 d   1      14.469  37.406  19.599  0.00  0.00     0.066 H 
ATOM     78  H39 M73 d   1      14.959  37.543  17.877  0.00  0.00     0.066 H 
ATOM     79  H40 M73 d   1      16.173  37.097  19.123  0.00  0.00     0.066 H 
ENDBRANCH  75  76
ENDBRANCH  69  75
ENDBRANCH  62  65
ENDBRANCH  45  62
ENDBRANCH  42  45
ENDBRANCH   1  42
TORSDOF 23
