REMARK  20 active torsions:
REMARK  status: ('A' for Active; 'I' for Inactive)
REMARK    1  A    between atoms: S8_2  and  C5_4 
REMARK    2  A    between atoms: S8_2  and  N11_12 
REMARK    3  A    between atoms: C2_9  and  O1_10 
REMARK    4  A    between atoms: O1_10  and  C1_11 
REMARK    5  A    between atoms: N11_12  and  C12_13 
REMARK    6  A    between atoms: N11_12  and  C16_18 
REMARK    7  A    between atoms: C12_13  and  C13_14 
REMARK    8  A    between atoms: C13_14  and  C14_15 
REMARK    9  A    between atoms: C13_14  and  C15_16 
REMARK   10  A    between atoms: C15_16  and  C18_17 
REMARK   11  A    between atoms: C16_18  and  C17_19 
REMARK   12  A    between atoms: C17_19  and  O18_20 
REMARK   13  A    between atoms: C17_19  and  C19_21 
REMARK   14  A    between atoms: C19_21  and  C32_22 
REMARK   15  A    between atoms: C19_21  and  N20_29 
REMARK   16  A    between atoms: C32_22  and  C38_23 
REMARK       I    between atoms: N20_29  and  C21_30 
REMARK   17  A    between atoms: C21_30  and  O23_32 
REMARK   18  A    between atoms: O23_32  and  C22_33 
REMARK   19  A    between atoms: C22_33  and  C23_34 
REMARK   20  A    between atoms: C23_34  and  N24_35 
ROOT
ATOM      1  C17 M86 d   1      -5.454  -0.395 -15.603  0.00  0.00     0.067 C 
ATOM      2  H21 M86 d   1      -4.421  -0.773 -15.597  0.00  0.00     0.088 H 
ENDROOT
BRANCH   1   3
ATOM      3  C16 M86 d   1      -6.360  -1.505 -16.166  0.00  0.00     0.019 C 
ATOM      4  H19 M86 d   1      -7.417  -1.221 -16.053  0.00  0.00     0.061 H 
ATOM      5  H20 M86 d   1      -6.136  -1.669 -17.230  0.00  0.00     0.061 H 
BRANCH   3   6
ATOM      6  N11 M86 d   1      -6.083  -2.740 -15.395  0.00  0.00    -0.204 NA
BRANCH   6   7
ATOM      7  S8  M86 d   1      -7.371  -3.373 -14.628  0.00  0.00     0.243 S 
ATOM      8  O10 M86 d   1      -8.159  -2.303 -14.117  0.00  0.00    -0.206 OA
ATOM      9  O9  M86 d   1      -6.796  -4.225 -13.600  0.00  0.00    -0.206 OA
BRANCH   7  10
ATOM     10  C5  M86 d   1      -8.269  -4.295 -15.649  0.00  0.00     0.074 A 
ATOM     11  C6  M86 d   1      -9.255  -3.715 -16.451  0.00  0.00    -0.058 A 
ATOM     12  C7  M86 d   1      -9.988  -4.493 -17.360  0.00  0.00    -0.049 A 
ATOM     13  H1  M86 d   1      -9.456  -2.653 -16.370  0.00  0.00     0.086 H 
ATOM     14  C2  M86 d   1      -9.752  -5.852 -17.484  0.00  0.00     0.068 A 
ATOM     15  H2  M86 d   1     -10.749  -4.024 -17.973  0.00  0.00     0.087 H 
ATOM     16  C3  M86 d   1      -8.771  -6.447 -16.691  0.00  0.00    -0.049 A 
ATOM     17  C4  M86 d   1      -8.045  -5.669 -15.785  0.00  0.00    -0.058 A 
ATOM     18  H4  M86 d   1      -8.572  -7.509 -16.777  0.00  0.00     0.087 H 
ATOM     19  H3  M86 d   1      -7.288  -6.143 -15.171  0.00  0.00     0.086 H 
BRANCH  14  20
ATOM     20  O1  M86 d   1     -10.476  -6.574 -18.406  0.00  0.00    -0.356 OA
BRANCH  20  21
ATOM     21  C1  M86 d   1     -10.091  -7.934 -18.657  0.00  0.00     0.010 C 
ATOM     22  H5  M86 d   1     -10.761  -8.371 -19.412  0.00  0.00     0.066 H 
ATOM     23  H6  M86 d   1     -10.162  -8.513 -17.724  0.00  0.00     0.066 H 
ATOM     24  H7  M86 d   1      -9.055  -7.960 -19.027  0.00  0.00     0.066 H 
ENDBRANCH  20  21
ENDBRANCH  14  20
ENDBRANCH   7  10
ENDBRANCH   6   7
BRANCH   6  25
ATOM     25  C12 M86 d   1      -5.311  -3.756 -16.162  0.00  0.00    -0.004 C 
ATOM     26  H8  M86 d   1      -5.680  -3.771 -17.198  0.00  0.00     0.058 H 
ATOM     27  H9  M86 d   1      -5.471  -4.742 -15.701  0.00  0.00     0.058 H 
BRANCH  25  28
ATOM     28  C13 M86 d   1      -3.807  -3.462 -16.181  0.00  0.00    -0.046 C 
ATOM     29  H10 M86 d   1      -3.678  -2.450 -16.593  0.00  0.00     0.041 H 
BRANCH  28  30
ATOM     30  C14 M86 d   1      -3.184  -3.454 -14.787  0.00  0.00    -0.072 C 
ATOM     31  H11 M86 d   1      -2.108  -3.238 -14.867  0.00  0.00     0.028 H 
ATOM     32  H12 M86 d   1      -3.326  -4.438 -14.316  0.00  0.00     0.028 H 
ATOM     33  H13 M86 d   1      -3.668  -2.680 -14.173  0.00  0.00     0.028 H 
ENDBRANCH  28  30
BRANCH  28  34
ATOM     34  C15 M86 d   1      -3.091  -4.440 -17.129  0.00  0.00    -0.064 C 
ATOM     35  H14 M86 d   1      -2.018  -4.196 -17.135  0.00  0.00     0.033 H 
ATOM     36  H15 M86 d   1      -3.503  -4.309 -18.140  0.00  0.00     0.033 H 
BRANCH  34  37
ATOM     37  C18 M86 d   1      -3.249  -5.883 -16.734  0.00  0.00    -0.076 C 
ATOM     38  H16 M86 d   1      -2.714  -6.521 -17.453  0.00  0.00     0.027 H 
ATOM     39  H17 M86 d   1      -4.317  -6.148 -16.733  0.00  0.00     0.027 H 
ATOM     40  H18 M86 d   1      -2.832  -6.035 -15.728  0.00  0.00     0.027 H 
ENDBRANCH  34  37
ENDBRANCH  28  34
ENDBRANCH  25  28
ENDBRANCH   6  25
ENDBRANCH   3   6
ENDBRANCH   1   3
BRANCH   1  41
ATOM     41  O18 M86 d   1      -5.524   0.760 -16.464  0.00  0.00    -0.392 OA
ATOM     42  H22 M86 d   1      -5.232   0.522 -17.336  0.00  0.00     0.210 HD
ENDBRANCH   1  41
BRANCH   1  43
ATOM     43  C19 M86 d   1      -5.810   0.036 -14.173  0.00  0.00     0.044 C 
ATOM     44  H23 M86 d   1      -5.876  -0.870 -13.552  0.00  0.00     0.077 H 
BRANCH  43  45
ATOM     45  C32 M86 d   1      -7.137   0.801 -14.047  0.00  0.00    -0.020 C 
ATOM     46  H24 M86 d   1      -7.956   0.181 -14.441  0.00  0.00     0.043 H 
ATOM     47  H25 M86 d   1      -7.076   1.737 -14.621  0.00  0.00     0.043 H 
BRANCH  45  48
ATOM     48  C38 M86 d   1      -7.402   1.120 -12.585  0.00  0.00    -0.056 A 
ATOM     49  C37 M86 d   1      -7.891   0.133 -11.735  0.00  0.00    -0.077 A 
ATOM     50  C36 M86 d   1      -8.130   0.424 -10.392  0.00  0.00    -0.082 A 
ATOM     51  H26 M86 d   1      -8.086  -0.863 -12.117  0.00  0.00     0.084 H 
ATOM     52  C35 M86 d   1      -7.878   1.695  -9.891  0.00  0.00    -0.083 A 
ATOM     53  H27 M86 d   1      -8.515  -0.347  -9.735  0.00  0.00     0.083 H 
ATOM     54  C34 M86 d   1      -7.387   2.680 -10.738  0.00  0.00    -0.082 A 
ATOM     55  H28 M86 d   1      -8.063   1.916  -8.846  0.00  0.00     0.083 H 
ATOM     56  C33 M86 d   1      -7.155   2.396 -12.081  0.00  0.00    -0.077 A 
ATOM     57  H29 M86 d   1      -7.184   3.672 -10.352  0.00  0.00     0.083 H 
ATOM     58  H30 M86 d   1      -6.780   3.172 -12.739  0.00  0.00     0.084 H 
ENDBRANCH  45  48
ENDBRANCH  43  45
BRANCH  43  59
ATOM     59  N20 M86 d   1      -4.752   0.896 -13.660  0.00  0.00    -0.329 N 
ATOM     60  C21 M86 d   1      -3.871   0.557 -12.731  0.00  0.00     0.360 C 
ATOM     61  O22 M86 d   1      -3.737  -0.529 -12.202  0.00  0.00    -0.239 OA
ATOM     62  H31 M86 d   1      -4.685   1.818 -14.041  0.00  0.00     0.165 HD
BRANCH  60  63
ATOM     63  O23 M86 d   1      -3.019   1.646 -12.316  0.00  0.00    -0.303 OA
BRANCH  63  64
ATOM     64  C22 M86 d   1      -2.051   1.494 -11.268  0.00  0.00     0.042 C 
ATOM     65  H32 M86 d   1      -1.127   1.054 -11.670  0.00  0.00     0.077 H 
ATOM     66  H33 M86 d   1      -2.452   0.845 -10.476  0.00  0.00     0.077 H 
BRANCH  64  67
ATOM     67  C23 M86 d   1      -1.767   2.888 -10.709  0.00  0.00     0.008 C 
ATOM     68  H34 M86 d   1      -1.506   3.573 -11.529  0.00  0.00     0.059 H 
ATOM     69  H35 M86 d   1      -0.934   2.840  -9.992  0.00  0.00     0.059 H 
BRANCH  67  70
ATOM     70  N24 M86 d   1      -2.990   3.365 -10.026  0.00  0.00    -0.231 NA
ATOM     71  C25 M86 d   1      -2.847   3.622  -8.575  0.00  0.00     0.003 C 
ATOM     72  C26 M86 d   1      -4.135   4.390  -8.259  0.00  0.00     0.008 C 
ATOM     73  H36 M86 d   1      -1.956   4.231  -8.363  0.00  0.00     0.059 H 
ATOM     74  H37 M86 d   1      -2.792   2.682  -8.006  0.00  0.00     0.059 H 
ATOM     75  N27 M86 d   1      -4.453   5.001  -9.532  0.00  0.00    -0.346 N 
ATOM     76  H39 M86 d   1      -3.964   5.152  -7.484  0.00  0.00     0.066 H 
ATOM     77  H40 M86 d   1      -4.935   3.709  -7.934  0.00  0.00     0.066 H 
ATOM     78  C28 M86 d   1      -3.730   4.484 -10.513  0.00  0.00     0.296 C 
ATOM     79  H38 M86 d   1      -5.134   5.723  -9.655  0.00  0.00     0.163 HD
ATOM     80  O29 M86 d   1      -3.709   4.914 -11.654  0.00  0.00    -0.254 OA
ENDBRANCH  67  70
ENDBRANCH  64  67
ENDBRANCH  63  64
ENDBRANCH  60  63
ENDBRANCH  43  59
ENDBRANCH   1  43
TORSDOF 20
