REMARK  4 active torsions:
REMARK  status: ('A' for Active; 'I' for Inactive)
REMARK    1  A    between atoms: C2_3  and  C5_9 
REMARK    2  A    between atoms: C2_3  and  C11_15 
REMARK    3  A    between atoms: C3_5  and  N3_7 
REMARK    4  A    between atoms: N2_6  and  C4_8 
ROOT
ATOM      1  O1  0KK d   1      21.823  13.194  22.651  0.00  0.00    -0.269 OA
ATOM      2  C1  0KK d   1      21.986  12.003  22.838  0.00  0.00     0.276 A 
ATOM      3  C2  0KK d   1      21.741  10.848  21.825  0.00  0.00     0.183 A 
ATOM      4  N1  0KK d   1      22.095   9.627  22.595  0.00  0.00    -0.199 N 
ATOM      5  C3  0KK d   1      22.458  10.015  23.838  0.00  0.00     0.677 A 
ATOM      6  N2  0KK d   1      22.418  11.431  24.013  0.00  0.00    -0.153 N 
ATOM      7  H1  0KK d   1      22.069   8.659  22.244  0.00  0.00     0.179 HD
ENDROOT
BRANCH   3   8
ATOM      8  C5  0KK d   1      20.262  10.692  21.423  0.00  0.00    -0.015 A 
ATOM      9  C6  0KK d   1      19.877   9.765  20.459  0.00  0.00    -0.074 A 
ATOM     10  C7  0KK d   1      18.543   9.632  20.090  0.00  0.00    -0.082 A 
ATOM     11  H7  0KK d   1      20.627   9.139  19.990  0.00  0.00     0.084 H 
ATOM     12  C8  0KK d   1      17.576  10.423  20.679  0.00  0.00    -0.083 A 
ATOM     13  H8  0KK d   1      18.261   8.905  19.337  0.00  0.00     0.083 H 
ATOM     14  C9  0KK d   1      17.939  11.336  21.645  0.00  0.00    -0.082 A 
ATOM     15  H9  0KK d   1      16.538  10.326  20.383  0.00  0.00     0.083 H 
ATOM     16  C10 0KK d   1      19.272  11.469  22.018  0.00  0.00    -0.074 A 
ATOM     17  H10 0KK d   1      17.182  11.953  22.116  0.00  0.00     0.083 H 
ATOM     18  H11 0KK d   1      19.544  12.188  22.783  0.00  0.00     0.084 H 
ENDBRANCH   3   8
BRANCH   3  19
ATOM     19  C11 0KK d   1      22.627  11.091  20.590  0.00  0.00    -0.015 A 
ATOM     20  C12 0KK d   1      22.447  12.211  19.779  0.00  0.00    -0.074 A 
ATOM     21  C13 0KK d   1      23.272  12.436  18.679  0.00  0.00    -0.082 A 
ATOM     22  H12 0KK d   1      21.655  12.915  20.007  0.00  0.00     0.084 H 
ATOM     23  C14 0KK d   1      24.290  11.552  18.380  0.00  0.00    -0.083 A 
ATOM     24  H13 0KK d   1      23.114  13.309  18.055  0.00  0.00     0.083 H 
ATOM     25  C15 0KK d   1      24.481  10.437  19.173  0.00  0.00    -0.082 A 
ATOM     26  H14 0KK d   1      24.936  11.732  17.528  0.00  0.00     0.083 H 
ATOM     27  C16 0KK d   1      23.652  10.204  20.269  0.00  0.00    -0.074 A 
ATOM     28  H15 0KK d   1      25.279   9.741  18.942  0.00  0.00     0.083 H 
ATOM     29  H16 0KK d   1      23.807   9.322  20.879  0.00  0.00     0.084 H 
ENDBRANCH   3  19
BRANCH   6  30
ATOM     30  C4  0KK d   1      22.743  12.206  25.216  0.00  0.00     0.005 C 
ATOM     31  H4  0KK d   1      22.607  13.278  25.010  0.00  0.00     0.058 H 
ATOM     32  H5  0KK d   1      23.788  12.018  25.502  0.00  0.00     0.058 H 
ATOM     33  H6  0KK d   1      22.078  11.903  26.038  0.00  0.00     0.058 H 
ENDBRANCH   6  30
BRANCH   5  34
ATOM     34  N3  0KK d   1      22.827   9.196  24.821  0.00  0.00    -0.234 N 
ATOM     35  H2  0KK d   1      22.846   8.178  24.664  0.00  0.00     0.174 HD
ATOM     36  H3  0KK d   1      23.094   9.580  25.739  0.00  0.00     0.174 HD
ENDBRANCH   5  34
TORSDOF 4
