REMARK  5 active torsions:
REMARK  status: ('A' for Active; 'I' for Inactive)
REMARK    1  A    between atoms: C2_3  and  C5_9 
REMARK    2  A    between atoms: C11_15  and  C2_3 
REMARK    3  A    between atoms: C3_5  and  N3_7 
REMARK    4  A    between atoms: N2_6  and  C4_8 
REMARK    5  A    between atoms: C19_24  and  C15_19 
ROOT
ATOM      1  O1  0KP d   1      22.360  13.063  22.348  0.00  0.00    -0.269 OA
ATOM      2  C1  0KP d   1      22.495  11.875  22.581  0.00  0.00     0.276 A 
ATOM      3  C2  0KP d   1      22.339  10.668  21.561  0.00  0.00     0.183 A 
ATOM      4  N1  0KP d   1      22.538   9.493  22.464  0.00  0.00    -0.199 N 
ATOM      5  C3  0KP d   1      22.780   9.914  23.701  0.00  0.00     0.677 A 
ATOM      6  N2  0KP d   1      22.786  11.335  23.812  0.00  0.00    -0.153 N 
ATOM      7  H1  0KP d   1      22.494   8.506  22.172  0.00  0.00     0.179 HD
ENDROOT
BRANCH   3   8
ATOM      8  C5  0KP d   1      20.902  10.627  21.005  0.00  0.00    -0.015 A 
ATOM      9  C6  0KP d   1      20.272   9.414  20.747  0.00  0.00    -0.074 A 
ATOM     10  C7  0KP d   1      18.969   9.376  20.260  0.00  0.00    -0.082 A 
ATOM     11  H7  0KP d   1      20.803   8.486  20.928  0.00  0.00     0.084 H 
ATOM     12  C8  0KP d   1      18.280  10.544  20.021  0.00  0.00    -0.083 A 
ATOM     13  H8  0KP d   1      18.494   8.421  20.068  0.00  0.00     0.083 H 
ATOM     14  C9  0KP d   1      18.892  11.753  20.259  0.00  0.00    -0.082 A 
ATOM     15  H9  0KP d   1      17.263  10.511  19.648  0.00  0.00     0.083 H 
ATOM     16  C10 0KP d   1      20.195  11.797  20.744  0.00  0.00    -0.074 A 
ATOM     17  H10 0KP d   1      18.356  12.676  20.068  0.00  0.00     0.083 H 
ATOM     18  H11 0KP d   1      20.667  12.757  20.921  0.00  0.00     0.084 H 
ENDBRANCH   3   8
BRANCH   3  19
ATOM     19  C11 0KP d   1      23.488  10.692  20.530  0.00  0.00    -0.015 A 
ATOM     20  C12 0KP d   1      23.211  10.789  19.173  0.00  0.00    -0.074 A 
ATOM     21  C13 0KP d   1      24.235  10.865  18.243  0.00  0.00    -0.082 A 
ATOM     22  H12 0KP d   1      22.180  10.806  18.837  0.00  0.00     0.084 H 
ATOM     23  C14 0KP d   1      25.550  10.841  18.656  0.00  0.00    -0.072 A 
ATOM     24  H13 0KP d   1      24.002  10.944  17.187  0.00  0.00     0.083 H 
ATOM     25  C15 0KP d   1      25.871  10.746  20.007  0.00  0.00    -0.024 A 
ATOM     26  H14 0KP d   1      26.344  10.897  17.920  0.00  0.00     0.084 H 
ATOM     27  C16 0KP d   1      24.826  10.661  20.943  0.00  0.00    -0.063 A 
ATOM     28  H15 0KP d   1      25.058  10.570  21.998  0.00  0.00     0.085 H 
BRANCH  25  29
ATOM     29  C19 0KP d   1      27.300  10.801  20.465  0.00  0.00    -0.008 A 
ATOM     30  C18 0KP d   1      27.883   9.780  21.208  0.00  0.00     0.012 A 
ATOM     31  N4  0KP d   1      29.126   9.823  21.709  0.00  0.00    -0.272 NA
ATOM     32  H17 0KP d   1      27.293   8.890  21.395  0.00  0.00     0.116 H 
ATOM     33  C17 0KP d   1      29.854  10.913  21.451  0.00  0.00     0.002 A 
ATOM     34  C21 0KP d   1      29.385  11.978  20.713  0.00  0.00    -0.065 A 
ATOM     35  H16 0KP d   1      30.864  10.962  21.842  0.00  0.00     0.114 H 
ATOM     36  C20 0KP d   1      28.093  11.919  20.220  0.00  0.00    -0.070 A 
ATOM     37  H19 0KP d   1      30.013  12.841  20.523  0.00  0.00     0.085 H 
ATOM     38  H18 0KP d   1      27.697  12.746  19.641  0.00  0.00     0.085 H 
ENDBRANCH  25  29
ENDBRANCH   3  19
BRANCH   6  39
ATOM     39  C4  0KP d   1      23.022  12.141  25.018  0.00  0.00     0.005 C 
ATOM     40  H4  0KP d   1      22.958  13.209  24.763  0.00  0.00     0.058 H 
ATOM     41  H5  0KP d   1      24.023  11.919  25.418  0.00  0.00     0.058 H 
ATOM     42  H6  0KP d   1      22.262  11.898  25.776  0.00  0.00     0.058 H 
ENDBRANCH   6  39
BRANCH   5  43
ATOM     43  N3  0KP d   1      22.997   9.111  24.749  0.00  0.00    -0.234 N 
ATOM     44  H2  0KP d   1      22.984   8.088  24.626  0.00  0.00     0.174 HD
ATOM     45  H3  0KP d   1      23.177   9.515  25.679  0.00  0.00     0.174 HD
ENDBRANCH   5  43
TORSDOF 5
