REMARK  5 active torsions:
REMARK  status: ('A' for Active; 'I' for Inactive)
REMARK    1  A    between atoms: C2_2  and  C5_9 
REMARK    2  A    between atoms: C2_2  and  C6_10 
REMARK    3  A    between atoms: C3_4  and  N3_6 
REMARK    4  A    between atoms: N2_5  and  C4_7 
REMARK    5  A    between atoms: C10_14  and  C12_16 
ROOT
ATOM      1  C1  0KQ d   1      22.550  11.831  22.817  0.00  0.00     0.272 A 
ATOM      2  C2  0KQ d   1      22.373  10.662  21.814  0.00  0.00     0.160 A 
ATOM      3  N1  0KQ d   1      22.591   9.454  22.684  0.00  0.00    -0.203 N 
ATOM      4  C3  0KQ d   1      22.706   9.877  23.968  0.00  0.00     0.677 A 
ATOM      5  N2  0KQ d   1      22.744  11.280  24.061  0.00  0.00    -0.153 N 
ATOM      6  O1  0KQ d   1      22.540  13.022  22.565  0.00  0.00    -0.269 OA
ATOM      7  H1  0KQ d   1      22.644   8.477  22.361  0.00  0.00     0.179 HD
ENDROOT
BRANCH   2   8
ATOM      8  C5  0KQ d   1      23.457  10.736  20.740  0.00  0.00    -0.019 A 
ATOM      9  C7  0KQ d   1      23.127  10.951  19.404  0.00  0.00    -0.074 A 
ATOM     10  C8  0KQ d   1      24.121  11.101  18.451  0.00  0.00    -0.082 A 
ATOM     11  H8  0KQ d   1      22.085  11.001  19.108  0.00  0.00     0.084 H 
ATOM     12  C9  0KQ d   1      25.453  11.063  18.827  0.00  0.00    -0.072 A 
ATOM     13  H9  0KQ d   1      23.856  11.248  17.410  0.00  0.00     0.083 H 
ATOM     14  C10 0KQ d   1      25.813  10.851  20.164  0.00  0.00    -0.024 A 
ATOM     15  H10 0KQ d   1      26.226  11.199  18.079  0.00  0.00     0.084 H 
ATOM     16  C11 0KQ d   1      24.802  10.662  21.106  0.00  0.00    -0.063 A 
ATOM     17  H11 0KQ d   1      25.064  10.455  22.137  0.00  0.00     0.085 H 
BRANCH  14  18
ATOM     18  C12 0KQ d   1      27.244  10.852  20.588  0.00  0.00    -0.007 A 
ATOM     19  C13 0KQ d   1      28.184  11.705  20.024  0.00  0.00     0.013 A 
ATOM     20  N5  0KQ d   1      29.445  11.828  20.456  0.00  0.00    -0.271 NA
ATOM     21  H12 0KQ d   1      27.876  12.310  19.179  0.00  0.00     0.116 H 
ATOM     22  C15 0KQ d   1      29.827  11.080  21.503  0.00  0.00     0.023 A 
ATOM     23  C19 0KQ d   1      28.961  10.183  22.093  0.00  0.00     0.052 A 
ATOM     24  H13 0KQ d   1      30.834  11.183  21.892  0.00  0.00     0.117 H 
ATOM     25  C16 0KQ d   1      27.667  10.040  21.644  0.00  0.00    -0.048 A 
ATOM     26 CL1  0KQ d   1      29.510   9.203  23.420  0.00  0.00    -0.083 Cl
ATOM     27  H14 0KQ d   1      26.996   9.319  22.096  0.00  0.00     0.087 H 
ENDBRANCH  14  18
ENDBRANCH   2   8
BRANCH   2  28
ATOM     28  C6  0KQ d   1      20.914  10.747  21.348  0.00  0.00    -0.016 A 
ATOM     29  C17 0KQ d   1      20.201   9.473  20.996  0.00  0.00    -0.058 A 
ATOM     30  C18 0KQ d   1      19.771  10.272  22.186  0.00  0.00    -0.058 A 
ATOM     31  H15 0KQ d   1      20.703   8.504  21.136  0.00  0.00     0.033 H 
ATOM     32  H16 0KQ d   1      19.561   9.429  20.102  0.00  0.00     0.033 H 
ATOM     33  H17 0KQ d   1      18.814  10.814  22.167  0.00  0.00     0.033 H 
ATOM     34  H18 0KQ d   1      19.956   9.889  23.201  0.00  0.00     0.033 H 
ATOM     35  H7  0KQ d   1      20.785  11.647  20.729  0.00  0.00     0.045 H 
ENDBRANCH   2  28
BRANCH   5  36
ATOM     36  C4  0KQ d   1      22.951  12.064  25.277  0.00  0.00     0.005 C 
ATOM     37  H4  0KQ d   1      22.929  13.136  25.030  0.00  0.00     0.058 H 
ATOM     38  H5  0KQ d   1      23.927  11.809  25.716  0.00  0.00     0.058 H 
ATOM     39  H6  0KQ d   1      22.153  11.838  25.999  0.00  0.00     0.058 H 
ENDBRANCH   5  36
BRANCH   4  40
ATOM     40  N3  0KQ d   1      22.849   9.112  25.043  0.00  0.00    -0.234 N 
ATOM     41  H2  0KQ d   1      22.818   8.086  24.953  0.00  0.00     0.174 HD
ATOM     42  H3  0KQ d   1      22.991   9.544  25.967  0.00  0.00     0.174 HD
ENDBRANCH   4  40
TORSDOF 5
