REMARK  7 active torsions:
REMARK  status: ('A' for Active; 'I' for Inactive)
REMARK    1  A    between atoms: C1_1  and  C4_6 
REMARK    2  A    between atoms: C1_1  and  C5_8 
REMARK    3  A    between atoms: C2_3  and  N3_14 
REMARK    4  A    between atoms: N2_4  and  C11_15 
REMARK    5  A    between atoms: C7_10  and  C14_18 
REMARK    6  A    between atoms: C16_20  and  C21_23 
REMARK    7  A    between atoms: C22_25  and  C23_26 
ROOT
ATOM      1  C5  0KR d   1      23.429  10.786  20.663  0.00  0.00    -0.019 A 
ATOM      2  C6  0KR d   1      24.793  10.757  20.962  0.00  0.00    -0.063 A 
ATOM      3  C7  0KR d   1      25.748  10.931  19.954  0.00  0.00    -0.024 A 
ATOM      4  C8  0KR d   1      25.309  11.116  18.638  0.00  0.00    -0.072 A 
ATOM      5  C9  0KR d   1      23.959  11.155  18.340  0.00  0.00    -0.082 A 
ATOM      6  C10 0KR d   1      23.022  10.993  19.345  0.00  0.00    -0.074 A 
ATOM      7  H3  0KR d   1      25.115  10.598  21.985  0.00  0.00     0.085 H 
ATOM      8  H4  0KR d   1      26.036  11.230  17.842  0.00  0.00     0.084 H 
ATOM      9  H5  0KR d   1      23.635  11.313  17.318  0.00  0.00     0.083 H 
ATOM     10  H6  0KR d   1      21.965  11.027  19.107  0.00  0.00     0.084 H 
ENDROOT
BRANCH   1  11
ATOM     11  C1  0KR d   1      22.399  10.648  21.787  0.00  0.00     0.160 C 
ATOM     12  N1  0KR d   1      22.683   9.433  22.649  0.00  0.00    -0.203 N 
ATOM     13  C2  0KR d   1      22.852   9.847  23.906  0.00  0.00     0.677 C 
ATOM     14  H1  0KR d   1      22.736   8.458  22.321  0.00  0.00     0.179 HD
ATOM     15  N2  0KR d   1      22.890  11.262  24.019  0.00  0.00    -0.153 N 
ATOM     16  C3  0KR d   1      22.610  11.822  22.794  0.00  0.00     0.272 C 
ATOM     17  O1  0KR d   1      22.565  13.016  22.559  0.00  0.00    -0.269 OA
BRANCH  13  18
ATOM     18  N3  0KR d   1      23.056   9.072  24.975  0.00  0.00    -0.234 N 
ATOM     19  H7  0KR d   1      23.026   8.047  24.881  0.00  0.00     0.174 HD
ATOM     20  H8  0KR d   1      23.243   9.500  25.893  0.00  0.00     0.174 HD
ENDBRANCH  13  18
BRANCH  15  21
ATOM     21  C11 0KR d   1      23.146  12.047  25.232  0.00  0.00     0.005 C 
ATOM     22  H9  0KR d   1      23.343  11.367  26.074  0.00  0.00     0.058 H 
ATOM     23  H10 0KR d   1      22.267  12.667  25.460  0.00  0.00     0.058 H 
ATOM     24  H11 0KR d   1      24.020  12.695  25.072  0.00  0.00     0.058 H 
ENDBRANCH  15  21
BRANCH  11  25
ATOM     25  C4  0KR d   1      20.908  10.727  21.344  0.00  0.00    -0.016 A 
ATOM     26  C12 0KR d   1      19.785  10.229  22.214  0.00  0.00    -0.058 A 
ATOM     27  C13 0KR d   1      20.158   9.485  20.965  0.00  0.00    -0.058 A 
ATOM     28  H12 0KR d   1      18.837  10.785  22.261  0.00  0.00     0.033 H 
ATOM     29  H13 0KR d   1      20.004   9.794  23.200  0.00  0.00     0.033 H 
ATOM     30  H14 0KR d   1      20.649   8.503  21.036  0.00  0.00     0.033 H 
ATOM     31  H15 0KR d   1      19.482   9.495  20.097  0.00  0.00     0.033 H 
ATOM     32  H2  0KR d   1      20.763  11.648  20.760  0.00  0.00     0.045 H 
ENDBRANCH  11  25
ENDBRANCH   1  11
BRANCH   3  33
ATOM     33  C14 0KR d   1      27.201  11.000  20.302  0.00  0.00    -0.007 A 
ATOM     34  C15 0KR d   1      27.729  10.192  21.314  0.00  0.00    -0.051 A 
ATOM     35  C16 0KR d   1      29.078  10.303  21.650  0.00  0.00     0.036 A 
ATOM     36  H16 0KR d   1      27.094   9.484  21.834  0.00  0.00     0.087 H 
ATOM     37  C17 0KR d   1      29.854  11.229  20.947  0.00  0.00     0.020 A 
ATOM     38  N5  0KR d   1      29.369  12.003  19.972  0.00  0.00    -0.271 NA
ATOM     39  H17 0KR d   1      30.902  11.324  21.206  0.00  0.00     0.117 H 
ATOM     40  C19 0KR d   1      28.071  11.882  19.667  0.00  0.00     0.013 A 
ATOM     41  H18 0KR d   1      27.673  12.509  18.877  0.00  0.00     0.116 H 
BRANCH  35  42
ATOM     42  C21 0KR d   1      29.645   9.481  22.686  0.00  0.00    -0.066 C 
ATOM     43  C22 0KR d   1      30.178   8.842  23.535  0.00  0.00    -0.105 C 
BRANCH  43  44
ATOM     44  C23 0KR d   1      30.866   8.079  24.579  0.00  0.00    -0.021 C 
ATOM     45  H19 0KR d   1      30.227   7.245  24.905  0.00  0.00     0.044 H 
ATOM     46  H20 0KR d   1      31.076   8.736  25.436  0.00  0.00     0.044 H 
ATOM     47  H21 0KR d   1      31.812   7.683  24.181  0.00  0.00     0.044 H 
ENDBRANCH  43  44
ENDBRANCH  35  42
ENDBRANCH   3  33
TORSDOF 7
