REMARK  8 active torsions:
REMARK  status: ('A' for Active; 'I' for Inactive)
REMARK    1  A    between atoms: C08_15  and  C10_1 
REMARK       I    between atoms: C10_1  and  N11_17 
REMARK    2  A    between atoms: N11_17  and  C13_2 
REMARK    3  A    between atoms: C15_3  and  C21_6 
REMARK    4  A    between atoms: C15_3  and  C22_7 
REMARK    5  A    between atoms: C17_4  and  C20_5 
REMARK    6  A    between atoms: C17_4  and  C19_22 
REMARK    7  A    between atoms: N07_14  and  C05_12 
REMARK       I    between atoms: N07_14  and  C08_15 
REMARK    8  A    between atoms: N16_20  and  C23_23 
ROOT
ATOM      1  C13 0LM d   1      28.459 -15.332  34.913  0.00  0.00     0.017 C 
ATOM      2  C15 0LM d   1      28.224 -13.316  33.459  0.00  0.00     0.123 C 
ATOM      3  C17 0LM d   1      30.338 -13.671  34.748  0.00  0.00     0.123 C 
ATOM      4  C14 0LM d   1      27.811 -14.722  33.786  0.00  0.00    -0.015 C 
ATOM      5  N16 0LM d   1      29.620 -12.959  33.709  0.00  0.00    -0.059 N 
ATOM      6  C18 0LM d   1      29.916 -15.081  34.943  0.00  0.00    -0.015 C 
ATOM      7  H1  0LM d   1      28.335 -16.420  34.806  0.00  0.00     0.072 H 
ATOM      8  H16 0LM d   1      26.729 -14.715  33.985  0.00  0.00     0.039 H 
ATOM      9  H17 0LM d   1      28.017 -15.345  32.904  0.00  0.00     0.039 H 
ATOM     10  H18 0LM d   1      30.011 -13.451  32.921  0.00  0.00     0.281 HD
ATOM     11  H19 0LM d   1      30.378 -15.684  34.147  0.00  0.00     0.039 H 
ATOM     12  H20 0LM d   1      30.295 -15.413  35.921  0.00  0.00     0.039 H 
ENDROOT
BRANCH   1  13
ATOM     13  N11 0LM d   1      27.754 -14.935  36.183  0.00  0.00    -0.348 N 
ATOM     14  C10 0LM d   1      28.102 -15.454  37.470  0.00  0.00     0.310 C 
ATOM     15  O12 0LM d   1      29.014 -16.257  37.606  0.00  0.00    -0.262 OA
ATOM     16  H15 0LM d   1      27.005 -14.275  36.124  0.00  0.00     0.163 HD
BRANCH  14  17
ATOM     17  C08 0LM d   1      27.340 -15.009  38.674  0.00  0.00     0.313 C 
ATOM     18  N07 0LM d   1      27.705 -15.529  39.959  0.00  0.00    -0.319 N 
ATOM     19  H14 0LM d   1      28.467 -16.175  39.998  0.00  0.00     0.169 HD
ATOM     20  O09 0LM d   1      26.428 -14.207  38.542  0.00  0.00    -0.262 OA
BRANCH  18  21
ATOM     21  C05 0LM d   1      27.054 -15.189  41.196  0.00  0.00     0.038 A 
ATOM     22  C04 0LM d   1      25.673 -15.043  41.275  0.00  0.00    -0.018 A 
ATOM     23  C03 0LM d   1      25.072 -14.723  42.484  0.00  0.00     0.140 A 
ATOM     24  H12 0LM d   1      25.064 -15.180  40.389  0.00  0.00     0.091 H 
ATOM     25  C02 0LM d   1      25.846 -14.556  43.623  0.00  0.00     0.072 A 
ATOM     26  F25 0LM d   1      23.752 -14.577  42.556  0.00  0.00    -0.204 F 
ATOM     27  C01 0LM d   1      27.223 -14.708  43.551  0.00  0.00    -0.057 A 
ATOM     28 CL   0LM d   1      25.091 -14.158  45.126  0.00  0.00    -0.081 Cl
ATOM     29  C06 0LM d   1      27.823 -15.028  42.340  0.00  0.00    -0.055 A 
ATOM     30  H11 0LM d   1      27.830 -14.577  44.439  0.00  0.00     0.086 H 
ATOM     31  H13 0LM d   1      28.898 -15.153  42.288  0.00  0.00     0.087 H 
ENDBRANCH  18  21
ENDBRANCH  14  17
ENDBRANCH   1  13
BRANCH   2  32
ATOM     32  C21 0LM d   1      27.324 -12.348  34.147  0.00  0.00    -0.045 C 
ATOM     33  H5  0LM d   1      26.276 -12.622  33.955  0.00  0.00     0.030 H 
ATOM     34  H6  0LM d   1      27.514 -11.335  33.764  0.00  0.00     0.030 H 
ATOM     35  H7  0LM d   1      27.517 -12.373  35.230  0.00  0.00     0.030 H 
ENDBRANCH   2  32
BRANCH   2  36
ATOM     36  C22 0LM d   1      27.976 -13.116  31.998  0.00  0.00    -0.045 C 
ATOM     37  H8  0LM d   1      28.612 -13.803  31.421  0.00  0.00     0.030 H 
ATOM     38  H9  0LM d   1      28.215 -12.078  31.724  0.00  0.00     0.030 H 
ATOM     39  H10 0LM d   1      26.918 -13.320  31.774  0.00  0.00     0.030 H 
ENDBRANCH   2  36
BRANCH   3  40
ATOM     40  C20 0LM d   1      31.785 -13.689  34.380  0.00  0.00    -0.045 C 
ATOM     41  H2  0LM d   1      32.354 -14.225  35.154  0.00  0.00     0.030 H 
ATOM     42  H3  0LM d   1      32.156 -12.656  34.301  0.00  0.00     0.030 H 
ATOM     43  H4  0LM d   1      31.911 -14.199  33.413  0.00  0.00     0.030 H 
ENDBRANCH   3  40
BRANCH   3  44
ATOM     44  C19 0LM d   1      30.224 -12.940  36.045  0.00  0.00    -0.045 C 
ATOM     45  H21 0LM d   1      30.772 -13.489  36.825  0.00  0.00     0.030 H 
ATOM     46  H22 0LM d   1      29.164 -12.860  36.329  0.00  0.00     0.030 H 
ATOM     47  H23 0LM d   1      30.652 -11.932  35.937  0.00  0.00     0.030 H 
ENDBRANCH   3  44
BRANCH   5  48
ATOM     48  C23 0LM d   1      30.105 -11.655  33.359  0.00  0.00     0.068 C 
ATOM     49  H24 0LM d   1      29.474 -11.230  32.564  0.00  0.00     0.068 H 
ATOM     50  H25 0LM d   1      31.142 -11.733  33.001  0.00  0.00     0.068 H 
ATOM     51  H26 0LM d   1      30.071 -11.002  34.243  0.00  0.00     0.068 H 
ENDBRANCH   5  48
TORSDOF 8
