REMARK  4 active torsions:
REMARK  status: ('A' for Active; 'I' for Inactive)
REMARK    1  A    between atoms: C12_17  and  C13_1 
REMARK       I    between atoms: C13_1  and  N14_18 
REMARK    2  A    between atoms: N14_18  and  C15_2 
REMARK    3  A    between atoms: N11_16  and  C07_12 
REMARK    4  A    between atoms: C08_13  and  N10_15 
REMARK       I    between atoms: N11_16  and  C12_17 
ROOT
ATOM      1  C01 0LL d   1      25.912 -14.333  32.059  0.00  0.00    -0.082 A 
ATOM      2  C02 0LL d   1      26.489 -14.960  33.172  0.00  0.00    -0.074 A 
ATOM      3  C03 0LL d   1      27.457 -14.321  33.932  0.00  0.00    -0.027 A 
ATOM      4  C04 0LL d   1      27.840 -13.014  33.557  0.00  0.00    -0.048 A 
ATOM      5  C05 0LL d   1      27.272 -12.380  32.450  0.00  0.00    -0.076 A 
ATOM      6  C06 0LL d   1      26.297 -13.046  31.692  0.00  0.00    -0.082 A 
ATOM      7  C07 0LL d   1      28.211 -14.803  35.175  0.00  0.00     0.066 C 
ATOM      8  C08 0LL d   1      29.417 -13.781  35.231  0.00  0.00     0.127 C 
ATOM      9  C09 0LL d   1      28.888 -12.510  34.498  0.00  0.00    -0.012 C 
ATOM     10  H2  0LL d   1      25.159 -14.855  31.479  0.00  0.00     0.083 H 
ATOM     11  H3  0LL d   1      26.173 -15.961  33.443  0.00  0.00     0.084 H 
ATOM     12  H4  0LL d   1      27.583 -11.378  32.178  0.00  0.00     0.084 H 
ATOM     13  H5  0LL d   1      25.849 -12.564  30.831  0.00  0.00     0.083 H 
ATOM     14  H6  0LL d   1      28.549 -15.840  35.030  0.00  0.00     0.083 H 
ATOM     15  H7  0LL d   1      29.669 -13.539  36.274  0.00  0.00     0.088 H 
ATOM     16  H8  0LL d   1      28.453 -11.802  35.218  0.00  0.00     0.043 H 
ATOM     17  H9  0LL d   1      29.700 -12.017  33.944  0.00  0.00     0.043 H 
ENDROOT
BRANCH   7  18
ATOM     18  N11 0LL d   1      27.518 -14.701  36.472  0.00  0.00    -0.342 N 
ATOM     19  C12 0LL d   1      28.034 -15.065  37.702  0.00  0.00     0.310 C 
ATOM     20  O17 0LL d   1      29.162 -15.564  37.822  0.00  0.00    -0.262 OA
ATOM     21  H13 0LL d   1      26.588 -14.334  36.461  0.00  0.00     0.163 HD
BRANCH  19  22
ATOM     22  C13 0LL d   1      27.183 -14.866  38.999  0.00  0.00     0.314 C 
ATOM     23  N14 0LL d   1      27.597 -15.222  40.303  0.00  0.00    -0.319 N 
ATOM     24  H14 0LL d   1      28.493 -15.658  40.385  0.00  0.00     0.169 HD
ATOM     25  O16 0LL d   1      26.067 -14.370  38.806  0.00  0.00    -0.262 OA
BRANCH  23  26
ATOM     26  C15 0LL d   1      26.859 -15.022  41.533  0.00  0.00     0.038 A 
ATOM     27  C22 0LL d   1      25.470 -14.804  41.534  0.00  0.00    -0.018 A 
ATOM     28  C21 0LL d   1      24.785 -14.585  42.736  0.00  0.00     0.140 A 
ATOM     29  H1  0LL d   1      24.925 -14.805  40.597  0.00  0.00     0.091 H 
ATOM     30  C20 0LL d   1      25.443 -14.553  43.953  0.00  0.00     0.072 A 
ATOM     31  F24 0LL d   1      23.471 -14.404  42.710  0.00  0.00    -0.204 F 
ATOM     32  C19 0LL d   1      26.814 -14.747  43.972  0.00  0.00    -0.057 A 
ATOM     33 CL   0LL d   1      24.555 -14.266  45.371  0.00  0.00    -0.081 Cl
ATOM     34  C18 0LL d   1      27.516 -14.970  42.793  0.00  0.00    -0.055 A 
ATOM     35  H16 0LL d   1      27.346 -14.725  44.916  0.00  0.00     0.086 H 
ATOM     36  H15 0LL d   1      28.590 -15.108  42.835  0.00  0.00     0.087 H 
ENDBRANCH  23  26
ENDBRANCH  19  22
ENDBRANCH   7  18
BRANCH   8  37
ATOM     37  N10 0LL d   1      30.598 -14.352  34.574  0.00  0.00    -0.072 N 
ATOM     38  H10 0LL d   1      30.903 -15.168  35.081  0.00  0.00     0.274 HD
ATOM     39  H11 0LL d   1      31.339 -13.668  34.561  0.00  0.00     0.274 HD
ATOM     40  H12 0LL d   1      30.364 -14.612  33.629  0.00  0.00     0.274 HD
ENDBRANCH   8  37
TORSDOF 4
