REMARK  4 active torsions:
REMARK  status: ('A' for Active; 'I' for Inactive)
REMARK    1  A    between atoms: C12_17  and  C13_1 
REMARK    2  A    between atoms: N14_18  and  C15_2 
REMARK    3  A    between atoms: N11_16  and  C07_12 
REMARK    4  A    between atoms: C08_13  and  N10_15 
REMARK       I    between atoms: N11_16  and  C12_17 
REMARK       I    between atoms: C25_25  and  N26_26 
REMARK       I    between atoms: C25_25  and  N27_27 
ROOT
ATOM      1  C01 0LK d   1      -4.784 -15.091   7.193  0.00  0.00    -0.082 A 
ATOM      2  C02 0LK d   1      -4.190 -15.827   8.264  0.00  0.00    -0.074 A 
ATOM      3  C03 0LK d   1      -3.257 -15.232   9.049  0.00  0.00    -0.027 A 
ATOM      4  C04 0LK d   1      -2.902 -13.917   8.784  0.00  0.00    -0.048 A 
ATOM      5  C05 0LK d   1      -3.483 -13.185   7.737  0.00  0.00    -0.076 A 
ATOM      6  C06 0LK d   1      -4.426 -13.794   6.949  0.00  0.00    -0.082 A 
ATOM      7  C07 0LK d   1      -2.512 -15.785  10.184  0.00  0.00     0.059 C 
ATOM      8  C08 0LK d   1      -1.364 -14.651  10.415  0.00  0.00     0.053 C 
ATOM      9  C09 0LK d   1      -1.866 -13.442   9.745  0.00  0.00    -0.019 C 
ATOM     10  H2  0LK d   1      -5.529 -15.567   6.565  0.00  0.00     0.083 H 
ATOM     11  H3  0LK d   1      -4.483 -16.854   8.448  0.00  0.00     0.084 H 
ATOM     12  H4  0LK d   1      -3.192 -12.157   7.554  0.00  0.00     0.084 H 
ATOM     13  H5  0LK d   1      -4.887 -13.248   6.134  0.00  0.00     0.083 H 
ATOM     14  H6  0LK d   1      -2.063 -16.752   9.912  0.00  0.00     0.083 H 
ATOM     15  H7  0LK d   1      -1.214 -14.467  11.489  0.00  0.00     0.077 H 
ATOM     16  H8  0LK d   1      -2.310 -12.753  10.479  0.00  0.00     0.043 H 
ATOM     17  H9  0LK d   1      -1.051 -12.933   9.210  0.00  0.00     0.043 H 
ENDROOT
BRANCH   7  18
ATOM     18  N11 0LK d   1      -3.359 -15.978  11.459  0.00  0.00    -0.343 N 
ATOM     19  C12 0LK d   1      -2.895 -16.130  12.693  0.00  0.00     0.296 C 
ATOM     20  O17 0LK d   1      -1.719 -16.487  12.907  0.00  0.00    -0.264 OA
ATOM     21  H11 0LK d   1      -4.352 -15.990  11.345  0.00  0.00     0.163 HD
BRANCH  19  22
ATOM     22  C13 0LK d   1      -3.826 -15.860  13.835  0.00  0.00     0.247 C 
ATOM     23  N14 0LK d   1      -3.381 -15.995  15.067  0.00  0.00    -0.330 N 
ATOM     24  H12 0LK d   1      -2.432 -16.297  15.159  0.00  0.00     0.168 HD
ATOM     25  O16 0LK d   1      -5.064 -15.502  13.519  0.00  0.00    -0.166 OA
BRANCH  23  26
ATOM     26  C15 0LK d   1      -4.055 -15.773  16.236  0.00  0.00     0.037 A 
ATOM     27  C22 0LK d   1      -5.486 -15.623  16.293  0.00  0.00    -0.018 A 
ATOM     28  C21 0LK d   1      -6.143 -15.369  17.540  0.00  0.00     0.140 A 
ATOM     29  H1  0LK d   1      -6.071 -15.703  15.384  0.00  0.00     0.091 H 
ATOM     30  C20 0LK d   1      -5.428 -15.251  18.717  0.00  0.00     0.072 A 
ATOM     31  F24 0LK d   1      -7.452 -15.254  17.561  0.00  0.00    -0.204 F 
ATOM     32  C19 0LK d   1      -4.060 -15.374  18.687  0.00  0.00    -0.057 A 
ATOM     33 CL   0LK d   1      -6.280 -14.934  20.209  0.00  0.00    -0.081 Cl
ATOM     34  C18 0LK d   1      -3.356 -15.637  17.417  0.00  0.00    -0.055 A 
ATOM     35  H14 0LK d   1      -3.492 -15.277  19.605  0.00  0.00     0.086 H 
ATOM     36  H13 0LK d   1      -2.276 -15.724  17.412  0.00  0.00     0.087 H 
ENDBRANCH  23  26
ENDBRANCH  19  22
ENDBRANCH   7  18
BRANCH   8  37
ATOM     37  N10 0LK d   1      -0.038 -15.085   9.775  0.00  0.00    -0.220 N 
ATOM     38  C25 0LK d   1       0.597 -16.134  10.042  0.00  0.00     0.665 C 
ATOM     39  N26 0LK d   1       0.180 -17.047  10.999  0.00  0.00    -0.235 N 
ATOM     40  N27 0LK d   1       1.793 -16.412   9.367  0.00  0.00    -0.235 N 
ATOM     41  H15 0LK d   1       0.738 -17.894  11.181  0.00  0.00     0.174 HD
ATOM     42  H16 0LK d   1      -0.688 -16.878  11.528  0.00  0.00     0.174 HD
ATOM     43  H17 0LK d   1       2.142 -15.762   8.648  0.00  0.00     0.174 HD
ATOM     44  H18 0LK d   1       2.324 -17.266   9.590  0.00  0.00     0.174 HD
ATOM     45  H10 0LK d   1       0.366 -14.460   9.063  0.00  0.00     0.178 HD
ENDBRANCH   8  37
TORSDOF 4
