REMARK  4 active torsions:
REMARK  status: ('A' for Active; 'I' for Inactive)
REMARK       I    between atoms: C10_1  and  N09_15 
REMARK    1  A    between atoms: C12_17  and  C10_1 
REMARK    2  A    between atoms: N13_18  and  C15_2 
REMARK    3  A    between atoms: N09_15  and  C05_11 
REMARK       I    between atoms: C12_17  and  N13_18 
REMARK    4  A    between atoms: C16_20  and  N20_23 
REMARK       I    between atoms: N20_23  and  C25_25 
REMARK       I    between atoms: C25_25  and  N26_26 
ROOT
ATOM      1  C15 0LJ d   1      29.022 -15.289  34.976  0.00  0.00     0.059 C 
ATOM      2  C17 0LJ d   1      29.021 -15.448  32.673  0.00  0.00    -0.019 C 
ATOM      3  C21 0LJ d   1      29.640 -12.908  32.247  0.00  0.00    -0.076 A 
ATOM      4  C22 0LJ d   1      29.925 -11.684  32.865  0.00  0.00    -0.082 A 
ATOM      5  C24 0LJ d   1      29.644 -12.708  35.042  0.00  0.00    -0.074 A 
ATOM      6  C16 0LJ d   1      28.382 -15.997  33.847  0.00  0.00     0.053 C 
ATOM      7  C18 0LJ d   1      29.355 -14.042  33.031  0.00  0.00    -0.048 A 
ATOM      8  C19 0LJ d   1      29.360 -13.942  34.415  0.00  0.00    -0.027 A 
ATOM      9  C23 0LJ d   1      29.925 -11.585  34.263  0.00  0.00    -0.082 A 
ATOM     10  H1  0LJ d   1      29.916 -15.822  35.330  0.00  0.00     0.083 H 
ATOM     11  H2  0LJ d   1      28.336 -15.475  31.813  0.00  0.00     0.043 H 
ATOM     12  H3  0LJ d   1      29.934 -16.012  32.432  0.00  0.00     0.043 H 
ATOM     13  H4  0LJ d   1      29.639 -12.982  31.166  0.00  0.00     0.084 H 
ATOM     14  H5  0LJ d   1      30.146 -10.812  32.261  0.00  0.00     0.083 H 
ATOM     15  H6  0LJ d   1      29.644 -12.634  36.123  0.00  0.00     0.084 H 
ATOM     16  H12 0LJ d   1      27.296 -15.822  33.827  0.00  0.00     0.077 H 
ATOM     17  H14 0LJ d   1      30.143 -10.636  34.739  0.00  0.00     0.083 H 
ENDROOT
BRANCH   1  18
ATOM     18  N13 0LJ d   1      28.115 -15.111  36.014  0.00  0.00    -0.342 N 
ATOM     19  C12 0LJ d   1      28.508 -15.398  37.361  0.00  0.00     0.310 C 
ATOM     20  O14 0LJ d   1      29.652 -15.817  37.605  0.00  0.00    -0.262 OA
ATOM     21  H11 0LJ d   1      27.190 -14.783  35.821  0.00  0.00     0.163 HD
BRANCH  19  22
ATOM     22  C10 0LJ d   1      27.510 -15.191  38.503  0.00  0.00     0.314 C 
ATOM     23  N09 0LJ d   1      27.941 -15.503  39.842  0.00  0.00    -0.319 N 
ATOM     24  H10 0LJ d   1      28.871 -15.856  39.947  0.00  0.00     0.169 HD
ATOM     25  O11 0LJ d   1      26.391 -14.782  38.244  0.00  0.00    -0.262 OA
BRANCH  23  26
ATOM     26  C05 0LJ d   1      27.155 -15.354  41.055  0.00  0.00     0.038 A 
ATOM     27  C04 0LJ d   1      25.806 -15.002  41.038  0.00  0.00    -0.018 A 
ATOM     28  C03 0LJ d   1      25.116 -14.856  42.223  0.00  0.00     0.140 A 
ATOM     29  H8  0LJ d   1      25.299 -14.843  40.093  0.00  0.00     0.091 H 
ATOM     30  C02 0LJ d   1      25.762 -15.052  43.429  0.00  0.00     0.072 A 
ATOM     31  F08 0LJ d   1      23.828 -14.529  42.212  0.00  0.00    -0.204 F 
ATOM     32  C01 0LJ d   1      27.109 -15.394  43.455  0.00  0.00    -0.057 A 
ATOM     33 CL7  0LJ d   1      24.893 -14.866  44.892  0.00  0.00    -0.081 Cl
ATOM     34  C06 0LJ d   1      27.797 -15.539  42.269  0.00  0.00    -0.055 A 
ATOM     35  H7  0LJ d   1      27.615 -15.546  44.401  0.00  0.00     0.086 H 
ATOM     36  H9  0LJ d   1      28.849 -15.800  42.286  0.00  0.00     0.087 H 
ENDBRANCH  23  26
ENDBRANCH  19  22
ENDBRANCH   1  18
BRANCH   6  37
ATOM     37  N20 0LJ d   1      28.654 -17.393  33.952  0.00  0.00    -0.220 N 
ATOM     38  C25 0LJ d   1      27.742 -18.337  33.410  0.00  0.00     0.665 C 
ATOM     39  N26 0LJ d   1      26.654 -17.920  32.810  0.00  0.00    -0.235 N 
ATOM     40  N27 0LJ d   1      27.991 -19.615  33.509  0.00  0.00    -0.235 N 
ATOM     41  H15 0LJ d   1      25.990 -18.602  32.416  0.00  0.00     0.174 HD
ATOM     42  H16 0LJ d   1      26.463 -16.911  32.733  0.00  0.00     0.174 HD
ATOM     43  H17 0LJ d   1      28.847 -19.938  33.981  0.00  0.00     0.174 HD
ATOM     44  H18 0LJ d   1      27.331 -20.300  33.115  0.00  0.00     0.174 HD
ATOM     45  H13 0LJ d   1      29.512 -17.717  34.421  0.00  0.00     0.178 HD
ENDBRANCH   6  37
TORSDOF 4
