REMARK  8 active torsions:
REMARK  status: ('A' for Active; 'I' for Inactive)
REMARK    1  A    between atoms: C6_4  and  N1_1 
REMARK    2  A    between atoms: C7_5  and  C8_6 
REMARK    3  A    between atoms: C3_12  and  C7_5 
REMARK    4  A    between atoms: C8_6  and  C12_9 
REMARK    5  A    between atoms: C8_6  and  N2_11 
REMARK    6  A    between atoms: C9_18  and  C10_7 
REMARK    7  A    between atoms: C10_7  and  C11_19 
REMARK    8  A    between atoms: C2_17  and  C9_18 
ROOT
ATOM      1  C4  TZG d   1       0.381  33.409 103.270  0.00  0.00    -0.053 A 
ATOM      2  C5  TZG d   1       1.716  33.716 103.061  0.00  0.00     0.067 A 
ATOM      3  C6  TZG d   1       2.038  34.803 102.258  0.00  0.00     0.125 A 
ATOM      4  C3  TZG d   1      -0.627  34.178 102.699  0.00  0.00    -0.048 A 
ATOM      5 CL1  TZG d   1       2.931  32.731 103.812  0.00  0.00    -0.082 Cl
ATOM      6  C1  TZG d   1       1.033  35.563 101.685  0.00  0.00    -0.043 A 
ATOM      7  C2  TZG d   1      -0.307  35.271 101.900  0.00  0.00    -0.049 A 
ATOM      8  H1  TZG d   1       0.119  32.557 103.887  0.00  0.00     0.087 H 
ATOM      9  H10 TZG d   1       1.298  36.404 101.055  0.00  0.00     0.088 H 
ENDROOT
BRANCH   4  10
ATOM     10  C7  TZG d   1      -2.059  33.768 102.998  0.00  0.00    -0.004 C 
ATOM     11  H2  TZG d   1      -2.678  33.917 102.101  0.00  0.00     0.044 H 
ATOM     12  H3  TZG d   1      -2.084  32.707 103.288  0.00  0.00     0.044 H 
BRANCH  10  13
ATOM     13  C8  TZG d   1      -2.613  34.633 104.157  0.00  0.00     0.186 C 
ATOM     14  H4  TZG d   1      -2.532  35.703 103.913  0.00  0.00     0.101 H 
BRANCH  13  15
ATOM     15  C12 TZG d   1      -4.064  34.236 104.372  0.00  0.00     0.204 C 
ATOM     16  O4  TZG d   1      -4.896  34.636 103.529  0.00  0.00    -0.646 OA
ATOM     17  O5  TZG d   1      -4.290  33.493 105.344  0.00  0.00    -0.646 OA
ENDBRANCH  13  15
BRANCH  13  18
ATOM     18  N2  TZG d   1      -1.873  34.330 105.387  0.00  0.00    -0.065 N 
ATOM     19  H7  TZG d   1      -2.232  34.892 106.142  0.00  0.00     0.275 HD
ATOM     20  H8  TZG d   1      -0.896  34.536 105.251  0.00  0.00     0.275 HD
ATOM     21  H9  TZG d   1      -1.982  33.354 105.613  0.00  0.00     0.275 HD
ENDBRANCH  13  18
ENDBRANCH  10  13
ENDBRANCH   4  10
BRANCH   7  22
ATOM     22  C9  TZG d   1      -1.360  36.158 101.208  0.00  0.00    -0.031 C 
ATOM     23  H11 TZG d   1      -1.468  35.819 100.167  0.00  0.00     0.040 H 
ATOM     24  H12 TZG d   1      -2.317  36.034 101.735  0.00  0.00     0.040 H 
BRANCH  22  25
ATOM     25  C10 TZG d   1      -1.005  37.650 101.196  0.00  0.00     0.019 C 
ATOM     26  H5  TZG d   1      -1.574  38.151 100.399  0.00  0.00     0.049 H 
ATOM     27  H6  TZG d   1       0.072  37.765 101.005  0.00  0.00     0.049 H 
BRANCH  25  28
ATOM     28  C11 TZG d   1      -1.351  38.294 102.546  0.00  0.00     0.172 C 
ATOM     29  O7  TZG d   1      -2.475  38.050 103.029  0.00  0.00    -0.648 OA
ATOM     30  O6  TZG d   1      -0.485  39.023 103.062  0.00  0.00    -0.648 OA
ENDBRANCH  25  28
ENDBRANCH  22  25
ENDBRANCH   7  22
BRANCH   3  31
ATOM     31  N1  TZG d   1       3.302  35.161 102.011  0.00  0.00    -0.114 N 
ATOM     32  O1  TZG d   1       3.594  36.522 101.725  0.00  0.00    -0.532 OA
ATOM     33  O2  TZG d   1       4.342  34.213 101.989  0.00  0.00    -0.532 OA
ENDBRANCH   3  31
TORSDOF 8
