REMARK  8 active torsions:
REMARK  status: ('A' for Active; 'I' for Inactive)
REMARK    1  A    between atoms: N1_1  and  C1'_9 
REMARK    2  A    between atoms: C2'_10  and  O2'_11 
REMARK    3  A    between atoms: C3'_12  and  O3'_15 
REMARK    4  A    between atoms: C4'_13  and  C5'_16 
REMARK    5  A    between atoms: C5'_16  and  O5'_17 
REMARK    6  A    between atoms: O5'_17  and  PA_18 
REMARK    7  A    between atoms: PA_18  and  O3A_21 
REMARK    8  A    between atoms: O3A_21  and  PB_22 
ROOT
ATOM      1  C1' UDP d   1       6.969  28.344  18.752  0.00  0.00     0.141 C 
ATOM      2  C2' UDP d   1       7.476  27.748  20.046  0.00  0.00     0.105 C 
ATOM      3  C3' UDP d   1       8.946  27.482  19.753  0.00  0.00     0.091 C 
ATOM      4  C4' UDP d   1       9.278  28.667  18.843  0.00  0.00     0.089 C 
ATOM      5  O4' UDP d   1       8.098  28.841  18.060  0.00  0.00    -0.353 OA
ATOM      6  H4  UDP d   1       6.256  29.160  18.943  0.00  0.00     0.123 H 
ATOM      7  H5  UDP d   1       6.955  26.816  20.308  0.00  0.00     0.093 H 
ATOM      8  H7  UDP d   1       9.069  26.531  19.214  0.00  0.00     0.091 H 
ATOM      9  H8  UDP d   1       9.468  29.562  19.453  0.00  0.00     0.090 H 
ENDROOT
BRANCH   4  10
ATOM     10  C5' UDP d   1      10.492  28.429  17.942  0.00  0.00     0.058 C 
ATOM     11  H10 UDP d   1      11.348  28.111  18.556  0.00  0.00     0.079 H 
ATOM     12  H11 UDP d   1      10.745  29.360  17.414  0.00  0.00     0.079 H 
BRANCH  10  13
ATOM     13  O5' UDP d   1      10.187  27.420  16.999  0.00  0.00    -0.287 OA
BRANCH  13  14
ATOM     14  PA  UDP d   1      11.358  26.543  16.313  0.00  0.00     0.418 P 
ATOM     15  O1A UDP d   1      10.793  25.289  15.722  0.00  0.00    -0.624 OA
ATOM     16  O2A UDP d   1      12.350  26.199  17.368  0.00  0.00    -0.624 OA
BRANCH  14  17
ATOM     17  O3A UDP d   1      11.969  27.556  15.209  0.00  0.00    -0.173 OA
BRANCH  17  18
ATOM     18  PB  UDP d   1      13.488  28.107  15.050  0.00  0.00     0.431 P 
ATOM     19  O1B UDP d   1      13.652  28.770  13.729  0.00  0.00    -0.616 OA
ATOM     20  O2B UDP d   1      14.489  27.019  15.107  0.00  0.00    -0.616 OA
ATOM     21  O3B UDP d   1      13.811  29.090  16.117  0.00  0.00    -0.616 OA
ENDBRANCH  17  18
ENDBRANCH  14  17
ENDBRANCH  13  14
ENDBRANCH  10  13
ENDBRANCH   4  10
BRANCH   3  22
ATOM     22  O3' UDP d   1       9.748  27.438  20.921  0.00  0.00    -0.390 OA
ATOM     23  H9  UDP d   1      10.662  27.365  20.674  0.00  0.00     0.210 HD
ENDBRANCH   3  22
BRANCH   2  24
ATOM     24  O2' UDP d   1       7.266  28.725  21.054  0.00  0.00    -0.388 OA
ATOM     25  H6  UDP d   1       7.573  28.389  21.888  0.00  0.00     0.210 HD
ENDBRANCH   2  24
BRANCH   1  26
ATOM     26  N1  UDP d   1       6.305  27.257  18.025  0.00  0.00    -0.280 N 
ATOM     27  C2  UDP d   1       4.993  26.978  18.342  0.00  0.00     0.331 C 
ATOM     28  N3  UDP d   1       4.326  25.957  17.691  0.00  0.00    -0.275 N 
ATOM     29  O2  UDP d   1       4.427  27.646  19.203  0.00  0.00    -0.246 OA
ATOM     30  C4  UDP d   1       4.971  25.206  16.721  0.00  0.00     0.250 C 
ATOM     31  H1  UDP d   1       3.373  25.759  17.921  0.00  0.00     0.173 HD
ATOM     32  C5  UDP d   1       6.302  25.494  16.413  0.00  0.00    -0.002 C 
ATOM     33  O4  UDP d   1       4.369  24.292  16.148  0.00  0.00    -0.268 OA
ATOM     34  C6  UDP d   1       6.864  26.673  16.914  0.00  0.00    -0.008 C 
ATOM     35  H2  UDP d   1       6.890  24.816  15.796  0.00  0.00     0.094 H 
ATOM     36  H3  UDP d   1       7.731  27.121  16.431  0.00  0.00     0.112 H 
ENDBRANCH   1  26
TORSDOF 8
