REMARK  13 active torsions:
REMARK  status: ('A' for Active; 'I' for Inactive)
REMARK    1  A    between atoms: P_1  and  O5'_4 
REMARK    2  A    between atoms: P_1  and  OBB_24 
REMARK    3  A    between atoms: O5'_4  and  C5'_5 
REMARK    4  A    between atoms: C5'_5  and  C4'_6 
REMARK    5  A    between atoms: C3'_8  and  O3'_9 
REMARK    6  A    between atoms: C2'_10  and  O2'_11 
REMARK    7  A    between atoms: C1'_12  and  N9_13 
REMARK    8  A    between atoms: C6_17  and  N6_18 
REMARK    9  A    between atoms: OBB_24  and  CBB_23 
REMARK   10  A    between atoms: CBB_23  and  CAB_25 
REMARK   11  A    between atoms: C9B_26  and  C8B_27 
REMARK   12  A    between atoms: C8B_27  and  C7B_28 
REMARK   13  A    between atoms: C7B_28  and  C2B_29 
ROOT
ATOM      1  P   BTX d   1      53.202  18.087  17.613  0.00  0.00     0.408 P 
ATOM      2  O1P BTX d   1      52.970  18.714  16.310  0.00  0.00    -0.624 OA
ATOM      3  O2P BTX d   1      54.250  17.015  17.803  0.00  0.00    -0.624 OA
ENDROOT
BRANCH   1   4
ATOM      4  O5' BTX d   1      54.019  19.033  18.586  0.00  0.00    -0.287 OA
BRANCH   4   5
ATOM      5  C5' BTX d   1      53.786  20.309  18.906  0.00  0.00     0.058 C 
ATOM      6  H1  BTX d   1      53.419  20.339  19.942  0.00  0.00     0.079 H 
ATOM      7  H2  BTX d   1      53.008  20.693  18.230  0.00  0.00     0.079 H 
BRANCH   5   8
ATOM      8  C4' BTX d   1      54.974  21.216  18.809  0.00  0.00     0.089 C 
ATOM      9  O4' BTX d   1      54.246  22.478  19.025  0.00  0.00    -0.353 OA
ATOM     10  C1' BTX d   1      54.893  23.335  19.946  0.00  0.00     0.139 C 
ATOM     11  C2' BTX d   1      56.258  22.701  20.069  0.00  0.00     0.105 C 
ATOM     12  H8  BTX d   1      54.980  24.368  19.578  0.00  0.00     0.122 H 
ATOM     13  C3' BTX d   1      56.060  21.207  19.824  0.00  0.00     0.091 C 
ATOM     14  H6  BTX d   1      56.790  22.909  21.009  0.00  0.00     0.093 H 
ATOM     15  H4  BTX d   1      55.774  20.638  20.721  0.00  0.00     0.091 H 
ATOM     16  H3  BTX d   1      55.430  21.134  17.811  0.00  0.00     0.090 H 
BRANCH  10  17
ATOM     17  N9  BTX d   1      54.049  23.301  21.166  0.00  0.00    -0.294 N 
ATOM     18  C8  BTX d   1      54.228  22.597  22.297  0.00  0.00     0.071 A 
ATOM     19  N7  BTX d   1      53.213  22.926  23.106  0.00  0.00    -0.236 NA
ATOM     20  H9  BTX d   1      55.036  21.899  22.512  0.00  0.00     0.144 H 
ATOM     21  C5  BTX d   1      52.399  23.797  22.495  0.00  0.00     0.149 A 
ATOM     22  C6  BTX d   1      51.193  24.512  22.861  0.00  0.00     0.155 A 
ATOM     23  C4  BTX d   1      52.953  24.051  21.273  0.00  0.00     0.167 A 
ATOM     24  N1  BTX d   1      50.677  25.363  21.987  0.00  0.00    -0.222 NA
ATOM     25  C2  BTX d   1      51.255  25.668  20.707  0.00  0.00     0.091 A 
ATOM     26  N3  BTX d   1      52.463  24.963  20.442  0.00  0.00    -0.222 NA
ATOM     27  H12 BTX d   1      50.812  26.369  20.009  0.00  0.00     0.146 H 
BRANCH  22  28
ATOM     28  N6  BTX d   1      50.563  24.372  24.041  0.00  0.00    -0.382 N 
ATOM     29  H10 BTX d   1      49.708  24.913  24.236  0.00  0.00     0.157 HD
ATOM     30  H11 BTX d   1      50.935  23.724  24.750  0.00  0.00     0.157 HD
ENDBRANCH  22  28
ENDBRANCH  10  17
BRANCH  11  31
ATOM     31  O2' BTX d   1      56.832  23.309  18.922  0.00  0.00    -0.388 OA
ATOM     32  H7  BTX d   1      57.673  22.907  18.740  0.00  0.00     0.210 HD
ENDBRANCH  11  31
BRANCH  13  33
ATOM     33  O3' BTX d   1      57.317  20.797  19.334  0.00  0.00    -0.390 OA
ATOM     34  H5  BTX d   1      57.592  21.385  18.640  0.00  0.00     0.210 HD
ENDBRANCH  13  33
ENDBRANCH   5   8
ENDBRANCH   4   5
ENDBRANCH   1   4
BRANCH   1  35
ATOM     35  OBB BTX d   1      51.859  17.636  18.394  0.00  0.00    -0.286 OA
BRANCH  35  36
ATOM     36  CBB BTX d   1      50.405  17.452  18.100  0.00  0.00     0.046 C 
ATOM     37  H13 BTX d   1      50.246  16.670  17.343  0.00  0.00     0.081 H 
ATOM     38  H14 BTX d   1      49.944  18.391  17.760  0.00  0.00     0.081 H 
BRANCH  36  39
ATOM     39  CAB BTX d   1      49.950  17.098  19.233  0.00  0.00    -0.084 C 
ATOM     40  C9B BTX d   1      49.527  16.698  20.372  0.00  0.00    -0.104 C 
ATOM     41  H16 BTX d   1      50.227  16.030  20.871  0.00  0.00     0.076 H 
ATOM     42  H15 BTX d   1      49.272  17.950  19.254  0.00  0.00     0.079 H 
BRANCH  40  43
ATOM     43  C8B BTX d   1      48.315  16.936  21.155  0.00  0.00    -0.049 C 
ATOM     44  H17 BTX d   1      47.582  16.143  20.945  0.00  0.00     0.038 H 
ATOM     45  H18 BTX d   1      47.888  17.912  20.880  0.00  0.00     0.038 H 
BRANCH  43  46
ATOM     46  C7B BTX d   1      48.656  16.932  22.647  0.00  0.00    -0.049 C 
ATOM     47  H19 BTX d   1      48.921  17.948  22.975  0.00  0.00     0.035 H 
ATOM     48  H20 BTX d   1      49.500  16.253  22.838  0.00  0.00     0.035 H 
BRANCH  46  49
ATOM     49  C2B BTX d   1      47.427  16.452  23.390  0.00  0.00     0.013 C 
ATOM     50  S1B BTX d   1      47.263  17.293  24.923  0.00  0.00    -0.160 SA
ATOM     51  C6B BTX d   1      46.131  15.991  25.239  0.00  0.00    -0.002 C 
ATOM     52  C5B BTX d   1      46.814  14.683  24.887  0.00  0.00     0.042 C 
ATOM     53  H22 BTX d   1      45.230  16.120  24.621  0.00  0.00     0.052 H 
ATOM     54  H23 BTX d   1      45.849  15.991  26.302  0.00  0.00     0.052 H 
ATOM     55  N1B BTX d   1      47.807  14.241  25.840  0.00  0.00    -0.336 N 
ATOM     56  C4B BTX d   1      47.663  14.979  23.643  0.00  0.00     0.046 C 
ATOM     57  H24 BTX d   1      46.063  13.898  24.712  0.00  0.00     0.077 H 
ATOM     58  C3B BTX d   1      49.063  14.289  25.363  0.00  0.00     0.316 C 
ATOM     59  H25 BTX d   1      47.582  13.930  26.763  0.00  0.00     0.164 HD
ATOM     60  O3B BTX d   1      50.107  13.932  26.020  0.00  0.00    -0.247 OA
ATOM     61  N2B BTX d   1      49.041  14.846  24.111  0.00  0.00    -0.335 N 
ATOM     62  H26 BTX d   1      49.851  15.121  23.593  0.00  0.00     0.164 HD
ATOM     63  H27 BTX d   1      47.431  14.341  22.778  0.00  0.00     0.077 H 
ATOM     64  H21 BTX d   1      46.523  16.605  22.783  0.00  0.00     0.059 H 
ENDBRANCH  46  49
ENDBRANCH  43  46
ENDBRANCH  40  43
ENDBRANCH  36  39
ENDBRANCH  35  36
ENDBRANCH   1  35
TORSDOF 13
