REMARK  4 active torsions:
REMARK  status: ('A' for Active; 'I' for Inactive)
REMARK    1  A    between atoms: C2_3  and  C1_1 
REMARK    2  A    between atoms: C3_5  and  C14_13 
REMARK    3  A    between atoms: C14_13  and  C15_14 
REMARK    4  A    between atoms: C15_14  and  N16_15 
ROOT
ATOM      1 CL1  9LI d   1      26.612  12.662  10.139  0.00  0.00    -0.083 Cl
ATOM      2  C2  9LI d   1      24.320  14.376  13.871  0.00  0.00     0.013 A 
ATOM      3 CL2  9LI d   1      23.161  16.242   8.077  0.00  0.00    -0.084 Cl
ATOM      4  C3  9LI d   1      25.146  13.702  13.046  0.00  0.00    -0.020 A 
ATOM      5  C4  9LI d   1      24.857  14.154  11.671  0.00  0.00     0.021 A 
ATOM      6  C5  9LI d   1      23.828  15.115  11.812  0.00  0.00     0.046 A 
ATOM      7  N6  9LI d   1      23.530  15.224  13.151  0.00  0.00    -0.359 N 
ATOM      8  C8  9LI d   1      23.319  15.746  10.689  0.00  0.00    -0.035 A 
ATOM      9  C9  9LI d   1      23.819  15.430   9.450  0.00  0.00     0.037 A 
ATOM     10  C10 9LI d   1      24.825  14.489   9.287  0.00  0.00    -0.040 A 
ATOM     11  C11 9LI d   1      25.355  13.845  10.387  0.00  0.00     0.048 A 
ATOM     12  H4  9LI d   1      22.817  15.852  13.550  0.00  0.00     0.166 HD
ATOM     13  H5  9LI d   1      22.531  16.484  10.788  0.00  0.00     0.089 H 
ATOM     14  H6  9LI d   1      25.195  14.259   8.295  0.00  0.00     0.088 H 
ENDROOT
BRANCH   4  15
ATOM     15  C14 9LI d   1      26.172  12.687  13.479  0.00  0.00    -0.016 C 
ATOM     16  H7  9LI d   1      26.431  12.044  12.625  0.00  0.00     0.042 H 
ATOM     17  H8  9LI d   1      25.756  12.071  14.289  0.00  0.00     0.042 H 
BRANCH  15  18
ATOM     18  C15 9LI d   1      27.434  13.399  13.980  0.00  0.00     0.084 C 
ATOM     19  H9  9LI d   1      27.179  14.034  14.841  0.00  0.00     0.075 H 
ATOM     20  H10 9LI d   1      27.847  14.023  13.174  0.00  0.00     0.075 H 
BRANCH  18  21
ATOM     21  N16 9LI d   1      28.434  12.402  14.387  0.00  0.00    -0.079 N 
ATOM     22  H11 9LI d   1      29.263  12.872  14.716  0.00  0.00     0.274 HD
ATOM     23  H12 9LI d   1      28.669  11.820  13.598  0.00  0.00     0.274 HD
ATOM     24  H13 9LI d   1      28.057  11.830  15.126  0.00  0.00     0.274 HD
ENDBRANCH  18  21
ENDBRANCH  15  18
ENDBRANCH   4  15
BRANCH   2  25
ATOM     25  C1  9LI d   1      24.262  14.237  15.368  0.00  0.00    -0.037 C 
ATOM     26  H1  9LI d   1      23.492  14.913  15.769  0.00  0.00     0.035 H 
ATOM     27  H2  9LI d   1      25.240  14.498  15.799  0.00  0.00     0.035 H 
ATOM     28  H3  9LI d   1      24.011  13.199  15.630  0.00  0.00     0.035 H 
ENDBRANCH   2  25
TORSDOF 4
