REMARK  0 active torsions:
REMARK  status: ('A' for Active; 'I' for Inactive)
ROOT
ATOM      1  N1  BZI d   1      25.358  12.533  11.401  0.00  0.00    -0.242 NA
ATOM      2  C2  BZI d   1      25.126  12.510  12.681  0.00  0.00     0.065 A 
ATOM      3  N3  BZI d   1      23.962  13.160  12.955  0.00  0.00    -0.349 N 
ATOM      4  C3A BZI d   1      23.447  13.613  11.750  0.00  0.00     0.062 A 
ATOM      5  C4  BZI d   1      22.312  14.325  11.389  0.00  0.00    -0.055 A 
ATOM      6  C5  BZI d   1      22.087  14.623  10.061  0.00  0.00    -0.081 A 
ATOM      7  C6  BZI d   1      22.986  14.213   9.086  0.00  0.00    -0.081 A 
ATOM      8  C7  BZI d   1      24.113  13.513   9.422  0.00  0.00    -0.053 A 
ATOM      9  C7A BZI d   1      24.358  13.200  10.762  0.00  0.00     0.084 A 
ATOM     10  H1  BZI d   1      25.769  12.040  13.424  0.00  0.00     0.143 H 
ATOM     11  H2  BZI d   1      23.541  13.291  13.886  0.00  0.00     0.167 HD
ATOM     12  H3  BZI d   1      21.606  14.645  12.146  0.00  0.00     0.087 H 
ATOM     13  H4  BZI d   1      21.202  15.181   9.777  0.00  0.00     0.083 H 
ATOM     14  H5  BZI d   1      22.793  14.450   8.046  0.00  0.00     0.083 H 
ATOM     15  H6  BZI d   1      24.812  13.203   8.653  0.00  0.00     0.087 H 
ENDROOT
TORSDOF 0
