REMARK  2 active torsions:
REMARK  status: ('A' for Active; 'I' for Inactive)
REMARK    1  A    between atoms: CAN_6  and  CAO_7 
REMARK    2  A    between atoms: CAM_12  and  CAL_13 
ROOT
ATOM      1  CAO 0LO d   1     -72.494  34.302 -43.030  0.00  0.00    -0.007 A 
ATOM      2  CAJ 0LO d   1     -71.495  33.455 -42.541  0.00  0.00    -0.053 A 
ATOM      3  CAI 0LO d   1     -73.247  35.035 -42.123  0.00  0.00     0.013 A 
ATOM      4  NAK 0LO d   1     -73.007  34.932 -40.809  0.00  0.00    -0.271 NA
ATOM      5  CAH 0LO d   1     -72.058  34.131 -40.320  0.00  0.00     0.018 A 
ATOM      6  CAM 0LO d   1     -71.289  33.359 -41.166  0.00  0.00     0.059 A 
ATOM      7  H6  0LO d   1     -70.885  32.877 -43.226  0.00  0.00     0.086 H 
ATOM      8  H7  0LO d   1     -74.032  35.693 -42.479  0.00  0.00     0.116 H 
ATOM      9  H8  0LO d   1     -71.890  34.087 -39.250  0.00  0.00     0.116 H 
ENDROOT
BRANCH   1  10
ATOM     10  CAN 0LO d   1     -72.785  34.436 -44.499  0.00  0.00    -0.025 A 
ATOM     11  CAF 0LO d   1     -73.909  35.150 -44.911  0.00  0.00    -0.072 A 
ATOM     12  CAD 0LO d   1     -74.190  35.275 -46.270  0.00  0.00    -0.082 A 
ATOM     13  H1  0LO d   1     -74.562  35.607 -44.176  0.00  0.00     0.084 H 
ATOM     14  CAC 0LO d   1     -73.355  34.688 -47.220  0.00  0.00    -0.083 A 
ATOM     15  H2  0LO d   1     -75.063  35.832 -46.591  0.00  0.00     0.083 H 
ATOM     16  CAE 0LO d   1     -72.234  33.974 -46.817  0.00  0.00    -0.082 A 
ATOM     17  H3  0LO d   1     -73.581  34.789 -48.275  0.00  0.00     0.083 H 
ATOM     18  CAG 0LO d   1     -71.954  33.854 -45.458  0.00  0.00    -0.072 A 
ATOM     19  H4  0LO d   1     -71.584  33.515 -47.553  0.00  0.00     0.083 H 
ATOM     20  H5  0LO d   1     -71.078  33.300 -45.140  0.00  0.00     0.084 H 
ENDBRANCH   1  10
BRANCH   6  21
ATOM     21  CAL 0LO d   1     -70.230  32.485 -40.608  0.00  0.00     0.210 C 
ATOM     22  OAB 0LO d   1     -70.464  31.563 -39.758  0.00  0.00    -0.644 OA
ATOM     23  OAA 0LO d   1     -69.066  32.718 -41.017  0.00  0.00    -0.644 OA
ENDBRANCH   6  21
TORSDOF 2
