REMARK  8 active torsions:
REMARK  status: ('A' for Active; 'I' for Inactive)
REMARK       I    between atoms: N10_1  and  C12_8 
REMARK    1  A    between atoms: C14_13  and  N10_1 
REMARK    2  A    between atoms: C13_11  and  C11_4 
REMARK    3  A    between atoms: C12_8  and  C13_11 
REMARK    4  A    between atoms: N13_12  and  C20_19 
REMARK    5  A    between atoms: C21_20  and  N13_12 
REMARK    6  A    between atoms: C15_14  and  C16_15 
REMARK    7  A    between atoms: C18_17  and  C17_16 
REMARK    8  A    between atoms: C24_23  and  C25_24 
ROOT
ATOM      1  S11 RLI d   1       1.025   2.675  33.690  0.00  0.00    -0.061 SA
ATOM      2  N12 RLI d   1       1.456   2.046  36.135  0.00  0.00    -0.223 NA
ATOM      3  C18 RLI d   1       2.062   3.268  35.986  0.00  0.00     0.085 A 
ATOM      4  C19 RLI d   1       1.941   3.792  34.639  0.00  0.00    -0.012 A 
ATOM      5  C20 RLI d   1       0.873   1.613  35.010  0.00  0.00     0.171 A 
ATOM      6  H11 RLI d   1       2.358   4.733  34.284  0.00  0.00     0.098 H 
ENDROOT
BRANCH   3   7
ATOM      7  C17 RLI d   1       2.779   3.976  37.061  0.00  0.00     0.062 A 
ATOM      8  S10 RLI d   1       3.591   5.448  36.795  0.00  0.00    -0.048 SA
ATOM      9  C14 RLI d   1       3.998   5.464  38.451  0.00  0.00     0.174 A 
ATOM     10  N11 RLI d   1       3.567   4.441  39.118  0.00  0.00    -0.228 NA
ATOM     11  C15 RLI d   1       2.852   3.553  38.345  0.00  0.00     0.053 A 
BRANCH   9  12
ATOM     12  N10 RLI d   1       4.712   6.409  39.054  0.00  0.00    -0.306 N 
ATOM     13  C12 RLI d   1       5.248   7.450  38.456  0.00  0.00     0.223 C 
ATOM     14  O10 RLI d   1       5.167   7.644  37.309  0.00  0.00    -0.273 OA
ATOM     15  H1  RLI d   1       4.853   6.321  40.040  0.00  0.00     0.171 HD
BRANCH  13  16
ATOM     16  C13 RLI d   1       6.002   8.394  39.398  0.00  0.00     0.006 C 
ATOM     17  H5  RLI d   1       5.489   9.367  39.394  0.00  0.00     0.046 H 
ATOM     18  H6  RLI d   1       5.971   7.967  40.411  0.00  0.00     0.046 H 
BRANCH  16  19
ATOM     19  C11 RLI d   1       7.358   8.605  39.046  0.00  0.00    -0.068 C 
ATOM     20  H2  RLI d   1       7.822   9.291  39.770  0.00  0.00     0.028 H 
ATOM     21  H3  RLI d   1       7.411   9.044  38.039  0.00  0.00     0.028 H 
ATOM     22  H4  RLI d   1       7.893   7.644  39.056  0.00  0.00     0.028 H 
ENDBRANCH  16  19
ENDBRANCH  13  16
ENDBRANCH   9  12
BRANCH  11  23
ATOM     23  C16 RLI d   1       2.272   2.304  38.937  0.00  0.00    -0.034 C 
ATOM     24  H8  RLI d   1       1.744   1.739  38.155  0.00  0.00     0.035 H 
ATOM     25  H9  RLI d   1       1.566   2.571  39.737  0.00  0.00     0.035 H 
ATOM     26  H10 RLI d   1       3.081   1.685  39.353  0.00  0.00     0.035 H 
ENDBRANCH  11  23
ENDBRANCH   3   7
BRANCH   5  27
ATOM     27  N13 RLI d   1       0.224   0.449  34.881  0.00  0.00    -0.335 N 
ATOM     28  H7  RLI d   1      -0.171   0.252  33.950  0.00  0.00     0.168 HD
BRANCH  27  29
ATOM     29  C21 RLI d   1       0.013  -0.549  35.873  0.00  0.00     0.034 A 
ATOM     30  C22 RLI d   1       0.577  -0.470  37.105  0.00  0.00    -0.056 A 
ATOM     31  C23 RLI d   1       0.367  -1.469  38.015  0.00  0.00    -0.064 A 
ATOM     32  H12 RLI d   1       1.192   0.383  37.367  0.00  0.00     0.086 H 
ATOM     33  C24 RLI d   1      -0.410  -2.555  37.697  0.00  0.00     0.041 A 
ATOM     34  H13 RLI d   1       0.819  -1.403  38.998  0.00  0.00     0.085 H 
ATOM     35  C26 RLI d   1      -0.967  -2.617  36.473  0.00  0.00    -0.064 A 
ATOM     36  C27 RLI d   1      -0.763  -1.627  35.557  0.00  0.00    -0.056 A 
ATOM     37  H14 RLI d   1      -1.587  -3.467  36.211  0.00  0.00     0.085 H 
ATOM     38  H15 RLI d   1      -1.218  -1.696  34.576  0.00  0.00     0.086 H 
BRANCH  33  39
ATOM     39  C25 RLI d   1      -0.590  -3.670  38.656  0.00  0.00     0.209 C 
ATOM     40  O11 RLI d   1      -1.311  -4.589  38.329  0.00  0.00    -0.644 OA
ATOM     41  O12 RLI d   1       0.009  -3.632  39.661  0.00  0.00    -0.644 OA
ENDBRANCH  33  39
ENDBRANCH  27  29
ENDBRANCH   5  27
TORSDOF 8
