REMARK  14 active torsions:
REMARK  status: ('A' for Active; 'I' for Inactive)
REMARK       I    between atoms: C02_2  and  N03_3 
REMARK    1  A    between atoms: C02_2  and  C05_5 
REMARK    2  A    between atoms: N03_3  and  O04_4 
REMARK    3  A    between atoms: C05_5  and  C06_6 
REMARK    4  A    between atoms: C05_5  and  C19_19 
REMARK    5  A    between atoms: C06_6  and  C07_7 
REMARK    6  A    between atoms: C07_7  and  C08_8 
REMARK    7  A    between atoms: C08_8  and  C09_9 
REMARK    8  A    between atoms: C09_9  and  N10_10 
REMARK    9  A    between atoms: N10_10  and  C11_11 
REMARK   10  A    between atoms: C11_11  and  C12_12 
REMARK   11  A    between atoms: C19_19  and  C20_20 
REMARK   12  A    between atoms: C20_20  and  O21_21 
REMARK   13  A    between atoms: C20_20  and  C23_23 
REMARK   14  A    between atoms: O21_21  and  C22_22 
ROOT
ATOM      1  C05 0LX d   1      17.210  19.240  26.483  0.00  0.00     0.028 C 
ATOM      2  H3  0LX d   1      16.941  18.460  25.756  0.00  0.00     0.054 H 
ENDROOT
BRANCH   1   3
ATOM      3  C02 0LX d   1      16.344  19.092  27.688  0.00  0.00     0.245 C 
ATOM      4  O01 0LX d   1      16.512  19.843  28.620  0.00  0.00    -0.271 OA
ATOM      5  N03 0LX d   1      15.419  18.021  27.783  0.00  0.00    -0.237 N 
ATOM      6  H1  0LX d   1      15.375  17.331  27.061  0.00  0.00     0.197 HD
BRANCH   5   7
ATOM      7  O04 0LX d   1      14.609  17.938  28.837  0.00  0.00    -0.287 OA
ATOM      8  H2  0LX d   1      14.056  17.171  28.750  0.00  0.00     0.244 HD
ENDBRANCH   5   7
ENDBRANCH   1   3
BRANCH   1   9
ATOM      9  C06 0LX d   1      17.015  20.551  25.835  0.00  0.00    -0.053 C 
ATOM     10  H4  0LX d   1      17.742  20.660  25.017  0.00  0.00     0.034 H 
ATOM     11  H5  0LX d   1      17.176  21.347  26.577  0.00  0.00     0.034 H 
BRANCH   9  12
ATOM     12  C07 0LX d   1      15.592  20.673  25.265  0.00  0.00    -0.063 C 
ATOM     13  H6  0LX d   1      14.944  19.936  25.762  0.00  0.00     0.033 H 
ATOM     14  H7  0LX d   1      15.621  20.467  24.185  0.00  0.00     0.033 H 
BRANCH  12  15
ATOM     15  C08 0LX d   1      15.022  22.053  25.485  0.00  0.00    -0.043 C 
ATOM     16  H8  0LX d   1      15.529  22.755  24.806  0.00  0.00     0.035 H 
ATOM     17  H9  0LX d   1      15.211  22.349  26.527  0.00  0.00     0.035 H 
BRANCH  15  18
ATOM     18  C09 0LX d   1      13.505  22.121  25.221  0.00  0.00     0.082 C 
ATOM     19  H10 0LX d   1      13.138  21.113  24.977  0.00  0.00     0.075 H 
ATOM     20  H11 0LX d   1      13.318  22.795  24.372  0.00  0.00     0.075 H 
BRANCH  18  21
ATOM     21  N10 0LX d   1      12.772  22.629  26.416  0.00  0.00    -0.071 N 
ATOM     22  H12 0LX d   1      13.323  23.349  26.857  0.00  0.00     0.277 HD
ATOM     23  H13 0LX d   1      12.633  21.869  27.063  0.00  0.00     0.277 HD
BRANCH  21  24
ATOM     24  C11 0LX d   1      11.489  23.177  26.053  0.00  0.00     0.105 C 
ATOM     25  H14 0LX d   1      11.650  24.014  25.357  0.00  0.00     0.083 H 
ATOM     26  H15 0LX d   1      10.996  23.547  26.964  0.00  0.00     0.083 H 
BRANCH  24  27
ATOM     27  C12 0LX d   1      10.600  22.190  25.405  0.00  0.00    -0.033 A 
ATOM     28  C13 0LX d   1      10.042  21.116  26.129  0.00  0.00    -0.072 A 
ATOM     29  C14 0LX d   1       9.195  20.184  25.486  0.00  0.00    -0.045 A 
ATOM     30  H16 0LX d   1      10.264  21.004  27.184  0.00  0.00     0.084 H 
ATOM     31  C15 0LX d   1       8.911  20.336  24.128  0.00  0.00     0.116 A 
ATOM     32  H17 0LX d   1       8.769  19.358  26.044  0.00  0.00     0.088 H 
ATOM     33  C16 0LX d   1       9.465  21.411  23.402  0.00  0.00    -0.045 A 
ATOM     34  F18 0LX d   1       8.133  19.476  23.493  0.00  0.00    -0.206 F 
ATOM     35  C17 0LX d   1      10.302  22.338  24.045  0.00  0.00    -0.072 A 
ATOM     36  H18 0LX d   1       9.245  21.522  22.346  0.00  0.00     0.088 H 
ATOM     37  H19 0LX d   1      10.718  23.169  23.487  0.00  0.00     0.084 H 
ENDBRANCH  24  27
ENDBRANCH  21  24
ENDBRANCH  18  21
ENDBRANCH  15  18
ENDBRANCH  12  15
ENDBRANCH   9  12
ENDBRANCH   1   9
BRANCH   1  38
ATOM     38  C19 0LX d   1      18.690  19.018  26.929  0.00  0.00    -0.025 C 
ATOM     39  H20 0LX d   1      19.000  19.863  27.562  0.00  0.00     0.038 H 
ATOM     40  H21 0LX d   1      19.327  18.978  26.033  0.00  0.00     0.038 H 
BRANCH  38  41
ATOM     41  C20 0LX d   1      18.866  17.735  27.710  0.00  0.00     0.064 C 
ATOM     42  H22 0LX d   1      18.093  17.693  28.491  0.00  0.00     0.090 H 
BRANCH  41  43
ATOM     43  O21 0LX d   1      18.774  16.603  26.935  0.00  0.00    -0.386 OA
BRANCH  43  44
ATOM     44  C22 0LX d   1      18.862  15.360  27.546  0.00  0.00     0.005 C 
ATOM     45  H23 0LX d   1      18.769  14.570  26.786  0.00  0.00     0.066 H 
ATOM     46  H24 0LX d   1      18.052  15.256  28.283  0.00  0.00     0.066 H 
ATOM     47  H25 0LX d   1      19.834  15.269  28.053  0.00  0.00     0.066 H 
ENDBRANCH  43  44
ENDBRANCH  41  43
BRANCH  41  48
ATOM     48  C23 0LX d   1      20.240  17.739  28.349  0.00  0.00    -0.029 A 
ATOM     49  C24 0LX d   1      20.330  17.730  29.738  0.00  0.00    -0.071 A 
ATOM     50  C25 0LX d   1      21.558  17.772  30.363  0.00  0.00    -0.045 A 
ATOM     51  H26 0LX d   1      19.425  17.690  30.334  0.00  0.00     0.084 H 
ATOM     52  C26 0LX d   1      22.730  17.836  29.586  0.00  0.00     0.116 A 
ATOM     53  H27 0LX d   1      21.621  17.756  31.445  0.00  0.00     0.088 H 
ATOM     54  C27 0LX d   1      22.657  17.840  28.200  0.00  0.00    -0.045 A 
ATOM     55  F29 0LX d   1      23.907  17.891  30.210  0.00  0.00    -0.206 F 
ATOM     56  C28 0LX d   1      21.408  17.801  27.566  0.00  0.00    -0.071 A 
ATOM     57  H28 0LX d   1      23.565  17.873  27.609  0.00  0.00     0.088 H 
ATOM     58  H29 0LX d   1      21.342  17.818  26.484  0.00  0.00     0.084 H 
ENDBRANCH  41  48
ENDBRANCH  38  41
ENDBRANCH   1  38
TORSDOF 14
