REMARK  17 active torsions:
REMARK  status: ('A' for Active; 'I' for Inactive)
REMARK    1  A    between atoms: O2D_15  and  P2D_1 
REMARK    2  A    between atoms: P1A_5  and  O5D_8 
REMARK    3  A    between atoms: O18_30  and  P1A_5 
REMARK    4  A    between atoms: O5D_8  and  C5D_9 
REMARK    5  A    between atoms: C5D_9  and  C4D_10 
REMARK    6  A    between atoms: C3D_12  and  O3D_13 
REMARK    7  A    between atoms: C2D_14  and  O2D_15 
REMARK    8  A    between atoms: C1D_16  and  N9A_17 
REMARK    9  A    between atoms: C6A_21  and  N6A_22 
REMARK   10  A    between atoms: P1B_27  and  O18_30 
REMARK   11  A    between atoms: P1B_27  and  O5E_31 
REMARK   12  A    between atoms: O5E_31  and  C5E_32 
REMARK   13  A    between atoms: C5E_32  and  C4E_33 
REMARK   14  A    between atoms: C3E_35  and  O3E_36 
REMARK   15  A    between atoms: C2E_37  and  O2E_38 
REMARK   16  A    between atoms: C1E_39  and  N9B_40 
REMARK   17  A    between atoms: C6B_44  and  N6B_45 
ROOT
ATOM      1  P1A A22 d   1      13.960   7.411  13.223  0.00  0.00     0.417 P 
ATOM      2  O14 A22 d   1      13.736   6.234  12.307  0.00  0.00    -0.624 OA
ATOM      3  O15 A22 d   1      13.694   7.268  14.701  0.00  0.00    -0.624 OA
ENDROOT
BRANCH   1   4
ATOM      4  O5D A22 d   1      15.487   7.902  13.021  0.00  0.00    -0.287 OA
BRANCH   4   5
ATOM      5  C5D A22 d   1      16.558   6.957  12.898  0.00  0.00     0.058 C 
ATOM      6  H1  A22 d   1      16.823   6.868  11.834  0.00  0.00     0.079 H 
ATOM      7  H2  A22 d   1      16.208   5.983  13.271  0.00  0.00     0.079 H 
BRANCH   5   8
ATOM      8  C4D A22 d   1      17.819   7.355  13.683  0.00  0.00     0.089 C 
ATOM      9  O4D A22 d   1      18.552   8.394  13.026  0.00  0.00    -0.353 OA
ATOM     10  C1D A22 d   1      18.917   9.387  13.994  0.00  0.00     0.140 C 
ATOM     11  C2D A22 d   1      17.824   9.373  15.047  0.00  0.00     0.121 C 
ATOM     12  H7  A22 d   1      19.862   9.098  14.476  0.00  0.00     0.123 H 
ATOM     13  C3D A22 d   1      17.565   7.876  15.092  0.00  0.00     0.092 C 
ATOM     14  H6  A22 d   1      16.931   9.919  14.708  0.00  0.00     0.095 H 
ATOM     15  H4  A22 d   1      16.535   7.665  15.414  0.00  0.00     0.091 H 
ATOM     16  H3  A22 d   1      18.452   6.458  13.754  0.00  0.00     0.090 H 
BRANCH  10  17
ATOM     17  N9A A22 d   1      19.141  10.686  13.316  0.00  0.00    -0.294 N 
ATOM     18  C8A A22 d   1      18.232  11.575  12.889  0.00  0.00     0.071 A 
ATOM     19  N7A A22 d   1      18.882  12.612  12.319  0.00  0.00    -0.236 NA
ATOM     20  H8  A22 d   1      17.152  11.477  12.986  0.00  0.00     0.144 H 
ATOM     21  C5A A22 d   1      20.207  12.357  12.379  0.00  0.00     0.149 A 
ATOM     22  C6A A22 d   1      21.348  13.036  11.958  0.00  0.00     0.155 A 
ATOM     23  C4A A22 d   1      20.357  11.134  13.009  0.00  0.00     0.167 A 
ATOM     24  N1A A22 d   1      22.559  12.477  12.185  0.00  0.00    -0.222 NA
ATOM     25  C2A A22 d   1      22.675  11.295  12.808  0.00  0.00     0.091 A 
ATOM     26  N3A A22 d   1      21.595  10.622  13.217  0.00  0.00    -0.222 NA
ATOM     27  H11 A22 d   1      23.660  10.879  12.983  0.00  0.00     0.146 H 
BRANCH  22  28
ATOM     28  N6A A22 d   1      21.251  14.236  11.338  0.00  0.00    -0.382 N 
ATOM     29  H9  A22 d   1      22.103  14.728  11.032  0.00  0.00     0.157 HD
ATOM     30  H10 A22 d   1      20.326  14.657  11.173  0.00  0.00     0.157 HD
ENDBRANCH  22  28
ENDBRANCH  10  17
BRANCH  11  31
ATOM     31  O2D A22 d   1      18.258   9.941  16.298  0.00  0.00    -0.270 OA
BRANCH  31  32
ATOM     32  P2D A22 d   1      17.348   9.949  17.643  0.00  0.00     0.422 P 
ATOM     33  O11 A22 d   1      18.065  10.876  18.594  0.00  0.00    -0.617 OA
ATOM     34  O12 A22 d   1      17.346   8.497  18.054  0.00  0.00    -0.617 OA
ATOM     35  O13 A22 d   1      15.992  10.472  17.233  0.00  0.00    -0.617 OA
ENDBRANCH  31  32
ENDBRANCH  11  31
BRANCH  13  36
ATOM     36  O3D A22 d   1      18.502   7.256  15.973  0.00  0.00    -0.390 OA
ATOM     37  H5  A22 d   1      18.358   7.570  16.858  0.00  0.00     0.210 HD
ENDBRANCH  13  36
ENDBRANCH   5   8
ENDBRANCH   4   5
ENDBRANCH   1   4
BRANCH   1  38
ATOM     38  O18 A22 d   1      13.034   8.599  12.643  0.00  0.00    -0.180 OA
BRANCH  38  39
ATOM     39  P1B A22 d   1      13.267  10.172  12.918  0.00  0.00     0.417 P 
ATOM     40  O16 A22 d   1      14.227  10.333  14.075  0.00  0.00    -0.624 OA
ATOM     41  O17 A22 d   1      11.901  10.818  12.956  0.00  0.00    -0.624 OA
BRANCH  39  42
ATOM     42  O5E A22 d   1      13.999  10.722  11.594  0.00  0.00    -0.287 OA
BRANCH  42  43
ATOM     43  C5E A22 d   1      14.049   9.959  10.393  0.00  0.00     0.058 C 
ATOM     44  H12 A22 d   1      13.442  10.452   9.620  0.00  0.00     0.079 H 
ATOM     45  H13 A22 d   1      13.653   8.950  10.582  0.00  0.00     0.079 H 
BRANCH  43  46
ATOM     46  C4E A22 d   1      15.491   9.858   9.918  0.00  0.00     0.089 C 
ATOM     47  O4E A22 d   1      16.019   8.532  10.057  0.00  0.00    -0.353 OA
ATOM     48  C1E A22 d   1      17.029   8.314   9.076  0.00  0.00     0.139 C 
ATOM     49  C2E A22 d   1      16.833   9.413   8.010  0.00  0.00     0.105 C 
ATOM     50  H19 A22 d   1      18.018   8.424   9.545  0.00  0.00     0.122 H 
ATOM     51  C3E A22 d   1      15.603  10.195   8.446  0.00  0.00     0.091 C 
ATOM     52  H17 A22 d   1      16.651   8.949   7.029  0.00  0.00     0.093 H 
ATOM     53  H15 A22 d   1      14.725   9.827   7.896  0.00  0.00     0.091 H 
ATOM     54  H14 A22 d   1      16.101  10.559  10.507  0.00  0.00     0.090 H 
BRANCH  48  55
ATOM     55  N9B A22 d   1      16.955   6.962   8.448  0.00  0.00    -0.294 N 
ATOM     56  C8B A22 d   1      15.880   6.383   7.879  0.00  0.00     0.071 A 
ATOM     57  N7B A22 d   1      16.224   5.169   7.389  0.00  0.00    -0.236 NA
ATOM     58  H20 A22 d   1      14.886   6.824   7.822  0.00  0.00     0.144 H 
ATOM     59  C5B A22 d   1      17.542   4.985   7.632  0.00  0.00     0.149 A 
ATOM     60  C6B A22 d   1      18.459   3.956   7.363  0.00  0.00     0.155 A 
ATOM     61  C4B A22 d   1      17.984   6.124   8.297  0.00  0.00     0.167 A 
ATOM     62  N1B A22 d   1      19.741   4.109   7.762  0.00  0.00    -0.222 NA
ATOM     63  C2B A22 d   1      20.127   5.220   8.403  0.00  0.00     0.091 A 
ATOM     64  N3B A22 d   1      19.275   6.209   8.673  0.00  0.00    -0.222 NA
ATOM     65  H23 A22 d   1      21.162   5.318   8.711  0.00  0.00     0.146 H 
BRANCH  60  66
ATOM     66  N6B A22 d   1      18.095   2.814   6.722  0.00  0.00    -0.382 N 
ATOM     67  H21 A22 d   1      18.794   2.080   6.541  0.00  0.00     0.157 HD
ATOM     68  H22 A22 d   1      17.120   2.683   6.417  0.00  0.00     0.157 HD
ENDBRANCH  60  66
ENDBRANCH  48  55
BRANCH  49  69
ATOM     69  O2E A22 d   1      17.980  10.270   7.905  0.00  0.00    -0.388 OA
ATOM     70  H18 A22 d   1      17.808  10.950   7.264  0.00  0.00     0.210 HD
ENDBRANCH  49  69
BRANCH  51  71
ATOM     71  O3E A22 d   1      15.666  11.617   8.280  0.00  0.00    -0.390 OA
ATOM     72  H16 A22 d   1      15.736  11.824   7.355  0.00  0.00     0.210 HD
ENDBRANCH  51  71
ENDBRANCH  43  46
ENDBRANCH  42  43
ENDBRANCH  39  42
ENDBRANCH  38  39
ENDBRANCH   1  38
TORSDOF 17
