REMARK  3 active torsions:
REMARK  status: ('A' for Active; 'I' for Inactive)
REMARK    1  A    between atoms: C9_2  and  C8_4 
REMARK    2  A    between atoms: C8_4  and  C7_6 
REMARK    3  A    between atoms: C7_6  and  C6_7 
ROOT
ATOM      1  C6  WJ1 d   1      -9.045 -32.114  17.198  0.00  0.00    -0.056 A 
ATOM      2  C1  WJ1 d   1      -9.872 -31.210  17.850  0.00  0.00    -0.077 A 
ATOM      3  C5  WJ1 d   1      -8.145 -32.878  17.934  0.00  0.00    -0.077 A 
ATOM      4  C4  WJ1 d   1      -8.066 -32.725  19.316  0.00  0.00    -0.082 A 
ATOM      5  C3  WJ1 d   1      -8.889 -31.814  19.975  0.00  0.00    -0.083 A 
ATOM      6  C2  WJ1 d   1      -9.791 -31.058  19.235  0.00  0.00    -0.082 A 
ATOM      7  H4  WJ1 d   1     -10.583 -30.620  17.282  0.00  0.00     0.084 H 
ATOM      8  H5  WJ1 d   1      -7.504 -33.593  17.431  0.00  0.00     0.084 H 
ATOM      9  H6  WJ1 d   1      -7.359 -33.319  19.883  0.00  0.00     0.083 H 
ATOM     10  H7  WJ1 d   1      -8.827 -31.696  21.051  0.00  0.00     0.083 H 
ATOM     11  H8  WJ1 d   1     -10.436 -30.346  19.737  0.00  0.00     0.083 H 
ENDROOT
BRANCH   1  12
ATOM     12  C7  WJ1 d   1      -9.113 -32.252  15.692  0.00  0.00    -0.016 C 
ATOM     13  H2  WJ1 d   1      -9.011 -33.310  15.410  0.00  0.00     0.043 H 
ATOM     14  H3  WJ1 d   1     -10.076 -31.866  15.326  0.00  0.00     0.043 H 
BRANCH  12  15
ATOM     15  C8  WJ1 d   1      -7.954 -31.433  15.079  0.00  0.00     0.105 C 
ATOM     16 CL1  WJ1 d   1      -8.326 -29.684  15.033  0.00  0.00    -0.113 Cl
ATOM     17  H1  WJ1 d   1      -7.051 -31.596  15.685  0.00  0.00     0.082 H 
BRANCH  15  18
ATOM     18  C9  WJ1 d   1      -7.696 -31.864  13.672  0.00  0.00     0.192 C 
ATOM     19  O2  WJ1 d   1      -6.906 -32.755  13.457  0.00  0.00    -0.647 OA
ATOM     20  O1  WJ1 d   1      -8.334 -31.304  12.636  0.00  0.00    -0.647 OA
ENDBRANCH  15  18
ENDBRANCH  12  15
ENDBRANCH   1  12
TORSDOF 3
