REMARK  5 active torsions:
REMARK  status: ('A' for Active; 'I' for Inactive)
REMARK    1  A    between atoms: CG2_10  and  CD1_3 
REMARK    2  A    between atoms: CA_5  and  C_11 
REMARK    3  A    between atoms: CB_6  and  CB1_7 
REMARK    4  A    between atoms: CB1_7  and  CG1_9 
REMARK    5  A    between atoms: CG_8  and  CG2_10 
ROOT
ATOM      1  N   KAI d   1      -1.001  33.930 105.116  0.00  0.00    -0.060 N 
ATOM      2  CD  KAI d   1      -0.273  33.480 103.894  0.00  0.00     0.090 C 
ATOM      3  CA  KAI d   1      -2.026  34.994 104.706  0.00  0.00     0.189 C 
ATOM      4  CB  KAI d   1      -1.532  35.461 103.319  0.00  0.00     0.001 C 
ATOM      5  CG  KAI d   1      -0.996  34.137 102.712  0.00  0.00    -0.004 C 
ATOM      6  H1  KAI d   1      -0.348  34.323 105.776  0.00  0.00     0.278 HD
ATOM      7  H2  KAI d   1      -1.474  33.146 105.538  0.00  0.00     0.278 HD
ATOM      8  H3  KAI d   1      -0.313  32.384 103.806  0.00  0.00     0.076 H 
ATOM      9  H4  KAI d   1       0.776  33.807 103.931  0.00  0.00     0.076 H 
ATOM     10  H10 KAI d   1      -2.011  35.838 105.411  0.00  0.00     0.102 H 
ATOM     11  H11 KAI d   1      -2.370  35.849 102.722  0.00  0.00     0.045 H 
ATOM     12  H14 KAI d   1      -1.858  33.508 102.445  0.00  0.00     0.050 H 
ENDROOT
BRANCH   5  13
ATOM     13  CG2 KAI d   1      -0.182  34.281 101.439  0.00  0.00    -0.087 C 
ATOM     14  CD2 KAI d   1       1.102  33.875 101.337  0.00  0.00    -0.119 C 
ATOM     15  H8  KAI d   1       1.597  33.415 102.191  0.00  0.00     0.067 H 
ATOM     16  H9  KAI d   1       1.642  34.008 100.401  0.00  0.00     0.067 H 
BRANCH  13  17
ATOM     17  CD1 KAI d   1      -0.897  34.925 100.265  0.00  0.00    -0.055 C 
ATOM     18  H5  KAI d   1      -0.215  34.977  99.404  0.00  0.00     0.033 H 
ATOM     19  H6  KAI d   1      -1.215  35.941 100.542  0.00  0.00     0.033 H 
ATOM     20  H7  KAI d   1      -1.779  34.324  99.999  0.00  0.00     0.033 H 
ENDBRANCH  13  17
ENDBRANCH   5  13
BRANCH   4  21
ATOM     21  CB1 KAI d   1      -0.443  36.555 103.401  0.00  0.00     0.022 C 
ATOM     22  H12 KAI d   1       0.082  36.578 102.435  0.00  0.00     0.049 H 
ATOM     23  H13 KAI d   1       0.262  36.267 104.195  0.00  0.00     0.049 H 
BRANCH  21  24
ATOM     24  CG1 KAI d   1      -0.927  37.970 103.700  0.00  0.00     0.172 C 
ATOM     25  OD1 KAI d   1      -0.012  38.773 104.068  0.00  0.00    -0.648 OA
ATOM     26  OD2 KAI d   1      -2.164  38.220 103.573  0.00  0.00    -0.648 OA
ENDBRANCH  21  24
ENDBRANCH   4  21
BRANCH   3  27
ATOM     27  C   KAI d   1      -3.473  34.379 104.692  0.00  0.00     0.205 C 
ATOM     28  O   KAI d   1      -3.534  33.234 105.241  0.00  0.00    -0.646 OA
ATOM     29  OXT KAI d   1      -4.411  35.034 104.160  0.00  0.00    -0.646 OA
ENDBRANCH   3  27
TORSDOF 5
