REMARK  7 active torsions:
REMARK  status: ('A' for Active; 'I' for Inactive)
REMARK    1  A    between atoms: C1_1  and  O1_2 
REMARK    2  A    between atoms: O1_2  and  C2_3 
REMARK    3  A    between atoms: C7_8  and  O2_9 
REMARK    4  A    between atoms: C9_13  and  N3_14 
REMARK    5  A    between atoms: N3_14  and  C10_15 
REMARK    6  A    between atoms: C13_18  and  N4_21 
REMARK       I    between atoms: N4_21  and  C16_22 
REMARK    7  A    between atoms: C16_22  and  C17_24 
ROOT
ATOM      1  C10 0N5 d   1      25.826   4.023  90.554  0.00  0.00     0.033 A 
ATOM      2  C11 0N5 d   1      25.672   3.217  91.669  0.00  0.00    -0.055 A 
ATOM      3  C12 0N5 d   1      24.575   3.347  92.501  0.00  0.00    -0.055 A 
ATOM      4  C13 0N5 d   1      23.608   4.291  92.222  0.00  0.00     0.035 A 
ATOM      5  C14 0N5 d   1      23.755   5.085  91.105  0.00  0.00    -0.055 A 
ATOM      6  C15 0N5 d   1      24.853   4.956  90.279  0.00  0.00    -0.055 A 
ATOM      7  H9  0N5 d   1      26.425   2.470  91.894  0.00  0.00     0.087 H 
ATOM      8  H10 0N5 d   1      24.475   2.708  93.371  0.00  0.00     0.087 H 
ATOM      9  H11 0N5 d   1      22.996   5.823  90.871  0.00  0.00     0.087 H 
ATOM     10  H12 0N5 d   1      24.950   5.594  89.408  0.00  0.00     0.087 H 
ENDROOT
BRANCH   1  11
ATOM     11  N3  0N5 d   1      26.942   3.910  89.699  0.00  0.00    -0.340 N 
ATOM     12  H8  0N5 d   1      26.792   3.821  88.684  0.00  0.00     0.167 HD
BRANCH  11  13
ATOM     13  C9  0N5 d   1      28.265   3.916  90.206  0.00  0.00     0.142 A 
ATOM     14  C4  0N5 d   1      29.339   3.870  89.329  0.00  0.00     0.042 A 
ATOM     15  C3  0N5 d   1      29.157   3.818  87.953  0.00  0.00    -0.032 A 
ATOM     16  C5  0N5 d   1      30.612   3.878  89.881  0.00  0.00     0.075 A 
ATOM     17  C2  0N5 d   1      30.257   3.772  87.115  0.00  0.00     0.102 A 
ATOM     18  H4  0N5 d   1      28.156   3.813  87.537  0.00  0.00     0.089 H 
ATOM     19  C7  0N5 d   1      31.518   3.783  87.671  0.00  0.00     0.101 A 
ATOM     20  C6  0N5 d   1      31.700   3.833  89.033  0.00  0.00    -0.019 A 
ATOM     21  H5  0N5 d   1      32.703   3.837  89.443  0.00  0.00     0.091 H 
ATOM     22  N1  0N5 d   1      30.811   3.925  91.204  0.00  0.00    -0.241 NA
ATOM     23  C8  0N5 d   1      29.714   3.964  91.964  0.00  0.00     0.089 A 
ATOM     24  N2  0N5 d   1      28.450   3.966  91.535  0.00  0.00    -0.224 NA
ATOM     25  H7  0N5 d   1      29.865   3.997  93.037  0.00  0.00     0.146 H 
BRANCH  17  26
ATOM     26  O1  0N5 d   1      30.219   3.716  85.724  0.00  0.00    -0.353 OA
BRANCH  26  27
ATOM     27  C1  0N5 d   1      28.898   3.558  85.221  0.00  0.00     0.010 C 
ATOM     28  H1  0N5 d   1      28.926   3.520  84.122  0.00  0.00     0.066 H 
ATOM     29  H2  0N5 d   1      28.279   4.409  85.543  0.00  0.00     0.066 H 
ATOM     30  H3  0N5 d   1      28.467   2.623  85.609  0.00  0.00     0.066 H 
ENDBRANCH  26  27
ENDBRANCH  17  26
BRANCH  19  31
ATOM     31  O2  0N5 d   1      32.611   3.742  86.844  0.00  0.00    -0.358 OA
ATOM     32  H6  0N5 d   1      33.126   2.968  87.040  0.00  0.00     0.217 HD
ENDBRANCH  19  31
ENDBRANCH  11  13
ENDBRANCH   1  11
BRANCH   4  33
ATOM     33  N4  0N5 d   1      22.464   4.463  93.039  0.00  0.00    -0.323 N 
ATOM     34  C16 0N5 d   1      22.505   4.348  94.410  0.00  0.00     0.256 C 
ATOM     35  O3  0N5 d   1      23.501   4.101  95.077  0.00  0.00    -0.267 OA
ATOM     36  H13 0N5 d   1      21.590   4.677  92.602  0.00  0.00     0.169 HD
BRANCH  34  37
ATOM     37  C17 0N5 d   1      21.211   4.546  95.096  0.00  0.00     0.032 A 
ATOM     38  C18 0N5 d   1      20.037   4.151  94.491  0.00  0.00    -0.068 A 
ATOM     39  C19 0N5 d   1      18.841   4.346  95.148  0.00  0.00    -0.082 A 
ATOM     40  H14 0N5 d   1      20.054   3.692  93.509  0.00  0.00     0.085 H 
ATOM     41  C20 0N5 d   1      18.822   4.930  96.399  0.00  0.00    -0.083 A 
ATOM     42  H15 0N5 d   1      17.912   4.040  94.681  0.00  0.00     0.083 H 
ATOM     43  C21 0N5 d   1      20.003   5.320  97.001  0.00  0.00    -0.082 A 
ATOM     44  H16 0N5 d   1      17.878   5.083  96.910  0.00  0.00     0.083 H 
ATOM     45  C22 0N5 d   1      21.202   5.127  96.347  0.00  0.00    -0.068 A 
ATOM     46  H17 0N5 d   1      19.987   5.776  97.984  0.00  0.00     0.083 H 
ATOM     47  H18 0N5 d   1      22.132   5.430  96.814  0.00  0.00     0.085 H 
ENDBRANCH  34  37
ENDBRANCH   4  33
TORSDOF 7
