REMARK  4 active torsions:
REMARK  status: ('A' for Active; 'I' for Inactive)
REMARK    1  A    between atoms: C1_1  and  C2_2 
REMARK    2  A    between atoms: C2_2  and  N12_12 
REMARK    3  A    between atoms: N5_5  and  S8_8 
REMARK    4  A    between atoms: S8_8  and  C11_11 
ROOT
ATOM      1  C2  0NH d   1     -14.450  29.838  -1.463  0.00  0.00     0.038 C 
ATOM      2  C3  0NH d   1     -13.321  30.872  -1.494  0.00  0.00    -0.026 C 
ATOM      3  C4  0NH d   1     -13.734  32.248  -2.037  0.00  0.00     0.007 C 
ATOM      4  N5  0NH d   1     -15.092  32.659  -1.654  0.00  0.00    -0.311 N 
ATOM      5  C6  0NH d   1     -16.170  31.677  -1.368  0.00  0.00     0.007 C 
ATOM      6  C7  0NH d   1     -15.669  30.374  -0.737  0.00  0.00    -0.026 C 
ATOM      7  H4  0NH d   1     -12.513  30.480  -2.129  0.00  0.00     0.039 H 
ATOM      8  H5  0NH d   1     -12.948  31.005  -0.468  0.00  0.00     0.039 H 
ATOM      9  H6  0NH d   1     -13.679  32.217  -3.135  0.00  0.00     0.065 H 
ATOM     10  H7  0NH d   1     -13.025  32.998  -1.655  0.00  0.00     0.065 H 
ATOM     11  H8  0NH d   1     -16.676  31.432  -2.314  0.00  0.00     0.065 H 
ATOM     12  H9  0NH d   1     -16.889  32.142  -0.678  0.00  0.00     0.065 H 
ATOM     13  H10 0NH d   1     -15.405  30.564   0.314  0.00  0.00     0.039 H 
ATOM     14  H11 0NH d   1     -16.471  29.623  -0.783  0.00  0.00     0.039 H 
ENDROOT
BRANCH   1  15
ATOM     15  C1  0NH d   1     -14.790  29.415  -2.937  0.00  0.00    -0.052 C 
ATOM     16  H1  0NH d   1     -15.195  30.280  -3.482  0.00  0.00     0.030 H 
ATOM     17  H2  0NH d   1     -15.537  28.608  -2.924  0.00  0.00     0.030 H 
ATOM     18  H3  0NH d   1     -13.876  29.061  -3.437  0.00  0.00     0.030 H 
ENDBRANCH   1  15
BRANCH   1  19
ATOM     19  N12 0NH d   1     -13.906  28.654  -0.750  0.00  0.00    -0.329 N 
ATOM     20  C13 0NH d   1     -12.624  28.570  -0.245  0.00  0.00     0.068 A 
ATOM     21  N14 0NH d   1     -12.446  27.378   0.246  0.00  0.00    -0.240 NA
ATOM     22  H15 0NH d   1     -11.884  29.369  -0.256  0.00  0.00     0.143 H 
ATOM     23  C15 0NH d   1     -13.562  26.617   0.093  0.00  0.00     0.103 A 
ATOM     24  C16 0NH d   1     -14.511  27.427  -0.557  0.00  0.00     0.081 A 
ATOM     25  C24 0NH d   1     -13.891  25.300   0.432  0.00  0.00     0.034 A 
ATOM     26  C17 0NH d   1     -15.769  26.857  -0.847  0.00  0.00     0.041 A 
ATOM     27  C18 0NH d   1     -17.007  27.346  -1.484  0.00  0.00    -0.052 A 
ATOM     28  C22 0NH d   1     -16.004  25.516  -0.499  0.00  0.00     0.139 A 
ATOM     29  C19 0NH d   1     -17.856  26.322  -1.492  0.00  0.00    -0.020 A 
ATOM     30  H16 0NH d   1     -17.189  28.347  -1.871  0.00  0.00     0.087 H 
ATOM     31  N20 0NH d   1     -17.267  25.228  -0.914  0.00  0.00    -0.350 N 
ATOM     32  H17 0NH d   1     -18.867  26.349  -1.897  0.00  0.00     0.111 H 
ATOM     33  H18 0NH d   1     -17.721  24.309  -0.808  0.00  0.00     0.166 HD
ATOM     34  N23 0NH d   1     -15.072  24.774   0.114  0.00  0.00    -0.240 NA
ATOM     35  H19 0NH d   1     -13.168  24.694   0.966  0.00  0.00     0.118 H 
ENDBRANCH   1  19
BRANCH   4  36
ATOM     36  S8  0NH d   1     -15.458  34.261  -1.709  0.00  0.00     0.224 S 
ATOM     37  O9  0NH d   1     -16.458  34.508  -0.722  0.00  0.00    -0.206 OA
ATOM     38  O10 0NH d   1     -14.231  34.997  -1.631  0.00  0.00    -0.206 OA
BRANCH  36  39
ATOM     39  C11 0NH d   1     -16.152  34.519  -3.376  0.00  0.00     0.032 C 
ATOM     40  H12 0NH d   1     -16.427  35.577  -3.499  0.00  0.00     0.051 H 
ATOM     41  H13 0NH d   1     -17.046  33.891  -3.502  0.00  0.00     0.051 H 
ATOM     42  H14 0NH d   1     -15.402  34.245  -4.132  0.00  0.00     0.051 H 
ENDBRANCH  36  39
ENDBRANCH   4  36
TORSDOF 4
