REMARK  7 active torsions:
REMARK  status: ('A' for Active; 'I' for Inactive)
REMARK    1  A    between atoms: C1_1  and  C2_2 
REMARK    2  A    between atoms: C2_2  and  C3_3 
REMARK    3  A    between atoms: C2_2  and  C4_4 
REMARK    4  A    between atoms: C2_2  and  O5_5 
REMARK    5  A    between atoms: O5_5  and  C6_6 
REMARK       I    between atoms: C6_6  and  N8_8 
REMARK    6  A    between atoms: N8_8  and  C9_9 
REMARK    7  A    between atoms: C13_12  and  N16_14 
ROOT
ATOM      1  C9  0NL d   1       6.828  53.653   2.125  0.00  0.00     0.016 C 
ATOM      2  C11 0NL d   1       6.778  54.589   3.356  0.00  0.00    -0.044 C 
ATOM      3  C12 0NL d   1       7.086  55.998   2.801  0.00  0.00    -0.044 C 
ATOM      4  C13 0NL d   1       6.616  55.951   1.328  0.00  0.00     0.020 C 
ATOM      5  C15 0NL d   1       6.967  54.529   0.859  0.00  0.00    -0.027 C 
ATOM      6  H11 0NL d   1       7.706  52.994   2.190  0.00  0.00     0.072 H 
ATOM      7  H12 0NL d   1       7.534  54.292   4.098  0.00  0.00     0.036 H 
ATOM      8  H13 0NL d   1       5.780  54.566   3.819  0.00  0.00     0.036 H 
ATOM      9  H14 0NL d   1       8.164  56.210   2.858  0.00  0.00     0.036 H 
ATOM     10  H15 0NL d   1       6.531  56.765   3.361  0.00  0.00     0.036 H 
ATOM     11  H16 0NL d   1       5.532  56.114   1.234  0.00  0.00     0.073 H 
ATOM     12  H17 0NL d   1       6.269  54.195   0.077  0.00  0.00     0.039 H 
ATOM     13  H18 0NL d   1       7.996  54.491   0.472  0.00  0.00     0.039 H 
ENDROOT
BRANCH   1  14
ATOM     14  N8  0NL d   1       5.614  52.824   2.164  0.00  0.00    -0.332 N 
ATOM     15  C6  0NL d   1       5.487  51.733   1.372  0.00  0.00     0.361 C 
ATOM     16  O7  0NL d   1       6.355  51.442   0.560  0.00  0.00    -0.238 OA
ATOM     17  H10 0NL d   1       4.870  53.070   2.785  0.00  0.00     0.165 HD
BRANCH  15  18
ATOM     18  O5  0NL d   1       4.351  51.022   1.517  0.00  0.00    -0.294 OA
BRANCH  18  19
ATOM     19  C2  0NL d   1       4.087  49.701   0.956  0.00  0.00     0.061 C 
BRANCH  19  20
ATOM     20  C1  0NL d   1       3.864  49.829  -0.544  0.00  0.00    -0.048 C 
ATOM     21  H1  0NL d   1       3.665  48.835  -0.971  0.00  0.00     0.031 H 
ATOM     22  H2  0NL d   1       4.763  50.256  -1.013  0.00  0.00     0.031 H 
ATOM     23  H3  0NL d   1       3.004  50.488  -0.732  0.00  0.00     0.031 H 
ENDBRANCH  19  20
BRANCH  19  24
ATOM     24  C3  0NL d   1       2.779  49.197   1.566  0.00  0.00    -0.048 C 
ATOM     25  H4  0NL d   1       2.899  49.091   2.654  0.00  0.00     0.031 H 
ATOM     26  H5  0NL d   1       2.522  48.221   1.128  0.00  0.00     0.031 H 
ATOM     27  H6  0NL d   1       1.974  49.917   1.355  0.00  0.00     0.031 H 
ENDBRANCH  19  24
BRANCH  19  28
ATOM     28  C4  0NL d   1       5.205  48.700   1.278  0.00  0.00    -0.048 C 
ATOM     29  H7  0NL d   1       6.151  49.054   0.843  0.00  0.00     0.031 H 
ATOM     30  H8  0NL d   1       4.951  47.718   0.853  0.00  0.00     0.031 H 
ATOM     31  H9  0NL d   1       5.314  48.611   2.369  0.00  0.00     0.031 H 
ENDBRANCH  19  28
ENDBRANCH  18  19
ENDBRANCH  15  18
ENDBRANCH   1  14
BRANCH   4  32
ATOM     32  N16 0NL d   1       7.340  57.057   0.678  0.00  0.00    -0.334 N 
ATOM     33  C17 0NL d   1       8.582  57.054   0.088  0.00  0.00     0.067 A 
ATOM     34  N18 0NL d   1       8.867  58.264  -0.334  0.00  0.00    -0.240 NA
ATOM     35  H19 0NL d   1       9.229  56.184  -0.013  0.00  0.00     0.143 H 
ATOM     36  C19 0NL d   1       7.844  59.103  -0.024  0.00  0.00     0.103 A 
ATOM     37  C20 0NL d   1       6.857  58.333   0.636  0.00  0.00     0.080 A 
ATOM     38  C28 0NL d   1       7.606  60.475  -0.212  0.00  0.00     0.034 A 
ATOM     39  C21 0NL d   1       5.673  58.963   1.072  0.00  0.00     0.040 A 
ATOM     40  C22 0NL d   1       4.452  58.519   1.773  0.00  0.00    -0.052 A 
ATOM     41  C26 0NL d   1       5.522  60.342   0.825  0.00  0.00     0.139 A 
ATOM     42  C23 0NL d   1       3.679  59.606   1.897  0.00  0.00    -0.020 A 
ATOM     43  H20 0NL d   1       4.226  57.512   2.119  0.00  0.00     0.087 H 
ATOM     44  N24 0NL d   1       4.306  60.704   1.345  0.00  0.00    -0.350 N 
ATOM     45  H21 0NL d   1       2.696  59.621   2.366  0.00  0.00     0.111 H 
ATOM     46  H22 0NL d   1       3.917  61.657   1.326  0.00  0.00     0.166 HD
ATOM     47  N27 0NL d   1       6.492  61.038   0.203  0.00  0.00    -0.240 NA
ATOM     48  H23 0NL d   1       8.355  61.081  -0.709  0.00  0.00     0.118 H 
ENDBRANCH   4  32
TORSDOF 7
