REMARK  5 active torsions:
REMARK  status: ('A' for Active; 'I' for Inactive)
REMARK    1  A    between atoms: C2_2  and  C1_5 
REMARK    2  A    between atoms: C2_2  and  C3_6 
REMARK    3  A    between atoms: N4_7  and  C2_2 
REMARK    4  A    between atoms: C8_9  and  C10_3 
REMARK       I    between atoms: C10_3  and  N12_11 
REMARK    5  A    between atoms: C15_14  and  N18_17 
ROOT
ATOM      1  C10 0NT d   1       6.435  52.217   1.715  0.00  0.00     0.251 C 
ATOM      2  O11 0NT d   1       5.661  51.581   1.000  0.00  0.00    -0.271 OA
ATOM      3  N12 0NT d   1       6.261  53.564   1.900  0.00  0.00    -0.350 N 
ATOM      4  C13 0NT d   1       5.147  54.284   1.240  0.00  0.00    -0.001 C 
ATOM      5  C14 0NT d   1       5.698  55.454   0.381  0.00  0.00    -0.031 C 
ATOM      6  C15 0NT d   1       6.634  56.336   1.230  0.00  0.00     0.021 C 
ATOM      7  C16 0NT d   1       7.767  55.535   1.921  0.00  0.00    -0.031 C 
ATOM      8  C17 0NT d   1       7.140  54.403   2.764  0.00  0.00    -0.001 C 
ATOM      9  H16 0NT d   1       4.468  54.685   2.007  0.00  0.00     0.064 H 
ATOM     10  H17 0NT d   1       4.596  53.586   0.592  0.00  0.00     0.064 H 
ATOM     11  H18 0NT d   1       4.859  56.062   0.013  0.00  0.00     0.038 H 
ATOM     12  H19 0NT d   1       6.258  55.046  -0.474  0.00  0.00     0.038 H 
ATOM     13  H20 0NT d   1       6.002  56.713   2.047  0.00  0.00     0.073 H 
ATOM     14  H21 0NT d   1       8.346  56.204   2.574  0.00  0.00     0.038 H 
ATOM     15  H22 0NT d   1       8.431  55.102   1.158  0.00  0.00     0.038 H 
ATOM     16  H23 0NT d   1       7.939  53.778   3.190  0.00  0.00     0.064 H 
ATOM     17  H24 0NT d   1       6.543  54.840   3.578  0.00  0.00     0.064 H 
ENDROOT
BRANCH   1  18
ATOM     18  C8  0NT d   1       7.589  51.451   2.340  0.00  0.00     0.180 C 
ATOM     19  C7  0NT d   1       8.875  51.678   1.484  0.00  0.00    -0.028 C 
ATOM     20  C6  0NT d   1       9.187  50.294   0.888  0.00  0.00    -0.040 C 
ATOM     21  H1  0NT d   1       8.687  52.412   0.686  0.00  0.00     0.036 H 
ATOM     22  H2  0NT d   1       9.706  52.026   2.115  0.00  0.00     0.036 H 
ATOM     23  C5  0NT d   1       8.659  49.374   2.001  0.00  0.00     0.085 C 
ATOM     24  H4  0NT d   1      10.267  50.157   0.728  0.00  0.00     0.035 H 
ATOM     25  H5  0NT d   1       8.652  50.131  -0.059  0.00  0.00     0.035 H 
ATOM     26  N4  0NT d   1       7.328  49.966   2.357  0.00  0.00    -0.055 N 
ATOM     27  H13 0NT d   1       9.335  49.381   2.869  0.00  0.00     0.076 H 
ATOM     28  H14 0NT d   1       8.543  48.343   1.635  0.00  0.00     0.076 H 
ATOM     29  H12 0NT d   1       6.654  49.739   1.643  0.00  0.00     0.281 HD
ATOM     30  H15 0NT d   1       7.748  51.810   3.367  0.00  0.00     0.100 H 
BRANCH  26  31
ATOM     31  C2  0NT d   1       6.801  49.446   3.656  0.00  0.00     0.098 C 
ATOM     32  H3  0NT d   1       7.516  49.719   4.446  0.00  0.00     0.083 H 
BRANCH  31  33
ATOM     33  C1  0NT d   1       6.622  47.919   3.635  0.00  0.00    -0.050 C 
ATOM     34  H6  0NT d   1       6.234  47.582   4.607  0.00  0.00     0.030 H 
ATOM     35  H7  0NT d   1       7.592  47.439   3.441  0.00  0.00     0.030 H 
ATOM     36  H8  0NT d   1       5.912  47.644   2.841  0.00  0.00     0.030 H 
ENDBRANCH  31  33
BRANCH  31  37
ATOM     37  C3  0NT d   1       5.418  50.015   4.007  0.00  0.00    -0.050 C 
ATOM     38  H9  0NT d   1       5.471  51.113   4.040  0.00  0.00     0.030 H 
ATOM     39  H10 0NT d   1       5.103  49.633   4.989  0.00  0.00     0.030 H 
ATOM     40  H11 0NT d   1       4.690  49.706   3.243  0.00  0.00     0.030 H 
ENDBRANCH  31  37
ENDBRANCH  26  31
ENDBRANCH   1  18
BRANCH   6  41
ATOM     41  N18 0NT d   1       7.143  57.541   0.552  0.00  0.00    -0.334 N 
ATOM     42  C19 0NT d   1       8.400  57.717   0.015  0.00  0.00     0.067 A 
ATOM     43  N20 0NT d   1       8.543  58.940  -0.408  0.00  0.00    -0.240 NA
ATOM     44  H25 0NT d   1       9.164  56.944  -0.047  0.00  0.00     0.143 H 
ATOM     45  C21 0NT d   1       7.409  59.644  -0.160  0.00  0.00     0.103 A 
ATOM     46  C22 0NT d   1       6.498  58.755   0.460  0.00  0.00     0.080 A 
ATOM     47  C30 0NT d   1       7.031  60.983  -0.367  0.00  0.00     0.034 A 
ATOM     48  C23 0NT d   1       5.242  59.250   0.860  0.00  0.00     0.040 A 
ATOM     49  C24 0NT d   1       4.066  58.663   1.516  0.00  0.00    -0.052 A 
ATOM     50  C28 0NT d   1       4.940  60.611   0.616  0.00  0.00     0.139 A 
ATOM     51  C25 0NT d   1       3.168  59.656   1.634  0.00  0.00    -0.020 A 
ATOM     52  H26 0NT d   1       3.946  57.631   1.841  0.00  0.00     0.087 H 
ATOM     53  N26 0NT d   1       3.677  60.818   1.116  0.00  0.00    -0.350 N 
ATOM     54  H27 0NT d   1       2.179  59.552   2.077  0.00  0.00     0.111 H 
ATOM     55  H28 0NT d   1       3.182  61.721   1.103  0.00  0.00     0.166 HD
ATOM     56  N29 0NT d   1       5.839  61.415   0.019  0.00  0.00    -0.240 NA
ATOM     57  H29 0NT d   1       7.721  61.668  -0.847  0.00  0.00     0.118 H 
ENDBRANCH   6  41
TORSDOF 5
