REMARK  27 active torsions:
REMARK  status: ('A' for Active; 'I' for Inactive)
REMARK    1  A    between atoms: C1_1  and  C2_3 
REMARK       I    between atoms: C1_1  and  N_11 
REMARK    2  A    between atoms: C2_3  and  C3_4 
REMARK    3  A    between atoms: C3_4  and  C1'_5 
REMARK    4  A    between atoms: CA_12  and  C_13 
REMARK       I    between atoms: C_13  and  N_18 
REMARK    5  A    between atoms: N_18  and  CA_19 
REMARK    6  A    between atoms: CA_19  and  C_20 
REMARK    7  A    between atoms: CA_19  and  CB_22 
REMARK       I    between atoms: C_20  and  N_26 
REMARK    8  A    between atoms: CB_22  and  CG_23 
REMARK    9  A    between atoms: CG_23  and  CD1_24 
REMARK   10  A    between atoms: CG_23  and  CD2_25 
REMARK   11  A    between atoms: N_26  and  CA_27 
REMARK   12  A    between atoms: CA_27  and  C_28 
REMARK   13  A    between atoms: CA_27  and  CB_30 
REMARK       I    between atoms: C_28  and  N_36 
REMARK   14  A    between atoms: CB_30  and  CG_31 
REMARK   15  A    between atoms: N_36  and  CA_37 
REMARK   16  A    between atoms: CA_37  and  C_38 
REMARK   17  A    between atoms: CA_37  and  CB_40 
REMARK       I    between atoms: C_38  and  N_42 
REMARK   18  A    between atoms: CB_40  and  OG_41 
REMARK   19  A    between atoms: N_42  and  CA_43 
REMARK   20  A    between atoms: CA_43  and  CB_44 
REMARK   21  A    between atoms: CA_43  and  C_51 
REMARK   22  A    between atoms: CB_44  and  CG2_45 
REMARK   23  A    between atoms: CB_44  and  OG1_46 
REMARK   24  A    between atoms: OG1_46  and  P_47 
REMARK       I    between atoms: C_51  and  N_53 
REMARK   25  A    between atoms: N_53  and  CA_54 
REMARK   26  A    between atoms: CA_54  and  C_55 
REMARK   27  A    between atoms: CA_54  and  CB_57 
REMARK       I    between atoms: C_55  and  N_58 
ROOT
ATOM      1  CA  HIS d   1     -10.425  23.101 -11.815  0.00  0.00     0.094 C 
ATOM      2  H29 HIS d   1     -10.067  22.271 -11.189  0.00  0.00     0.088 H 
ENDROOT
BRANCH   1   3
ATOM      3  N   HIS d   1      -9.558  24.254 -11.624  0.00  0.00    -0.346 N 
ATOM      4  C   LEU d   1      -9.001  24.562 -10.459  0.00  0.00     0.241 C 
ATOM      5  O   LEU d   1      -8.992  23.806  -9.489  0.00  0.00    -0.271 OA
ATOM      6  H28 HIS d   1      -9.373  24.844 -12.410  0.00  0.00     0.163 HD
BRANCH   4   7
ATOM      7  CA  LEU d   1      -8.369  25.951 -10.386  0.00  0.00     0.089 C 
ATOM      8  H18 LEU d   1      -9.058  26.626 -10.915  0.00  0.00     0.087 H 
BRANCH   7   9
ATOM      9  N   LEU d   1      -8.272  26.468  -9.020  0.00  0.00    -0.346 N 
ATOM     10  C   PRO d   1      -8.315  27.775  -8.764  0.00  0.00     0.241 C 
ATOM     11  O   PRO d   1      -8.112  28.637  -9.620  0.00  0.00    -0.271 OA
ATOM     12  H17 LEU d   1      -8.171  25.825  -8.261  0.00  0.00     0.163 HD
BRANCH  10  13
ATOM     13  CA  PRO d   1      -8.621  28.192  -7.323  0.00  0.00     0.091 C 
ATOM     14  N   PRO d   1      -9.485  27.237  -6.610  0.00  0.00    -0.339 N 
ATOM     15  C1  HCI d   1     -10.641  26.751  -7.108  0.00  0.00     0.220 C 
ATOM     16  CD  PRO d   1      -8.972  26.947  -5.256  0.00  0.00    -0.001 C 
ATOM     17  O1  HCI d   1     -11.056  27.037  -8.233  0.00  0.00    -0.273 OA
ATOM     18  CG  PRO d   1      -7.855  27.955  -5.081  0.00  0.00    -0.048 C 
ATOM     19  H15 PRO d   1      -8.588  25.918  -5.193  0.00  0.00     0.064 H 
ATOM     20  H16 PRO d   1      -9.756  27.093  -4.498  0.00  0.00     0.064 H 
ATOM     21  CB  PRO d   1      -7.350  28.218  -6.468  0.00  0.00    -0.036 C 
ATOM     22  H13 PRO d   1      -8.237  28.881  -4.627  0.00  0.00     0.035 H 
ATOM     23  H14 PRO d   1      -7.055  27.540  -4.450  0.00  0.00     0.035 H 
ATOM     24  H11 PRO d   1      -6.856  29.199  -6.527  0.00  0.00     0.036 H 
ATOM     25  H12 PRO d   1      -6.647  27.434  -6.785  0.00  0.00     0.036 H 
ATOM     26  H10 PRO d   1      -9.092  29.186  -7.341  0.00  0.00     0.087 H 
BRANCH  15  27
ATOM     27  C2  HCI d   1     -11.439  25.807  -6.209  0.00  0.00     0.013 C 
ATOM     28  H1  HCI d   1     -11.885  26.387  -5.388  0.00  0.00     0.047 H 
ATOM     29  H2  HCI d   1     -10.760  25.047  -5.795  0.00  0.00     0.047 H 
BRANCH  27  30
ATOM     30  C3  HCI d   1     -12.556  25.106  -6.990  0.00  0.00    -0.033 C 
ATOM     31  H3  HCI d   1     -12.100  24.345  -7.640  0.00  0.00     0.040 H 
ATOM     32  H4  HCI d   1     -13.071  25.856  -7.609  0.00  0.00     0.040 H 
BRANCH  30  33
ATOM     33  C1' HCI d   1     -13.577  24.432  -6.112  0.00  0.00    -0.058 A 
ATOM     34  C2' HCI d   1     -14.859  24.953  -5.990  0.00  0.00    -0.077 A 
ATOM     35  C3' HCI d   1     -15.804  24.336  -5.179  0.00  0.00    -0.082 A 
ATOM     36  H5  HCI d   1     -15.126  25.852  -6.534  0.00  0.00     0.084 H 
ATOM     37  C4' HCI d   1     -15.473  23.175  -4.484  0.00  0.00    -0.083 A 
ATOM     38  H6  HCI d   1     -16.798  24.758  -5.087  0.00  0.00     0.083 H 
ATOM     39  C5' HCI d   1     -14.194  22.642  -4.598  0.00  0.00    -0.082 A 
ATOM     40  H7  HCI d   1     -16.211  22.689  -3.856  0.00  0.00     0.083 H 
ATOM     41  C6' HCI d   1     -13.254  23.272  -5.409  0.00  0.00    -0.077 A 
ATOM     42  H8  HCI d   1     -13.930  21.740  -4.058  0.00  0.00     0.083 H 
ATOM     43  H9  HCI d   1     -12.257  22.855  -5.495  0.00  0.00     0.084 H 
ENDBRANCH  30  33
ENDBRANCH  27  30
ENDBRANCH  15  27
ENDBRANCH  10  13
ENDBRANCH   7   9
BRANCH   7  44
ATOM     44  CB  LEU d   1      -7.040  26.019 -11.147  0.00  0.00    -0.035 C 
ATOM     45  H19 LEU d   1      -6.745  27.079 -11.148  0.00  0.00     0.037 H 
ATOM     46  H20 LEU d   1      -7.263  25.700 -12.176  0.00  0.00     0.037 H 
BRANCH  44  47
ATOM     47  CG  LEU d   1      -5.803  25.240 -10.725  0.00  0.00    -0.059 C 
ATOM     48  H21 LEU d   1      -6.101  24.294 -10.249  0.00  0.00     0.038 H 
BRANCH  47  49
ATOM     49  CD1 LEU d   1      -5.021  24.962 -11.988  0.00  0.00    -0.073 C 
ATOM     50  H22 LEU d   1      -4.111  24.397 -11.739  0.00  0.00     0.028 H 
ATOM     51  H23 LEU d   1      -4.743  25.914 -12.464  0.00  0.00     0.028 H 
ATOM     52  H24 LEU d   1      -5.640  24.372 -12.680  0.00  0.00     0.028 H 
ENDBRANCH  47  49
BRANCH  47  53
ATOM     53  CD2 LEU d   1      -4.956  26.046  -9.748  0.00  0.00    -0.073 C 
ATOM     54  H25 LEU d   1      -5.536  26.241  -8.834  0.00  0.00     0.028 H 
ATOM     55  H26 LEU d   1      -4.670  27.002 -10.212  0.00  0.00     0.028 H 
ATOM     56  H27 LEU d   1      -4.050  25.477  -9.492  0.00  0.00     0.028 H 
ENDBRANCH  47  53
ENDBRANCH  44  47
ENDBRANCH   7  44
ENDBRANCH   4   7
ENDBRANCH   1   3
BRANCH   1  57
ATOM     57  C   HIS d   1     -10.376  22.682 -13.279  0.00  0.00     0.241 C 
ATOM     58  O   HIS d   1      -9.824  23.392 -14.116  0.00  0.00    -0.271 OA
ATOM     59  N   SER d   1     -10.950  21.521 -13.579  0.00  0.00    -0.344 N 
ATOM     60  H35 SER d   1     -11.320  20.956 -12.841  0.00  0.00     0.163 HD
BRANCH  59  61
ATOM     61  CA  SER d   1     -11.055  21.049 -14.953  0.00  0.00     0.109 C 
ATOM     62  H36 SER d   1     -10.070  21.148 -15.433  0.00  0.00     0.090 H 
BRANCH  61  63
ATOM     63  C   SER d   1     -12.061  21.907 -15.734  0.00  0.00     0.243 C 
ATOM     64  O   SER d   1     -12.675  22.821 -15.177  0.00  0.00    -0.271 OA
ATOM     65  N   TPO d   1     -12.218  21.607 -17.019  0.00  0.00    -0.344 N 
ATOM     66  H40 TPO d   1     -11.724  20.820 -17.389  0.00  0.00     0.163 HD
BRANCH  65  67
ATOM     67  CA  TPO d   1     -13.082  22.376 -17.918  0.00  0.00     0.114 C 
ATOM     68  H41 TPO d   1     -12.679  23.398 -17.977  0.00  0.00     0.091 H 
BRANCH  67  69
ATOM     69  CB  TPO d   1     -13.011  21.759 -19.317  0.00  0.00     0.076 C 
ATOM     70  H42 TPO d   1     -13.405  20.733 -19.278  0.00  0.00     0.087 H 
BRANCH  69  71
ATOM     71  CG2 TPO d   1     -13.811  22.562 -20.342  0.00  0.00    -0.049 C 
ATOM     72  H43 TPO d   1     -13.730  22.081 -21.328  0.00  0.00     0.031 H 
ATOM     73  H44 TPO d   1     -13.412  23.585 -20.399  0.00  0.00     0.031 H 
ATOM     74  H45 TPO d   1     -14.867  22.597 -20.037  0.00  0.00     0.031 H 
ENDBRANCH  69  71
BRANCH  69  75
ATOM     75  OG1 TPO d   1     -11.644  21.738 -19.727  0.00  0.00    -0.275 OA
BRANCH  75  76
ATOM     76  P   TPO d   1     -10.775  20.389 -19.885  0.00  0.00     0.422 P 
ATOM     77  O1P TPO d   1     -11.500  19.602 -20.946  0.00  0.00    -0.617 OA
ATOM     78  O2P TPO d   1     -10.769  19.754 -18.508  0.00  0.00    -0.617 OA
ATOM     79  O3P TPO d   1      -9.425  20.889 -20.335  0.00  0.00    -0.617 OA
ENDBRANCH  75  76
ENDBRANCH  69  75
ENDBRANCH  67  69
BRANCH  67  80
ATOM     80  C   TPO d   1     -14.504  22.486 -17.424  0.00  0.00     0.243 C 
ATOM     81  O   TPO d   1     -15.131  21.481 -17.067  0.00  0.00    -0.271 OA
ATOM     82  N   ALA d   1     -15.014  23.717 -17.399  0.00  0.00    -0.346 N 
ATOM     83  H46 ALA d   1     -14.443  24.477 -17.709  0.00  0.00     0.163 HD
BRANCH  82  84
ATOM     84  CA  ALA d   1     -16.376  24.005 -16.937  0.00  0.00     0.086 C 
ATOM     85  H47 ALA d   1     -16.527  23.492 -15.976  0.00  0.00     0.086 H 
BRANCH  84  86
ATOM     86  C   ALA d   1     -17.411  23.485 -17.921  0.00  0.00     0.237 C 
ATOM     87  O   ALA d   1     -17.112  23.297 -19.095  0.00  0.00    -0.271 OA
ATOM     88  N   NH2 d   1     -18.574  23.127 -17.583  0.00  0.00    -0.368 N 
ATOM     89  H51 NH2 d   1     -19.215  22.792 -18.274  0.00  0.00     0.159 HD
ATOM     90  H52 NH2 d   1     -18.854  23.178 -16.624  0.00  0.00     0.159 HD
ENDBRANCH  84  86
BRANCH  84  91
ATOM     91  CB  ALA d   1     -16.565  25.511 -16.715  0.00  0.00    -0.049 C 
ATOM     92  H48 ALA d   1     -17.591  25.705 -16.369  0.00  0.00     0.030 H 
ATOM     93  H49 ALA d   1     -16.389  26.046 -17.660  0.00  0.00     0.030 H 
ATOM     94  H50 ALA d   1     -15.850  25.862 -15.956  0.00  0.00     0.030 H 
ENDBRANCH  84  91
ENDBRANCH  82  84
ENDBRANCH  67  80
ENDBRANCH  65  67
ENDBRANCH  61  63
BRANCH  61  95
ATOM     95  CB  SER d   1     -11.454  19.573 -14.971  0.00  0.00     0.044 C 
ATOM     96  H37 SER d   1     -10.650  18.976 -14.515  0.00  0.00     0.077 H 
ATOM     97  H38 SER d   1     -11.603  19.252 -16.012  0.00  0.00     0.077 H 
BRANCH  95  98
ATOM     98  OG  SER d   1     -12.657  19.369 -14.243  0.00  0.00    -0.398 OA
ATOM     99  H39 SER d   1     -13.354  19.881 -14.636  0.00  0.00     0.209 HD
ENDBRANCH  95  98
ENDBRANCH  61  95
ENDBRANCH  59  61
ENDBRANCH   1  57
BRANCH   1 100
ATOM    100  CB  HIS d   1     -11.867  23.448 -11.407  0.00  0.00     0.004 C 
ATOM    101  H30 HIS d   1     -11.905  23.542 -10.312  0.00  0.00     0.046 H 
ATOM    102  H31 HIS d   1     -12.526  22.628 -11.728  0.00  0.00     0.046 H 
BRANCH 100 103
ATOM    103  CG  HIS d   1     -12.373  24.724 -12.009  0.00  0.00     0.053 A 
ATOM    104  ND1 HIS d   1     -12.832  24.804 -13.308  0.00  0.00    -0.247 NA
ATOM    105  CE1 HIS d   1     -13.197  26.046 -13.569  0.00  0.00     0.064 A 
ATOM    106  NE2 HIS d   1     -12.998  26.775 -12.485  0.00  0.00    -0.359 N 
ATOM    107  H33 HIS d   1     -13.594  26.408 -14.516  0.00  0.00     0.143 H 
ATOM    108  CD2 HIS d   1     -12.482  25.972 -11.496  0.00  0.00     0.002 A 
ATOM    109  H34 HIS d   1     -13.197  27.782 -12.396  0.00  0.00     0.166 HD
ATOM    110  H32 HIS d   1     -12.211  26.282 -10.488  0.00  0.00     0.114 H 
ENDBRANCH 100 103
ENDBRANCH   1 100
TORSDOF 27
