REMARK  2 active torsions:
REMARK  status: ('A' for Active; 'I' for Inactive)
REMARK    1  A    between atoms: C14_3  and  C13_4 
REMARK       I    between atoms: C13_4  and  N4_6 
REMARK    2  A    between atoms: C8_11  and  N3_12 
ROOT
ATOM      1  N5  0NU d   1      -1.608 -52.128 -18.133  0.00  0.00    -0.197 NA
ATOM      2  C15 0NU d   1      -1.228 -51.059 -18.311  0.00  0.00     0.068 C 
ATOM      3  C14 0NU d   1      -0.567 -49.780 -18.551  0.00  0.00     0.088 C 
ATOM      4  H1  0NU d   1       0.523 -49.916 -18.494  0.00  0.00     0.069 H 
ATOM      5  H2  0NU d   1      -0.886 -49.055 -17.788  0.00  0.00     0.069 H 
ENDROOT
BRANCH   3   6
ATOM      6  C13 0NU d   1      -0.958 -49.235 -19.996  0.00  0.00     0.232 C 
ATOM      7  O   0NU d   1      -1.419 -50.003 -20.834  0.00  0.00    -0.272 OA
ATOM      8  N4  0NU d   1      -0.810 -47.919 -20.250  0.00  0.00    -0.349 N 
ATOM      9  C11 0NU d   1      -0.291 -47.001 -19.242  0.00  0.00    -0.002 C 
ATOM     10  C12 0NU d   1      -1.174 -47.253 -21.503  0.00  0.00     0.017 C 
ATOM     11  C10 0NU d   1      -1.365 -46.007 -18.838  0.00  0.00    -0.048 C 
ATOM     12  H3  0NU d   1       0.571 -46.457 -19.655  0.00  0.00     0.064 H 
ATOM     13  H4  0NU d   1       0.026 -47.573 -18.358  0.00  0.00     0.064 H 
ATOM     14  C9  0NU d   1      -1.899 -45.277 -20.070  0.00  0.00    -0.043 C 
ATOM     15  H5  0NU d   1      -0.937 -45.274 -18.139  0.00  0.00     0.035 H 
ATOM     16  H6  0NU d   1      -2.191 -46.543 -18.347  0.00  0.00     0.035 H 
ATOM     17  C8  0NU d   1      -2.261 -46.262 -21.178  0.00  0.00     0.033 C 
ATOM     18  H7  0NU d   1      -1.127 -44.587 -20.441  0.00  0.00     0.036 H 
ATOM     19  H8  0NU d   1      -2.797 -44.707 -19.789  0.00  0.00     0.036 H 
ATOM     20  H11 0NU d   1      -3.126 -46.839 -20.819  0.00  0.00     0.075 H 
ATOM     21  H9  0NU d   1      -1.542 -47.992 -22.230  0.00  0.00     0.067 H 
ATOM     22  H10 0NU d   1      -0.300 -46.731 -21.921  0.00  0.00     0.067 H 
BRANCH  17  23
ATOM     23  N3  0NU d   1      -2.668 -45.564 -22.391  0.00  0.00    -0.332 N 
ATOM     24  C4  0NU d   1      -3.936 -45.020 -22.534  0.00  0.00     0.080 A 
ATOM     25  C3  0NU d   1      -5.084 -44.970 -21.750  0.00  0.00     0.040 A 
ATOM     26  C5  0NU d   1      -3.878 -44.354 -23.787  0.00  0.00     0.103 A 
ATOM     27  C   0NU d   1      -5.573 -45.464 -20.494  0.00  0.00    -0.052 A 
ATOM     28  C2  0NU d   1      -6.142 -44.184 -22.292  0.00  0.00     0.139 A 
ATOM     29  C1  0NU d   1      -6.841 -44.997 -20.340  0.00  0.00    -0.020 A 
ATOM     30  H12 0NU d   1      -5.029 -46.096 -19.794  0.00  0.00     0.087 H 
ATOM     31  N   0NU d   1      -7.183 -44.216 -21.410  0.00  0.00    -0.350 N 
ATOM     32  H16 0NU d   1      -7.488 -45.213 -19.491  0.00  0.00     0.111 H 
ATOM     33  H15 0NU d   1      -8.083 -43.730 -21.531  0.00  0.00     0.166 HD
ATOM     34  N1  0NU d   1      -6.111 -43.540 -23.472  0.00  0.00    -0.240 NA
ATOM     35  C6  0NU d   1      -4.994 -43.638 -24.202  0.00  0.00     0.034 A 
ATOM     36  H14 0NU d   1      -4.958 -43.135 -25.162  0.00  0.00     0.118 H 
ATOM     37  N2  0NU d   1      -2.628 -44.516 -24.381  0.00  0.00    -0.240 NA
ATOM     38  C7  0NU d   1      -1.949 -45.240 -23.522  0.00  0.00     0.067 A 
ATOM     39  H13 0NU d   1      -0.919 -45.554 -23.686  0.00  0.00     0.143 H 
ENDBRANCH  17  23
ENDBRANCH   3   6
TORSDOF 2
