REMARK  3 active torsions:
REMARK  status: ('A' for Active; 'I' for Inactive)
REMARK    1  A    between atoms: N3_3  and  C19_19 
REMARK    2  A    between atoms: C6_6  and  N7_7 
REMARK    3  A    between atoms: C19_19  and  C20_20 
ROOT
ATOM      1  C1  0NV d   1      10.929  26.734   8.825  0.00  0.00    -0.023 C 
ATOM      2  C2  0NV d   1      10.745  25.324   8.233  0.00  0.00     0.086 C 
ATOM      3  N3  0NV d   1      11.681  25.066   7.109  0.00  0.00    -0.067 N 
ATOM      4  C4  0NV d   1      13.076  25.224   7.530  0.00  0.00     0.086 C 
ATOM      5  C5  0NV d   1      13.371  26.653   8.064  0.00  0.00    -0.023 C 
ATOM      6  C6  0NV d   1      12.399  26.814   9.243  0.00  0.00     0.021 C 
ATOM      7  H1  0NV d   1      10.273  26.873   9.697  0.00  0.00     0.038 H 
ATOM      8  H2  0NV d   1      10.702  27.501   8.069  0.00  0.00     0.038 H 
ATOM      9  H3  0NV d   1       9.713  25.225   7.865  0.00  0.00     0.076 H 
ATOM     10  H4  0NV d   1      10.926  24.581   9.023  0.00  0.00     0.076 H 
ATOM     11  H5  0NV d   1      11.485  25.735   6.381  0.00  0.00     0.280 HD
ATOM     12  H6  0NV d   1      13.730  25.026   6.668  0.00  0.00     0.076 H 
ATOM     13  H7  0NV d   1      13.290  24.497   8.327  0.00  0.00     0.076 H 
ATOM     14  H8  0NV d   1      13.175  27.409   7.289  0.00  0.00     0.038 H 
ATOM     15  H9  0NV d   1      14.414  26.737   8.402  0.00  0.00     0.038 H 
ATOM     16  H10 0NV d   1      12.588  26.003   9.961  0.00  0.00     0.073 H 
ENDROOT
BRANCH   6  17
ATOM     17  N7  0NV d   1      12.686  28.083   9.884  0.00  0.00    -0.334 N 
ATOM     18  C8  0NV d   1      12.938  29.260   9.223  0.00  0.00     0.067 A 
ATOM     19  N9  0NV d   1      13.147  30.212  10.070  0.00  0.00    -0.240 NA
ATOM     20  H11 0NV d   1      12.959  29.374   8.140  0.00  0.00     0.143 H 
ATOM     21  C10 0NV d   1      13.056  29.726  11.341  0.00  0.00     0.103 A 
ATOM     22  C11 0NV d   1      13.197  30.281  12.614  0.00  0.00     0.034 A 
ATOM     23  C18 0NV d   1      12.726  28.337  11.243  0.00  0.00     0.080 A 
ATOM     24  N12 0NV d   1      13.022  29.571  13.695  0.00  0.00    -0.240 NA
ATOM     25  H12 0NV d   1      13.459  31.329  12.707  0.00  0.00     0.118 H 
ATOM     26  C13 0NV d   1      12.710  28.278  13.670  0.00  0.00     0.139 A 
ATOM     27  N14 0NV d   1      12.513  27.368  14.668  0.00  0.00    -0.350 N 
ATOM     28  C17 0NV d   1      12.549  27.607  12.440  0.00  0.00     0.040 A 
ATOM     29  C15 0NV d   1      12.248  26.138  14.099  0.00  0.00    -0.020 A 
ATOM     30  H13 0NV d   1      12.555  27.566  15.678  0.00  0.00     0.166 HD
ATOM     31  C16 0NV d   1      12.227  26.203  12.761  0.00  0.00    -0.052 A 
ATOM     32  H14 0NV d   1      12.077  25.226  14.669  0.00  0.00     0.111 H 
ATOM     33  H15 0NV d   1      12.018  25.395  12.062  0.00  0.00     0.087 H 
ENDBRANCH   6  17
BRANCH   3  34
ATOM     34  C19 0NV d   1      11.517  23.689   6.549  0.00  0.00     0.107 C 
ATOM     35  H16 0NV d   1      11.904  22.963   7.280  0.00  0.00     0.083 H 
ATOM     36  H17 0NV d   1      12.097  23.616   5.617  0.00  0.00     0.083 H 
BRANCH  34  37
ATOM     37  C20 0NV d   1      10.059  23.347   6.245  0.00  0.00    -0.033 A 
ATOM     38  C21 0NV d   1       9.363  22.414   7.023  0.00  0.00    -0.075 A 
ATOM     39  C22 0NV d   1       8.040  22.088   6.782  0.00  0.00    -0.082 A 
ATOM     40  H18 0NV d   1       9.879  21.930   7.844  0.00  0.00     0.084 H 
ATOM     41  C23 0NV d   1       7.424  22.717   5.713  0.00  0.00    -0.083 A 
ATOM     42  H19 0NV d   1       7.510  21.373   7.401  0.00  0.00     0.083 H 
ATOM     43  C24 0NV d   1       8.099  23.647   4.929  0.00  0.00    -0.082 A 
ATOM     44  H20 0NV d   1       6.392  22.479   5.482  0.00  0.00     0.083 H 
ATOM     45  C25 0NV d   1       9.420  23.969   5.181  0.00  0.00    -0.075 A 
ATOM     46  H21 0NV d   1       7.581  24.127   4.107  0.00  0.00     0.083 H 
ATOM     47  H22 0NV d   1       9.944  24.689   4.563  0.00  0.00     0.084 H 
ENDBRANCH  34  37
ENDBRANCH   3  34
TORSDOF 3
