REMARK  6 active torsions:
REMARK  status: ('A' for Active; 'I' for Inactive)
REMARK    1  A    between atoms: C10_13  and  O1_2 
REMARK    2  A    between atoms: O3_6  and  C2_3 
REMARK    3  A    between atoms: C4_7  and  O2_4 
REMARK    4  A    between atoms: C5_8  and  O3_6 
REMARK    5  A    between atoms: C8_11  and  C7_10 
REMARK    6  A    between atoms: C9_12  and  C10_13 
ROOT
ATOM      1  C1  N7I d   1      12.329 -19.440 -42.295  0.00  0.00    -0.070 A 
ATOM      2  C3  N7I d   1      12.156 -19.585 -40.921  0.00  0.00    -0.047 A 
ATOM      3  C4  N7I d   1      13.002 -18.875 -40.019  0.00  0.00     0.099 A 
ATOM      4  C5  N7I d   1      14.029 -18.014 -40.562  0.00  0.00     0.102 A 
ATOM      5  C6  N7I d   1      14.171 -17.883 -41.934  0.00  0.00    -0.038 A 
ATOM      6  C7  N7I d   1      13.334 -18.605 -42.831  0.00  0.00    -0.034 A 
ATOM      7  H1  N7I d   1      11.676 -19.982 -42.970  0.00  0.00     0.084 H 
ATOM      8  H7  N7I d   1      11.379 -20.237 -40.538  0.00  0.00     0.087 H 
ATOM      9  H8  N7I d   1      14.931 -17.220 -42.331  0.00  0.00     0.089 H 
ENDROOT
BRANCH   6  10
ATOM     10  C8  N7I d   1      13.529 -18.404 -44.302  0.00  0.00    -0.075 C 
ATOM     11  C9  N7I d   1      13.088 -19.181 -45.269  0.00  0.00    -0.080 C 
ATOM     12  H10 N7I d   1      12.542 -20.080 -44.987  0.00  0.00     0.080 H 
ATOM     13  H9  N7I d   1      14.095 -17.523 -44.603  0.00  0.00     0.084 H 
BRANCH  11  14
ATOM     14  C10 N7I d   1      13.289 -18.910 -46.758  0.00  0.00     0.032 C 
ATOM     15  H11 N7I d   1      13.809 -19.767 -47.212  0.00  0.00     0.080 H 
ATOM     16  H12 N7I d   1      12.307 -18.782 -47.236  0.00  0.00     0.080 H 
BRANCH  14  17
ATOM     17  O1  N7I d   1      14.047 -17.759 -46.959  0.00  0.00    -0.397 OA
ATOM     18  H2  N7I d   1      14.158 -17.613 -47.891  0.00  0.00     0.209 HD
ENDBRANCH  14  17
ENDBRANCH  11  14
ENDBRANCH   6  10
BRANCH   4  19
ATOM     19  O3  N7I d   1      14.762 -17.398 -39.631  0.00  0.00    -0.353 OA
BRANCH  19  20
ATOM     20  C2  N7I d   1      15.875 -16.612 -40.065  0.00  0.00     0.010 C 
ATOM     21  H3  N7I d   1      16.376 -16.172 -39.190  0.00  0.00     0.066 H 
ATOM     22  H4  N7I d   1      15.521 -15.809 -40.727  0.00  0.00     0.066 H 
ATOM     23  H5  N7I d   1      16.585 -17.251 -40.611  0.00  0.00     0.066 H 
ENDBRANCH  19  20
ENDBRANCH   4  19
BRANCH   3  24
ATOM     24  O2  N7I d   1      12.904 -18.951 -38.684  0.00  0.00    -0.358 OA
ATOM     25  H6  N7I d   1      13.566 -18.397 -38.287  0.00  0.00     0.217 HD
ENDBRANCH   3  24
TORSDOF 6
