REMARK  12 active torsions:
REMARK  status: ('A' for Active; 'I' for Inactive)
REMARK    1  A    between atoms: C3_3  and  C44_18 
REMARK    2  A    between atoms: C8_5  and  C7_4 
REMARK    3  A    between atoms: C7_4  and  C5_22 
REMARK    4  A    between atoms: C8_5  and  C9_6 
REMARK    5  A    between atoms: N24_23  and  C8_5 
REMARK       I    between atoms: C9_6  and  N11_35 
REMARK    6  A    between atoms: C14_9  and  C17_36 
REMARK    7  A    between atoms: C32_14  and  C34_16 
REMARK    8  A    between atoms: C44_18  and  N46_19 
REMARK    9  A    between atoms: S25_24  and  N24_23 
REMARK   10  A    between atoms: S25_24  and  C28_25 
REMARK   11  A    between atoms: C17_36  and  C18_37 
REMARK   12  A    between atoms: C18_37  and  N19_38 
ROOT
ATOM      1  C8  0NW d   1      20.091   0.056  20.445  0.00  0.00     0.101 C 
ATOM      2  H5  0NW d   1      20.799  -0.151  19.629  0.00  0.00     0.089 H 
ENDROOT
BRANCH   1   3
ATOM      3  C7  0NW d   1      18.672  -0.201  19.912  0.00  0.00    -0.013 C 
ATOM      4  H3  0NW d   1      18.469  -1.282  19.944  0.00  0.00     0.043 H 
ATOM      5  H4  0NW d   1      18.611   0.153  18.872  0.00  0.00     0.043 H 
BRANCH   3   6
ATOM      6  C5  0NW d   1      17.622   0.524  20.743  0.00  0.00    -0.055 A 
ATOM      7  C4  0NW d   1      17.037  -0.110  21.832  0.00  0.00    -0.063 A 
ATOM      8  C3  0NW d   1      16.088   0.542  22.600  0.00  0.00     0.007 A 
ATOM      9  H22 0NW d   1      17.326  -1.124  22.082  0.00  0.00     0.085 H 
ATOM     10  C2  0NW d   1      15.706   1.832  22.285  0.00  0.00    -0.069 A 
ATOM     11  C1  0NW d   1      16.289   2.474  21.197  0.00  0.00    -0.082 A 
ATOM     12  H2  0NW d   1      14.957   2.340  22.881  0.00  0.00     0.085 H 
ATOM     13  C6  0NW d   1      17.238   1.823  20.423  0.00  0.00    -0.077 A 
ATOM     14  H1  0NW d   1      16.000   3.490  20.953  0.00  0.00     0.083 H 
ATOM     15  H35 0NW d   1      17.680   2.325  19.570  0.00  0.00     0.084 H 
BRANCH   8  16
ATOM     16  C44 0NW d   1      15.455  -0.150  23.762  0.00  0.00     0.102 C 
ATOM     17  N45 0NW d   1      15.753  -1.341  24.023  0.00  0.00    -0.385 N 
ATOM     18  H20 0NW d   1      16.450  -1.835  23.448  0.00  0.00     0.157 HD
ATOM     19  H21 0NW d   1      15.300  -1.824  24.812  0.00  0.00     0.157 HD
BRANCH  16  20
ATOM     20  N46 0NW d   1      14.558   0.485  24.502  0.00  0.00    -0.385 N 
ATOM     21  H18 0NW d   1      14.121   0.008  25.304  0.00  0.00     0.157 HD
ATOM     22  H19 0NW d   1      14.298   1.456  24.276  0.00  0.00     0.157 HD
ENDBRANCH  16  20
ENDBRANCH   8  16
ENDBRANCH   3   6
ENDBRANCH   1   3
BRANCH   1  23
ATOM     23  C9  0NW d   1      20.289   1.488  20.879  0.00  0.00     0.243 C 
ATOM     24  N11 0NW d   1      20.591   2.426  19.990  0.00  0.00    -0.350 N 
ATOM     25  C12 0NW d   1      20.731   3.803  20.464  0.00  0.00    -0.002 C 
ATOM     26  C16 0NW d   1      20.734   2.153  18.554  0.00  0.00    -0.002 C 
ATOM     27  C13 0NW d   1      21.965   4.441  19.826  0.00  0.00    -0.047 C 
ATOM     28  H6  0NW d   1      19.836   4.379  20.186  0.00  0.00     0.064 H 
ATOM     29  H7  0NW d   1      20.843   3.804  21.558  0.00  0.00     0.064 H 
ATOM     30  C14 0NW d   1      21.927   4.306  18.317  0.00  0.00    -0.050 C 
ATOM     31  H8  0NW d   1      22.867   3.942  20.209  0.00  0.00     0.035 H 
ATOM     32  H9  0NW d   1      21.996   5.508  20.091  0.00  0.00     0.035 H 
ATOM     33  C15 0NW d   1      22.002   2.816  18.035  0.00  0.00    -0.047 C 
ATOM     34  H10 0NW d   1      20.995   4.728  17.913  0.00  0.00     0.040 H 
ATOM     35  H11 0NW d   1      22.878   2.387  18.544  0.00  0.00     0.035 H 
ATOM     36  H12 0NW d   1      22.089   2.649  16.951  0.00  0.00     0.035 H 
ATOM     37  H13 0NW d   1      20.795   1.067  18.392  0.00  0.00     0.064 H 
ATOM     38  H14 0NW d   1      19.863   2.555  18.016  0.00  0.00     0.064 H 
ATOM     39  O10 0NW d   1      20.152   1.789  22.051  0.00  0.00    -0.271 OA
BRANCH  30  40
ATOM     40  C17 0NW d   1      23.124   5.024  17.704  0.00  0.00    -0.039 C 
ATOM     41  H28 0NW d   1      23.825   4.271  17.314  0.00  0.00     0.035 H 
ATOM     42  H29 0NW d   1      23.620   5.615  18.488  0.00  0.00     0.035 H 
BRANCH  40  43
ATOM     43  C18 0NW d   1      22.724   5.959  16.564  0.00  0.00     0.080 C 
ATOM     44  H30 0NW d   1      23.509   6.717  16.427  0.00  0.00     0.075 H 
ATOM     45  H31 0NW d   1      21.776   6.455  16.820  0.00  0.00     0.075 H 
BRANCH  43  46
ATOM     46  N19 0NW d   1      22.556   5.220  15.327  0.00  0.00    -0.079 N 
ATOM     47  H32 0NW d   1      22.293   5.855  14.589  0.00  0.00     0.274 HD
ATOM     48  H33 0NW d   1      21.835   4.526  15.446  0.00  0.00     0.274 HD
ATOM     49  H34 0NW d   1      23.423   4.766  15.086  0.00  0.00     0.274 HD
ENDBRANCH  43  46
ENDBRANCH  40  43
ENDBRANCH  30  40
ENDBRANCH   1  23
BRANCH   1  50
ATOM     50  N24 0NW d   1      20.394  -0.842  21.550  0.00  0.00    -0.301 N 
ATOM     51  H23 0NW d   1      19.728  -0.974  22.284  0.00  0.00     0.173 HD
BRANCH  50  52
ATOM     52  S25 0NW d   1      21.803  -1.623  21.589  0.00  0.00     0.259 S 
ATOM     53  O27 0NW d   1      21.847  -2.431  22.786  0.00  0.00    -0.201 OA
ATOM     54  O26 0NW d   1      21.870  -2.457  20.431  0.00  0.00    -0.201 OA
BRANCH  52  55
ATOM     55  C28 0NW d   1      23.009  -0.562  21.579  0.00  0.00     0.080 A 
ATOM     56  C33 0NW d   1      23.035   0.507  22.476  0.00  0.00    -0.050 A 
ATOM     57  C32 0NW d   1      24.079   1.438  22.500  0.00  0.00    -0.023 A 
ATOM     58  H17 0NW d   1      22.218   0.620  23.179  0.00  0.00     0.087 H 
ATOM     59  C31 0NW d   1      25.099   1.314  21.569  0.00  0.00    -0.072 A 
ATOM     60  C30 0NW d   1      25.080   0.247  20.666  0.00  0.00    -0.081 A 
ATOM     61  H16 0NW d   1      25.905   2.039  21.542  0.00  0.00     0.084 H 
ATOM     62  C29 0NW d   1      24.051  -0.689  20.668  0.00  0.00    -0.060 A 
ATOM     63  H15 0NW d   1      25.886   0.147  19.948  0.00  0.00     0.083 H 
ATOM     64  H27 0NW d   1      24.062  -1.513  19.963  0.00  0.00     0.085 H 
BRANCH  57  65
ATOM     65  C34 0NW d   1      24.015   2.572  23.474  0.00  0.00    -0.004 A 
ATOM     66  C35 0NW d   1      23.753   2.368  24.821  0.00  0.00     0.046 A 
ATOM     67  C36 0NW d   1      23.660   3.431  25.705  0.00  0.00    -0.040 A 
ATOM     68 CL1  0NW d   1      23.546   0.734  25.512  0.00  0.00    -0.083 Cl
ATOM     69  C37 0NW d   1      23.823   4.721  25.251  0.00  0.00     0.035 A 
ATOM     70  H26 0NW d   1      23.459   3.247  26.754  0.00  0.00     0.088 H 
ATOM     71  C38 0NW d   1      24.078   4.948  23.909  0.00  0.00    -0.061 A 
ATOM     72 CL2  0NW d   1      23.679   6.056  26.437  0.00  0.00    -0.084 Cl
ATOM     73  C39 0NW d   1      24.165   3.876  23.019  0.00  0.00    -0.069 A 
ATOM     74  H25 0NW d   1      24.210   5.962  23.548  0.00  0.00     0.086 H 
ATOM     75  H24 0NW d   1      24.351   4.062  21.967  0.00  0.00     0.085 H 
ENDBRANCH  57  65
ENDBRANCH  52  55
ENDBRANCH  50  52
ENDBRANCH   1  50
TORSDOF 12
