REMARK  6 active torsions:
REMARK  status: ('A' for Active; 'I' for Inactive)
REMARK    1  A    between atoms: C2_2  and  N2_3 
REMARK    2  A    between atoms: C9_11  and  C10_13 
REMARK    3  A    between atoms: C10_13  and  N1'_12 
REMARK    4  A    between atoms: C3'_15  and  O3'_16 
REMARK    5  A    between atoms: C4'_17  and  C5'_18 
REMARK    6  A    between atoms: C5'_18  and  O5'_19 
ROOT
ATOM      1  C10 IM5 d   1      18.547 -26.803 -15.455  0.00  0.00     0.111 C 
ATOM      2  H8  IM5 d   1      18.329 -25.942 -16.104  0.00  0.00     0.083 H 
ATOM      3  H9  IM5 d   1      18.803 -26.447 -14.446  0.00  0.00     0.083 H 
ENDROOT
BRANCH   1   4
ATOM      4  C9  IM5 d   1      19.804 -27.509 -16.030  0.00  0.00     0.013 A 
ATOM      5  C4  IM5 d   1      20.142 -27.605 -17.326  0.00  0.00     0.090 A 
ATOM      6  N3  IM5 d   1      19.530 -27.204 -18.467  0.00  0.00    -0.189 N 
ATOM      7  C5  IM5 d   1      21.335 -28.247 -17.370  0.00  0.00     0.129 A 
ATOM      8  C2  IM5 d   1      20.098 -27.437 -19.671  0.00  0.00     0.679 A 
ATOM      9  H4  IM5 d   1      18.624 -26.717 -18.416  0.00  0.00     0.184 HD
ATOM     10  N1  IM5 d   1      21.335 -28.098 -19.744  0.00  0.00    -0.154 N 
ATOM     11  C6  IM5 d   1      21.933 -28.515 -18.553  0.00  0.00     0.288 A 
ATOM     12  H1  IM5 d   1      21.776 -28.266 -20.626  0.00  0.00     0.187 HD
ATOM     13  O6  IM5 d   1      22.996 -29.140 -18.629  0.00  0.00    -0.265 OA
ATOM     14  N7  IM5 d   1      21.695 -28.527 -16.105  0.00  0.00    -0.359 N 
ATOM     15  C8  IM5 d   1      20.756 -28.055 -15.276  0.00  0.00    -0.012 A 
ATOM     16  H5  IM5 d   1      22.552 -29.023 -15.821  0.00  0.00     0.165 HD
ATOM     17  H6  IM5 d   1      20.768 -28.108 -14.188  0.00  0.00     0.112 H 
BRANCH   8  18
ATOM     18  N2  IM5 d   1      19.528 -27.036 -20.807  0.00  0.00    -0.234 N 
ATOM     19  H2  IM5 d   1      18.621 -26.549 -20.784  0.00  0.00     0.174 HD
ATOM     20  H3  IM5 d   1      19.995 -27.213 -21.708  0.00  0.00     0.174 HD
ENDBRANCH   8  18
ENDBRANCH   1   4
BRANCH   1  21
ATOM     21  N1' IM5 d   1      17.304 -27.594 -15.340  0.00  0.00    -0.064 N 
ATOM     22  C2' IM5 d   1      16.752 -27.958 -16.658  0.00  0.00     0.108 C 
ATOM     23  C3' IM5 d   1      15.674 -28.973 -16.295  0.00  0.00     0.066 C 
ATOM     24  H10 IM5 d   1      17.522 -28.409 -17.301  0.00  0.00     0.080 H 
ATOM     25  H11 IM5 d   1      16.319 -27.082 -17.163  0.00  0.00     0.080 H 
ATOM     26  C4' IM5 d   1      16.245 -29.721 -15.108  0.00  0.00     0.016 C 
ATOM     27  H12 IM5 d   1      15.469 -29.650 -17.137  0.00  0.00     0.086 H 
ATOM     28  C6' IM5 d   1      17.480 -28.881 -14.635  0.00  0.00     0.091 C 
ATOM     29  H14 IM5 d   1      15.505 -29.820 -14.300  0.00  0.00     0.049 H 
ATOM     30  H18 IM5 d   1      17.465 -28.738 -13.544  0.00  0.00     0.076 H 
ATOM     31  H19 IM5 d   1      18.423 -29.366 -14.929  0.00  0.00     0.076 H 
ATOM     32  H7  IM5 d   1      16.632 -27.034 -14.839  0.00  0.00     0.280 HD
BRANCH  23  33
ATOM     33  O3' IM5 d   1      14.469 -28.310 -15.887  0.00  0.00    -0.393 OA
ATOM     34  H13 IM5 d   1      13.811 -28.959 -15.666  0.00  0.00     0.210 HD
ENDBRANCH  23  33
BRANCH  26  35
ATOM     35  C5' IM5 d   1      16.684 -31.083 -15.595  0.00  0.00     0.024 C 
ATOM     36  H15 IM5 d   1      17.235 -30.980 -16.541  0.00  0.00     0.074 H 
ATOM     37  H16 IM5 d   1      15.804 -31.724 -15.751  0.00  0.00     0.074 H 
BRANCH  35  38
ATOM     38  O5' IM5 d   1      17.532 -31.661 -14.603  0.00  0.00    -0.400 OA
ATOM     39  H17 IM5 d   1      17.052 -31.745 -13.787  0.00  0.00     0.209 HD
ENDBRANCH  35  38
ENDBRANCH  26  35
ENDBRANCH   1  21
TORSDOF 6
