REMARK  3 active torsions:
REMARK  status: ('A' for Active; 'I' for Inactive)
REMARK    1  A    between atoms: C1_6  and  C7_7 
REMARK    2  A    between atoms: C7_7  and  C8_8 
REMARK    3  A    between atoms: C8_8  and  C9_9 
ROOT
ATOM      1  C4  I2E d   1      14.011   9.968  -3.960  0.00  0.00     0.105 A 
ATOM      2  C5  I2E d   1      15.341  10.255  -3.884  0.00  0.00    -0.047 A 
ATOM      3  C6  I2E d   1      15.906  10.587  -2.635  0.00  0.00    -0.074 A 
ATOM      4  C3  I2E d   1      13.209   9.976  -2.838  0.00  0.00     0.105 A 
ATOM      5  C2  I2E d   1      13.716  10.274  -1.597  0.00  0.00    -0.042 A 
ATOM      6  C1  I2E d   1      15.086  10.563  -1.463  0.00  0.00    -0.055 A 
ATOM      7  C20 I2E d   1      11.882   9.563  -4.627  0.00  0.00     0.115 C 
ATOM      8  O4  I2E d   1      13.280   9.610  -5.077  0.00  0.00    -0.323 OA
ATOM      9  O3  I2E d   1      11.913   9.648  -3.168  0.00  0.00    -0.323 OA
ATOM     10  H1  I2E d   1      15.959  10.228  -4.774  0.00  0.00     0.087 H 
ATOM     11  H2  I2E d   1      16.953  10.858  -2.564  0.00  0.00     0.084 H 
ATOM     12  H3  I2E d   1      13.067  10.286  -0.729  0.00  0.00     0.088 H 
ATOM     13  H8  I2E d   1      11.412   8.620  -4.943  0.00  0.00     0.118 H 
ATOM     14  H9  I2E d   1      11.319  10.411  -5.045  0.00  0.00     0.118 H 
ENDROOT
BRANCH   6  15
ATOM     15  C7  I2E d   1      15.613  10.914  -0.197  0.00  0.00    -0.032 C 
ATOM     16  H4  I2E d   1      14.904  10.589   0.579  0.00  0.00     0.040 H 
ATOM     17  H5  I2E d   1      15.725  12.008  -0.157  0.00  0.00     0.040 H 
BRANCH  15  18
ATOM     18  C8  I2E d   1      17.006  10.260   0.098  0.00  0.00     0.019 C 
ATOM     19  H6  I2E d   1      17.054   9.296  -0.430  0.00  0.00     0.049 H 
ATOM     20  H7  I2E d   1      17.085  10.088   1.182  0.00  0.00     0.049 H 
BRANCH  18  21
ATOM     21  C9  I2E d   1      18.229  11.131  -0.353  0.00  0.00     0.172 C 
ATOM     22  O1  I2E d   1      18.141  12.367  -0.468  0.00  0.00    -0.648 OA
ATOM     23  O2  I2E d   1      19.248  10.504  -0.591  0.00  0.00    -0.648 OA
ENDBRANCH  18  21
ENDBRANCH  15  18
ENDBRANCH   6  15
TORSDOF 3
