REMARK  4 active torsions:
REMARK  status: ('A' for Active; 'I' for Inactive)
REMARK    1  A    between atoms: CAA_1  and  NAJ_2 
REMARK    2  A    between atoms: NAJ_2  and  CAB_3 
REMARK    3  A    between atoms: NAJ_2  and  SAK_4 
REMARK    4  A    between atoms: SAK_4  and  CAI_7 
ROOT
ATOM      1  SAK 0OC d   1      13.079   9.611   9.226  0.00  0.00     0.260 S 
ATOM      2  OAC 0OC d   1      12.420  11.009   9.013  0.00  0.00    -0.200 OA
ATOM      3  OAD 0OC d   1      12.319   8.550  10.009  0.00  0.00    -0.200 OA
ENDROOT
BRANCH   1   4
ATOM      4  NAJ 0OC d   1      13.795   8.957   7.700  0.00  0.00    -0.315 N 
BRANCH   4   5
ATOM      5  CAA 0OC d   1      13.816   9.884   6.556  0.00  0.00    -0.009 C 
ATOM      6  H1  0OC d   1      14.270   9.384   5.688  0.00  0.00     0.057 H 
ATOM      7  H2  0OC d   1      14.407  10.775   6.816  0.00  0.00     0.057 H 
ATOM      8  H3  0OC d   1      12.787  10.185   6.309  0.00  0.00     0.057 H 
ENDBRANCH   4   5
BRANCH   4   9
ATOM      9  CAB 0OC d   1      13.708   7.510   7.526  0.00  0.00    -0.009 C 
ATOM     10  H4  0OC d   1      14.172   7.227   6.570  0.00  0.00     0.057 H 
ATOM     11  H5  0OC d   1      12.652   7.204   7.525  0.00  0.00     0.057 H 
ATOM     12  H6  0OC d   1      14.235   7.009   8.352  0.00  0.00     0.057 H 
ENDBRANCH   4   9
ENDBRANCH   1   4
BRANCH   1  13
ATOM     13  CAI 0OC d   1      14.671   9.922  10.025  0.00  0.00     0.086 A 
ATOM     14  CAF 0OC d   1      15.516   8.922  10.426  0.00  0.00    -0.054 A 
ATOM     15  CAE 0OC d   1      16.720   9.309  11.003  0.00  0.00    -0.044 A 
ATOM     16  H7  0OC d   1      15.257   7.872  10.299  0.00  0.00     0.086 H 
ATOM     17  SAH 0OC d   1      16.522  11.095  11.020  0.00  0.00    -0.112 SA
ATOM     18  H8  0OC d   1      17.553   8.699  11.349  0.00  0.00     0.095 H 
ATOM     19  CAG 0OC d   1      14.969  11.215  10.288  0.00  0.00    -0.022 A 
ATOM     20  H9  0OC d   1      14.376  12.106  10.087  0.00  0.00     0.097 H 
ENDBRANCH   1  13
TORSDOF 4
