REMARK  8 active torsions:
REMARK  status: ('A' for Active; 'I' for Inactive)
REMARK       I    between atoms: C6_2  and  N1_3 
REMARK    1  A    between atoms: C6_2  and  C7_4 
REMARK    2  A    between atoms: C7_4  and  C8_5 
REMARK    3  A    between atoms: C7_4  and  N2_10 
REMARK    4  A    between atoms: C8_5  and  C9_6 
REMARK    5  A    between atoms: C9_6  and  C10_7 
REMARK       I    between atoms: N2_10  and  C11_11 
REMARK    6  A    between atoms: C11_11  and  C27_13 
REMARK    7  A    between atoms: C16_16  and  C18_19 
REMARK    8  A    between atoms: C20_21  and  C21_24 
ROOT
ATOM      1  C27 E37 d   1      -7.860 -24.957   4.205  0.00  0.00     0.032 A 
ATOM      2  C28 E37 d   1      -6.588 -25.374   3.849  0.00  0.00    -0.067 A 
ATOM      3  C15 E37 d   1      -5.476 -24.772   4.429  0.00  0.00    -0.071 A 
ATOM      4  C16 E37 d   1      -5.633 -23.742   5.335  0.00  0.00    -0.019 A 
ATOM      5  C17 E37 d   1      -6.900 -23.364   5.728  0.00  0.00    -0.071 A 
ATOM      6  C14 E37 d   1      -8.005 -23.960   5.147  0.00  0.00    -0.067 A 
ATOM      7  H9  E37 d   1      -6.459 -26.167   3.121  0.00  0.00     0.085 H 
ATOM      8  H10 E37 d   1      -4.481 -25.113   4.168  0.00  0.00     0.084 H 
ATOM      9  H11 E37 d   1      -7.029 -22.603   6.489  0.00  0.00     0.084 H 
ATOM     10  H12 E37 d   1      -8.999 -23.639   5.436  0.00  0.00     0.085 H 
ENDROOT
BRANCH   1  11
ATOM     11  C11 E37 d   1      -9.082 -25.623   3.629  0.00  0.00     0.252 C 
ATOM     12  N2  E37 d   1      -8.992 -26.417   2.453  0.00  0.00    -0.344 N 
ATOM     13  H8  E37 d   1      -8.121 -26.520   1.972  0.00  0.00     0.163 HD
ATOM     14  O2  E37 d   1     -10.141 -25.556   4.193  0.00  0.00    -0.268 OA
BRANCH  12  15
ATOM     15  C7  E37 d   1     -10.186 -27.072   1.968  0.00  0.00     0.090 C 
ATOM     16  H3  E37 d   1     -11.066 -26.600   2.429  0.00  0.00     0.087 H 
BRANCH  15  17
ATOM     17  C6  E37 d   1     -10.201 -28.548   2.338  0.00  0.00     0.238 C 
ATOM     18  O1  E37 d   1     -10.893 -29.339   1.752  0.00  0.00    -0.271 OA
ATOM     19  N1  E37 d   1      -9.396 -29.036   3.406  0.00  0.00    -0.368 N 
ATOM     20  H1  E37 d   1      -8.808 -28.408   3.916  0.00  0.00     0.159 HD
ATOM     21  H2  E37 d   1      -9.419 -30.006   3.646  0.00  0.00     0.159 HD
ENDBRANCH  15  17
BRANCH  15  22
ATOM     22  C8  E37 d   1     -10.237 -26.843   0.490  0.00  0.00    -0.029 C 
ATOM     23  H4  E37 d   1     -11.117 -27.351   0.069  0.00  0.00     0.037 H 
ATOM     24  H5  E37 d   1      -9.325 -27.243   0.024  0.00  0.00     0.037 H 
BRANCH  22  25
ATOM     25  C9  E37 d   1     -10.333 -25.364   0.222  0.00  0.00     0.018 C 
ATOM     26  H6  E37 d   1     -10.920 -24.899   1.028  0.00  0.00     0.049 H 
ATOM     27  H7  E37 d   1     -10.846 -25.214  -0.739  0.00  0.00     0.049 H 
BRANCH  25  28
ATOM     28  C10 E37 d   1      -8.986 -24.691   0.158  0.00  0.00     0.172 C 
ATOM     29  O4E E37 d   1      -9.096 -23.475   0.360  0.00  0.00    -0.648 OA
ATOM     30  O4  E37 d   1      -8.103 -25.508  -0.070  0.00  0.00    -0.648 OA
ENDBRANCH  25  28
ENDBRANCH  22  25
ENDBRANCH  15  22
ENDBRANCH  12  15
ENDBRANCH   1  11
BRANCH   4  31
ATOM     31  C18 E37 d   1      -4.537 -23.204   5.976  0.00  0.00     0.015 A 
ATOM     32  C19 E37 d   1      -3.218 -23.651   5.782  0.00  0.00    -0.054 A 
ATOM     33  C20 E37 d   1      -2.216 -22.865   6.808  0.00  0.00    -0.018 A 
ATOM     34  H13 E37 d   1      -2.911 -24.405   5.059  0.00  0.00     0.086 H 
ATOM     35  C29 E37 d   1      -2.961 -22.011   7.633  0.00  0.00    -0.034 A 
ATOM     36  S7  E37 d   1      -4.567 -22.123   7.222  0.00  0.00    -0.100 SA
ATOM     37  H14 E37 d   1      -2.553 -21.376   8.418  0.00  0.00     0.096 H 
BRANCH  33  38
ATOM     38  C21 E37 d   1      -0.721 -23.083   6.870  0.00  0.00    -0.025 A 
ATOM     39  C22 E37 d   1       0.035 -22.232   7.594  0.00  0.00    -0.072 A 
ATOM     40  C23 E37 d   1       1.421 -22.489   7.645  0.00  0.00    -0.082 A 
ATOM     41  H15 E37 d   1      -0.403 -21.388   8.114  0.00  0.00     0.084 H 
ATOM     42  C24 E37 d   1       1.943 -23.626   6.948  0.00  0.00    -0.083 A 
ATOM     43  H16 E37 d   1       2.081 -21.835   8.204  0.00  0.00     0.083 H 
ATOM     44  C25 E37 d   1       1.058 -24.470   6.240  0.00  0.00    -0.082 A 
ATOM     45  H17 E37 d   1       3.006 -23.837   6.963  0.00  0.00     0.083 H 
ATOM     46  C26 E37 d   1      -0.249 -24.133   6.255  0.00  0.00    -0.072 A 
ATOM     47  H18 E37 d   1       1.412 -25.347   5.710  0.00  0.00     0.083 H 
ATOM     48  H19 E37 d   1      -0.947 -24.771   5.726  0.00  0.00     0.084 H 
ENDBRANCH  33  38
ENDBRANCH   4  31
TORSDOF 8
