REMARK  3 active torsions:
REMARK  status: ('A' for Active; 'I' for Inactive)
REMARK    1  A    between atoms: C3_3  and  O3_21 
REMARK    2  A    between atoms: C5_5  and  O4_22 
REMARK    3  A    between atoms: C17_17  and  C18_18 
ROOT
ATOM      1  C1  RDC d   1      10.898  -4.651  12.333  0.00  0.00     0.297 C 
ATOM      2  C2  RDC d   1       9.617  -5.234  12.729  0.00  0.00     0.081 A 
ATOM      3  C3  RDC d   1       8.474  -4.347  12.823  0.00  0.00     0.085 A 
ATOM      4  C4  RDC d   1       7.253  -4.847  13.219  0.00  0.00    -0.016 A 
ATOM      5  C5  RDC d   1       7.054  -6.174  13.471  0.00  0.00     0.090 A 
ATOM      6  C6  RDC d   1       8.148  -7.092  13.340  0.00  0.00     0.075 A 
ATOM      7  C7  RDC d   1       9.466  -6.658  13.012  0.00  0.00    -0.007 A 
ATOM      8  C8  RDC d   1      10.534  -7.694  12.946  0.00  0.00     0.021 C 
ATOM      9  C9  RDC d   1      10.764  -8.600  14.142  0.00  0.00     0.153 C 
ATOM     10  C10 RDC d   1      11.065  -8.057  15.475  0.00  0.00    -0.038 C 
ATOM     11  C11 RDC d   1      11.067  -6.799  15.827  0.00  0.00    -0.080 C 
ATOM     12  C12 RDC d   1      11.457  -6.383  17.162  0.00  0.00    -0.084 C 
ATOM     13  C13 RDC d   1      11.886  -5.151  17.405  0.00  0.00    -0.073 C 
ATOM     14  C14 RDC d   1      11.962  -4.117  16.316  0.00  0.00     0.080 A 
ATOM     15  C15 RDC d   1      13.306  -4.132  15.650  0.00  0.00     0.070 A 
ATOM     16  C16 RDC d   1      13.497  -3.513  14.281  0.00  0.00    -0.014 C 
ATOM     17  C17 RDC d   1      13.161  -4.455  13.134  0.00  0.00     0.047 C 
ATOM     18  O1  RDC d   1      11.843  -4.902  13.337  0.00  0.00    -0.312 OA
ATOM     19  O2  RDC d   1      11.089  -4.103  11.317  0.00  0.00    -0.259 OA
ATOM     20 Cl1  RDC d   1       7.816  -8.769  13.647  0.00  0.00    -0.081 Cl
ATOM     21  O5  RDC d   1      10.840  -9.744  13.971  0.00  0.00    -0.293 OA
ATOM     22  O6  RDC d   1      12.939  -3.148  16.584  0.00  0.00    -0.371 OA
ATOM     23  H1  RDC d   1       6.420  -4.162  13.335  0.00  0.00     0.092 H 
ATOM     24  H2  RDC d   1      11.481  -7.167  12.755  0.00  0.00     0.052 H 
ATOM     25  H3  RDC d   1      10.298  -8.345  12.091  0.00  0.00     0.052 H 
ATOM     26  H4  RDC d   1      11.312  -8.780  16.251  0.00  0.00     0.089 H 
ATOM     27  H5  RDC d   1      10.769  -6.044  15.101  0.00  0.00     0.083 H 
ATOM     28  H6  RDC d   1      11.396  -7.097  17.982  0.00  0.00     0.083 H 
ATOM     29  H7  RDC d   1      12.190  -4.883  18.416  0.00  0.00     0.081 H 
ATOM     30  H8  RDC d   1      11.010  -3.917  15.803  0.00  0.00     0.093 H 
ATOM     31  H9  RDC d   1      14.027  -4.939  15.847  0.00  0.00     0.087 H 
ATOM     32  H10 RDC d   1      14.549  -3.206  14.182  0.00  0.00     0.040 H 
ATOM     33  H11 RDC d   1      12.848  -2.628  14.206  0.00  0.00     0.040 H 
ATOM     34  H12 RDC d   1      13.245  -3.921  12.176  0.00  0.00     0.083 H 
ENDROOT
BRANCH  17  35
ATOM     35  C18 RDC d   1      14.065  -5.660  13.124  0.00  0.00    -0.051 C 
ATOM     36  H13 RDC d   1      13.793  -6.316  12.284  0.00  0.00     0.030 H 
ATOM     37  H14 RDC d   1      13.953  -6.210  14.070  0.00  0.00     0.030 H 
ATOM     38  H15 RDC d   1      15.110  -5.334  13.011  0.00  0.00     0.030 H 
ENDBRANCH  17  35
BRANCH   3  39
ATOM     39  O3  RDC d   1       8.686  -3.077  12.525  0.00  0.00    -0.360 OA
ATOM     40  H16 RDC d   1       9.596  -2.958  12.279  0.00  0.00     0.217 HD
ENDBRANCH   3  39
BRANCH   5  41
ATOM     41  O4  RDC d   1       5.886  -6.658  13.817  0.00  0.00    -0.359 OA
ATOM     42  H17 RDC d   1       5.254  -5.951  13.868  0.00  0.00     0.217 HD
ENDBRANCH   5  41
TORSDOF 3
