REMARK  2 active torsions:
REMARK  status: ('A' for Active; 'I' for Inactive)
REMARK    1  A    between atoms: C1_1  and  C2_2 
REMARK    2  A    between atoms: N10_10  and  C11_11 
ROOT
ATOM      1  C2  JAK d   1       7.894  57.742  -0.255  0.00  0.00     0.103 A 
ATOM      2  N3  JAK d   1       7.957  58.971  -0.638  0.00  0.00    -0.232 NA
ATOM      3  C4  JAK d   1       6.821  59.615  -0.326  0.00  0.00     0.104 A 
ATOM      4  C5  JAK d   1       6.412  60.930  -0.533  0.00  0.00     0.035 A 
ATOM      5  N6  JAK d   1       5.240  61.323  -0.120  0.00  0.00    -0.240 NA
ATOM      6  C7  JAK d   1       4.373  60.515   0.495  0.00  0.00     0.139 A 
ATOM      7  C8  JAK d   1       4.713  59.167   0.737  0.00  0.00     0.041 A 
ATOM      8  C9  JAK d   1       5.977  58.688   0.322  0.00  0.00     0.081 A 
ATOM      9  N10 JAK d   1       6.689  57.499   0.341  0.00  0.00    -0.328 N 
ATOM     10  C17 JAK d   1       3.541  58.602   1.413  0.00  0.00    -0.052 A 
ATOM     11  C18 JAK d   1       2.623  59.577   1.536  0.00  0.00    -0.020 A 
ATOM     12  N19 JAK d   1       3.100  60.734   0.994  0.00  0.00    -0.350 N 
ATOM     13  H4  JAK d   1       7.070  61.628  -1.038  0.00  0.00     0.118 H 
ATOM     14  H16 JAK d   1       3.433  57.574   1.755  0.00  0.00     0.087 H 
ATOM     15  H17 JAK d   1       1.645  59.460   1.999  0.00  0.00     0.111 H 
ATOM     16  H18 JAK d   1       2.593  61.630   0.961  0.00  0.00     0.166 HD
ENDROOT
BRANCH   9  17
ATOM     17  C11 JAK d   1       6.326  56.184   0.912  0.00  0.00     0.021 C 
ATOM     18  C12 JAK d   1       6.047  56.352   2.407  0.00  0.00    -0.023 C 
ATOM     19  C13 JAK d   1       5.816  54.974   3.027  0.00  0.00     0.084 C 
ATOM     20  H6  JAK d   1       5.151  56.975   2.547  0.00  0.00     0.038 H 
ATOM     21  H7  JAK d   1       6.909  56.835   2.891  0.00  0.00     0.038 H 
ATOM     22  N14 JAK d   1       4.711  54.270   2.353  0.00  0.00    -0.075 N 
ATOM     23  H8  JAK d   1       5.569  55.096   4.092  0.00  0.00     0.075 H 
ATOM     24  H9  JAK d   1       6.735  54.377   2.930  0.00  0.00     0.075 H 
ATOM     25  C15 JAK d   1       4.907  54.142   0.907  0.00  0.00     0.084 C 
ATOM     26  H10 JAK d   1       3.858  54.781   2.517  0.00  0.00     0.277 HD
ATOM     27  H11 JAK d   1       4.631  53.346   2.749  0.00  0.00     0.277 HD
ATOM     28  C16 JAK d   1       5.109  55.514   0.259  0.00  0.00    -0.023 C 
ATOM     29  H12 JAK d   1       4.022  53.662   0.465  0.00  0.00     0.075 H 
ATOM     30  H13 JAK d   1       5.794  53.520   0.718  0.00  0.00     0.075 H 
ATOM     31  H14 JAK d   1       5.286  55.393  -0.820  0.00  0.00     0.038 H 
ATOM     32  H15 JAK d   1       4.214  56.134   0.416  0.00  0.00     0.038 H 
ATOM     33  H5  JAK d   1       7.188  55.513   0.783  0.00  0.00     0.073 H 
ENDBRANCH   9  17
BRANCH   1  34
ATOM     34  C1  JAK d   1       9.025  56.744  -0.457  0.00  0.00    -0.021 C 
ATOM     35  H1  JAK d   1       9.864  57.239  -0.967  0.00  0.00     0.037 H 
ATOM     36  H2  JAK d   1       8.668  55.904  -1.070  0.00  0.00     0.037 H 
ATOM     37  H3  JAK d   1       9.361  56.368   0.520  0.00  0.00     0.037 H 
ENDBRANCH   1  34
TORSDOF 2
