REMARK  3 active torsions:
REMARK  status: ('A' for Active; 'I' for Inactive)
REMARK    1  A    between atoms: C1_1  and  C2_2 
REMARK    2  A    between atoms: N10_10  and  C11_11 
REMARK    3  A    between atoms: C16_15  and  O19_17 
ROOT
ATOM      1  C2  0Q2 d   1       9.133  57.701  -0.274  0.00  0.00     0.103 A 
ATOM      2  N3  0Q2 d   1       9.127  58.960  -0.640  0.00  0.00    -0.232 NA
ATOM      3  C4  0Q2 d   1       7.963  59.552  -0.273  0.00  0.00     0.104 A 
ATOM      4  C5  0Q2 d   1       7.454  60.858  -0.397  0.00  0.00     0.035 A 
ATOM      5  N6  0Q2 d   1       6.254  61.174   0.055  0.00  0.00    -0.240 NA
ATOM      6  C7  0Q2 d   1       5.481  60.262   0.650  0.00  0.00     0.139 A 
ATOM      7  C8  0Q2 d   1       5.914  58.927   0.826  0.00  0.00     0.041 A 
ATOM      8  C9  0Q2 d   1       7.187  58.552   0.366  0.00  0.00     0.081 A 
ATOM      9  N10 0Q2 d   1       7.950  57.384   0.340  0.00  0.00    -0.328 N 
ATOM     10  C20 0Q2 d   1       4.824  58.219   1.511  0.00  0.00    -0.052 A 
ATOM     11  C21 0Q2 d   1       3.854  59.106   1.701  0.00  0.00    -0.020 A 
ATOM     12  N22 0Q2 d   1       4.233  60.331   1.194  0.00  0.00    -0.350 N 
ATOM     13  H4  0Q2 d   1       8.059  61.621  -0.873  0.00  0.00     0.118 H 
ATOM     14  H16 0Q2 d   1       4.814  57.171   1.806  0.00  0.00     0.087 H 
ATOM     15  H17 0Q2 d   1       2.901  58.897   2.185  0.00  0.00     0.111 H 
ATOM     16  H18 0Q2 d   1       3.653  61.181   1.222  0.00  0.00     0.166 HD
ENDROOT
BRANCH   9  17
ATOM     17  C11 0Q2 d   1       7.594  56.060   0.872  0.00  0.00     0.021 C 
ATOM     18  C13 0Q2 d   1       6.409  55.471   0.082  0.00  0.00    -0.045 C 
ATOM     19  C14 0Q2 d   1       6.149  54.024   0.528  0.00  0.00    -0.061 C 
ATOM     20  H6  0Q2 d   1       6.644  55.484  -0.992  0.00  0.00     0.036 H 
ATOM     21  H7  0Q2 d   1       5.510  56.077   0.268  0.00  0.00     0.036 H 
ATOM     22  C15 0Q2 d   1       5.933  53.953   2.054  0.00  0.00    -0.041 C 
ATOM     23  H8  0Q2 d   1       7.014  53.402   0.257  0.00  0.00     0.033 H 
ATOM     24  H9  0Q2 d   1       5.251  53.645   0.018  0.00  0.00     0.033 H 
ATOM     25  C16 0Q2 d   1       7.004  54.690   2.904  0.00  0.00     0.037 C 
ATOM     26  H10 0Q2 d   1       5.933  52.894   2.350  0.00  0.00     0.036 H 
ATOM     27  H11 0Q2 d   1       4.953  54.397   2.281  0.00  0.00     0.036 H 
ATOM     28  C18 0Q2 d   1       7.294  56.110   2.390  0.00  0.00    -0.022 C 
ATOM     29  H12 0Q2 d   1       6.619  54.772   3.931  0.00  0.00     0.083 H 
ATOM     30  H13 0Q2 d   1       6.418  56.751   2.569  0.00  0.00     0.039 H 
ATOM     31  H14 0Q2 d   1       8.164  56.522   2.922  0.00  0.00     0.039 H 
ATOM     32  H5  0Q2 d   1       8.459  55.396   0.727  0.00  0.00     0.073 H 
BRANCH  25  33
ATOM     33  O19 0Q2 d   1       8.223  53.939   2.936  0.00  0.00    -0.396 OA
ATOM     34  H15 0Q2 d   1       8.842  54.367   3.516  0.00  0.00     0.210 HD
ENDBRANCH  25  33
ENDBRANCH   9  17
BRANCH   1  35
ATOM     35  C1  0Q2 d   1      10.294  56.755  -0.513  0.00  0.00    -0.021 C 
ATOM     36  H1  0Q2 d   1      11.105  57.292  -1.026  0.00  0.00     0.037 H 
ATOM     37  H2  0Q2 d   1       9.959  55.914  -1.137  0.00  0.00     0.037 H 
ATOM     38  H3  0Q2 d   1      10.660  56.373   0.451  0.00  0.00     0.037 H 
ENDBRANCH   1  35
TORSDOF 3
