REMARK  3 active torsions:
REMARK  status: ('A' for Active; 'I' for Inactive)
REMARK    1  A    between atoms: C2'_4  and  C1'_1 
REMARK    2  A    between atoms: C3'_5  and  C2'_4 
REMARK    3  A    between atoms: C3_8  and  C3'_5 
ROOT
ATOM      1  N1  IOP d   1     -13.385  19.105 -22.772  0.00  0.00    -0.365 N 
ATOM      2  C2  IOP d   1     -12.218  19.465 -23.356  0.00  0.00    -0.016 A 
ATOM      3  C3  IOP d   1     -12.206  20.846 -23.520  0.00  0.00    -0.030 A 
ATOM      4  C3A IOP d   1     -13.406  21.307 -23.009  0.00  0.00    -0.002 A 
ATOM      5  C4  IOP d   1     -13.904  22.602 -22.919  0.00  0.00    -0.070 A 
ATOM      6  C5  IOP d   1     -15.169  22.786 -22.357  0.00  0.00    -0.082 A 
ATOM      7  C6  IOP d   1     -15.913  21.701 -21.886  0.00  0.00    -0.081 A 
ATOM      8  C7  IOP d   1     -15.397  20.408 -21.987  0.00  0.00    -0.056 A 
ATOM      9  C7A IOP d   1     -14.133  20.211 -22.551  0.00  0.00     0.042 A 
ATOM     10  H5  IOP d   1     -13.660  18.142 -22.534  0.00  0.00     0.165 HD
ATOM     11  H6  IOP d   1     -11.420  18.785 -23.649  0.00  0.00     0.112 H 
ATOM     12  H7  IOP d   1     -13.325  23.447 -23.276  0.00  0.00     0.084 H 
ATOM     13  H8  IOP d   1     -15.580  23.786 -22.285  0.00  0.00     0.083 H 
ATOM     14  H9  IOP d   1     -16.889  21.863 -21.443  0.00  0.00     0.083 H 
ATOM     15  H10 IOP d   1     -15.973  19.562 -21.630  0.00  0.00     0.086 H 
ENDROOT
BRANCH   3  16
ATOM     16  C3' IOP d   1     -11.116  21.696 -24.124  0.00  0.00    -0.030 C 
ATOM     17  H3  IOP d   1     -11.566  22.384 -24.855  0.00  0.00     0.041 H 
ATOM     18  H4  IOP d   1     -10.633  22.276 -23.324  0.00  0.00     0.041 H 
BRANCH  16  19
ATOM     19  C2' IOP d   1     -10.057  20.851 -24.828  0.00  0.00     0.019 C 
ATOM     20  H1  IOP d   1      -9.726  20.044 -24.157  0.00  0.00     0.049 H 
ATOM     21  H2  IOP d   1     -10.484  20.415 -25.743  0.00  0.00     0.049 H 
BRANCH  19  22
ATOM     22  C1' IOP d   1      -8.878  21.722 -25.188  0.00  0.00     0.172 C 
ATOM     23  O1  IOP d   1      -7.791  21.157 -25.401  0.00  0.00    -0.648 OA
ATOM     24  O2  IOP d   1      -9.011  22.962 -25.264  0.00  0.00    -0.648 OA
ENDBRANCH  19  22
ENDBRANCH  16  19
ENDBRANCH   3  16
TORSDOF 3
