REMARK  8 active torsions:
REMARK  status: ('A' for Active; 'I' for Inactive)
REMARK    1  A    between atoms: CG_1  and  N2_2 
REMARK    2  A    between atoms: N2_2  and  CE_3 
REMARK    3  A    between atoms: N2_2  and  C5'_4 
REMARK    4  A    between atoms: C5'_4  and  C4'_5 
REMARK    5  A    between atoms: C1'_7  and  N9_8 
REMARK    6  A    between atoms: C6_13  and  N6_14 
REMARK    7  A    between atoms: C2'_18  and  O2'_19 
REMARK    8  A    between atoms: C3'_20  and  O3'_21 
ROOT
ATOM      1  C4' EP4 d   1      43.985  50.548  11.145  0.00  0.00     0.091 C 
ATOM      2  O4' EP4 d   1      44.460  49.189  11.298  0.00  0.00    -0.354 OA
ATOM      3  C1' EP4 d   1      44.044  48.773  12.618  0.00  0.00     0.139 C 
ATOM      4  C2' EP4 d   1      44.439  49.932  13.458  0.00  0.00     0.105 C 
ATOM      5  C3' EP4 d   1      44.103  51.142  12.560  0.00  0.00     0.091 C 
ATOM      6  H10 EP4 d   1      42.948  50.596  10.781  0.00  0.00     0.090 H 
ATOM      7  H11 EP4 d   1      42.959  48.598  12.654  0.00  0.00     0.122 H 
ATOM      8  H16 EP4 d   1      45.505  49.921  13.728  0.00  0.00     0.093 H 
ATOM      9  H18 EP4 d   1      44.858  51.939  12.624  0.00  0.00     0.091 H 
ENDROOT
BRANCH   3  10
ATOM     10  N9  EP4 d   1      44.765  47.550  13.077  0.00  0.00    -0.294 N 
ATOM     11  C4  EP4 d   1      44.213  46.320  13.079  0.00  0.00     0.167 A 
ATOM     12  N3  EP4 d   1      42.987  45.889  12.705  0.00  0.00    -0.222 NA
ATOM     13  C5  EP4 d   1      45.143  45.453  13.555  0.00  0.00     0.149 A 
ATOM     14  C2  EP4 d   1      42.670  44.513  12.812  0.00  0.00     0.091 A 
ATOM     15  N1  EP4 d   1      43.635  43.623  13.316  0.00  0.00    -0.222 NA
ATOM     16  H12 EP4 d   1      41.695  44.150  12.509  0.00  0.00     0.146 H 
ATOM     17  C6  EP4 d   1      44.842  44.129  13.674  0.00  0.00     0.155 A 
ATOM     18  N7  EP4 d   1      46.266  46.175  13.831  0.00  0.00    -0.236 NA
ATOM     19  C8  EP4 d   1      46.030  47.462  13.534  0.00  0.00     0.071 A 
ATOM     20  H15 EP4 d   1      46.733  48.286  13.643  0.00  0.00     0.144 H 
BRANCH  17  21
ATOM     21  N6  EP4 d   1      45.806  43.310  14.132  0.00  0.00    -0.382 N 
ATOM     22  H13 EP4 d   1      46.722  43.694  14.404  0.00  0.00     0.157 HD
ATOM     23  H14 EP4 d   1      45.628  42.299  14.211  0.00  0.00     0.157 HD
ENDBRANCH  17  21
ENDBRANCH   3  10
BRANCH   4  24
ATOM     24  O2' EP4 d   1      43.608  49.845  14.644  0.00  0.00    -0.388 OA
ATOM     25  H17 EP4 d   1      42.693  49.892  14.392  0.00  0.00     0.210 HD
ENDBRANCH   4  24
BRANCH   1  26
ATOM     26  C5' EP4 d   1      44.952  51.204  10.134  0.00  0.00     0.109 C 
ATOM     27  H8  EP4 d   1      45.976  51.126  10.528  0.00  0.00     0.080 H 
ATOM     28  H9  EP4 d   1      44.883  50.660   9.181  0.00  0.00     0.080 H 
BRANCH  26  29
ATOM     29  N2  EP4 d   1      44.652  52.631   9.884  0.00  0.00    -0.076 N 
ATOM     30  H4  EP4 d   1      44.448  53.078  10.764  0.00  0.00     0.279 HD
BRANCH  29  31
ATOM     31  CG  EP4 d   1      45.824  53.269   9.259  0.00  0.00     0.066 C 
ATOM     32  H1  EP4 d   1      45.607  54.331   9.071  0.00  0.00     0.068 H 
ATOM     33  H2  EP4 d   1      46.051  52.767   8.307  0.00  0.00     0.068 H 
ATOM     34  H3  EP4 d   1      46.690  53.186   9.933  0.00  0.00     0.068 H 
ENDBRANCH  29  31
BRANCH  29  35
ATOM     35  CE  EP4 d   1      43.519  52.821   8.975  0.00  0.00     0.066 C 
ATOM     36  H5  EP4 d   1      42.620  52.357   9.407  0.00  0.00     0.068 H 
ATOM     37  H6  EP4 d   1      43.744  52.352   8.006  0.00  0.00     0.068 H 
ATOM     38  H7  EP4 d   1      43.342  53.897   8.829  0.00  0.00     0.068 H 
ENDBRANCH  29  35
ENDBRANCH  26  29
ENDBRANCH   1  26
BRANCH   5  39
ATOM     39  O3' EP4 d   1      42.804  51.603  12.929  0.00  0.00    -0.390 OA
ATOM     40  H19 EP4 d   1      42.172  50.906  12.797  0.00  0.00     0.210 HD
ENDBRANCH   5  39
TORSDOF 8
