REMARK  13 active torsions:
REMARK  status: ('A' for Active; 'I' for Inactive)
REMARK       I    between atoms: C02_2  and  N03_3 
REMARK    1  A    between atoms: C02_2  and  C19_19 
REMARK    2  A    between atoms: C12_12  and  C13_13 
REMARK    3  A    between atoms: C13_13  and  C14_14 
REMARK    4  A    between atoms: C14_14  and  C15_15 
REMARK    5  A    between atoms: C20_20  and  C21_21 
REMARK    6  A    between atoms: C22_22  and  O23_23 
REMARK    7  A    between atoms: O23_23  and  C24_24 
REMARK    8  A    between atoms: C25_25  and  O26_26 
REMARK    9  A    between atoms: O26_26  and  C27_27 
REMARK   10  A    between atoms: C29_29  and  C30_30 
REMARK   11  A    between atoms: C30_30  and  C31_31 
REMARK   12  A    between atoms: C34_34  and  N35_35 
REMARK   13  A    between atoms: C37_37  and  N38_38 
ROOT
ATOM      1  C19 35I d   1      21.327 -29.058  -1.857  0.00  0.00    -0.015 C 
ATOM      2  C20 35I d   1      20.453 -28.101  -1.357  0.00  0.00    -0.065 C 
ATOM      3  H14 35I d   1      20.959 -29.825  -2.537  0.00  0.00     0.092 H 
ATOM      4  H15 35I d   1      20.822 -27.404  -0.606  0.00  0.00     0.085 H 
ENDROOT
BRANCH   2   5
ATOM      5  C21 35I d   1      18.976 -27.978  -1.817  0.00  0.00     0.001 A 
ATOM      6  C22 35I d   1      18.208 -26.980  -1.268  0.00  0.00     0.111 A 
ATOM      7  C25 35I d   1      16.868 -26.818  -1.652  0.00  0.00     0.102 A 
ATOM      8  C28 35I d   1      16.307 -27.676  -2.611  0.00  0.00    -0.042 A 
ATOM      9  C29 35I d   1      17.057 -28.693  -3.177  0.00  0.00    -0.050 A 
ATOM     10  H22 35I d   1      15.274 -27.541  -2.912  0.00  0.00     0.088 H 
ATOM     11  C39 35I d   1      18.416 -28.842  -2.786  0.00  0.00    -0.064 A 
ATOM     12  H30 35I d   1      19.024 -29.620  -3.232  0.00  0.00     0.085 H 
BRANCH   6  13
ATOM     13  O23 35I d   1      18.740 -26.127  -0.290  0.00  0.00    -0.352 OA
BRANCH  13  14
ATOM     14  C24 35I d   1      18.643 -26.520   1.055  0.00  0.00     0.011 C 
ATOM     15  H16 35I d   1      19.102 -25.752   1.695  0.00  0.00     0.067 H 
ATOM     16  H17 35I d   1      19.167 -27.477   1.196  0.00  0.00     0.067 H 
ATOM     17  H18 35I d   1      17.584 -26.639   1.327  0.00  0.00     0.067 H 
ENDBRANCH  13  14
ENDBRANCH   6  13
BRANCH   7  18
ATOM     18  O26 35I d   1      16.107 -25.816  -1.081  0.00  0.00    -0.353 OA
BRANCH  18  19
ATOM     19  C27 35I d   1      14.878 -25.513  -1.623  0.00  0.00     0.010 C 
ATOM     20  H19 35I d   1      14.414 -24.698  -1.048  0.00  0.00     0.066 H 
ATOM     21  H20 35I d   1      14.232 -26.402  -1.586  0.00  0.00     0.066 H 
ATOM     22  H21 35I d   1      15.006 -25.197  -2.669  0.00  0.00     0.066 H 
ENDBRANCH  18  19
ENDBRANCH   7  18
BRANCH   9  23
ATOM     23  C30 35I d   1      16.366 -29.602  -4.250  0.00  0.00    -0.012 C 
ATOM     24  H23 35I d   1      16.840 -29.394  -5.220  0.00  0.00     0.047 H 
ATOM     25  H24 35I d   1      15.304 -29.320  -4.293  0.00  0.00     0.047 H 
BRANCH  23  26
ATOM     26  C31 35I d   1      16.437 -31.108  -4.012  0.00  0.00     0.010 A 
ATOM     27  C32 35I d   1      16.902 -31.664  -2.812  0.00  0.00     0.031 A 
ATOM     28  N33 35I d   1      16.943 -33.014  -2.676  0.00  0.00    -0.075 NA
ATOM     29  H25 35I d   1      17.226 -31.022  -2.001  0.00  0.00     0.116 H 
ATOM     30  C34 35I d   1      16.534 -33.843  -3.680  0.00  0.00     0.721 A 
ATOM     31  N36 35I d   1      16.086 -33.335  -4.847  0.00  0.00    -0.045 NA
ATOM     32  C37 35I d   1      16.014 -32.002  -5.041  0.00  0.00     0.148 A 
BRANCH  30  33
ATOM     33  N35 35I d   1      16.601 -35.251  -3.503  0.00  0.00    -0.231 N 
ATOM     34  H26 35I d   1      16.942 -35.643  -2.614  0.00  0.00     0.174 HD
ATOM     35  H27 35I d   1      16.308 -35.880  -4.264  0.00  0.00     0.174 HD
ENDBRANCH  30  33
BRANCH  32  36
ATOM     36  N38 35I d   1      15.515 -31.486  -6.282  0.00  0.00    -0.383 N 
ATOM     37  H28 35I d   1      15.210 -32.133  -7.023  0.00  0.00     0.157 HD
ATOM     38  H29 35I d   1      15.461 -30.468  -6.432  0.00  0.00     0.157 HD
ENDBRANCH  32  36
ENDBRANCH  23  26
ENDBRANCH   9  23
ENDBRANCH   2   5
BRANCH   1  39
ATOM     39  C02 35I d   1      22.800 -29.039  -1.458  0.00  0.00     0.267 C 
ATOM     40  O01 35I d   1      23.227 -28.274  -0.626  0.00  0.00    -0.267 OA
ATOM     41  N03 35I d   1      23.671 -29.955  -2.111  0.00  0.00    -0.167 N 
ATOM     42  N04 35I d   1      23.148 -30.806  -3.035  0.00  0.00     0.014 N 
ATOM     43  C12 35I d   1      25.090 -30.027  -1.790  0.00  0.00     0.069 C 
ATOM     44  C05 35I d   1      24.001 -31.450  -3.958  0.00  0.00     0.127 C 
ATOM     45  H1  35I d   1      22.481 -30.277  -3.574  0.00  0.00     0.306 HD
ATOM     46  H2  35I d   1      22.669 -31.532  -2.525  0.00  0.00     0.306 HD
ATOM     47  C06 35I d   1      25.408 -31.017  -4.025  0.00  0.00    -0.022 A 
ATOM     48  H3  35I d   1      23.567 -31.306  -4.958  0.00  0.00     0.086 H 
ATOM     49  H4  35I d   1      24.001 -32.522  -3.709  0.00  0.00     0.086 H 
ATOM     50  C07 35I d   1      26.205 -31.327  -5.193  0.00  0.00    -0.075 A 
ATOM     51  C11 35I d   1      25.942 -30.336  -3.002  0.00  0.00    -0.025 A 
ATOM     52  C08 35I d   1      27.518 -30.913  -5.235  0.00  0.00    -0.082 A 
ATOM     53  H5  35I d   1      25.775 -31.877  -6.022  0.00  0.00     0.084 H 
ATOM     54  C09 35I d   1      28.068 -30.215  -4.176  0.00  0.00    -0.082 A 
ATOM     55  H6  35I d   1      28.125 -31.136  -6.105  0.00  0.00     0.083 H 
ATOM     56  C10 35I d   1      27.293 -29.914  -3.043  0.00  0.00    -0.074 A 
ATOM     57  H7  35I d   1      29.104 -29.898  -4.220  0.00  0.00     0.083 H 
ATOM     58  H8  35I d   1      27.723 -29.366  -2.212  0.00  0.00     0.084 H 
ATOM     59  H9  35I d   1      25.402 -29.061  -1.366  0.00  0.00     0.083 H 
BRANCH  43  60
ATOM     60  C13 35I d   1      25.343 -31.145  -0.767  0.00  0.00    -0.032 C 
ATOM     61  H10 35I d   1      25.424 -32.088  -1.327  0.00  0.00     0.037 H 
ATOM     62  H11 35I d   1      24.466 -31.186  -0.105  0.00  0.00     0.037 H 
BRANCH  60  63
ATOM     63  C14 35I d   1      26.570 -31.040   0.118  0.00  0.00     0.028 C 
ATOM     64  H12 35I d   1      26.788 -29.968   0.237  0.00  0.00     0.046 H 
ATOM     65  H13 35I d   1      27.397 -31.524  -0.422  0.00  0.00     0.046 H 
BRANCH  63  66
ATOM     66  C15 35I d   1      26.541 -31.642   1.512  0.00  0.00     0.388 C 
ATOM     67  F16 35I d   1      27.134 -32.845   1.434  0.00  0.00    -0.171 F 
ATOM     68  F17 35I d   1      25.287 -31.782   1.977  0.00  0.00    -0.171 F 
ATOM     69  F18 35I d   1      27.220 -30.816   2.333  0.00  0.00    -0.171 F 
ENDBRANCH  63  66
ENDBRANCH  60  63
ENDBRANCH  43  60
ENDBRANCH   1  39
TORSDOF 13
