REMARK  14 active torsions:
REMARK  status: ('A' for Active; 'I' for Inactive)
REMARK    1  A    between atoms: C02_2  and  N01_1 
REMARK    2  A    between atoms: C04_4  and  C03_3 
REMARK    3  A    between atoms: C05_5  and  C04_4 
REMARK    4  A    between atoms: C07_7  and  O08_8 
REMARK    5  A    between atoms: O08_8  and  C09_9 
REMARK    6  A    between atoms: C10_10  and  O11_11 
REMARK    7  A    between atoms: O11_11  and  C12_12 
REMARK    8  A    between atoms: C14_21  and  C13_13 
REMARK    9  A    between atoms: C34_18  and  N35_19 
REMARK   10  A    between atoms: C15_22  and  C16_23 
REMARK       I    between atoms: C16_23  and  N17_24 
REMARK   11  A    between atoms: C20_27  and  C21_28 
REMARK   12  A    between atoms: C21_28  and  C22_29 
REMARK   13  A    between atoms: C22_29  and  C23_30 
REMARK   14  A    between atoms: C22_29  and  C37_37 
ROOT
ATOM      1  C14 52J d   1      19.850 -28.490  -1.231  0.00  0.00    -0.065 C 
ATOM      2  C15 52J d   1      20.880 -28.818  -2.131  0.00  0.00    -0.015 C 
ATOM      3  H16 52J d   1      20.053 -28.472  -0.161  0.00  0.00     0.085 H 
ATOM      4  H17 52J d   1      20.650 -29.005  -3.179  0.00  0.00     0.092 H 
ENDROOT
BRANCH   1   5
ATOM      5  C13 52J d   1      18.421 -28.152  -1.753  0.00  0.00     0.001 A 
ATOM      6  C10 52J d   1      17.719 -27.053  -1.217  0.00  0.00     0.111 A 
ATOM      7  C07 52J d   1      16.433 -26.748  -1.685  0.00  0.00     0.102 A 
ATOM      8  C06 52J d   1      15.845 -27.535  -2.684  0.00  0.00    -0.042 A 
ATOM      9  C05 52J d   1      16.553 -28.657  -3.232  0.00  0.00    -0.050 A 
ATOM     10  H5  52J d   1      14.851 -27.296  -3.045  0.00  0.00     0.088 H 
ATOM     11  C31 52J d   1      17.814 -28.960  -2.780  0.00  0.00    -0.064 A 
ATOM     12  H12 52J d   1      18.351 -29.805  -3.195  0.00  0.00     0.085 H 
BRANCH   6  13
ATOM     13  O11 52J d   1      18.297 -26.273  -0.229  0.00  0.00    -0.352 OA
BRANCH  13  14
ATOM     14  C12 52J d   1      18.424 -26.791   1.096  0.00  0.00     0.011 C 
ATOM     15  H9  52J d   1      18.902 -26.038   1.740  0.00  0.00     0.067 H 
ATOM     16  H10 52J d   1      19.041 -27.701   1.076  0.00  0.00     0.067 H 
ATOM     17  H11 52J d   1      17.427 -27.032   1.492  0.00  0.00     0.067 H 
ENDBRANCH  13  14
ENDBRANCH   6  13
BRANCH   7  18
ATOM     18  O08 52J d   1      15.749 -25.685  -1.169  0.00  0.00    -0.353 OA
BRANCH  18  19
ATOM     19  C09 52J d   1      14.323 -25.618  -1.336  0.00  0.00     0.010 C 
ATOM     20  H6  52J d   1      13.941 -24.702  -0.862  0.00  0.00     0.066 H 
ATOM     21  H7  52J d   1      13.857 -26.496  -0.866  0.00  0.00     0.066 H 
ATOM     22  H8  52J d   1      14.080 -25.604  -2.409  0.00  0.00     0.066 H 
ENDBRANCH  18  19
ENDBRANCH   7  18
BRANCH   9  23
ATOM     23  C04 52J d   1      15.876 -29.521  -4.353  0.00  0.00    -0.012 C 
ATOM     24  H3  52J d   1      14.813 -29.247  -4.424  0.00  0.00     0.047 H 
ATOM     25  H4  52J d   1      16.372 -29.315  -5.313  0.00  0.00     0.047 H 
BRANCH  23  26
ATOM     26  C03 52J d   1      15.983 -30.975  -4.054  0.00  0.00     0.010 A 
ATOM     27  C02 52J d   1      15.702 -31.910  -5.052  0.00  0.00     0.148 A 
ATOM     28  N36 52J d   1      15.797 -33.233  -4.788  0.00  0.00    -0.045 NA
ATOM     29  C34 52J d   1      16.170 -33.663  -3.530  0.00  0.00     0.721 A 
ATOM     30  N33 52J d   1      16.449 -32.800  -2.537  0.00  0.00    -0.075 NA
ATOM     31  C32 52J d   1      16.370 -31.455  -2.747  0.00  0.00     0.031 A 
ATOM     32  H13 52J d   1      16.594 -30.758  -1.948  0.00  0.00     0.116 H 
BRANCH  27  33
ATOM     33  N01 52J d   1      15.295 -31.443  -6.422  0.00  0.00    -0.383 N 
ATOM     34  H1  52J d   1      15.087 -32.131  -7.160  0.00  0.00     0.157 HD
ATOM     35  H2  52J d   1      15.224 -30.435  -6.623  0.00  0.00     0.157 HD
ENDBRANCH  27  33
BRANCH  29  36
ATOM     36  N35 52J d   1      16.262 -35.079  -3.280  0.00  0.00    -0.231 N 
ATOM     37  H14 52J d   1      16.538 -35.421  -2.349  0.00  0.00     0.174 HD
ATOM     38  H15 52J d   1      16.051 -35.750  -4.033  0.00  0.00     0.174 HD
ENDBRANCH  29  36
ENDBRANCH  23  26
ENDBRANCH   9  23
ENDBRANCH   1   5
BRANCH   2  39
ATOM     39  C16 52J d   1      22.288 -28.909  -1.647  0.00  0.00     0.267 C 
ATOM     40  O30 52J d   1      22.679 -28.157  -0.811  0.00  0.00    -0.267 OA
ATOM     41  N17 52J d   1      23.174 -29.899  -2.184  0.00  0.00    -0.167 N 
ATOM     42  N18 52J d   1      22.754 -30.760  -3.130  0.00  0.00     0.014 N 
ATOM     43  C20 52J d   1      24.524 -29.984  -1.721  0.00  0.00     0.069 C 
ATOM     44  C19 52J d   1      23.544 -30.719  -4.328  0.00  0.00     0.127 C 
ATOM     45  H18 52J d   1      21.801 -30.534  -3.368  0.00  0.00     0.306 HD
ATOM     46  H19 52J d   1      22.794 -31.694  -2.753  0.00  0.00     0.306 HD
ATOM     47  C25 52J d   1      25.001 -30.531  -4.097  0.00  0.00    -0.022 A 
ATOM     48  H20 52J d   1      23.184 -29.886  -4.949  0.00  0.00     0.086 H 
ATOM     49  H21 52J d   1      23.401 -31.667  -4.867  0.00  0.00     0.086 H 
ATOM     50  C24 52J d   1      25.477 -30.178  -2.851  0.00  0.00    -0.025 A 
ATOM     51  C26 52J d   1      25.903 -30.717  -5.178  0.00  0.00    -0.075 A 
ATOM     52  C29 52J d   1      26.850 -30.005  -2.651  0.00  0.00    -0.074 A 
ATOM     53  C28 52J d   1      27.763 -30.192  -3.740  0.00  0.00    -0.082 A 
ATOM     54  H32 52J d   1      27.224 -29.729  -1.672  0.00  0.00     0.084 H 
ATOM     55  C27 52J d   1      27.289 -30.542  -4.980  0.00  0.00    -0.082 A 
ATOM     56  H31 52J d   1      28.827 -30.057  -3.585  0.00  0.00     0.083 H 
ATOM     57  H30 52J d   1      27.978 -30.684  -5.805  0.00  0.00     0.083 H 
ATOM     58  H29 52J d   1      25.526 -30.994  -6.156  0.00  0.00     0.084 H 
ATOM     59  H22 52J d   1      24.779 -29.050  -1.199  0.00  0.00     0.083 H 
BRANCH  43  60
ATOM     60  C21 52J d   1      24.647 -31.155  -0.748  0.00  0.00    -0.037 C 
ATOM     61  H23 52J d   1      24.532 -32.081  -1.331  0.00  0.00     0.037 H 
ATOM     62  H24 52J d   1      23.821 -31.071  -0.026  0.00  0.00     0.037 H 
BRANCH  60  63
ATOM     63  C22 52J d   1      25.979 -31.280   0.074  0.00  0.00    -0.059 C 
ATOM     64  H25 52J d   1      26.772 -30.972  -0.624  0.00  0.00     0.038 H 
BRANCH  63  65
ATOM     65  C23 52J d   1      26.072 -30.306   1.218  0.00  0.00    -0.073 C 
ATOM     66  H26 52J d   1      27.026 -30.451   1.746  0.00  0.00     0.028 H 
ATOM     67  H27 52J d   1      25.238 -30.478   1.914  0.00  0.00     0.028 H 
ATOM     68  H28 52J d   1      26.020 -29.278   0.830  0.00  0.00     0.028 H 
ENDBRANCH  63  65
BRANCH  63  69
ATOM     69  C37 52J d   1      26.349 -32.789   0.476  0.00  0.00    -0.073 C 
ATOM     70  H33 52J d   1      26.258 -33.437  -0.408  0.00  0.00     0.028 H 
ATOM     71  H34 52J d   1      25.661 -33.139   1.259  0.00  0.00     0.028 H 
ATOM     72  H35 52J d   1      27.382 -32.825   0.852  0.00  0.00     0.028 H 
ENDBRANCH  63  69
ENDBRANCH  60  63
ENDBRANCH  43  60
ENDBRANCH   2  39
TORSDOF 14
