REMARK  14 active torsions:
REMARK  status: ('A' for Active; 'I' for Inactive)
REMARK       I    between atoms: C16_2  and  N17_3 
REMARK    1  A    between atoms: C16_2  and  C15_17 
REMARK    2  A    between atoms: C20_12  and  C21_13 
REMARK    3  A    between atoms: C21_13  and  C22_14 
REMARK    4  A    between atoms: C22_14  and  C23_15 
REMARK    5  A    between atoms: C22_14  and  C37_16 
REMARK    6  A    between atoms: C14_18  and  C13_19 
REMARK    7  A    between atoms: C10_20  and  O11_21 
REMARK    8  A    between atoms: O11_21  and  C12_22 
REMARK    9  A    between atoms: C07_23  and  O08_24 
REMARK   10  A    between atoms: O08_24  and  C09_25 
REMARK   11  A    between atoms: C05_27  and  C04_28 
REMARK   12  A    between atoms: C04_28  and  C03_29 
REMARK   13  A    between atoms: C34_32  and  N35_33 
REMARK   14  A    between atoms: C02_35  and  N01_36 
ROOT
ATOM      1  C15 53I d   1      20.219 -26.735  -1.088  0.00  0.00    -0.015 C 
ATOM      2  C14 53I d   1      19.512 -27.836  -1.507  0.00  0.00    -0.065 C 
ATOM      3  H19 53I d   1      19.851 -25.729  -1.286  0.00  0.00     0.092 H 
ATOM      4  H20 53I d   1      20.009 -28.805  -1.522  0.00  0.00     0.085 H 
ENDROOT
BRANCH   1   5
ATOM      5  C16 53I d   1      21.553 -26.955  -0.326  0.00  0.00     0.267 C 
ATOM      6  O30 53I d   1      21.778 -26.286   0.711  0.00  0.00    -0.267 OA
ATOM      7  N17 53I d   1      22.560 -27.928  -0.792  0.00  0.00    -0.167 N 
ATOM      8  N18 53I d   1      22.338 -28.682  -1.909  0.00  0.00     0.014 N 
ATOM      9  C20 53I d   1      23.785 -28.087  -0.001  0.00  0.00     0.069 C 
ATOM     10  C19 53I d   1      23.359 -29.549  -2.376  0.00  0.00     0.127 C 
ATOM     11  H1  53I d   1      22.130 -28.042  -2.659  0.00  0.00     0.306 HD
ATOM     12  H2  53I d   1      21.529 -29.254  -1.722  0.00  0.00     0.306 HD
ATOM     13  C25 53I d   1      24.317 -30.068  -1.389  0.00  0.00    -0.022 A 
ATOM     14  H3  53I d   1      23.935 -29.000  -3.136  0.00  0.00     0.086 H 
ATOM     15  H4  53I d   1      22.867 -30.415  -2.843  0.00  0.00     0.086 H 
ATOM     16  C26 53I d   1      25.019 -31.304  -1.622  0.00  0.00    -0.075 A 
ATOM     17  C24 53I d   1      24.527 -29.388  -0.261  0.00  0.00    -0.025 A 
ATOM     18  C27 53I d   1      25.929 -31.792  -0.650  0.00  0.00    -0.082 A 
ATOM     19  H5  53I d   1      24.852 -31.860  -2.538  0.00  0.00     0.084 H 
ATOM     20  C28 53I d   1      26.149 -31.090   0.515  0.00  0.00    -0.082 A 
ATOM     21  H6  53I d   1      26.455 -32.724  -0.825  0.00  0.00     0.083 H 
ATOM     22  C29 53I d   1      25.467 -29.895   0.744  0.00  0.00    -0.074 A 
ATOM     23  H7  53I d   1      26.850 -31.465   1.252  0.00  0.00     0.083 H 
ATOM     24  H8  53I d   1      25.631 -29.343   1.662  0.00  0.00     0.084 H 
ATOM     25  H9  53I d   1      23.457 -28.118   1.048  0.00  0.00     0.083 H 
BRANCH   9  26
ATOM     26  C21 53I d   1      24.755 -26.926  -0.114  0.00  0.00    -0.037 C 
ATOM     27  H10 53I d   1      25.745 -27.395  -0.213  0.00  0.00     0.037 H 
ATOM     28  H11 53I d   1      24.689 -26.409   0.855  0.00  0.00     0.037 H 
BRANCH  26  29
ATOM     29  C22 53I d   1      24.747 -25.926  -1.046  0.00  0.00    -0.059 C 
ATOM     30  H12 53I d   1      23.731 -26.073  -1.441  0.00  0.00     0.038 H 
BRANCH  29  31
ATOM     31  C23 53I d   1      24.621 -24.468  -0.600  0.00  0.00    -0.073 C 
ATOM     32  H13 53I d   1      24.633 -23.812  -1.483  0.00  0.00     0.028 H 
ATOM     33  H14 53I d   1      25.464 -24.212   0.058  0.00  0.00     0.028 H 
ATOM     34  H15 53I d   1      23.675 -24.332  -0.055  0.00  0.00     0.028 H 
ENDBRANCH  29  31
BRANCH  29  35
ATOM     35  C37 53I d   1      25.555 -26.165  -2.326  0.00  0.00    -0.073 C 
ATOM     36  H16 53I d   1      25.579 -27.242  -2.549  0.00  0.00     0.028 H 
ATOM     37  H17 53I d   1      26.582 -25.797  -2.185  0.00  0.00     0.028 H 
ATOM     38  H18 53I d   1      25.084 -25.628  -3.163  0.00  0.00     0.028 H 
ENDBRANCH  29  35
ENDBRANCH  26  29
ENDBRANCH   9  26
ENDBRANCH   1   5
BRANCH   2  39
ATOM     39  C13 53I d   1      18.088 -27.750  -1.942  0.00  0.00     0.001 A 
ATOM     40  C10 53I d   1      17.203 -26.765  -1.469  0.00  0.00     0.111 A 
ATOM     41  C07 53I d   1      15.885 -26.755  -1.917  0.00  0.00     0.102 A 
ATOM     42  C06 53I d   1      15.449 -27.742  -2.853  0.00  0.00    -0.042 A 
ATOM     43  C05 53I d   1      16.332 -28.728  -3.320  0.00  0.00    -0.050 A 
ATOM     44  H27 53I d   1      14.424 -27.729  -3.207  0.00  0.00     0.088 H 
ATOM     45  C31 53I d   1      17.640 -28.737  -2.883  0.00  0.00    -0.064 A 
ATOM     46  H35 53I d   1      18.329 -29.489  -3.250  0.00  0.00     0.085 H 
BRANCH  40  47
ATOM     47  O11 53I d   1      17.633 -25.798  -0.531  0.00  0.00    -0.352 OA
BRANCH  47  48
ATOM     48  C12 53I d   1      17.235 -24.480  -0.625  0.00  0.00     0.011 C 
ATOM     49  H21 53I d   1      17.681 -23.903   0.199  0.00  0.00     0.067 H 
ATOM     50  H22 53I d   1      16.138 -24.423  -0.561  0.00  0.00     0.067 H 
ATOM     51  H23 53I d   1      17.569 -24.064  -1.587  0.00  0.00     0.067 H 
ENDBRANCH  47  48
ENDBRANCH  40  47
BRANCH  41  52
ATOM     52  O08 53I d   1      14.959 -25.793  -1.471  0.00  0.00    -0.353 OA
BRANCH  52  53
ATOM     53  C09 53I d   1      13.612 -25.829  -1.938  0.00  0.00     0.010 C 
ATOM     54  H24 53I d   1      13.044 -25.005  -1.482  0.00  0.00     0.066 H 
ATOM     55  H25 53I d   1      13.153 -26.789  -1.659  0.00  0.00     0.066 H 
ATOM     56  H26 53I d   1      13.600 -25.721  -3.033  0.00  0.00     0.066 H 
ENDBRANCH  52  53
ENDBRANCH  41  52
BRANCH  43  57
ATOM     57  C04 53I d   1      15.828 -29.744  -4.318  0.00  0.00    -0.012 C 
ATOM     58  H28 53I d   1      16.288 -29.503  -5.288  0.00  0.00     0.047 H 
ATOM     59  H29 53I d   1      14.737 -29.618  -4.388  0.00  0.00     0.047 H 
BRANCH  57  60
ATOM     60  C03 53I d   1      16.093 -31.207  -4.049  0.00  0.00     0.010 A 
ATOM     61  C32 53I d   1      16.560 -31.768  -2.832  0.00  0.00     0.031 A 
ATOM     62  N33 53I d   1      16.738 -33.148  -2.764  0.00  0.00    -0.075 NA
ATOM     63  H30 53I d   1      16.773 -31.138  -1.976  0.00  0.00     0.116 H 
ATOM     64  C34 53I d   1      16.465 -33.939  -3.814  0.00  0.00     0.721 A 
ATOM     65  N36 53I d   1      16.029 -33.412  -4.977  0.00  0.00    -0.045 NA
ATOM     66  C02 53I d   1      15.831 -32.074  -5.114  0.00  0.00     0.148 A 
BRANCH  64  67
ATOM     67  N35 53I d   1      16.650 -35.357  -3.772  0.00  0.00    -0.231 N 
ATOM     68  H31 53I d   1      16.981 -35.808  -2.907  0.00  0.00     0.174 HD
ATOM     69  H32 53I d   1      16.452 -35.927  -4.607  0.00  0.00     0.174 HD
ENDBRANCH  64  67
BRANCH  66  70
ATOM     70  N01 53I d   1      15.352 -31.548  -6.354  0.00  0.00    -0.383 N 
ATOM     71  H33 53I d   1      15.157 -32.182  -7.142  0.00  0.00     0.157 HD
ATOM     72  H34 53I d   1      15.201 -30.535  -6.460  0.00  0.00     0.157 HD
ENDBRANCH  66  70
ENDBRANCH  57  60
ENDBRANCH  43  57
ENDBRANCH   2  39
TORSDOF 14
