REMARK  11 active torsions:
REMARK  status: ('A' for Active; 'I' for Inactive)
REMARK    1  A    between atoms: PA_1  and  O3A_4 
REMARK    2  A    between atoms: PA_1  and  O5'_5 
REMARK    3  A    between atoms: O3A_4  and  PB_6 
REMARK    4  A    between atoms: O5'_5  and  C5'_14 
REMARK    5  A    between atoms: PB_6  and  O3B_9 
REMARK    6  A    between atoms: O3B_9  and  PC_10 
REMARK    7  A    between atoms: C5'_14  and  C4'_15 
REMARK    8  A    between atoms: C3'_17  and  O3'_18 
REMARK    9  A    between atoms: C2'_19  and  O2'_20 
REMARK   10  A    between atoms: C1'_21  and  N9_22 
REMARK   11  A    between atoms: N7_24  and  CM7_25 
ROOT
ATOM      1  C4' MGP d   1     -16.170 -14.860  -8.649  0.00  0.00     0.089 C 
ATOM      2  O4' MGP d   1     -15.809 -16.099  -9.317  0.00  0.00    -0.353 OA
ATOM      3  C3' MGP d   1     -17.674 -14.804  -8.294  0.00  0.00     0.091 C 
ATOM      4  C2' MGP d   1     -17.963 -16.255  -8.089  0.00  0.00     0.105 C 
ATOM      5  C1' MGP d   1     -16.996 -16.884  -9.087  0.00  0.00     0.139 C 
ATOM      6  H3  MGP d   1     -15.951 -14.025  -9.331  0.00  0.00     0.090 H 
ATOM      7  H4  MGP d   1     -17.871 -14.188  -7.404  0.00  0.00     0.091 H 
ATOM      8  H6  MGP d   1     -17.722 -16.566  -7.062  0.00  0.00     0.093 H 
ATOM      9  H8  MGP d   1     -17.527 -17.091 -10.028  0.00  0.00     0.122 H 
ENDROOT
BRANCH   5  10
ATOM     10  N9  MGP d   1     -16.393 -18.095  -8.517  0.00  0.00    -0.296 N 
ATOM     11  C8  MGP d   1     -16.626 -18.765  -7.380  0.00  0.00     0.049 A 
ATOM     12  N7  MGP d   1     -15.765 -19.826  -7.298  0.00  0.00    -0.340 N 
ATOM     13  H9  MGP d   1     -17.381 -18.506  -6.639  0.00  0.00     0.141 H 
ATOM     14  C5  MGP d   1     -14.990 -19.750  -8.400  0.00  0.00     0.149 A 
ATOM     15  C6  MGP d   1     -13.917 -20.576  -8.937  0.00  0.00     0.290 A 
ATOM     16  C4  MGP d   1     -15.406 -18.619  -9.214  0.00  0.00     0.159 A 
ATOM     17  O6  MGP d   1     -13.540 -21.566  -8.289  0.00  0.00    -0.265 OA
ATOM     18  N1  MGP d   1     -13.378 -20.225 -10.124  0.00  0.00    -0.154 N 
ATOM     19  C2  MGP d   1     -13.800 -19.130 -10.850  0.00  0.00     0.680 A 
ATOM     20  H13 MGP d   1     -12.637 -20.785 -10.495  0.00  0.00     0.187 HD
ATOM     21  N2  MGP d   1     -13.209 -18.858 -12.024  0.00  0.00    -0.234 N 
ATOM     22  N3  MGP d   1     -14.819 -18.342 -10.432  0.00  0.00    -0.174 N 
ATOM     23  H14 MGP d   1     -13.513 -18.044 -12.577  0.00  0.00     0.174 HD
ATOM     24  H15 MGP d   1     -12.451 -19.463 -12.372  0.00  0.00     0.174 HD
ATOM     25  H16 MGP d   1     -15.148 -17.555 -11.009  0.00  0.00     0.186 HD
BRANCH  12  26
ATOM     26  CM7 MGP d   1     -15.754 -20.799  -6.145  0.00  0.00    -0.013 C 
ATOM     27  H10 MGP d   1     -16.547 -20.531  -5.432  0.00  0.00     0.057 H 
ATOM     28  H11 MGP d   1     -14.778 -20.758  -5.640  0.00  0.00     0.057 H 
ATOM     29  H12 MGP d   1     -15.929 -21.817  -6.523  0.00  0.00     0.057 H 
ENDBRANCH  12  26
ENDBRANCH   5  10
BRANCH   4  30
ATOM     30  O2' MGP d   1     -19.347 -16.573  -8.357  0.00  0.00    -0.388 OA
ATOM     31  H7  MGP d   1     -19.904 -16.073  -7.773  0.00  0.00     0.210 HD
ENDBRANCH   4  30
BRANCH   1  32
ATOM     32  C5' MGP d   1     -15.323 -14.697  -7.400  0.00  0.00     0.058 C 
ATOM     33  H1  MGP d   1     -14.342 -14.318  -7.721  0.00  0.00     0.079 H 
ATOM     34  H2  MGP d   1     -15.818 -13.944  -6.769  0.00  0.00     0.079 H 
BRANCH  32  35
ATOM     35  O5' MGP d   1     -15.076 -15.879  -6.554  0.00  0.00    -0.287 OA
BRANCH  35  36
ATOM     36  PA  MGP d   1     -15.533 -16.135  -5.046  0.00  0.00     0.417 P 
ATOM     37  O1A MGP d   1     -15.469 -17.620  -4.722  0.00  0.00    -0.624 OA
ATOM     38  O2A MGP d   1     -14.829 -15.058  -4.362  0.00  0.00    -0.624 OA
BRANCH  36  39
ATOM     39  O3A MGP d   1     -17.057 -15.662  -5.084  0.00  0.00    -0.180 OA
BRANCH  39  40
ATOM     40  PB  MGP d   1     -18.086 -15.304  -3.923  0.00  0.00     0.428 P 
ATOM     41  O1B MGP d   1     -17.551 -15.216  -2.506  0.00  0.00    -0.624 OA
ATOM     42  O2B MGP d   1     -18.795 -14.069  -4.418  0.00  0.00    -0.624 OA
BRANCH  40  43
ATOM     43  O3B MGP d   1     -18.964 -16.654  -3.998  0.00  0.00    -0.173 OA
BRANCH  43  44
ATOM     44  PC  MGP d   1     -20.500 -16.901  -4.551  0.00  0.00     0.431 P 
ATOM     45  O1C MGP d   1     -20.603 -18.380  -4.218  0.00  0.00    -0.616 OA
ATOM     46  O2C MGP d   1     -20.423 -16.757  -6.079  0.00  0.00    -0.616 OA
ATOM     47  O3C MGP d   1     -21.616 -16.123  -3.768  0.00  0.00    -0.616 OA
ENDBRANCH  43  44
ENDBRANCH  40  43
ENDBRANCH  39  40
ENDBRANCH  36  39
ENDBRANCH  35  36
ENDBRANCH  32  35
ENDBRANCH   1  32
BRANCH   3  48
ATOM     48  O3' MGP d   1     -18.494 -14.367  -9.433  0.00  0.00    -0.390 OA
ATOM     49  H5  MGP d   1     -18.382 -14.975 -10.154  0.00  0.00     0.210 HD
ENDBRANCH   3  48
TORSDOF 11
