REMARK  12 active torsions:
REMARK  status: ('A' for Active; 'I' for Inactive)
REMARK    1  A    between atoms: C11_2  and  C12_1 
REMARK    2  A    between atoms: C11_2  and  C13_4 
REMARK    3  A    between atoms: N07_17  and  C11_2 
REMARK    4  A    between atoms: C14_3  and  C15_5 
REMARK       I    between atoms: N07_17  and  C14_3 
REMARK    5  A    between atoms: C19_8  and  C22_22 
REMARK    6  A    between atoms: C03_13  and  C01_11 
REMARK    7  A    between atoms: C05_15  and  C08_18 
REMARK    8  A    between atoms: C06_16  and  N07_17 
REMARK    9  A    between atoms: C23_23  and  C24_24 
REMARK   10  A    between atoms: C24_24  and  C25_25 
REMARK   11  A    between atoms: C24_24  and  C26_26 
REMARK   12  A    between atoms: C24_24  and  C27_27 
ROOT
ATOM      1  C14 0S2 d   1       7.394  35.349  75.700  0.00  0.00     0.229 C 
ATOM      2  N07 0S2 d   1       7.408  33.941  75.630  0.00  0.00    -0.312 N 
ATOM      3  O16 0S2 d   1       7.078  35.969  76.721  0.00  0.00    -0.273 OA
ENDROOT
BRANCH   2   4
ATOM      4  C11 0S2 d   1       7.045  33.093  76.802  0.00  0.00     0.013 C 
ATOM      5  H4  0S2 d   1       6.417  33.695  77.475  0.00  0.00     0.072 H 
BRANCH   4   6
ATOM      6  C12 0S2 d   1       6.245  31.856  76.387  0.00  0.00    -0.057 C 
ATOM      7  H1  0S2 d   1       6.000  31.262  77.279  0.00  0.00     0.030 H 
ATOM      8  H2  0S2 d   1       6.845  31.247  75.694  0.00  0.00     0.030 H 
ATOM      9  H3  0S2 d   1       5.316  32.170  75.889  0.00  0.00     0.030 H 
ENDBRANCH   4   6
BRANCH   4  10
ATOM     10  C13 0S2 d   1       8.306  32.671  77.568  0.00  0.00    -0.057 C 
ATOM     11  H5  0S2 d   1       8.873  33.566  77.862  0.00  0.00     0.030 H 
ATOM     12  H6  0S2 d   1       8.931  32.036  76.923  0.00  0.00     0.030 H 
ATOM     13  H7  0S2 d   1       8.017  32.108  78.468  0.00  0.00     0.030 H 
ENDBRANCH   4  10
ENDBRANCH   2   4
BRANCH   2  14
ATOM     14  C06 0S2 d   1       7.795  33.326  74.410  0.00  0.00     0.063 A 
ATOM     15  C02 0S2 d   1       9.130  32.908  74.076  0.00  0.00    -0.030 A 
ATOM     16  C03 0S2 d   1       9.219  32.324  72.828  0.00  0.00     0.061 A 
ATOM     17  H18 0S2 d   1       9.983  33.039  74.740  0.00  0.00     0.090 H 
ATOM     18  S04 0S2 d   1       7.705  32.256  72.065  0.00  0.00    -0.072 SA
ATOM     19  C05 0S2 d   1       6.909  33.014  73.375  0.00  0.00     0.109 A 
BRANCH  16  20
ATOM     20  C01 0S2 d   1      10.408  31.822  72.227  0.00  0.00    -0.059 C 
ATOM     21  C23 0S2 d   1      11.396  31.393  71.693  0.00  0.00    -0.092 C 
BRANCH  21  22
ATOM     22  C24 0S2 d   1      12.602  30.866  71.019  0.00  0.00     0.013 C 
BRANCH  22  23
ATOM     23  C25 0S2 d   1      13.857  31.524  71.615  0.00  0.00    -0.059 C 
ATOM     24  H22 0S2 d   1      14.752  31.130  71.111  0.00  0.00     0.029 H 
ATOM     25  H23 0S2 d   1      13.913  31.300  72.691  0.00  0.00     0.029 H 
ATOM     26  H24 0S2 d   1      13.804  32.613  71.469  0.00  0.00     0.029 H 
ENDBRANCH  22  23
BRANCH  22  27
ATOM     27  C26 0S2 d   1      12.665  29.340  71.184  0.00  0.00    -0.059 C 
ATOM     28  H25 0S2 d   1      11.760  28.887  70.752  0.00  0.00     0.029 H 
ATOM     29  H26 0S2 d   1      12.726  29.089  72.253  0.00  0.00     0.029 H 
ATOM     30  H27 0S2 d   1      13.553  28.951  70.664  0.00  0.00     0.029 H 
ENDBRANCH  22  27
BRANCH  22  31
ATOM     31  C27 0S2 d   1      12.538  31.223  69.519  0.00  0.00    -0.059 C 
ATOM     32  H28 0S2 d   1      12.493  32.316  69.404  0.00  0.00     0.029 H 
ATOM     33  H29 0S2 d   1      11.641  30.770  69.072  0.00  0.00     0.029 H 
ATOM     34  H30 0S2 d   1      13.435  30.837  69.012  0.00  0.00     0.029 H 
ENDBRANCH  22  31
ENDBRANCH  21  22
ENDBRANCH  16  20
BRANCH  19  35
ATOM     35  C08 0S2 d   1       5.483  33.269  73.277  0.00  0.00     0.219 C 
ATOM     36  O09 0S2 d   1       4.889  32.539  72.297  0.00  0.00    -0.643 OA
ATOM     37  O10 0S2 d   1       4.853  34.083  73.935  0.00  0.00    -0.643 OA
ENDBRANCH  19  35
ENDBRANCH   2  14
BRANCH   1  38
ATOM     38  C15 0S2 d   1       7.822  36.136  74.462  0.00  0.00     0.024 C 
ATOM     39  C17 0S2 d   1       9.295  36.526  74.693  0.00  0.00    -0.053 C 
ATOM     40  C18 0S2 d   1       9.851  37.411  73.579  0.00  0.00    -0.061 C 
ATOM     41  H9  0S2 d   1       9.898  35.608  74.747  0.00  0.00     0.034 H 
ATOM     42  H10 0S2 d   1       9.370  37.071  75.646  0.00  0.00     0.034 H 
ATOM     43  C19 0S2 d   1       8.956  38.635  73.350  0.00  0.00    -0.058 C 
ATOM     44  H11 0S2 d   1       9.906  36.827  72.649  0.00  0.00     0.033 H 
ATOM     45  H12 0S2 d   1      10.859  37.750  73.859  0.00  0.00     0.033 H 
ATOM     46  C20 0S2 d   1       7.491  38.222  73.105  0.00  0.00    -0.061 C 
ATOM     47  H13 0S2 d   1       8.984  39.255  74.258  0.00  0.00     0.039 H 
ATOM     48  C21 0S2 d   1       6.962  37.388  74.280  0.00  0.00    -0.053 C 
ATOM     49  H14 0S2 d   1       7.433  37.625  72.183  0.00  0.00     0.033 H 
ATOM     50  H15 0S2 d   1       6.874  39.126  72.996  0.00  0.00     0.033 H 
ATOM     51  H16 0S2 d   1       6.997  37.991  75.199  0.00  0.00     0.034 H 
ATOM     52  H17 0S2 d   1       5.923  37.090  74.076  0.00  0.00     0.034 H 
ATOM     53  H8  0S2 d   1       7.734  35.504  73.566  0.00  0.00     0.054 H 
BRANCH  43  54
ATOM     54  C22 0S2 d   1       9.505  39.466  72.186  0.00  0.00    -0.073 C 
ATOM     55  H19 0S2 d   1      10.549  39.743  72.394  0.00  0.00     0.028 H 
ATOM     56  H20 0S2 d   1       8.900  40.377  72.069  0.00  0.00     0.028 H 
ATOM     57  H21 0S2 d   1       9.460  38.874  71.260  0.00  0.00     0.028 H 
ENDBRANCH  43  54
ENDBRANCH   1  38
TORSDOF 12
