REMARK  12 active torsions:
REMARK  status: ('A' for Active; 'I' for Inactive)
REMARK    1  A    between atoms: C02_2  and  N12_12 
REMARK    2  A    between atoms: C03_3  and  C25_25 
REMARK    3  A    between atoms: C05_5  and  C06_6 
REMARK    4  A    between atoms: C07_7  and  C08_8 
REMARK    5  A    between atoms: C08_8  and  C09_9 
REMARK    6  A    between atoms: C08_8  and  C10_10 
REMARK    7  A    between atoms: C08_8  and  C11_11 
REMARK       I    between atoms: N12_12  and  C13_13 
REMARK    8  A    between atoms: N12_12  and  N14_14 
REMARK    9  A    between atoms: C13_13  and  C15_15 
REMARK   10  A    between atoms: N14_14  and  C23_23 
REMARK   11  A    between atoms: N14_14  and  C24_24 
REMARK   12  A    between atoms: C19_19  and  C22_22 
ROOT
ATOM      1  N12 0S3 d   1       7.357  34.129  75.273  0.00  0.00    -0.140 N 
ATOM      2  C13 0S3 d   1       7.307  35.527  75.380  0.00  0.00     0.253 C 
ATOM      3  O16 0S3 d   1       6.917  36.123  76.389  0.00  0.00    -0.271 OA
ENDROOT
BRANCH   1   4
ATOM      4  C02 0S3 d   1       7.811  33.478  74.099  0.00  0.00     0.092 A 
ATOM      5  C01 0S3 d   1       9.171  33.092  73.798  0.00  0.00    -0.029 A 
ATOM      6  C05 0S3 d   1       9.298  32.459  72.577  0.00  0.00     0.061 A 
ATOM      7  H1  0S3 d   1      10.010  33.281  74.466  0.00  0.00     0.090 H 
ATOM      8  S04 0S3 d   1       7.808  32.307  71.790  0.00  0.00    -0.072 SA
ATOM      9  C03 0S3 d   1       6.969  33.080  73.056  0.00  0.00     0.111 A 
BRANCH   6  10
ATOM     10  C06 0S3 d   1      10.495  31.965  71.986  0.00  0.00    -0.059 C 
ATOM     11  C07 0S3 d   1      11.463  31.528  71.432  0.00  0.00    -0.092 C 
BRANCH  11  12
ATOM     12  C08 0S3 d   1      12.642  30.994  70.722  0.00  0.00     0.013 C 
BRANCH  12  13
ATOM     13  C09 0S3 d   1      13.899  31.621  71.347  0.00  0.00    -0.059 C 
ATOM     14  H2  0S3 d   1      14.793  31.238  70.834  0.00  0.00     0.029 H 
ATOM     15  H3  0S3 d   1      13.948  31.359  72.414  0.00  0.00     0.029 H 
ATOM     16  H4  0S3 d   1      13.855  32.715  71.240  0.00  0.00     0.029 H 
ENDBRANCH  12  13
BRANCH  12  17
ATOM     17  C10 0S3 d   1      12.696  29.461  70.831  0.00  0.00    -0.059 C 
ATOM     18  H5  0S3 d   1      11.790  29.029  70.380  0.00  0.00     0.029 H 
ATOM     19  H6  0S3 d   1      12.752  29.170  71.890  0.00  0.00     0.029 H 
ATOM     20  H7  0S3 d   1      13.584  29.087  70.301  0.00  0.00     0.029 H 
ENDBRANCH  12  17
BRANCH  12  21
ATOM     21  C11 0S3 d   1      12.565  31.396  69.237  0.00  0.00    -0.059 C 
ATOM     22  H8  0S3 d   1      12.526  32.492  69.156  0.00  0.00     0.029 H 
ATOM     23  H9  0S3 d   1      11.660  30.963  68.786  0.00  0.00     0.029 H 
ATOM     24  H10 0S3 d   1      13.454  31.020  68.709  0.00  0.00     0.029 H 
ENDBRANCH  12  21
ENDBRANCH  11  12
ENDBRANCH   6  10
BRANCH   9  25
ATOM     25  C25 0S3 d   1       5.551  33.208  72.813  0.00  0.00     0.219 C 
ATOM     26  O26 0S3 d   1       4.904  32.577  71.988  0.00  0.00    -0.643 OA
ATOM     27  O27 0S3 d   1       4.995  34.171  73.589  0.00  0.00    -0.643 OA
ENDBRANCH   9  25
ENDBRANCH   1   4
BRANCH   1  28
ATOM     28  N14 0S3 d   1       6.922  33.375  76.382  0.00  0.00     0.009 N 
ATOM     29  H11 0S3 d   1       6.824  34.066  77.109  0.00  0.00     0.308 HD
BRANCH  28  30
ATOM     30  C23 0S3 d   1       5.581  32.810  76.290  0.00  0.00     0.086 C 
ATOM     31  H25 0S3 d   1       5.356  32.248  77.208  0.00  0.00     0.071 H 
ATOM     32  H26 0S3 d   1       5.526  32.135  75.424  0.00  0.00     0.071 H 
ATOM     33  H27 0S3 d   1       4.849  33.622  76.169  0.00  0.00     0.071 H 
ENDBRANCH  28  30
BRANCH  28  34
ATOM     34  C24 0S3 d   1       7.949  32.479  76.902  0.00  0.00     0.086 C 
ATOM     35  H28 0S3 d   1       7.548  31.922  77.762  0.00  0.00     0.071 H 
ATOM     36  H29 0S3 d   1       8.822  33.068  77.221  0.00  0.00     0.071 H 
ATOM     37  H30 0S3 d   1       8.251  31.772  76.116  0.00  0.00     0.071 H 
ENDBRANCH  28  34
ENDBRANCH   1  28
BRANCH   2  38
ATOM     38  C15 0S3 d   1       7.813  36.314  74.164  0.00  0.00     0.026 C 
ATOM     39  C17 0S3 d   1       6.949  37.545  73.844  0.00  0.00    -0.053 C 
ATOM     40  C18 0S3 d   1       7.560  38.345  72.687  0.00  0.00    -0.061 C 
ATOM     41  H13 0S3 d   1       6.889  38.187  74.736  0.00  0.00     0.034 H 
ATOM     42  H14 0S3 d   1       5.939  37.214  73.561  0.00  0.00     0.034 H 
ATOM     43  C19 0S3 d   1       8.991  38.794  73.031  0.00  0.00    -0.058 C 
ATOM     44  H15 0S3 d   1       6.940  39.233  72.495  0.00  0.00     0.033 H 
ATOM     45  H16 0S3 d   1       7.586  37.714  71.786  0.00  0.00     0.033 H 
ATOM     46  C20 0S3 d   1       9.867  37.591  73.392  0.00  0.00    -0.061 C 
ATOM     47  H17 0S3 d   1       8.937  39.456  73.908  0.00  0.00     0.039 H 
ATOM     48  C21 0S3 d   1       9.245  36.742  74.501  0.00  0.00    -0.053 C 
ATOM     49  H18 0S3 d   1      10.848  37.955  73.731  0.00  0.00     0.033 H 
ATOM     50  H19 0S3 d   1       9.998  36.965  72.497  0.00  0.00     0.033 H 
ATOM     51  H20 0S3 d   1       9.860  35.841  74.645  0.00  0.00     0.034 H 
ATOM     52  H21 0S3 d   1       9.230  37.329  75.431  0.00  0.00     0.034 H 
ATOM     53  H12 0S3 d   1       7.819  35.655  73.283  0.00  0.00     0.054 H 
BRANCH  43  54
ATOM     54  C22 0S3 d   1       9.629  39.580  71.880  0.00  0.00    -0.073 C 
ATOM     55  H22 0S3 d   1       8.993  40.442  71.628  0.00  0.00     0.028 H 
ATOM     56  H23 0S3 d   1       9.727  38.927  71.000  0.00  0.00     0.028 H 
ATOM     57  H24 0S3 d   1      10.624  39.936  72.186  0.00  0.00     0.028 H 
ENDBRANCH  43  54
ENDBRANCH   2  38
TORSDOF 12
