REMARK  2 active torsions:
REMARK  status: ('A' for Active; 'I' for Inactive)
REMARK    1  A    between atoms: C1_1  and  N1_2 
REMARK    2  A    between atoms: N3_5  and  C3_6 
ROOT
ATOM      1  N1  TEP d   1      28.545   5.019  40.099  0.00  0.00    -0.269 N 
ATOM      2  C2  TEP d   1      27.641   6.012  40.499  0.00  0.00     0.332 A 
ATOM      3  O2  TEP d   1      26.735   5.740  41.288  0.00  0.00    -0.246 OA
ATOM      4  N3  TEP d   1      27.793   7.320  40.027  0.00  0.00    -0.286 N 
ATOM      5  C4  TEP d   1      28.846   7.631  39.157  0.00  0.00     0.167 A 
ATOM      6  C5  TEP d   1      29.744   6.642  38.770  0.00  0.00     0.149 A 
ATOM      7  C6  TEP d   1      29.596   5.341  39.232  0.00  0.00     0.281 A 
ATOM      8  O6  TEP d   1      30.400   4.473  38.894  0.00  0.00    -0.265 OA
ATOM      9  N7  TEP d   1      30.630   7.217  37.961  0.00  0.00    -0.343 N 
ATOM     10  C8  TEP d   1      30.315   8.506  37.846  0.00  0.00     0.067 A 
ATOM     11  N9  TEP d   1      29.230   8.759  38.574  0.00  0.00    -0.224 NA
ATOM     12  H7  TEP d   1      31.423   6.746  37.502  0.00  0.00     0.167 HD
ATOM     13  H8  TEP d   1      30.859   9.237  37.250  0.00  0.00     0.143 H 
ENDROOT
BRANCH   1  14
ATOM     14  C1  TEP d   1      28.374   3.630  40.577  0.00  0.00    -0.007 C 
ATOM     15  H1  TEP d   1      27.501   3.576  41.243  0.00  0.00     0.057 H 
ATOM     16  H2  TEP d   1      29.274   3.318  41.127  0.00  0.00     0.057 H 
ATOM     17  H3  TEP d   1      28.220   2.962  39.717  0.00  0.00     0.057 H 
ENDBRANCH   1  14
BRANCH   4  18
ATOM     18  C3  TEP d   1      26.832   8.370  40.436  0.00  0.00    -0.008 C 
ATOM     19  H4  TEP d   1      26.083   7.937  41.116  0.00  0.00     0.057 H 
ATOM     20  H5  TEP d   1      26.328   8.774  39.545  0.00  0.00     0.057 H 
ATOM     21  H6  TEP d   1      27.370   9.179  40.951  0.00  0.00     0.057 H 
ENDBRANCH   4  18
TORSDOF 2
