REMARK  7 active torsions:
REMARK  status: ('A' for Active; 'I' for Inactive)
REMARK    1  A    between atoms: N2_23  and  C2_1 
REMARK    2  A    between atoms: C10_3  and  C11_4 
REMARK    3  A    between atoms: O6_17  and  C10_3 
REMARK    4  A    between atoms: C20_11  and  S23_26 
REMARK    5  A    between atoms: S23_26  and  N26_14 
REMARK    6  A    between atoms: C6_16  and  O6_17 
REMARK    7  A    between atoms: N2_23  and  C17_24 
ROOT
ATOM      1  C2  4SP d   1      -7.907 -23.450  24.237  0.00  0.00     0.731 A 
ATOM      2  C8  4SP d   1     -10.765 -20.912  22.330  0.00  0.00     0.066 A 
ATOM      3  N1  4SP d   1      -7.072 -22.787  23.456  0.00  0.00    -0.035 NA
ATOM      4  C6  4SP d   1      -7.465 -21.848  22.635  0.00  0.00     0.216 A 
ATOM      5  C5  4SP d   1      -8.773 -21.544  22.582  0.00  0.00     0.158 A 
ATOM      6  N7  4SP d   1      -9.531 -20.710  21.943  0.00  0.00    -0.236 NA
ATOM      7  N9  4SP d   1     -10.845 -21.870  23.233  0.00  0.00    -0.333 N 
ATOM      8  C4  4SP d   1      -9.635 -22.288  23.438  0.00  0.00     0.181 A 
ATOM      9  N3  4SP d   1      -9.189 -23.220  24.243  0.00  0.00    -0.042 NA
ATOM     10  H1  4SP d   1     -11.622 -20.356  21.952  0.00  0.00     0.143 H 
ATOM     11  H20 4SP d   1     -11.702 -22.218  23.687  0.00  0.00     0.168 HD
ENDROOT
BRANCH   4  12
ATOM     12  O6  4SP d   1      -6.586 -21.202  21.884  0.00  0.00    -0.332 OA
BRANCH  12  13
ATOM     13  C10 4SP d   1      -5.260 -21.308  22.246  0.00  0.00     0.031 C 
ATOM     14  H2  4SP d   1      -5.034 -20.548  23.008  0.00  0.00     0.075 H 
ATOM     15  H3  4SP d   1      -5.080 -22.310  22.663  0.00  0.00     0.075 H 
BRANCH  13  16
ATOM     16  C11 4SP d   1      -4.364 -21.101  21.071  0.00  0.00    -0.033 C 
ATOM     17  C12 4SP d   1      -4.838 -21.872  19.883  0.00  0.00    -0.060 C 
ATOM     18  C13 4SP d   1      -4.057 -21.339  18.730  0.00  0.00    -0.065 C 
ATOM     19  H5  4SP d   1      -5.915 -21.713  19.725  0.00  0.00     0.033 H 
ATOM     20  H6  4SP d   1      -4.642 -22.946  20.017  0.00  0.00     0.033 H 
ATOM     21  C14 4SP d   1      -2.571 -21.566  18.906  0.00  0.00    -0.065 C 
ATOM     22  H7  4SP d   1      -4.244 -20.259  18.642  0.00  0.00     0.033 H 
ATOM     23  H8  4SP d   1      -4.388 -21.845  17.811  0.00  0.00     0.033 H 
ATOM     24  C15 4SP d   1      -2.063 -21.135  20.272  0.00  0.00    -0.065 C 
ATOM     25  H9  4SP d   1      -2.035 -20.992  18.136  0.00  0.00     0.033 H 
ATOM     26  H10 4SP d   1      -2.362 -22.638  18.777  0.00  0.00     0.033 H 
ATOM     27  C16 4SP d   1      -2.980 -21.587  21.379  0.00  0.00    -0.060 C 
ATOM     28  H11 4SP d   1      -1.991 -20.038  20.295  0.00  0.00     0.033 H 
ATOM     29  H12 4SP d   1      -1.066 -21.571  20.435  0.00  0.00     0.033 H 
ATOM     30  H13 4SP d   1      -2.976 -22.685  21.440  0.00  0.00     0.033 H 
ATOM     31  H14 4SP d   1      -2.642 -21.165  22.337  0.00  0.00     0.033 H 
ATOM     32  H4  4SP d   1      -4.337 -20.029  20.828  0.00  0.00     0.043 H 
ENDBRANCH  13  16
ENDBRANCH  12  13
ENDBRANCH   4  12
BRANCH   1  33
ATOM     33  N2  4SP d   1      -7.481 -24.393  25.054  0.00  0.00    -0.188 N 
ATOM     34  H21 4SP d   1      -8.134 -24.632  25.814  0.00  0.00     0.184 HD
BRANCH  33  35
ATOM     35  C17 4SP d   1      -6.352 -25.083  25.058  0.00  0.00     0.049 A 
ATOM     36  C22 4SP d   1      -6.014 -25.738  26.210  0.00  0.00    -0.055 A 
ATOM     37  C21 4SP d   1      -4.860 -26.478  26.304  0.00  0.00    -0.058 A 
ATOM     38  H17 4SP d   1      -6.672 -25.672  27.069  0.00  0.00     0.087 H 
ATOM     39  C20 4SP d   1      -4.031 -26.601  25.229  0.00  0.00     0.079 A 
ATOM     40  H16 4SP d   1      -4.607 -26.967  27.238  0.00  0.00     0.086 H 
ATOM     41  C19 4SP d   1      -4.390 -25.949  24.067  0.00  0.00    -0.058 A 
ATOM     42  C18 4SP d   1      -5.534 -25.199  23.980  0.00  0.00    -0.055 A 
ATOM     43  H15 4SP d   1      -3.748 -26.032  23.197  0.00  0.00     0.086 H 
ATOM     44  H22 4SP d   1      -5.786 -24.699  23.052  0.00  0.00     0.087 H 
BRANCH  39  45
ATOM     45  S23 4SP d   1      -2.708 -27.441  25.286  0.00  0.00     0.256 S 
ATOM     46  O24 4SP d   1      -2.810 -28.669  24.682  0.00  0.00    -0.201 OA
ATOM     47  O25 4SP d   1      -2.170 -27.566  26.545  0.00  0.00    -0.201 OA
BRANCH  45  48
ATOM     48  N26 4SP d   1      -1.725 -26.756  24.515  0.00  0.00    -0.324 N 
ATOM     49  H18 4SP d   1      -0.804 -27.136  24.427  0.00  0.00     0.169 HD
ATOM     50  H19 4SP d   1      -1.956 -25.895  24.061  0.00  0.00     0.169 HD
ENDBRANCH  45  48
ENDBRANCH  39  45
ENDBRANCH  33  35
ENDBRANCH   1  33
TORSDOF 7
