REMARK  4 active torsions:
REMARK  status: ('A' for Active; 'I' for Inactive)
REMARK    1  A    between atoms: C02_2  and  C03_3 
REMARK       I    between atoms: C02_2  and  N08_8 
REMARK    2  A    between atoms: N08_8  and  C09_9 
REMARK    3  A    between atoms: C16_16  and  C17_17 
REMARK    4  A    between atoms: C17_17  and  C18_18 
ROOT
ATOM      1  C09 0QY d   1      24.722  -5.485  14.157  0.00  0.00     0.014 A 
ATOM      2  C10 0QY d   1      24.846  -4.300  15.001  0.00  0.00    -0.075 A 
ATOM      3  C11 0QY d   1      25.158  -2.981  14.414  0.00  0.00    -0.008 A 
ATOM      4  C12 0QY d   1      24.935  -5.346  12.692  0.00  0.00     0.015 A 
ATOM      5  C13 0QY d   1      25.268  -3.967  12.076  0.00  0.00     0.065 A 
ATOM      6  C14 0QY d   1      25.373  -2.850  12.885  0.00  0.00     0.039 A 
ATOM      7  N15 0QY d   1      25.672  -1.776  12.089  0.00  0.00    -0.346 N 
ATOM      8  C16 0QY d   1      25.751  -2.224  10.781  0.00  0.00     0.108 A 
ATOM      9  N27 0QY d   1      25.505  -3.578  10.781  0.00  0.00    -0.237 NA
ATOM     10  H11 0QY d   1      24.707  -4.390  16.077  0.00  0.00     0.080 H 
ATOM     11  H12 0QY d   1      26.081  -2.628  14.897  0.00  0.00     0.048 H 
ATOM     12  H13 0QY d   1      24.327  -2.311  14.677  0.00  0.00     0.048 H 
ATOM     13  H14 0QY d   1      24.013  -5.695  12.205  0.00  0.00     0.051 H 
ATOM     14  H15 0QY d   1      25.765  -6.018  12.429  0.00  0.00     0.051 H 
ATOM     15  H16 0QY d   1      25.813  -0.807  12.407  0.00  0.00     0.167 HD
ENDROOT
BRANCH   1  16
ATOM     16  N08 0QY d   1      24.421  -6.792  14.753  0.00  0.00    -0.329 N 
ATOM     17  C02 0QY d   1      24.746  -8.083  14.165  0.00  0.00     0.252 C 
ATOM     18  O01 0QY d   1      25.287  -8.202  13.074  0.00  0.00    -0.271 OA
ATOM     19  H10 0QY d   1      23.953  -6.796  15.637  0.00  0.00     0.168 HD
BRANCH  17  20
ATOM     20  C03 0QY d   1      24.390  -9.338  14.938  0.00  0.00     0.178 C 
ATOM     21  N04 0QY d   1      23.691 -10.354  14.151  0.00  0.00    -0.062 N 
ATOM     22  C05 0QY d   1      24.593 -11.460  13.989  0.00  0.00     0.083 C 
ATOM     23  H2  0QY d   1      23.438  -9.980  13.250  0.00  0.00     0.278 HD
ATOM     24  H3  0QY d   1      22.860 -10.655  14.635  0.00  0.00     0.278 HD
ATOM     25  C06 0QY d   1      25.510 -11.415  15.159  0.00  0.00    -0.040 C 
ATOM     26  H4  0QY d   1      25.162 -11.356  13.053  0.00  0.00     0.075 H 
ATOM     27  H5  0QY d   1      24.036 -12.409  13.976  0.00  0.00     0.075 H 
ATOM     28  C07 0QY d   1      25.620  -9.971  15.493  0.00  0.00    -0.028 C 
ATOM     29  H6  0QY d   1      26.495 -11.829  14.897  0.00  0.00     0.035 H 
ATOM     30  H7  0QY d   1      25.089 -11.978  16.005  0.00  0.00     0.035 H 
ATOM     31  H8  0QY d   1      25.666  -9.831  16.583  0.00  0.00     0.036 H 
ATOM     32  H9  0QY d   1      26.518  -9.537  15.030  0.00  0.00     0.036 H 
ATOM     33  H1  0QY d   1      23.735  -9.040  15.770  0.00  0.00     0.099 H 
ENDBRANCH  17  20
ENDBRANCH   1  16
BRANCH   8  34
ATOM     34  C17 0QY d   1      26.068  -1.384   9.563  0.00  0.00     0.016 C 
ATOM     35  H17 0QY d   1      26.818  -1.909   8.953  0.00  0.00     0.051 H 
ATOM     36  H18 0QY d   1      26.475  -0.417   9.893  0.00  0.00     0.051 H 
BRANCH  34  37
ATOM     37  C18 0QY d   1      24.846  -1.138   8.726  0.00  0.00    -0.023 A 
ATOM     38  C19 0QY d   1      24.450  -1.861   7.600  0.00  0.00    -0.015 A 
ATOM     39  N20 0QY d   1      23.273  -1.300   7.124  0.00  0.00    -0.365 N 
ATOM     40  H19 0QY d   1      24.972  -2.715   7.171  0.00  0.00     0.112 H 
ATOM     41  C21 0QY d   1      22.943  -0.226   7.951  0.00  0.00     0.042 A 
ATOM     42  H20 0QY d   1      22.738  -1.620   6.304  0.00  0.00     0.165 HD
ATOM     43  C22 0QY d   1      21.766   0.768   7.931  0.00  0.00    -0.056 A 
ATOM     44  C26 0QY d   1      23.916  -0.127   8.939  0.00  0.00    -0.001 A 
ATOM     45  C23 0QY d   1      21.684   1.822   8.963  0.00  0.00    -0.081 A 
ATOM     46  H21 0QY d   1      21.003   0.695   7.165  0.00  0.00     0.086 H 
ATOM     47  C24 0QY d   1      22.706   1.929   9.997  0.00  0.00    -0.082 A 
ATOM     48  H22 0QY d   1      20.857   2.522   8.951  0.00  0.00     0.083 H 
ATOM     49  C25 0QY d   1      23.833   0.973  10.016  0.00  0.00    -0.070 A 
ATOM     50  H23 0QY d   1      22.640   2.707  10.749  0.00  0.00     0.083 H 
ATOM     51  H24 0QY d   1      24.596   1.045  10.782  0.00  0.00     0.084 H 
ENDBRANCH  34  37
ENDBRANCH   8  34
TORSDOF 4
