REMARK  26 active torsions:
REMARK  status: ('A' for Active; 'I' for Inactive)
REMARK    1  A    between atoms: C_1  and  CH_3 
REMARK       I    between atoms: C_1  and  N_26 
REMARK    2  A    between atoms: CH_3  and  ACM_4 
REMARK    3  A    between atoms: CH_3  and  BCM_15 
REMARK    4  A    between atoms: ACM_4  and  AC1_5 
REMARK    5  A    between atoms: BCM_15  and  BC1_16 
REMARK    6  A    between atoms: N_26  and  CA_27 
REMARK    7  A    between atoms: CA_27  and  CB_30 
REMARK    8  A    between atoms: CA_27  and  C_28 
REMARK       I    between atoms: C_28  and  N_36 
REMARK    9  A    between atoms: CB_30  and  CG_31 
REMARK   10  A    between atoms: N_36  and  CA_37 
REMARK   11  A    between atoms: CA_37  and  CB_38 
REMARK   12  A    between atoms: CA_37  and  CH_45 
REMARK   13  A    between atoms: CB_38  and  CG_39 
REMARK   14  A    between atoms: CH_45  and  OH_46 
REMARK   15  A    between atoms: CH_45  and  CM_47 
REMARK   16  A    between atoms: CM_47  and  CA2_48 
REMARK   17  A    between atoms: CA2_48  and  CB2_49 
REMARK   18  A    between atoms: CA2_48  and  C_53 
REMARK   19  A    between atoms: CB2_49  and  CG2_50 
REMARK   20  A    between atoms: CG2_50  and  CD3_51 
REMARK   21  A    between atoms: CG2_50  and  CD4_52 
REMARK       I    between atoms: C_53  and  N_55 
REMARK   22  A    between atoms: N_55  and  CA_56 
REMARK   23  A    between atoms: CA_56  and  CB_57 
REMARK   24  A    between atoms: CB_57  and  CG1_58 
REMARK   25  A    between atoms: CB_57  and  CG2_59 
REMARK   26  A    between atoms: CG1_58  and  CD1_60 
ROOT
ATOM      1  CA  0ZP d   1       5.022  33.460  14.639  0.00  0.00     0.037 C 
ATOM      2  H28 0ZP d   1       4.792  34.261  15.357  0.00  0.00     0.076 H 
ENDROOT
BRANCH   1   3
ATOM      3  N   0ZP d   1       4.192  32.285  14.939  0.00  0.00    -0.352 N 
ATOM      4  C   0ZP d   1       3.218  32.271  15.734  0.00  0.00     0.241 C 
ATOM      5  O   0ZP d   1       2.784  33.300  16.281  0.00  0.00    -0.271 OA
ATOM      6  H27 0ZP d   1       4.420  31.429  14.474  0.00  0.00     0.163 HD
BRANCH   4   7
ATOM      7  CA  0ZP d   1       2.508  30.941  15.948  0.00  0.00     0.094 C 
ATOM      8  H21 0ZP d   1       2.659  30.225  15.127  0.00  0.00     0.088 H 
BRANCH   7   9
ATOM      9  N   0ZP d   1       2.988  30.347  17.199  0.00  0.00    -0.347 N 
ATOM     10  C   0ZP d   1       3.370  29.097  17.337  0.00  0.00     0.223 C 
ATOM     11  O   0ZP d   1       3.222  28.159  16.536  0.00  0.00    -0.273 OA
ATOM     12  H20 0ZP d   1       3.028  30.936  18.006  0.00  0.00     0.163 HD
BRANCH  10  13
ATOM     13  CH  0ZP d   1       4.037  28.870  18.688  0.00  0.00     0.031 C 
ATOM     14  H1  0ZP d   1       3.617  29.552  19.442  0.00  0.00     0.055 H 
BRANCH  13  15
ATOM     15  ACM 0ZP d   1       3.869  27.485  19.145  0.00  0.00    -0.029 C 
ATOM     16  H2  0ZP d   1       4.469  27.323  20.052  0.00  0.00     0.041 H 
ATOM     17  H3  0ZP d   1       4.203  26.795  18.356  0.00  0.00     0.041 H 
BRANCH  15  18
ATOM     18  AC1 0ZP d   1       2.340  27.219  19.468  0.00  0.00    -0.046 A 
ATOM     19  AC2 0ZP d   1       1.479  28.320  19.573  0.00  0.00    -0.076 A 
ATOM     20  AC3 0ZP d   1       0.118  28.155  19.827  0.00  0.00    -0.082 A 
ATOM     21  H4  0ZP d   1       1.879  29.320  19.454  0.00  0.00     0.084 H 
ATOM     22  AC4 0ZP d   1      -0.412  26.881  19.977  0.00  0.00    -0.072 A 
ATOM     23  H5  0ZP d   1      -0.527  29.023  19.907  0.00  0.00     0.083 H 
ATOM     24  AC4 0ZP d   1       0.419  25.771  19.872  0.00  0.00    -0.025 A 
ATOM     25  H6  0ZP d   1      -1.470  26.752  20.175  0.00  0.00     0.084 H 
ATOM     26  AC5 0ZP d   1      -0.139  24.501  20.040  0.00  0.00    -0.072 A 
ATOM     27  AC8 0ZP d   1       1.788  25.927  19.615  0.00  0.00    -0.020 A 
ATOM     28  AC6 0ZP d   1       0.692  23.377  19.991  0.00  0.00    -0.082 A 
ATOM     29  H7  0ZP d   1      -1.204  24.388  20.206  0.00  0.00     0.084 H 
ATOM     30  AC7 0ZP d   1       2.061  23.523  19.734  0.00  0.00    -0.082 A 
ATOM     31  H8  0ZP d   1       0.275  22.390  20.152  0.00  0.00     0.083 H 
ATOM     32  AC8 0ZP d   1       2.609  24.797  19.537  0.00  0.00    -0.072 A 
ATOM     33  H9  0ZP d   1       2.698  22.648  19.687  0.00  0.00     0.083 H 
ATOM     34  H10 0ZP d   1       3.666  24.907  19.325  0.00  0.00     0.084 H 
ENDBRANCH  15  18
ENDBRANCH  13  15
BRANCH  13  35
ATOM     35  BCM 0ZP d   1       5.531  29.186  18.444  0.00  0.00    -0.029 C 
ATOM     36  H11 0ZP d   1       5.659  30.278  18.462  0.00  0.00     0.041 H 
ATOM     37  H12 0ZP d   1       5.806  28.801  17.451  0.00  0.00     0.041 H 
BRANCH  35  38
ATOM     38  BC1 0ZP d   1       6.480  28.580  19.469  0.00  0.00    -0.046 A 
ATOM     39  BC2 0ZP d   1       7.010  27.313  19.199  0.00  0.00    -0.076 A 
ATOM     40  BC3 0ZP d   1       7.872  26.712  20.096  0.00  0.00    -0.082 A 
ATOM     41  H13 0ZP d   1       6.743  26.801  18.282  0.00  0.00     0.084 H 
ATOM     42  BC4 0ZP d   1       8.206  27.368  21.259  0.00  0.00    -0.072 A 
ATOM     43  H14 0ZP d   1       8.282  25.731  19.885  0.00  0.00     0.083 H 
ATOM     44  BC4 0ZP d   1       7.701  28.638  21.559  0.00  0.00    -0.025 A 
ATOM     45  H15 0ZP d   1       8.878  26.888  21.961  0.00  0.00     0.084 H 
ATOM     46  BC5 0ZP d   1       8.017  29.346  22.746  0.00  0.00    -0.072 A 
ATOM     47  BC8 0ZP d   1       6.793  29.329  20.646  0.00  0.00    -0.020 A 
ATOM     48  BC6 0ZP d   1       7.460  30.629  22.963  0.00  0.00    -0.082 A 
ATOM     49  H16 0ZP d   1       8.681  28.908  23.482  0.00  0.00     0.084 H 
ATOM     50  BC7 0ZP d   1       6.628  31.225  22.083  0.00  0.00    -0.082 A 
ATOM     51  H17 0ZP d   1       7.713  31.156  23.876  0.00  0.00     0.083 H 
ATOM     52  BC8 0ZP d   1       6.281  30.584  20.910  0.00  0.00    -0.072 A 
ATOM     53  H18 0ZP d   1       6.231  32.210  22.298  0.00  0.00     0.083 H 
ATOM     54  H19 0ZP d   1       5.613  31.062  20.203  0.00  0.00     0.084 H 
ENDBRANCH  35  38
ENDBRANCH  13  35
ENDBRANCH  10  13
ENDBRANCH   7   9
BRANCH   7  55
ATOM     55  CB  0ZP d   1       1.101  31.517  15.936  0.00  0.00     0.002 C 
ATOM     56  H22 0ZP d   1       0.934  31.891  14.915  0.00  0.00     0.046 H 
ATOM     57  H23 0ZP d   1       1.113  32.363  16.639  0.00  0.00     0.046 H 
BRANCH  55  58
ATOM     58  CG  0ZP d   1      -0.129  30.694  16.288  0.00  0.00     0.030 A 
ATOM     59  ND1 0ZP d   1      -0.124  29.373  16.738  0.00  0.00    -0.353 N 
ATOM     60  CE1 0ZP d   1      -1.399  29.036  16.976  0.00  0.00     0.063 A 
ATOM     61  H24 0ZP d   1       0.703  28.771  16.863  0.00  0.00     0.166 HD
ATOM     62  NE2 0ZP d   1      -2.175  30.067  16.693  0.00  0.00    -0.254 NA
ATOM     63  H26 0ZP d   1      -1.740  28.069  17.343  0.00  0.00     0.143 H 
ATOM     64  CD2 0ZP d   1      -1.415  31.107  16.255  0.00  0.00     0.025 A 
ATOM     65  H25 0ZP d   1      -1.774  32.085  15.938  0.00  0.00     0.117 H 
ENDBRANCH  55  58
ENDBRANCH   7  55
ENDBRANCH   4   7
ENDBRANCH   1   3
BRANCH   1  66
ATOM     66  CB  0ZP d   1       6.501  33.072  14.789  0.00  0.00    -0.041 C 
ATOM     67  H29 0ZP d   1       7.120  33.967  14.632  0.00  0.00     0.036 H 
ATOM     68  H30 0ZP d   1       6.748  32.317  14.028  0.00  0.00     0.036 H 
BRANCH  66  69
ATOM     69  CG  0ZP d   1       6.809  32.494  16.180  0.00  0.00    -0.052 C 
ATOM     70  CD1 0ZP d   1       6.655  33.618  17.219  0.00  0.00    -0.062 C 
ATOM     71  CE1 0ZP d   1       7.008  33.130  18.624  0.00  0.00    -0.065 C 
ATOM     72  H32 0ZP d   1       5.613  33.970  17.214  0.00  0.00     0.033 H 
ATOM     73  H33 0ZP d   1       7.324  34.449  16.950  0.00  0.00     0.033 H 
ATOM     74  CZ  0ZP d   1       8.413  32.552  18.616  0.00  0.00    -0.065 C 
ATOM     75  H36 0ZP d   1       6.293  32.354  18.934  0.00  0.00     0.033 H 
ATOM     76  H37 0ZP d   1       6.962  33.974  19.328  0.00  0.00     0.033 H 
ATOM     77  CE2 0ZP d   1       8.478  31.424  17.595  0.00  0.00    -0.065 C 
ATOM     78  H40 0ZP d   1       8.657  32.160  19.615  0.00  0.00     0.033 H 
ATOM     79  H41 0ZP d   1       9.134  33.337  18.344  0.00  0.00     0.033 H 
ATOM     80  CD2 0ZP d   1       8.110  31.945  16.197  0.00  0.00    -0.062 C 
ATOM     81  H38 0ZP d   1       9.499  31.014  17.572  0.00  0.00     0.033 H 
ATOM     82  H39 0ZP d   1       7.771  30.632  17.884  0.00  0.00     0.033 H 
ATOM     83  H34 0ZP d   1       8.831  32.722  15.903  0.00  0.00     0.033 H 
ATOM     84  H35 0ZP d   1       8.157  31.112  15.480  0.00  0.00     0.033 H 
ATOM     85  H31 0ZP d   1       6.088  31.695  16.409  0.00  0.00     0.040 H 
ENDBRANCH  66  69
ENDBRANCH   1  66
BRANCH   1  86
ATOM     86  CH  0ZP d   1       4.694  33.964  13.215  0.00  0.00     0.056 C 
ATOM     87  H42 0ZP d   1       5.110  34.974  13.080  0.00  0.00     0.086 H 
BRANCH  86  88
ATOM     88  OH  0ZP d   1       5.264  33.083  12.253  0.00  0.00    -0.393 OA
ATOM     89  H43 0ZP d   1       6.206  33.056  12.369  0.00  0.00     0.210 HD
ENDBRANCH  86  88
BRANCH  86  90
ATOM     90  CM  0ZP d   1       3.157  34.007  13.016  0.00  0.00    -0.028 C 
ATOM     91  H44 0ZP d   1       2.679  34.154  13.996  0.00  0.00     0.038 H 
ATOM     92  H45 0ZP d   1       2.830  33.048  12.589  0.00  0.00     0.038 H 
BRANCH  90  93
ATOM     93  CA2 0ZP d   1       2.727  35.109  12.103  0.00  0.00     0.026 C 
ATOM     94  H46 0ZP d   1       3.237  34.999  11.135  0.00  0.00     0.054 H 
BRANCH  93  95
ATOM     95  CB2 0ZP d   1       1.262  35.063  11.910  0.00  0.00    -0.051 C 
ATOM     96  H47 0ZP d   1       0.830  36.033  12.197  0.00  0.00     0.034 H 
ATOM     97  H48 0ZP d   1       0.840  34.271  12.546  0.00  0.00     0.034 H 
BRANCH  95  98
ATOM     98  CG2 0ZP d   1       0.913  34.772  10.447  0.00  0.00    -0.060 C 
ATOM     99  H49 0ZP d   1       1.669  35.234   9.795  0.00  0.00     0.038 H 
BRANCH  98 100
ATOM    100  CD3 0ZP d   1       0.889  33.261  10.209  0.00  0.00    -0.073 C 
ATOM    101  H50 0ZP d   1       0.638  33.059   9.157  0.00  0.00     0.028 H 
ATOM    102  H51 0ZP d   1       0.133  32.799  10.861  0.00  0.00     0.028 H 
ATOM    103  H52 0ZP d   1       1.878  32.838  10.437  0.00  0.00     0.028 H 
ENDBRANCH  98 100
BRANCH  98 104
ATOM    104  CD4 0ZP d   1      -0.468  35.346  10.113  0.00  0.00    -0.073 C 
ATOM    105  H53 0ZP d   1      -0.463  36.433  10.280  0.00  0.00     0.028 H 
ATOM    106  H54 0ZP d   1      -1.226  34.879  10.759  0.00  0.00     0.028 H 
ATOM    107  H55 0ZP d   1      -0.706  35.138   9.059  0.00  0.00     0.028 H 
ENDBRANCH  98 104
ENDBRANCH  95  98
ENDBRANCH  93  95
BRANCH  93 108
ATOM    108  C   0ZP d   1       3.012  36.282  12.629  0.00  0.00     0.221 C 
ATOM    109  O   0ZP d   1       2.512  36.623  13.709  0.00  0.00    -0.273 OA
ATOM    110  N   0ZP d   1       3.828  37.019  11.920  0.00  0.00    -0.360 N 
ATOM    111  H56 0ZP d   1       4.146  36.683  11.033  0.00  0.00     0.162 HD
BRANCH 110 112
ATOM    112  CA  0ZP d   1       4.282  38.315  12.394  0.00  0.00    -0.002 C 
ATOM    113  H57 0ZP d   1       5.373  38.381  12.268  0.00  0.00     0.064 H 
ATOM    114  H58 0ZP d   1       4.029  38.415  13.460  0.00  0.00     0.064 H 
BRANCH 112 115
ATOM    115  CB  0ZP d   1       3.626  39.446  11.622  0.00  0.00    -0.043 C 
ATOM    116  H59 0ZP d   1       4.264  39.661  10.752  0.00  0.00     0.041 H 
BRANCH 115 117
ATOM    117  CG1 0ZP d   1       3.491  40.715  12.461  0.00  0.00    -0.064 C 
ATOM    118  H60 0ZP d   1       3.709  40.467  13.510  0.00  0.00     0.033 H 
ATOM    119  H61 0ZP d   1       2.458  41.083  12.378  0.00  0.00     0.033 H 
BRANCH 117 120
ATOM    120  CD1 0ZP d   1       4.440  41.824  12.015  0.00  0.00    -0.076 C 
ATOM    121  H65 0ZP d   1       4.297  42.708  12.654  0.00  0.00     0.027 H 
ATOM    122  H66 0ZP d   1       4.228  42.089  10.969  0.00  0.00     0.027 H 
ATOM    123  H67 0ZP d   1       5.479  41.474  12.101  0.00  0.00     0.027 H 
ENDBRANCH 117 120
ENDBRANCH 115 117
BRANCH 115 124
ATOM    124  CG2 0ZP d   1       2.220  39.120  11.124  0.00  0.00    -0.071 C 
ATOM    125  H62 0ZP d   1       2.251  38.209  10.509  0.00  0.00     0.028 H 
ATOM    126  H63 0ZP d   1       1.842  39.958  10.520  0.00  0.00     0.028 H 
ATOM    127  H64 0ZP d   1       1.554  38.959  11.985  0.00  0.00     0.028 H 
ENDBRANCH 115 124
ENDBRANCH 112 115
ENDBRANCH 110 112
ENDBRANCH  93 108
ENDBRANCH  90  93
ENDBRANCH  86  90
ENDBRANCH   1  86
TORSDOF 26
