REMARK WARNING: 32 MAX_TORS EXCEEDED!!!
REMARK  35 active torsions:
REMARK  status: ('A' for Active; 'I' for Inactive)
REMARK    1  A    between atoms: CA_1  and  CB_2 
REMARK    2  A    between atoms: C_5  and  CA_1 
REMARK    3  A    between atoms: CB_2  and  CG1_3 
REMARK    4  A    between atoms: CB_2  and  CG2_4 
REMARK       I    between atoms: N_7  and  C_5 
REMARK    5  A    between atoms: CA_8  and  N_7 
REMARK    6  A    between atoms: CA_8  and  CB_11 
REMARK    7  A    between atoms: C_9  and  CA_8 
REMARK       I    between atoms: N_14  and  C_9 
REMARK    8  A    between atoms: CB_11  and  CG2_13 
REMARK    9  A    between atoms: CB_11  and  CG1_12 
REMARK   10  A    between atoms: CA_15  and  N_14 
REMARK   11  A    between atoms: CA_15  and  CB_18 
REMARK   12  A    between atoms: C_16  and  CA_15 
REMARK       I    between atoms: N_21  and  C_16 
REMARK   13  A    between atoms: CB_18  and  CG2_20 
REMARK   14  A    between atoms: CB_18  and  CG1_19 
REMARK   15  A    between atoms: CA_22  and  N_21 
REMARK   16  A    between atoms: CA_22  and  CB_23 
REMARK   17  A    between atoms: CH_27  and  CA_22 
REMARK   18  A    between atoms: CB_23  and  CG_24 
REMARK   19  A    between atoms: CG_24  and  CD1_25 
REMARK   20  A    between atoms: CG_24  and  CD2_26 
REMARK   21  A    between atoms: CH_27  and  OH_28 
REMARK   22  A    between atoms: CM_29  and  CH_27 
REMARK   23  A    between atoms: C_30  and  CM_29 
REMARK       I    between atoms: N_32  and  C_30 
REMARK   24  A    between atoms: N_32  and  CA_33 
REMARK   25  A    between atoms: CA_33  and  CB_36 
REMARK   26  A    between atoms: CA_33  and  C_34 
REMARK       I    between atoms: C_34  and  N_37 
REMARK   27  A    between atoms: N_37  and  CA_38 
REMARK   28  A    between atoms: CA_38  and  CB_39 
REMARK   29  A    between atoms: CA_38  and  CH_43 
REMARK   30  A    between atoms: CB_39  and  CG_40 
REMARK   31  A    between atoms: CG_40  and  CD1_41 
REMARK   32  A    between atoms: CG_40  and  CD2_42 
REMARK   33  A    between atoms: CH_43  and  OH_44 
REMARK   34  A    between atoms: CH_43  and  CM_45 
REMARK   35  A    between atoms: CM_45  and  C_46 
ROOT
ATOM      1  CA  STA d   1       5.125  33.313  14.652  0.00  0.00     0.037 C 
ATOM      2  H29 STA d   1       4.715  34.117  15.282  0.00  0.00     0.076 H 
ENDROOT
BRANCH   1   3
ATOM      3  N   STA d   1       4.255  32.095  14.820  0.00  0.00    -0.352 N 
ATOM      4  C   VAL d   1       3.256  32.125  15.704  0.00  0.00     0.241 C 
ATOM      5  O   VAL d   1       2.926  33.072  16.457  0.00  0.00    -0.271 OA
ATOM      6  H28 STA d   1       4.424  31.273  14.275  0.00  0.00     0.163 HD
BRANCH   4   7
ATOM      7  CA  VAL d   1       2.481  30.853  15.921  0.00  0.00     0.092 C 
ATOM      8  H20 VAL d   1       2.699  30.193  15.069  0.00  0.00     0.088 H 
BRANCH   7   9
ATOM      9  N   VAL d   1       2.942  30.174  17.136  0.00  0.00    -0.346 N 
ATOM     10  C   VAL d   1       3.462  28.964  17.234  0.00  0.00     0.241 C 
ATOM     11  O   VAL d   1       3.430  28.084  16.352  0.00  0.00    -0.271 OA
ATOM     12  H19 VAL d   1       2.852  30.687  17.990  0.00  0.00     0.163 HD
BRANCH  10  13
ATOM     13  CA  VAL d   1       3.896  28.553  18.647  0.00  0.00     0.092 C 
ATOM     14  H11 VAL d   1       3.420  29.265  19.337  0.00  0.00     0.088 H 
BRANCH  13  15
ATOM     15  N   VAL d   1       3.391  27.213  18.964  0.00  0.00    -0.347 N 
ATOM     16  C   IVA d   1       3.027  26.836  20.171  0.00  0.00     0.218 C 
ATOM     17  O   IVA d   1       2.898  27.536  21.154  0.00  0.00    -0.274 OA
ATOM     18  H10 VAL d   1       3.319  26.548  18.221  0.00  0.00     0.163 HD
BRANCH  16  19
ATOM     19  CA  IVA d   1       2.860  25.327  20.093  0.00  0.00     0.012 C 
ATOM     20  H1  IVA d   1       2.985  25.008  19.048  0.00  0.00     0.047 H 
ATOM     21  H2  IVA d   1       3.630  24.850  20.717  0.00  0.00     0.047 H 
BRANCH  19  22
ATOM     22  CB  IVA d   1       1.484  24.889  20.583  0.00  0.00    -0.053 C 
ATOM     23  H3  IVA d   1       1.358  25.335  21.580  0.00  0.00     0.039 H 
BRANCH  22  24
ATOM     24  CG1 IVA d   1       0.402  25.470  19.674  0.00  0.00    -0.073 C 
ATOM     25  H4  IVA d   1      -0.588  25.151  20.032  0.00  0.00     0.028 H 
ATOM     26  H5  IVA d   1       0.554  25.109  18.646  0.00  0.00     0.028 H 
ATOM     27  H6  IVA d   1       0.461  26.568  19.689  0.00  0.00     0.028 H 
ENDBRANCH  22  24
BRANCH  22  28
ATOM     28  CG2 IVA d   1       1.251  23.388  20.754  0.00  0.00    -0.073 C 
ATOM     29  H7  IVA d   1       2.029  22.968  21.408  0.00  0.00     0.028 H 
ATOM     30  H8  IVA d   1       1.294  22.896  19.771  0.00  0.00     0.028 H 
ATOM     31  H9  IVA d   1       0.262  23.220  21.206  0.00  0.00     0.028 H 
ENDBRANCH  22  28
ENDBRANCH  19  22
ENDBRANCH  16  19
ENDBRANCH  13  15
BRANCH  13  32
ATOM     32  CB  VAL d   1       5.381  28.599  18.935  0.00  0.00    -0.033 C 
ATOM     33  H12 VAL d   1       5.576  27.520  19.020  0.00  0.00     0.042 H 
BRANCH  32  34
ATOM     34  CG2 VAL d   1       5.885  29.065  20.308  0.00  0.00    -0.071 C 
ATOM     35  H16 VAL d   1       5.162  28.771  21.083  0.00  0.00     0.028 H 
ATOM     36  H17 VAL d   1       5.996  30.159  20.306  0.00  0.00     0.028 H 
ATOM     37  H18 VAL d   1       6.858  28.598  20.519  0.00  0.00     0.028 H 
ENDBRANCH  32  34
BRANCH  32  38
ATOM     38  CG1 VAL d   1       6.287  28.946  17.813  0.00  0.00    -0.071 C 
ATOM     39  H13 VAL d   1       7.328  28.941  18.168  0.00  0.00     0.028 H 
ATOM     40  H14 VAL d   1       6.034  29.947  17.433  0.00  0.00     0.028 H 
ATOM     41  H15 VAL d   1       6.171  28.208  17.006  0.00  0.00     0.028 H 
ENDBRANCH  32  38
ENDBRANCH  13  32
ENDBRANCH  10  13
ENDBRANCH   7   9
BRANCH   7  42
ATOM     42  CB  VAL d   1       0.960  31.060  15.949  0.00  0.00    -0.033 C 
ATOM     43  H21 VAL d   1       0.748  31.803  16.732  0.00  0.00     0.042 H 
BRANCH  42  44
ATOM     44  CG2 VAL d   1       0.176  29.794  16.325  0.00  0.00    -0.071 C 
ATOM     45  H25 VAL d   1       0.543  29.408  17.288  0.00  0.00     0.028 H 
ATOM     46  H26 VAL d   1       0.317  29.030  15.546  0.00  0.00     0.028 H 
ATOM     47  H27 VAL d   1      -0.893  30.037  16.411  0.00  0.00     0.028 H 
ENDBRANCH  42  44
BRANCH  42  48
ATOM     48  CG1 VAL d   1       0.503  31.663  14.607  0.00  0.00    -0.071 C 
ATOM     49  H22 VAL d   1      -0.587  31.812  14.624  0.00  0.00     0.028 H 
ATOM     50  H23 VAL d   1       0.766  30.977  13.788  0.00  0.00     0.028 H 
ATOM     51  H24 VAL d   1       1.003  32.630  14.450  0.00  0.00     0.028 H 
ENDBRANCH  42  48
ENDBRANCH   7  42
ENDBRANCH   4   7
ENDBRANCH   1   3
BRANCH   1  52
ATOM     52  CB  STA d   1       6.548  33.003  15.126  0.00  0.00    -0.041 C 
ATOM     53  H30 STA d   1       7.127  33.938  15.112  0.00  0.00     0.036 H 
ATOM     54  H31 STA d   1       6.996  32.284  14.425  0.00  0.00     0.036 H 
BRANCH  52  55
ATOM     55  CG  STA d   1       6.625  32.421  16.511  0.00  0.00    -0.059 C 
ATOM     56  H32 STA d   1       5.911  31.587  16.570  0.00  0.00     0.038 H 
BRANCH  55  57
ATOM     57  CD1 STA d   1       8.008  31.947  16.933  0.00  0.00    -0.073 C 
ATOM     58  H33 STA d   1       7.961  31.541  17.954  0.00  0.00     0.028 H 
ATOM     59  H34 STA d   1       8.710  32.794  16.908  0.00  0.00     0.028 H 
ATOM     60  H35 STA d   1       8.354  31.164  16.242  0.00  0.00     0.028 H 
ENDBRANCH  55  57
BRANCH  55  61
ATOM     61  CD2 STA d   1       6.284  33.564  17.669  0.00  0.00    -0.073 C 
ATOM     62  H36 STA d   1       5.290  33.995  17.477  0.00  0.00     0.028 H 
ATOM     63  H37 STA d   1       7.042  34.360  17.633  0.00  0.00     0.028 H 
ATOM     64  H38 STA d   1       6.294  33.093  18.663  0.00  0.00     0.028 H 
ENDBRANCH  55  61
ENDBRANCH  52  55
ENDBRANCH   1  52
BRANCH   1  65
ATOM     65  CH  STA d   1       5.142  33.802  13.220  0.00  0.00     0.063 C 
ATOM     66  H39 STA d   1       5.808  34.674  13.147  0.00  0.00     0.086 H 
BRANCH  65  67
ATOM     67  OH  STA d   1       5.607  32.744  12.363  0.00  0.00    -0.393 OA
ATOM     68  H40 STA d   1       6.484  32.489  12.624  0.00  0.00     0.210 HD
ENDBRANCH  65  67
BRANCH  65  69
ATOM     69  CM  STA d   1       3.737  34.178  12.708  0.00  0.00     0.035 C 
ATOM     70  H41 STA d   1       2.992  33.504  13.156  0.00  0.00     0.051 H 
ATOM     71  H42 STA d   1       3.708  34.079  11.613  0.00  0.00     0.051 H 
BRANCH  69  72
ATOM     72  C   STA d   1       3.414  35.630  13.099  0.00  0.00     0.220 C 
ATOM     73  O   STA d   1       2.825  35.709  14.154  0.00  0.00    -0.274 OA
ATOM     74  N   ALA d   1       3.763  36.675  12.430  0.00  0.00    -0.348 N 
ATOM     75  H43 ALA d   1       4.344  36.532  11.628  0.00  0.00     0.163 HD
BRANCH  74  76
ATOM     76  CA  ALA d   1       3.379  38.064  12.746  0.00  0.00     0.086 C 
ATOM     77  H44 ALA d   1       3.553  38.275  13.811  0.00  0.00     0.086 H 
BRANCH  76  78
ATOM     78  CB  ALA d   1       4.226  38.965  11.866  0.00  0.00    -0.049 C 
ATOM     79  H45 ALA d   1       3.974  40.017  12.067  0.00  0.00     0.030 H 
ATOM     80  H46 ALA d   1       4.028  38.736  10.809  0.00  0.00     0.030 H 
ATOM     81  H47 ALA d   1       5.291  38.795  12.084  0.00  0.00     0.030 H 
ENDBRANCH  76  78
BRANCH  76  82
ATOM     82  C   ALA d   1       1.925  38.323  12.391  0.00  0.00     0.240 C 
ATOM     83  O   ALA d   1       1.758  38.923  11.356  0.00  0.00    -0.271 OA
ATOM     84  N   STA d   1       0.942  37.862  13.091  0.00  0.00    -0.352 N 
ATOM     85  H48 STA d   1       1.249  37.265  13.832  0.00  0.00     0.163 HD
BRANCH  84  86
ATOM     86  CA  STA d   1      -0.505  38.004  13.058  0.00  0.00     0.038 C 
ATOM     87  H49 STA d   1      -0.747  38.482  12.097  0.00  0.00     0.076 H 
BRANCH  86  88
ATOM     88  CB  STA d   1      -1.226  36.687  13.080  0.00  0.00    -0.041 C 
ATOM     89  H50 STA d   1      -2.215  36.829  12.620  0.00  0.00     0.036 H 
ATOM     90  H51 STA d   1      -1.351  36.381  14.129  0.00  0.00     0.036 H 
BRANCH  88  91
ATOM     91  CG  STA d   1      -0.515  35.565  12.340  0.00  0.00    -0.059 C 
ATOM     92  H52 STA d   1       0.531  35.526  12.677  0.00  0.00     0.038 H 
BRANCH  91  93
ATOM     93  CD1 STA d   1      -1.166  34.227  12.596  0.00  0.00    -0.073 C 
ATOM     94  H53 STA d   1      -0.624  33.444  12.045  0.00  0.00     0.028 H 
ATOM     95  H54 STA d   1      -2.212  34.257  12.257  0.00  0.00     0.028 H 
ATOM     96  H55 STA d   1      -1.136  34.005  13.673  0.00  0.00     0.028 H 
ENDBRANCH  91  93
BRANCH  91  97
ATOM     97  CD2 STA d   1      -0.558  35.846  10.773  0.00  0.00    -0.073 C 
ATOM     98  H56 STA d   1      -0.088  36.818  10.562  0.00  0.00     0.028 H 
ATOM     99  H57 STA d   1      -1.604  35.862  10.432  0.00  0.00     0.028 H 
ATOM    100  H58 STA d   1      -0.012  35.052  10.243  0.00  0.00     0.028 H 
ENDBRANCH  91  97
ENDBRANCH  88  91
ENDBRANCH  86  88
BRANCH  86 101
ATOM    101  CH  STA d   1      -1.040  38.933  14.164  0.00  0.00     0.064 C 
ATOM    102  H59 STA d   1      -2.126  39.044  14.025  0.00  0.00     0.086 H 
BRANCH 101 103
ATOM    103  OH  STA d   1      -0.803  38.355  15.441  0.00  0.00    -0.393 OA
ATOM    104  H60 STA d   1      -1.136  38.934  16.116  0.00  0.00     0.210 HD
ENDBRANCH 101 103
BRANCH 101 105
ATOM    105  CM  STA d   1      -0.412  40.305  14.093  0.00  0.00     0.041 C 
ATOM    106  H61 STA d   1      -0.645  40.744  13.111  0.00  0.00     0.053 H 
ATOM    107  H62 STA d   1       0.678  40.194  14.196  0.00  0.00     0.053 H 
BRANCH 105 108
ATOM    108  C   STA d   1      -0.900  41.252  15.168  0.00  0.00     0.175 C 
ATOM    109  O   STA d   1      -0.708  41.062  16.377  0.00  0.00    -0.648 OA
ATOM    110  OXT STA d   1      -1.507  42.340  14.719  0.00  0.00    -0.648 OA
ENDBRANCH 105 108
ENDBRANCH 101 105
ENDBRANCH  86 101
ENDBRANCH  84  86
ENDBRANCH  76  82
ENDBRANCH  74  76
ENDBRANCH  69  72
ENDBRANCH  65  69
ENDBRANCH   1  65
TORSDOF 35
