REMARK  11 active torsions:
REMARK  status: ('A' for Active; 'I' for Inactive)
REMARK    1  A    between atoms: C6_7  and  C2_8 
REMARK    2  A    between atoms: C4_10  and  C23_11 
REMARK    3  A    between atoms: C4_10  and  C24_15 
REMARK    4  A    between atoms: C23_11  and  C25_12 
REMARK    5  A    between atoms: N1_18  and  C18_19 
REMARK    6  A    between atoms: C18_19  and  C19_20 
REMARK    7  A    between atoms: C18_19  and  C20_22 
REMARK    8  A    between atoms: C19_20  and  C22_21 
REMARK    9  A    between atoms: C20_22  and  O4_23 
REMARK   10  A    between atoms: C20_22  and  C21_24 
REMARK   11  A    between atoms: C1_25  and  C7_26 
ROOT
ATOM      1  C2  0R3 d   1     -15.397   0.334 -15.973  0.00  0.00    -0.004 C 
ATOM      2  C3  0R3 d   1     -15.880  -1.036 -15.596  0.00  0.00    -0.040 C 
ATOM      3  C4  0R3 d   1     -14.753  -2.062 -15.465  0.00  0.00     0.047 C 
ATOM      4  C5  0R3 d   1     -13.738  -1.948 -16.620  0.00  0.00     0.229 C 
ATOM      5  O1  0R3 d   1     -12.871  -2.814 -16.678  0.00  0.00    -0.272 OA
ATOM      6  N1  0R3 d   1     -13.824  -0.913 -17.536  0.00  0.00    -0.335 N 
ATOM      7  C1  0R3 d   1     -14.626   0.329 -17.308  0.00  0.00     0.048 C 
ATOM      8  H5  0R3 d   1     -14.649   0.601 -15.212  0.00  0.00     0.051 H 
ATOM      9  H6  0R3 d   1     -16.580  -1.384 -16.369  0.00  0.00     0.035 H 
ATOM     10  H7  0R3 d   1     -16.404  -0.968 -14.631  0.00  0.00     0.035 H 
ATOM     11  H24 0R3 d   1     -15.403   0.292 -18.086  0.00  0.00     0.081 H 
ENDROOT
BRANCH   6  12
ATOM     12  C18 0R3 d   1     -13.089  -1.035 -18.789  0.00  0.00     0.039 C 
ATOM     13  H13 0R3 d   1     -13.198  -0.083 -19.330  0.00  0.00     0.076 H 
BRANCH  12  14
ATOM     14  C19 0R3 d   1     -11.578  -1.209 -18.488  0.00  0.00    -0.047 C 
ATOM     15  H14 0R3 d   1     -11.237  -2.143 -18.957  0.00  0.00     0.035 H 
ATOM     16  H15 0R3 d   1     -11.447  -1.277 -17.398  0.00  0.00     0.035 H 
BRANCH  14  17
ATOM     17  C22 0R3 d   1     -10.699  -0.052 -19.012  0.00  0.00    -0.075 C 
ATOM     18  H16 0R3 d   1      -9.646  -0.248 -18.761  0.00  0.00     0.027 H 
ATOM     19  H17 0R3 d   1     -11.018   0.891 -18.545  0.00  0.00     0.027 H 
ATOM     20  H18 0R3 d   1     -10.807   0.025 -20.104  0.00  0.00     0.027 H 
ENDBRANCH  14  17
ENDBRANCH  12  14
BRANCH  12  21
ATOM     21  C20 0R3 d   1     -13.699  -2.123 -19.695  0.00  0.00     0.052 C 
ATOM     22  H19 0R3 d   1     -13.219  -3.087 -19.471  0.00  0.00     0.085 H 
BRANCH  21  23
ATOM     23  O4  0R3 d   1     -15.109  -2.228 -19.542  0.00  0.00    -0.394 OA
ATOM     24  H20 0R3 d   1     -15.513  -1.398 -19.766  0.00  0.00     0.210 HD
ENDBRANCH  21  23
BRANCH  21  25
ATOM     25  C21 0R3 d   1     -13.513  -1.757 -21.156  0.00  0.00    -0.051 C 
ATOM     26  H21 0R3 d   1     -13.953  -2.542 -21.789  0.00  0.00     0.031 H 
ATOM     27  H22 0R3 d   1     -12.439  -1.666 -21.377  0.00  0.00     0.031 H 
ATOM     28  H23 0R3 d   1     -14.012  -0.798 -21.360  0.00  0.00     0.031 H 
ENDBRANCH  21  25
ENDBRANCH  12  21
ENDBRANCH   6  12
BRANCH   7  29
ATOM     29  C7  0R3 d   1     -13.915   1.646 -17.545  0.00  0.00    -0.035 A 
ATOM     30  C8  0R3 d   1     -12.798   2.051 -16.761  0.00  0.00    -0.073 A 
ATOM     31  C9  0R3 d   1     -12.212   3.299 -17.007  0.00  0.00    -0.061 A 
ATOM     32  H25 0R3 d   1     -12.407   1.403 -15.985  0.00  0.00     0.084 H 
ATOM     33  C10 0R3 d   1     -12.723   4.144 -18.013  0.00  0.00     0.034 A 
ATOM     34  H26 0R3 d   1     -11.359   3.618 -16.419  0.00  0.00     0.086 H 
ATOM     35 CL1  0R3 d   1     -12.014   5.691 -18.235  0.00  0.00    -0.084 Cl
ATOM     36  C11 0R3 d   1     -13.814   3.772 -18.800  0.00  0.00    -0.061 A 
ATOM     37  C12 0R3 d   1     -14.412   2.510 -18.564  0.00  0.00    -0.073 A 
ATOM     38  H27 0R3 d   1     -14.194   4.432 -19.572  0.00  0.00     0.086 H 
ATOM     39  H28 0R3 d   1     -15.258   2.197 -19.166  0.00  0.00     0.084 H 
ENDBRANCH   7  29
BRANCH   3  40
ATOM     40  C23 0R3 d   1     -13.935  -1.946 -14.161  0.00  0.00     0.030 C 
ATOM     41  H8  0R3 d   1     -13.501  -0.937 -14.105  0.00  0.00     0.051 H 
ATOM     42  H9  0R3 d   1     -13.127  -2.692 -14.183  0.00  0.00     0.051 H 
BRANCH  40  43
ATOM     43  C25 0R3 d   1     -14.789  -2.183 -12.914  0.00  0.00     0.173 C 
ATOM     44  O3  0R3 d   1     -15.526  -1.363 -12.431  0.00  0.00    -0.648 OA
ATOM     45  O2  0R3 d   1     -14.635  -3.451 -12.385  0.00  0.00    -0.648 OA
ENDBRANCH  40  43
ENDBRANCH   3  40
BRANCH   3  46
ATOM     46  C24 0R3 d   1     -15.394  -3.436 -15.569  0.00  0.00    -0.060 C 
ATOM     47  H10 0R3 d   1     -15.972  -3.501 -16.503  0.00  0.00     0.029 H 
ATOM     48  H11 0R3 d   1     -16.064  -3.594 -14.711  0.00  0.00     0.029 H 
ATOM     49  H12 0R3 d   1     -14.610  -4.207 -15.569  0.00  0.00     0.029 H 
ENDBRANCH   3  46
BRANCH   1  50
ATOM     50  C6  0R3 d   1     -16.478   1.405 -15.854  0.00  0.00    -0.050 A 
ATOM     51  C17 0R3 d   1     -16.200   2.578 -15.127  0.00  0.00    -0.055 A 
ATOM     52  C16 0R3 d   1     -17.131   3.598 -15.079  0.00  0.00     0.034 A 
ATOM     53  H1  0R3 d   1     -15.256   2.681 -14.605  0.00  0.00     0.086 H 
ATOM     54 CL2  0R3 d   1     -16.658   5.013 -14.276  0.00  0.00    -0.084 Cl
ATOM     55  C15 0R3 d   1     -18.354   3.498 -15.715  0.00  0.00    -0.062 A 
ATOM     56  C14 0R3 d   1     -18.669   2.329 -16.445  0.00  0.00    -0.081 A 
ATOM     57  H2  0R3 d   1     -19.068   4.311 -15.654  0.00  0.00     0.086 H 
ATOM     58  C13 0R3 d   1     -17.727   1.286 -16.512  0.00  0.00    -0.076 A 
ATOM     59  H3  0R3 d   1     -19.625   2.237 -16.947  0.00  0.00     0.083 H 
ATOM     60  H4  0R3 d   1     -17.958   0.386 -17.070  0.00  0.00     0.084 H 
ENDBRANCH   1  50
TORSDOF 11
