REMARK  6 active torsions:
REMARK  status: ('A' for Active; 'I' for Inactive)
REMARK    1  A    between atoms: C2'_10  and  O2'_11 
REMARK    2  A    between atoms: C1'_12  and  N9_13 
REMARK    3  A    between atoms: C2_20  and  N2_21 
REMARK    4  A    between atoms: C2A_33  and  O2A_34 
REMARK    5  A    between atoms: C1A_35  and  N91_36 
REMARK    6  A    between atoms: C21_43  and  N21_44 
ROOT
ATOM      1  P1  C2E d   1      14.322  -1.977  -7.388  0.00  0.00     0.408 P 
ATOM      2  O2P C2E d   1      13.320  -1.567  -8.448  0.00  0.00    -0.624 OA
ATOM      3  O1P C2E d   1      13.996  -3.172  -6.524  0.00  0.00    -0.624 OA
ATOM      4  O5' C2E d   1      14.663  -0.809  -6.383  0.00  0.00    -0.287 OA
ATOM      5  C5' C2E d   1      15.026   0.513  -6.803  0.00  0.00     0.058 C 
ATOM      6  C4' C2E d   1      15.494   1.330  -5.599  0.00  0.00     0.090 C 
ATOM      7  O4' C2E d   1      14.450   1.388  -4.640  0.00  0.00    -0.353 OA
ATOM      8  C3' C2E d   1      16.640   0.697  -4.806  0.00  0.00     0.106 C 
ATOM      9  O3' C2E d   1      17.936   0.983  -5.305  0.00  0.00    -0.279 OA
ATOM     10  C2' C2E d   1      16.480   1.210  -3.396  0.00  0.00     0.106 C 
ATOM     11  C1' C2E d   1      14.981   1.384  -3.291  0.00  0.00     0.140 C 
ATOM     12  P11 C2E d   1      19.122  -0.092  -5.119  0.00  0.00     0.408 P 
ATOM     13  O21 C2E d   1      20.362   0.577  -5.655  0.00  0.00    -0.624 OA
ATOM     14  O11 C2E d   1      19.167  -0.589  -3.695  0.00  0.00    -0.624 OA
ATOM     15  O5A C2E d   1      18.692  -1.256  -6.108  0.00  0.00    -0.287 OA
ATOM     16  C5A C2E d   1      18.684  -1.069  -7.508  0.00  0.00     0.058 C 
ATOM     17  C4A C2E d   1      18.161  -2.354  -8.098  0.00  0.00     0.090 C 
ATOM     18  O4A C2E d   1      19.031  -3.401  -7.676  0.00  0.00    -0.353 OA
ATOM     19  C3A C2E d   1      16.827  -2.770  -7.524  0.00  0.00     0.106 C 
ATOM     20  O3A C2E d   1      15.706  -2.216  -8.183  0.00  0.00    -0.279 OA
ATOM     21  C2A C2E d   1      16.826  -4.267  -7.683  0.00  0.00     0.106 C 
ATOM     22  C1A C2E d   1      18.276  -4.604  -7.454  0.00  0.00     0.140 C 
ATOM     23  H1  C2E d   1      14.154   1.003  -7.260  0.00  0.00     0.079 H 
ATOM     24  H2  C2E d   1      15.840   0.451  -7.540  0.00  0.00     0.079 H 
ATOM     25  H3  C2E d   1      15.779   2.336  -5.940  0.00  0.00     0.090 H 
ATOM     26  H4  C2E d   1      16.514  -0.396  -4.815  0.00  0.00     0.092 H 
ATOM     27  H5  C2E d   1      16.845   0.477  -2.662  0.00  0.00     0.093 H 
ATOM     28  H7  C2E d   1      14.725   2.309  -2.753  0.00  0.00     0.122 H 
ATOM     29  H12 C2E d   1      19.702  -0.868  -7.872  0.00  0.00     0.079 H 
ATOM     30  H13 C2E d   1      18.026  -0.230  -7.777  0.00  0.00     0.079 H 
ATOM     31  H14 C2E d   1      18.110  -2.273  -9.194  0.00  0.00     0.090 H 
ATOM     32  H15 C2E d   1      16.778  -2.493  -6.461  0.00  0.00     0.092 H 
ATOM     33  H16 C2E d   1      16.162  -4.750  -6.951  0.00  0.00     0.093 H 
ATOM     34  H18 C2E d   1      18.611  -5.411  -8.122  0.00  0.00     0.122 H 
ENDROOT
BRANCH  11  35
ATOM     35  N9  C2E d   1      14.409   0.184  -2.611  0.00  0.00    -0.293 N 
ATOM     36  C8  C2E d   1      13.657  -0.729  -3.236  0.00  0.00     0.071 A 
ATOM     37  N7  C2E d   1      13.225  -1.687  -2.414  0.00  0.00    -0.235 NA
ATOM     38  H8  C2E d   1      13.423  -0.694  -4.299  0.00  0.00     0.144 H 
ATOM     39  C5  C2E d   1      13.737  -1.406  -1.190  0.00  0.00     0.159 A 
ATOM     40  C6  C2E d   1      13.695  -2.016   0.157  0.00  0.00     0.226 A 
ATOM     41  C4  C2E d   1      14.525  -0.156  -1.321  0.00  0.00     0.185 A 
ATOM     42  O6  C2E d   1      13.007  -3.163   0.429  0.00  0.00    -0.169 OA
ATOM     43  N1  C2E d   1      14.363  -1.382   1.158  0.00  0.00    -0.164 N 
ATOM     44  C2  C2E d   1      15.096  -0.236   0.977  0.00  0.00     0.702 A 
ATOM     45  H9  C2E d   1      14.317  -1.773   2.077  0.00  0.00     0.186 HD
ATOM     46  N3  C2E d   1      15.165   0.385  -0.225  0.00  0.00    -0.044 NA
BRANCH  44  47
ATOM     47  N2  C2E d   1      15.726   0.300   2.041  0.00  0.00    -0.233 N 
ATOM     48  H10 C2E d   1      16.282   1.160   1.931  0.00  0.00     0.174 HD
ATOM     49  H11 C2E d   1      15.651  -0.150   2.964  0.00  0.00     0.174 HD
ENDBRANCH  44  47
ENDBRANCH  11  35
BRANCH  10  50
ATOM     50  O2' C2E d   1      17.177   2.445  -3.215  0.00  0.00    -0.388 OA
ATOM     51  H6  C2E d   1      18.102   2.314  -3.388  0.00  0.00     0.210 HD
ENDBRANCH  10  50
BRANCH  21  52
ATOM     52  O2A C2E d   1      16.485  -4.673  -8.999  0.00  0.00    -0.388 OA
ATOM     53  H17 C2E d   1      15.616  -4.355  -9.212  0.00  0.00     0.210 HD
ENDBRANCH  21  52
BRANCH  22  54
ATOM     54  N91 C2E d   1      18.413  -4.994  -6.041  0.00  0.00    -0.293 N 
ATOM     55  C81 C2E d   1      18.918  -4.208  -5.069  0.00  0.00     0.071 A 
ATOM     56  N71 C2E d   1      18.910  -4.860  -3.877  0.00  0.00    -0.235 NA
ATOM     57  H19 C2E d   1      19.282  -3.192  -5.218  0.00  0.00     0.144 H 
ATOM     58  C51 C2E d   1      18.365  -6.069  -4.101  0.00  0.00     0.159 A 
ATOM     59  C61 C2E d   1      18.070  -7.239  -3.264  0.00  0.00     0.226 A 
ATOM     60  C41 C2E d   1      18.029  -6.155  -5.507  0.00  0.00     0.185 A 
ATOM     61  O61 C2E d   1      18.385  -7.179  -1.959  0.00  0.00    -0.169 OA
ATOM     62  N11 C2E d   1      17.484  -8.311  -3.800  0.00  0.00    -0.164 N 
ATOM     63  C21 C2E d   1      17.191  -8.339  -5.131  0.00  0.00     0.702 A 
ATOM     64  H20 C2E d   1      17.259  -9.097  -3.224  0.00  0.00     0.186 HD
ATOM     65  N31 C2E d   1      17.452  -7.289  -5.955  0.00  0.00    -0.044 NA
BRANCH  63  66
ATOM     66  N21 C2E d   1      16.616  -9.452  -5.643  0.00  0.00    -0.233 N 
ATOM     67  H21 C2E d   1      16.385  -9.498  -6.646  0.00  0.00     0.174 HD
ATOM     68  H22 C2E d   1      16.409 -10.254  -5.030  0.00  0.00     0.174 HD
ENDBRANCH  63  66
ENDBRANCH  22  54
TORSDOF 6
