REMARK  6 active torsions:
REMARK  status: ('A' for Active; 'I' for Inactive)
REMARK    1  A    between atoms: C2'_10  and  O2'_11 
REMARK    2  A    between atoms: C1'_12  and  N9_13 
REMARK    3  A    between atoms: C2_20  and  N2_21 
REMARK    4  A    between atoms: C2A_33  and  O2A_34 
REMARK    5  A    between atoms: C1A_35  and  N91_36 
REMARK    6  A    between atoms: C21_43  and  N21_44 
ROOT
ATOM      1  P1  C2E d   1      17.208   3.367  13.676  0.00  0.00     0.408 P 
ATOM      2  O2P C2E d   1      18.585   2.798  13.941  0.00  0.00    -0.624 OA
ATOM      3  O1P C2E d   1      16.793   4.639  14.369  0.00  0.00    -0.624 OA
ATOM      4  O5' C2E d   1      16.108   2.250  13.977  0.00  0.00    -0.287 OA
ATOM      5  C5' C2E d   1      16.235   0.910  13.505  0.00  0.00     0.058 C 
ATOM      6  C4' C2E d   1      14.940   0.133  13.718  0.00  0.00     0.090 C 
ATOM      7  O4' C2E d   1      14.725  -0.099  15.120  0.00  0.00    -0.353 OA
ATOM      8  C3' C2E d   1      13.676   0.824  13.218  0.00  0.00     0.106 C 
ATOM      9  O3' C2E d   1      13.352   0.560  11.848  0.00  0.00    -0.279 OA
ATOM     10  C2' C2E d   1      12.619   0.241  14.120  0.00  0.00     0.106 C 
ATOM     11  C1' C2E d   1      13.349   0.099  15.438  0.00  0.00     0.140 C 
ATOM     12  P11 C2E d   1      12.496   1.637  11.010  0.00  0.00     0.408 P 
ATOM     13  O21 C2E d   1      12.179   1.056   9.641  0.00  0.00    -0.624 OA
ATOM     14  O11 C2E d   1      11.361   2.215  11.830  0.00  0.00    -0.624 OA
ATOM     15  O5A C2E d   1      13.579   2.795  10.769  0.00  0.00    -0.287 OA
ATOM     16  C5A C2E d   1      14.806   2.513  10.098  0.00  0.00     0.058 C 
ATOM     17  C4A C2E d   1      15.672   3.756  10.134  0.00  0.00     0.090 C 
ATOM     18  O4A C2E d   1      14.974   4.868   9.572  0.00  0.00    -0.353 OA
ATOM     19  C3A C2E d   1      15.976   4.194  11.552  0.00  0.00     0.106 C 
ATOM     20  O3A C2E d   1      17.111   3.544  12.084  0.00  0.00    -0.279 OA
ATOM     21  C2A C2E d   1      16.197   5.679  11.431  0.00  0.00     0.106 C 
ATOM     22  C1A C2E d   1      15.183   6.039  10.367  0.00  0.00     0.140 C 
ATOM     23  H1  C2E d   1      17.049   0.411  14.052  0.00  0.00     0.079 H 
ATOM     24  H2  C2E d   1      16.472   0.927  12.431  0.00  0.00     0.079 H 
ATOM     25  H3  C2E d   1      15.040  -0.831  13.197  0.00  0.00     0.090 H 
ATOM     26  H4  C2E d   1      13.759   1.912  13.356  0.00  0.00     0.092 H 
ATOM     27  H5  C2E d   1      11.726   0.879  14.194  0.00  0.00     0.093 H 
ATOM     28  H7  C2E d   1      12.958  -0.765  15.996  0.00  0.00     0.122 H 
ATOM     29  H12 C2E d   1      14.602   2.233   9.054  0.00  0.00     0.079 H 
ATOM     30  H13 C2E d   1      15.324   1.685  10.605  0.00  0.00     0.079 H 
ATOM     31  H14 C2E d   1      16.604   3.562   9.584  0.00  0.00     0.090 H 
ATOM     32  H15 C2E d   1      15.115   3.988  12.205  0.00  0.00     0.092 H 
ATOM     33  H16 C2E d   1      16.017   6.207  12.379  0.00  0.00     0.093 H 
ATOM     34  H18 C2E d   1      15.571   6.853   9.737  0.00  0.00     0.122 H 
ENDROOT
BRANCH  11  35
ATOM     35  N9  C2E d   1      13.194   1.333  16.260  0.00  0.00    -0.293 N 
ATOM     36  C8  C2E d   1      14.161   2.218  16.560  0.00  0.00     0.071 A 
ATOM     37  N7  C2E d   1      13.680   3.223  17.338  0.00  0.00    -0.235 NA
ATOM     38  H8  C2E d   1      15.194   2.140  16.224  0.00  0.00     0.144 H 
ATOM     39  C5  C2E d   1      12.378   2.955  17.544  0.00  0.00     0.159 A 
ATOM     40  C6  C2E d   1      11.269   3.601  18.262  0.00  0.00     0.226 A 
ATOM     41  C4  C2E d   1      12.053   1.712  16.824  0.00  0.00     0.185 A 
ATOM     42  O6  C2E d   1      11.486   4.749  18.939  0.00  0.00    -0.169 OA
ATOM     43  N1  C2E d   1      10.050   3.016  18.231  0.00  0.00    -0.164 N 
ATOM     44  C2  C2E d   1       9.800   1.868  17.544  0.00  0.00     0.702 A 
ATOM     45  H9  C2E d   1       9.300   3.445  18.734  0.00  0.00     0.186 HD
ATOM     46  N3  C2E d   1      10.781   1.220  16.855  0.00  0.00    -0.044 NA
BRANCH  44  47
ATOM     47  N2  C2E d   1       8.544   1.371  17.567  0.00  0.00    -0.233 N 
ATOM     48  H10 C2E d   1       8.324   0.504  17.057  0.00  0.00     0.174 HD
ATOM     49  H11 C2E d   1       7.806   1.859  18.095  0.00  0.00     0.174 HD
ENDBRANCH  44  47
ENDBRANCH  11  35
BRANCH  10  50
ATOM     50  O2' C2E d   1      12.292  -1.072  13.654  0.00  0.00    -0.388 OA
ATOM     51  H6  C2E d   1      11.964  -1.018  12.764  0.00  0.00     0.210 HD
ENDBRANCH  10  50
BRANCH  21  52
ATOM     52  O2A C2E d   1      17.520   5.949  10.946  0.00  0.00    -0.388 OA
ATOM     53  H17 C2E d   1      18.158   5.589  11.551  0.00  0.00     0.210 HD
ENDBRANCH  21  52
BRANCH  22  54
ATOM     54  N91 C2E d   1      13.913   6.478  11.008  0.00  0.00    -0.293 N 
ATOM     55  C81 C2E d   1      12.759   5.789  11.085  0.00  0.00     0.071 A 
ATOM     56  N71 C2E d   1      11.799   6.502  11.729  0.00  0.00    -0.235 NA
ATOM     57  H19 C2E d   1      12.614   4.788  10.682  0.00  0.00     0.144 H 
ATOM     58  C51 C2E d   1      12.348   7.681  12.080  0.00  0.00     0.159 A 
ATOM     59  C61 C2E d   1      11.904   8.911  12.781  0.00  0.00     0.226 A 
ATOM     60  C41 C2E d   1      13.738   7.656  11.601  0.00  0.00     0.185 A 
ATOM     61  O61 C2E d   1      10.639   9.034  13.259  0.00  0.00    -0.169 OA
ATOM     62  N11 C2E d   1      12.797   9.914  12.938  0.00  0.00    -0.164 N 
ATOM     63  C21 C2E d   1      14.070   9.826  12.475  0.00  0.00     0.702 A 
ATOM     64  H20 C2E d   1      12.510  10.748  13.410  0.00  0.00     0.186 HD
ATOM     65  N31 C2E d   1      14.537   8.731  11.820  0.00  0.00    -0.044 NA
BRANCH  63  66
ATOM     66  N21 C2E d   1      14.911  10.873  12.667  0.00  0.00    -0.233 N 
ATOM     67  H21 C2E d   1      15.881  10.825  12.323  0.00  0.00     0.174 HD
ATOM     68  H22 C2E d   1      14.580  11.716  13.157  0.00  0.00     0.174 HD
ENDBRANCH  63  66
ENDBRANCH  22  54
TORSDOF 6
