REMARK  4 active torsions:
REMARK  status: ('A' for Active; 'I' for Inactive)
REMARK    1  A    between atoms: N_1  and  CA_2 
REMARK    2  A    between atoms: CA_2  and  CB_3 
REMARK    3  A    between atoms: CB_3  and  CG_4 
REMARK    4  A    between atoms: CG_4  and  CD_5 
ROOT
ATOM      1  CB  ABU d   1       6.417 -13.269   8.977  0.00  0.00    -0.034 C 
ATOM      2  H6  ABU d   1       6.425 -14.191   8.378  0.00  0.00     0.036 H 
ATOM      3  H7  ABU d   1       7.111 -12.539   8.535  0.00  0.00     0.036 H 
ENDROOT
BRANCH   1   4
ATOM      4  CA  ABU d   1       6.848 -13.582  10.389  0.00  0.00     0.080 C 
ATOM      5  H4  ABU d   1       6.810 -12.659  10.986  0.00  0.00     0.075 H 
ATOM      6  H5  ABU d   1       6.158 -14.324  10.816  0.00  0.00     0.075 H 
BRANCH   4   7
ATOM      7  N   ABU d   1       8.213 -14.121  10.433  0.00  0.00    -0.079 N 
ATOM      8  H1  ABU d   1       8.466 -14.318  11.389  0.00  0.00     0.274 HD
ATOM      9  H2  ABU d   1       8.854 -13.445  10.048  0.00  0.00     0.274 HD
ATOM     10  H3  ABU d   1       8.256 -14.971   9.892  0.00  0.00     0.274 HD
ENDBRANCH   4   7
ENDBRANCH   1   4
BRANCH   1  11
ATOM     11  CG  ABU d   1       5.040 -12.699   8.994  0.00  0.00     0.017 C 
ATOM     12  H8  ABU d   1       5.079 -11.736   9.524  0.00  0.00     0.049 H 
ATOM     13  H9  ABU d   1       4.393 -13.396   9.547  0.00  0.00     0.049 H 
BRANCH  11  14
ATOM     14  CD  ABU d   1       4.413 -12.458   7.637  0.00  0.00     0.172 C 
ATOM     15  OE1 ABU d   1       3.092 -12.305   7.589  0.00  0.00    -0.648 OA
ATOM     16  OE2 ABU d   1       5.090 -12.518   6.516  0.00  0.00    -0.648 OA
ENDBRANCH  11  14
ENDBRANCH   1  11
TORSDOF 4
