REMARK  14 active torsions:
REMARK  status: ('A' for Active; 'I' for Inactive)
REMARK    1  A    between atoms: CD_2  and  CG_4 
REMARK    2  A    between atoms: CG_4  and  CB_5 
REMARK    3  A    between atoms: CB_5  and  CA_6 
REMARK    4  A    between atoms: CA_6  and  C_7 
REMARK    5  A    between atoms: CA_6  and  N_10 
REMARK       I    between atoms: N_10  and  CAY_11 
REMARK    6  A    between atoms: CAY_11  and  CBB_13 
REMARK    7  A    between atoms: CBC_18  and  CBG_19 
REMARK    8  A    between atoms: CBG_19  and  SAV_20 
REMARK    9  A    between atoms: CBG_19  and  CAQ_22 
REMARK   10  A    between atoms: SAV_20  and  CAA_21 
REMARK   11  A    between atoms: CAQ_22  and  CAN_23 
REMARK   12  A    between atoms: CAN_23  and  CAP_24 
REMARK   13  A    between atoms: CAP_24  and  CBD_25 
REMARK   14  A    between atoms: CAZ_29  and  NAB_30 
ROOT
ATOM      1  CBG DXY d   1      -0.508  64.631  93.482  0.00  0.00     0.016 C 
ATOM      2  H11 DXY d   1      -1.371  65.311  93.423  0.00  0.00     0.064 H 
ENDROOT
BRANCH   1   3
ATOM      3  CBC DXY d   1       0.721  65.559  93.234  0.00  0.00    -0.044 A 
ATOM      4  CAM DXY d   1       2.064  65.215  93.121  0.00  0.00    -0.075 A 
ATOM      5  CAK DXY d   1       3.009  66.210  92.870  0.00  0.00    -0.067 A 
ATOM      6  H8  DXY d   1       2.374  64.182  93.227  0.00  0.00     0.084 H 
ATOM      7  CBB DXY d   1       2.640  67.546  92.712  0.00  0.00     0.032 A 
ATOM      8  H7  DXY d   1       4.056  65.938  92.796  0.00  0.00     0.085 H 
ATOM      9  CAJ DXY d   1       1.328  67.873  92.837  0.00  0.00    -0.067 A 
ATOM     10  CAL DXY d   1       0.389  66.897  93.084  0.00  0.00    -0.075 A 
ATOM     11  H9  DXY d   1       1.018  68.907  92.742  0.00  0.00     0.085 H 
ATOM     12  H10 DXY d   1      -0.653  67.186  93.165  0.00  0.00     0.084 H 
BRANCH   7  13
ATOM     13  CAY DXY d   1       3.549  68.709  92.429  0.00  0.00     0.252 C 
ATOM     14  N   DXY d   1       2.924  69.883  92.304  0.00  0.00    -0.342 N 
ATOM     15  H6  DXY d   1       1.933  69.929  92.428  0.00  0.00     0.163 HD
ATOM     16  OAF DXY d   1       4.754  68.577  92.238  0.00  0.00    -0.268 OA
BRANCH  14  17
ATOM     17  CA  DXY d   1       3.676  71.116  91.985  0.00  0.00     0.097 C 
ATOM     18  H5  DXY d   1       4.684  70.799  91.680  0.00  0.00     0.089 H 
BRANCH  17  19
ATOM     19  CB  DXY d   1       3.064  71.940  90.822  0.00  0.00    -0.028 C 
ATOM     20  H3  DXY d   1       2.581  72.828  91.255  0.00  0.00     0.037 H 
ATOM     21  H4  DXY d   1       3.886  72.254  90.162  0.00  0.00     0.037 H 
BRANCH  19  22
ATOM     22  CG  DXY d   1       2.014  71.203  89.956  0.00  0.00     0.018 C 
ATOM     23  H1  DXY d   1       2.536  70.524  89.265  0.00  0.00     0.049 H 
ATOM     24  H2  DXY d   1       1.355  70.620  90.616  0.00  0.00     0.049 H 
BRANCH  22  25
ATOM     25  CD  DXY d   1       1.137  72.207  89.118  0.00  0.00     0.172 C 
ATOM     26  OE1 DXY d   1       0.158  72.798  89.676  0.00  0.00    -0.648 OA
ATOM     27  OE2 DXY d   1       1.481  72.363  87.917  0.00  0.00    -0.648 OA
ENDBRANCH  22  25
ENDBRANCH  19  22
ENDBRANCH  17  19
BRANCH  17  28
ATOM     28  C   DXY d   1       3.821  72.066  93.176  0.00  0.00     0.196 C 
ATOM     29  OXT DXY d   1       2.963  72.044  94.070  0.00  0.00    -0.646 OA
ATOM     30  O   DXY d   1       4.790  72.846  93.142  0.00  0.00    -0.646 OA
ENDBRANCH  17  28
ENDBRANCH  14  17
ENDBRANCH   7  13
ENDBRANCH   1   3
BRANCH   1  31
ATOM     31  SAV DXY d   1      -0.754  63.438  92.095  0.00  0.00    -0.164 SA
BRANCH  31  32
ATOM     32  CAA DXY d   1       0.803  63.283  91.215  0.00  0.00    -0.034 C 
ATOM     33  H12 DXY d   1       0.684  62.576  90.381  0.00  0.00     0.041 H 
ATOM     34  H13 DXY d   1       1.577  62.912  91.903  0.00  0.00     0.041 H 
ATOM     35  H14 DXY d   1       1.102  64.266  90.822  0.00  0.00     0.041 H 
ENDBRANCH  31  32
ENDBRANCH   1  31
BRANCH   1  36
ATOM     36  CAQ DXY d   1      -0.646  63.985  94.888  0.00  0.00    -0.050 C 
ATOM     37  H15 DXY d   1       0.054  63.139  94.949  0.00  0.00     0.035 H 
ATOM     38  H16 DXY d   1      -1.677  63.617  94.999  0.00  0.00     0.035 H 
BRANCH  36  39
ATOM     39  CAN DXY d   1      -0.351  64.932  96.042  0.00  0.00    -0.063 C 
ATOM     40  H17 DXY d   1      -0.421  65.955  95.645  0.00  0.00     0.033 H 
ATOM     41  H18 DXY d   1       0.682  64.734  96.365  0.00  0.00     0.033 H 
BRANCH  39  42
ATOM     42  CAP DXY d   1      -1.252  64.875  97.324  0.00  0.00    -0.047 C 
ATOM     43  H19 DXY d   1      -1.449  63.833  97.617  0.00  0.00     0.034 H 
ATOM     44  H20 DXY d   1      -2.206  65.395  97.154  0.00  0.00     0.034 H 
BRANCH  42  45
ATOM     45  CBD DXY d   1      -0.436  65.582  98.377  0.00  0.00     0.080 A 
ATOM     46  CBE DXY d   1       0.341  64.882  99.291  0.00  0.00     0.247 A 
ATOM     47  OAG DXY d   1       0.358  63.656  99.336  0.00  0.00    -0.272 OA
ATOM     48  NAU DXY d   1       1.097  65.536 100.194  0.00  0.00    -0.159 N 
ATOM     49  CAZ DXY d   1       1.144  66.914 100.211  0.00  0.00     0.679 A 
ATOM     50  H22 DXY d   1       1.631  65.016 100.860  0.00  0.00     0.187 HD
ATOM     51  NAS DXY d   1       0.409  67.613  99.327  0.00  0.00    -0.180 N 
ATOM     52  CBA DXY d   1      -0.374  66.995  98.440  0.00  0.00     0.104 A 
ATOM     53  H25 DXY d   1       0.451  68.642  99.335  0.00  0.00     0.185 HD
ATOM     54  NAC DXY d   1      -1.074  67.734  97.567  0.00  0.00    -0.388 N 
ATOM     55  H26 DXY d   1      -1.030  68.762  97.611  0.00  0.00     0.157 HD
ATOM     56  H27 DXY d   1      -1.655  67.273  96.852  0.00  0.00     0.157 HD
ATOM     57  H21 DXY d   1      -1.297  65.566  99.061  0.00  0.00     0.066 H 
BRANCH  49  58
ATOM     58  NAB DXY d   1       1.920  67.479 101.101  0.00  0.00    -0.234 N 
ATOM     59  H23 DXY d   1       1.986  68.506 101.149  0.00  0.00     0.174 HD
ATOM     60  H24 DXY d   1       2.465  66.897 101.753  0.00  0.00     0.174 HD
ENDBRANCH  49  58
ENDBRANCH  42  45
ENDBRANCH  39  42
ENDBRANCH  36  39
ENDBRANCH   1  36
TORSDOF 14
