REMARK  14 active torsions:
REMARK  status: ('A' for Active; 'I' for Inactive)
REMARK    1  A    between atoms: CD_2  and  CG_4 
REMARK    2  A    between atoms: CG_4  and  CB_5 
REMARK    3  A    between atoms: CB_5  and  CA_6 
REMARK    4  A    between atoms: CA_6  and  C_7 
REMARK    5  A    between atoms: CA_6  and  N_10 
REMARK       I    between atoms: N_10  and  CAY_11 
REMARK    6  A    between atoms: CAY_11  and  CBB_13 
REMARK    7  A    between atoms: CBC_18  and  CBG_19 
REMARK    8  A    between atoms: CBG_19  and  SAV_20 
REMARK    9  A    between atoms: CBG_19  and  CAQ_22 
REMARK   10  A    between atoms: SAV_20  and  CAA_21 
REMARK   11  A    between atoms: CAQ_22  and  CAN_23 
REMARK   12  A    between atoms: CAN_23  and  CAP_24 
REMARK   13  A    between atoms: CAP_24  and  CBD_25 
REMARK   14  A    between atoms: CAZ_29  and  NAB_30 
ROOT
ATOM      1  CBG DXZ d   1      -0.037  64.220  93.968  0.00  0.00     0.016 C 
ATOM      2  H11 DXZ d   1       0.567  63.373  94.325  0.00  0.00     0.064 H 
ENDROOT
BRANCH   1   3
ATOM      3  CBC DXZ d   1       0.924  65.372  93.615  0.00  0.00    -0.044 A 
ATOM      4  CAM DXZ d   1       0.442  66.652  93.419  0.00  0.00    -0.075 A 
ATOM      5  CAK DXZ d   1       1.264  67.735  93.127  0.00  0.00    -0.067 A 
ATOM      6  H8  DXZ d   1      -0.626  66.820  93.496  0.00  0.00     0.084 H 
ATOM      7  CBB DXZ d   1       2.612  67.536  92.990  0.00  0.00     0.032 A 
ATOM      8  H7  DXZ d   1       0.842  68.727  93.009  0.00  0.00     0.085 H 
ATOM      9  CAJ DXZ d   1       3.114  66.262  93.195  0.00  0.00    -0.067 A 
ATOM     10  CAL DXZ d   1       2.292  65.180  93.500  0.00  0.00    -0.075 A 
ATOM     11  H9  DXZ d   1       4.183  66.101  93.115  0.00  0.00     0.085 H 
ATOM     12  H10 DXZ d   1       2.719  64.195  93.647  0.00  0.00     0.084 H 
BRANCH   7  13
ATOM     13  CAY DXZ d   1       3.512  68.694  92.663  0.00  0.00     0.252 C 
ATOM     14  N   DXZ d   1       2.914  69.868  92.554  0.00  0.00    -0.342 N 
ATOM     15  H6  DXZ d   1       1.926  69.937  92.689  0.00  0.00     0.163 HD
ATOM     16  OAF DXZ d   1       4.722  68.542  92.491  0.00  0.00    -0.268 OA
BRANCH  14  17
ATOM     17  CA  DXZ d   1       3.697  71.078  92.234  0.00  0.00     0.097 C 
ATOM     18  H5  DXZ d   1       4.707  70.743  91.954  0.00  0.00     0.089 H 
BRANCH  17  19
ATOM     19  CB  DXZ d   1       3.113  71.866  91.041  0.00  0.00    -0.028 C 
ATOM     20  H3  DXZ d   1       2.712  72.820  91.414  0.00  0.00     0.037 H 
ATOM     21  H4  DXZ d   1       3.922  72.064  90.323  0.00  0.00     0.037 H 
BRANCH  19  22
ATOM     22  CG  DXZ d   1       1.987  71.112  90.314  0.00  0.00     0.018 C 
ATOM     23  H1  DXZ d   1       2.441  70.368  89.643  0.00  0.00     0.049 H 
ATOM     24  H2  DXZ d   1       1.369  70.599  91.065  0.00  0.00     0.049 H 
BRANCH  22  25
ATOM     25  CD  DXZ d   1       1.058  72.055  89.461  0.00  0.00     0.172 C 
ATOM     26  OE1 DXZ d   1       1.385  72.172  88.249  0.00  0.00    -0.648 OA
ATOM     27  OE2 DXZ d   1       0.081  72.660  90.011  0.00  0.00    -0.648 OA
ENDBRANCH  22  25
ENDBRANCH  19  22
ENDBRANCH  17  19
BRANCH  17  28
ATOM     28  C   DXZ d   1       3.832  72.026  93.429  0.00  0.00     0.196 C 
ATOM     29  OXT DXZ d   1       2.937  72.028  94.292  0.00  0.00    -0.646 OA
ATOM     30  O   DXZ d   1       4.824  72.769  93.430  0.00  0.00    -0.646 OA
ENDBRANCH  17  28
ENDBRANCH  14  17
ENDBRANCH   7  13
ENDBRANCH   1   3
BRANCH   1  31
ATOM     31  SAV DXZ d   1      -0.962  63.680  92.475  0.00  0.00    -0.164 SA
BRANCH  31  32
ATOM     32  CAA DXZ d   1      -2.573  64.473  92.657  0.00  0.00    -0.034 C 
ATOM     33  H12 DXZ d   1      -3.211  64.209  91.801  0.00  0.00     0.041 H 
ATOM     34  H13 DXZ d   1      -2.442  65.565  92.693  0.00  0.00     0.041 H 
ATOM     35  H14 DXZ d   1      -3.048  64.129  93.588  0.00  0.00     0.041 H 
ENDBRANCH  31  32
ENDBRANCH   1  31
BRANCH   1  36
ATOM     36  CAQ DXZ d   1      -1.041  64.615  95.111  0.00  0.00    -0.050 C 
ATOM     37  H15 DXZ d   1      -1.877  63.900  95.114  0.00  0.00     0.035 H 
ATOM     38  H16 DXZ d   1      -1.425  65.627  94.914  0.00  0.00     0.035 H 
BRANCH  36  39
ATOM     39  CAN DXZ d   1      -0.375  64.599  96.478  0.00  0.00    -0.063 C 
ATOM     40  H17 DXZ d   1       0.408  65.371  96.480  0.00  0.00     0.033 H 
ATOM     41  H18 DXZ d   1       0.085  63.610  96.617  0.00  0.00     0.033 H 
BRANCH  39  42
ATOM     42  CAP DXZ d   1      -1.310  64.865  97.697  0.00  0.00    -0.047 C 
ATOM     43  H19 DXZ d   1      -1.672  63.916  98.120  0.00  0.00     0.034 H 
ATOM     44  H20 DXZ d   1      -2.168  65.484  97.397  0.00  0.00     0.034 H 
BRANCH  42  45
ATOM     45  CBD DXZ d   1      -0.447  65.602  98.703  0.00  0.00     0.080 A 
ATOM     46  CBE DXZ d   1       0.335  64.892  99.620  0.00  0.00     0.247 A 
ATOM     47  OAG DXZ d   1       0.320  63.662  99.664  0.00  0.00    -0.272 OA
ATOM     48  NAU DXZ d   1       1.122  65.559 100.511  0.00  0.00    -0.159 N 
ATOM     49  CAZ DXZ d   1       1.187  66.941 100.490  0.00  0.00     0.679 A 
ATOM     50  H22 DXZ d   1       1.655  65.046 101.184  0.00  0.00     0.187 HD
ATOM     51  NAS DXZ d   1       0.437  67.631  99.605  0.00  0.00    -0.180 N 
ATOM     52  CBA DXZ d   1      -0.360  67.003  98.722  0.00  0.00     0.104 A 
ATOM     53  H25 DXZ d   1       0.476  68.660  99.606  0.00  0.00     0.185 HD
ATOM     54  NAC DXZ d   1      -1.076  67.750  97.849  0.00  0.00    -0.388 N 
ATOM     55  H26 DXZ d   1      -1.005  68.777  97.871  0.00  0.00     0.157 HD
ATOM     56  H27 DXZ d   1      -1.692  67.291  97.163  0.00  0.00     0.157 HD
ATOM     57  H21 DXZ d   1      -1.289  65.630  99.411  0.00  0.00     0.066 H 
BRANCH  49  58
ATOM     58  NAB DXZ d   1       1.987  67.565 101.343  0.00  0.00    -0.234 N 
ATOM     59  H23 DXZ d   1       2.044  68.593 101.337  0.00  0.00     0.174 HD
ATOM     60  H24 DXZ d   1       2.551  67.022 102.011  0.00  0.00     0.174 HD
ENDBRANCH  49  58
ENDBRANCH  42  45
ENDBRANCH  39  42
ENDBRANCH  36  39
ENDBRANCH   1  36
TORSDOF 14
