REMARK  12 active torsions:
REMARK  status: ('A' for Active; 'I' for Inactive)
REMARK    1  A    between atoms: P_1  and  O5'_5 
REMARK    2  A    between atoms: O5'_5  and  C5'_6 
REMARK    3  A    between atoms: C5'_6  and  C4'_7 
REMARK    4  A    between atoms: C4'_7  and  O4'_8 
REMARK    5  A    between atoms: C4'_7  and  C3'_9 
REMARK    6  A    between atoms: C3'_9  and  O3'_10 
REMARK    7  A    between atoms: C3'_9  and  C2'_11 
REMARK    8  A    between atoms: C2'_11  and  O2'_12 
REMARK    9  A    between atoms: C2'_11  and  C1'_13 
REMARK   10  A    between atoms: C1'_13  and  NH_14 
REMARK   11  A    between atoms: NH_14  and  C2_16 
REMARK   12  A    between atoms: C1_15  and  C7_21 
ROOT
ATOM      1  C2' 0VR d   1      15.757  19.036  20.161  0.00  0.00     0.078 C 
ATOM      2  H7  0VR d   1      16.028  18.526  19.225  0.00  0.00     0.089 H 
ENDROOT
BRANCH   1   3
ATOM      3  C3' 0VR d   1      16.725  18.564  21.229  0.00  0.00     0.088 C 
ATOM      4  H5  0VR d   1      17.094  19.441  21.780  0.00  0.00     0.091 H 
BRANCH   3   5
ATOM      5  C4' 0VR d   1      16.153  17.569  22.230  0.00  0.00     0.084 C 
ATOM      6  H3  0VR d   1      15.666  16.767  21.656  0.00  0.00     0.090 H 
BRANCH   5   7
ATOM      7  C5' 0VR d   1      17.225  16.932  23.112  0.00  0.00     0.059 C 
ATOM      8  H1  0VR d   1      16.743  16.268  23.844  0.00  0.00     0.079 H 
ATOM      9  H2  0VR d   1      17.911  16.347  22.482  0.00  0.00     0.079 H 
BRANCH   7  10
ATOM     10  O5' 0VR d   1      17.952  17.920  23.793  0.00  0.00    -0.280 OA
BRANCH  10  11
ATOM     11  P   0VR d   1      19.134  17.555  24.767  0.00  0.00     0.422 P 
ATOM     12  O1P 0VR d   1      20.482  17.884  24.171  0.00  0.00    -0.617 OA
ATOM     13  O2P 0VR d   1      18.890  18.349  26.042  0.00  0.00    -0.617 OA
ATOM     14  O3P 0VR d   1      19.187  16.072  25.080  0.00  0.00    -0.617 OA
ENDBRANCH  10  11
ENDBRANCH   7  10
ENDBRANCH   5   7
BRANCH   5  15
ATOM     15  O4' 0VR d   1      15.206  18.158  23.038  0.00  0.00    -0.391 OA
ATOM     16  H4  0VR d   1      14.813  17.498  23.597  0.00  0.00     0.210 HD
ENDBRANCH   5  15
ENDBRANCH   3   5
BRANCH   3  17
ATOM     17  O3' 0VR d   1      17.767  17.937  20.577  0.00  0.00    -0.390 OA
ATOM     18  H6  0VR d   1      18.147  18.534  19.943  0.00  0.00     0.210 HD
ENDBRANCH   3  17
ENDBRANCH   1   3
BRANCH   1  19
ATOM     19  O2' 0VR d   1      14.445  18.747  20.445  0.00  0.00    -0.391 OA
ATOM     20  H8  0VR d   1      14.198  19.169  21.260  0.00  0.00     0.210 HD
ENDBRANCH   1  19
BRANCH   1  21
ATOM     21  C1' 0VR d   1      15.843  20.521  19.940  0.00  0.00     0.019 C 
ATOM     22  H9  0VR d   1      16.744  20.757  19.355  0.00  0.00     0.068 H 
ATOM     23  H10 0VR d   1      15.890  21.038  20.910  0.00  0.00     0.068 H 
BRANCH  21  24
ATOM     24  NH  0VR d   1      14.648  20.957  19.205  0.00  0.00    -0.390 N 
ATOM     25  H11 0VR d   1      14.358  20.439  18.363  0.00  0.00     0.159 HD
BRANCH  24  26
ATOM     26  C2  0VR d   1      13.864  22.105  19.640  0.00  0.00     0.022 A 
ATOM     27  C1  0VR d   1      12.887  22.391  18.956  0.00  0.00     0.062 A 
ATOM     28  C6  0VR d   1      12.134  23.293  19.162  0.00  0.00    -0.068 A 
ATOM     29  C5  0VR d   1      12.263  24.134  20.199  0.00  0.00    -0.102 A 
ATOM     30  H17 0VR d   1      11.302  23.441  18.475  0.00  0.00     0.084 H 
ATOM     31  C4  0VR d   1      13.466  23.915  21.193  0.00  0.00    -0.045 A 
ATOM     32  H16 0VR d   1      11.555  24.947  20.350  0.00  0.00     0.076 H 
ATOM     33  C3  0VR d   1      14.373  22.668  20.771  0.00  0.00    -0.023 A 
ATOM     34  H14 0VR d   1      14.090  24.821  21.201  0.00  0.00     0.039 H 
ATOM     35  H15 0VR d   1      13.065  23.737  22.202  0.00  0.00     0.039 H 
ATOM     36  H12 0VR d   1      15.402  23.009  20.581  0.00  0.00     0.042 H 
ATOM     37  H13 0VR d   1      14.377  21.925  21.582  0.00  0.00     0.042 H 
BRANCH  27  38
ATOM     38  C7  0VR d   1      12.550  21.584  17.742  0.00  0.00     0.211 C 
ATOM     39  O71 0VR d   1      12.521  20.345  17.962  0.00  0.00    -0.644 OA
ATOM     40  O72 0VR d   1      12.340  22.307  16.735  0.00  0.00    -0.644 OA
ENDBRANCH  27  38
ENDBRANCH  24  26
ENDBRANCH  21  24
ENDBRANCH   1  21
TORSDOF 12
