REMARK WARNING: 32 MAX_TORS EXCEEDED!!!
REMARK  33 active torsions:
REMARK  status: ('A' for Active; 'I' for Inactive)
REMARK    1  A    between atoms: N_1  and  CA_2 
REMARK    2  A    between atoms: CA_2  and  C_3 
REMARK    3  A    between atoms: CA_2  and  CB_5 
REMARK       I    between atoms: C_3  and  N_7 
REMARK    4  A    between atoms: CB_5  and  OG_6 
REMARK    5  A    between atoms: N_7  and  CA_8 
REMARK    6  A    between atoms: CA_8  and  C_9 
REMARK    7  A    between atoms: CA_8  and  CB_11 
REMARK       I    between atoms: C_9  and  N_17 
REMARK    8  A    between atoms: CB_11  and  CG_12 
REMARK    9  A    between atoms: CA_18  and  C_19 
REMARK       I    between atoms: C_19  and  N_24 
REMARK   10  A    between atoms: N_24  and  CA_25 
REMARK   11  A    between atoms: CA_25  and  C_26 
REMARK   12  A    between atoms: CA_25  and  CB_28 
REMARK       I    between atoms: C_26  and  N_35 
REMARK   13  A    between atoms: CB_28  and  CG_29 
REMARK   14  A    between atoms: CG_29  and  CD_30 
REMARK   15  A    between atoms: CD_30  and  NE_31 
REMARK       I    between atoms: NE_31  and  CZ_32 
REMARK       I    between atoms: CZ_32  and  NH1_33 
REMARK       I    between atoms: CZ_32  and  NH2_34 
REMARK   16  A    between atoms: CA_36  and  C_37 
REMARK       I    between atoms: C_37  and  N_42 
REMARK   17  A    between atoms: N_42  and  CA_43 
REMARK   18  A    between atoms: CA_43  and  C_44 
REMARK   19  A    between atoms: CA_43  and  CB_46 
REMARK       I    between atoms: C_44  and  N_50 
REMARK   20  A    between atoms: CB_46  and  CG1_47 
REMARK   21  A    between atoms: CB_46  and  CG2_48 
REMARK   22  A    between atoms: CG1_47  and  CD1_49 
REMARK   23  A    between atoms: N_50  and  CA_51 
REMARK   24  A    between atoms: CA_51  and  C_52 
REMARK   25  A    between atoms: CA_51  and  CB_54 
REMARK       I    between atoms: C_52  and  N_61 
REMARK   26  A    between atoms: CB_54  and  CG_55 
REMARK   27  A    between atoms: CG_55  and  CD_56 
REMARK   28  A    between atoms: CD_56  and  NE_57 
REMARK       I    between atoms: NE_57  and  CZ_58 
REMARK       I    between atoms: CZ_58  and  NH1_59 
REMARK   29  A    between atoms: N_61  and  CA_62 
REMARK   30  A    between atoms: CA_62  and  C_63 
REMARK   31  A    between atoms: CA_62  and  CB_65 
REMARK   32  A    between atoms: CB_65  and  CG1_66 
REMARK   33  A    between atoms: CB_65  and  CG2_67 
ROOT
ATOM      1  N   PRO d   1      56.988  87.796  28.818  0.00  0.00    -0.337 N 
ATOM      2  CA  PRO d   1      56.566  87.233  30.090  0.00  0.00     0.091 C 
ATOM      3  CB  PRO d   1      57.373  88.022  31.102  0.00  0.00    -0.036 C 
ATOM      4  CG  PRO d   1      58.613  88.491  30.389  0.00  0.00    -0.048 C 
ATOM      5  CD  PRO d   1      58.135  88.715  28.947  0.00  0.00    -0.001 C 
ATOM      6  H35 PRO d   1      56.788  86.156  30.130  0.00  0.00     0.087 H 
ATOM      7  H36 PRO d   1      57.644  87.382  31.954  0.00  0.00     0.036 H 
ATOM      8  H37 PRO d   1      56.792  88.884  31.462  0.00  0.00     0.036 H 
ATOM      9  H38 PRO d   1      59.402  87.725  30.427  0.00  0.00     0.035 H 
ATOM     10  H39 PRO d   1      58.989  89.427  30.828  0.00  0.00     0.035 H 
ATOM     11  H40 PRO d   1      57.822  89.758  28.794  0.00  0.00     0.064 H 
ATOM     12  H41 PRO d   1      58.926  88.460  28.227  0.00  0.00     0.064 H 
ATOM     13  C   ARG d   1      56.549  87.358  27.639  0.00  0.00     0.243 C 
ATOM     14  O   ARG d   1      55.861  86.322  27.490  0.00  0.00    -0.271 OA
ENDROOT
BRANCH  13  15
ATOM     15  CA  ARG d   1      57.048  88.114  26.419  0.00  0.00     0.089 C 
ATOM     16  H23 ARG d   1      58.117  88.356  26.518  0.00  0.00     0.087 H 
BRANCH  15  17
ATOM     17  N   ARG d   1      56.833  87.150  25.366  0.00  0.00    -0.346 N 
ATOM     18  C   PRO d   1      57.725  86.175  25.106  0.00  0.00     0.241 C 
ATOM     19  O   PRO d   1      58.837  86.090  25.620  0.00  0.00    -0.271 OA
ATOM     20  H22 ARG d   1      56.000  87.208  24.815  0.00  0.00     0.163 HD
BRANCH  18  21
ATOM     21  CA  PRO d   1      57.323  85.186  24.002  0.00  0.00     0.091 C 
ATOM     22  N   PRO d   1      58.446  84.542  23.392  0.00  0.00    -0.337 N 
ATOM     23  C   HIS d   1      59.438  85.335  22.907  0.00  0.00     0.243 C 
ATOM     24  CD  PRO d   1      58.109  83.158  22.978  0.00  0.00    -0.001 C 
ATOM     25  O   HIS d   1      59.384  86.560  22.943  0.00  0.00    -0.271 OA
ATOM     26  CG  PRO d   1      56.909  82.811  23.808  0.00  0.00    -0.048 C 
ATOM     27  H20 PRO d   1      58.943  82.473  23.191  0.00  0.00     0.064 H 
ATOM     28  H21 PRO d   1      57.867  83.119  21.906  0.00  0.00     0.064 H 
ATOM     29  CB  PRO d   1      56.538  84.016  24.618  0.00  0.00    -0.036 C 
ATOM     30  H18 PRO d   1      56.071  82.530  23.153  0.00  0.00     0.035 H 
ATOM     31  H19 PRO d   1      57.149  81.972  24.477  0.00  0.00     0.035 H 
ATOM     32  H16 PRO d   1      55.456  84.204  24.554  0.00  0.00     0.036 H 
ATOM     33  H17 PRO d   1      56.824  83.874  25.671  0.00  0.00     0.036 H 
ATOM     34  H15 PRO d   1      56.723  85.712  23.245  0.00  0.00     0.087 H 
BRANCH  23  35
ATOM     35  CA  HIS d   1      60.540  84.656  22.155  0.00  0.00     0.095 C 
ATOM     36  H9  HIS d   1      60.090  84.234  21.244  0.00  0.00     0.088 H 
BRANCH  35  37
ATOM     37  N   HIS d   1      61.561  85.613  21.719  0.00  0.00    -0.346 N 
ATOM     38  C   SER d   1      62.137  85.419  20.531  0.00  0.00     0.251 C 
ATOM     39  O   SER d   1      61.696  84.621  19.687  0.00  0.00    -0.271 OA
ATOM     40  H8  HIS d   1      61.819  86.389  22.295  0.00  0.00     0.163 HD
BRANCH  38  41
ATOM     41  CA  SER d   1      63.361  86.303  20.235  0.00  0.00     0.195 C 
ATOM     42  H4  SER d   1      64.184  85.919  20.857  0.00  0.00     0.102 H 
BRANCH  41  43
ATOM     43  N   SER d   1      63.823  86.234  18.811  0.00  0.00    -0.064 N 
ATOM     44  H1  SER d   1      64.624  86.834  18.688  0.00  0.00     0.275 HD
ATOM     45  H2  SER d   1      63.080  86.537  18.201  0.00  0.00     0.275 HD
ATOM     46  H3  SER d   1      64.077  85.285  18.586  0.00  0.00     0.275 HD
ENDBRANCH  41  43
BRANCH  41  47
ATOM     47  CB  SER d   1      63.121  87.756  20.646  0.00  0.00     0.051 C 
ATOM     48  H5  SER d   1      64.026  88.155  21.128  0.00  0.00     0.077 H 
ATOM     49  H6  SER d   1      62.279  87.803  21.352  0.00  0.00     0.077 H 
BRANCH  47  50
ATOM     50  OG  SER d   1      62.818  88.528  19.495  0.00  0.00    -0.398 OA
ATOM     51  H7  SER d   1      62.669  89.431  19.751  0.00  0.00     0.209 HD
ENDBRANCH  47  50
ENDBRANCH  41  47
ENDBRANCH  38  41
ENDBRANCH  35  37
BRANCH  35  52
ATOM     52  CB  HIS d   1      61.144  83.472  22.938  0.00  0.00     0.004 C 
ATOM     53  H10 HIS d   1      60.625  83.401  23.905  0.00  0.00     0.046 H 
ATOM     54  H11 HIS d   1      62.210  83.683  23.108  0.00  0.00     0.046 H 
BRANCH  52  55
ATOM     55  CG  HIS d   1      61.032  82.103  22.232  0.00  0.00     0.053 A 
ATOM     56  ND1 HIS d   1      59.993  81.256  22.432  0.00  0.00    -0.247 NA
ATOM     57  CE1 HIS d   1      60.184  80.132  21.724  0.00  0.00     0.064 A 
ATOM     58  NE2 HIS d   1      61.355  80.242  21.082  0.00  0.00    -0.359 N 
ATOM     59  H13 HIS d   1      59.507  79.281  21.679  0.00  0.00     0.143 H 
ATOM     60  CD2 HIS d   1      61.903  81.440  21.372  0.00  0.00     0.002 A 
ATOM     61  H14 HIS d   1      61.770  79.528  20.467  0.00  0.00     0.166 HD
ATOM     62  H12 HIS d   1      62.854  81.820  21.001  0.00  0.00     0.114 H 
ENDBRANCH  52  55
ENDBRANCH  35  52
ENDBRANCH  23  35
ENDBRANCH  18  21
ENDBRANCH  15  17
BRANCH  15  63
ATOM     63  CB  ARG d   1      56.266  89.410  26.181  0.00  0.00    -0.036 C 
ATOM     64  H24 ARG d   1      56.672  90.200  26.830  0.00  0.00     0.036 H 
ATOM     65  H25 ARG d   1      55.207  89.242  26.426  0.00  0.00     0.036 H 
BRANCH  63  66
ATOM     66  CG  ARG d   1      56.378  89.858  24.713  0.00  0.00    -0.048 C 
ATOM     67  H26 ARG d   1      55.705  90.703  24.506  0.00  0.00     0.035 H 
ATOM     68  H27 ARG d   1      56.146  89.028  24.029  0.00  0.00     0.035 H 
BRANCH  66  69
ATOM     69  CD  ARG d   1      57.833  90.278  24.586  0.00  0.00     0.009 C 
ATOM     70  H28 ARG d   1      58.455  89.371  24.581  0.00  0.00     0.064 H 
ATOM     71  H29 ARG d   1      58.091  90.895  25.459  0.00  0.00     0.064 H 
BRANCH  69  72
ATOM     72  NE  ARG d   1      58.132  91.042  23.383  0.00  0.00    -0.227 N 
ATOM     73  CZ  ARG d   1      58.704  90.536  22.317  0.00  0.00     0.665 C 
ATOM     74  NH1 ARG d   1      58.954  91.336  21.293  0.00  0.00    -0.235 N 
ATOM     75  NH2 ARG d   1      59.035  89.234  22.273  0.00  0.00    -0.235 N 
ATOM     76  H31 ARG d   1      59.403  90.962  20.445  0.00  0.00     0.174 HD
ATOM     77  H32 ARG d   1      58.700  92.333  21.344  0.00  0.00     0.174 HD
ATOM     78  H33 ARG d   1      58.834  88.624  23.078  0.00  0.00     0.174 HD
ATOM     79  H34 ARG d   1      59.490  88.846  21.434  0.00  0.00     0.174 HD
ATOM     80  H30 ARG d   1      57.879  92.040  23.369  0.00  0.00     0.177 HD
ENDBRANCH  69  72
ENDBRANCH  66  69
ENDBRANCH  63  66
ENDBRANCH  15  63
ENDBRANCH  13  15
BRANCH   2  81
ATOM     81  C   PRO d   1      55.104  87.472  30.418  0.00  0.00     0.241 C 
ATOM     82  O   PRO d   1      54.512  88.502  30.014  0.00  0.00    -0.271 OA
ATOM     83  N   ILE d   1      54.537  86.611  31.250  0.00  0.00    -0.346 N 
ATOM     84  H42 ILE d   1      55.050  85.821  31.584  0.00  0.00     0.163 HD
BRANCH  83  85
ATOM     85  CA  ILE d   1      53.180  86.821  31.668  0.00  0.00     0.092 C 
ATOM     86  H43 ILE d   1      52.776  87.667  31.092  0.00  0.00     0.088 H 
BRANCH  85  87
ATOM     87  C   ILE d   1      53.169  87.185  33.116  0.00  0.00     0.241 C 
ATOM     88  O   ILE d   1      53.964  86.723  33.915  0.00  0.00    -0.271 OA
ATOM     89  N   ARG d   1      52.239  88.027  33.454  0.00  0.00    -0.346 N 
ATOM     90  H53 ARG d   1      51.606  88.345  32.748  0.00  0.00     0.163 HD
BRANCH  89  91
ATOM     91  CA  ARG d   1      52.078  88.515  34.768  0.00  0.00     0.089 C 
ATOM     92  H54 ARG d   1      53.035  88.735  35.264  0.00  0.00     0.087 H 
BRANCH  91  93
ATOM     93  C   ARG d   1      51.294  87.478  35.477  0.00  0.00     0.241 C 
ATOM     94  O   ARG d   1      50.273  87.108  35.022  0.00  0.00    -0.271 OA
ATOM     95  N   VAL d   1      51.733  86.984  36.597  0.00  0.00    -0.344 N 
ATOM     96  H66 VAL d   1      52.611  87.267  36.983  0.00  0.00     0.163 HD
BRANCH  95  97
ATOM     97  CA  VAL d   1      50.904  86.016  37.254  0.00  0.00     0.099 C 
ATOM     98  H67 VAL d   1      50.257  85.577  36.480  0.00  0.00     0.090 H 
BRANCH  97  99
ATOM     99  C   VAL d   1      49.984  86.629  38.322  0.00  0.00     0.197 C 
ATOM    100  O   VAL d   1      50.397  87.485  39.075  0.00  0.00    -0.646 OA
ATOM    101  OXT VAL d   1      49.044  86.432  38.541  0.00  0.00    -0.646 OA
ENDBRANCH  97  99
BRANCH  97 102
ATOM    102  CB  VAL d   1      51.717  84.880  37.866  0.00  0.00    -0.032 C 
ATOM    103  H68 VAL d   1      51.368  83.931  37.432  0.00  0.00     0.042 H 
BRANCH 102 104
ATOM    104  CG1 VAL d   1      53.186  85.023  37.566  0.00  0.00    -0.071 C 
ATOM    105  H69 VAL d   1      53.736  84.187  38.023  0.00  0.00     0.028 H 
ATOM    106  H70 VAL d   1      53.554  85.974  37.979  0.00  0.00     0.028 H 
ATOM    107  H71 VAL d   1      53.341  85.012  36.477  0.00  0.00     0.028 H 
ENDBRANCH 102 104
BRANCH 102 108
ATOM    108  CG2 VAL d   1      51.491  84.841  39.358  0.00  0.00    -0.071 C 
ATOM    109  H72 VAL d   1      50.415  84.737  39.563  0.00  0.00     0.028 H 
ATOM    110  H73 VAL d   1      51.861  85.773  39.809  0.00  0.00     0.028 H 
ATOM    111  H74 VAL d   1      52.031  83.985  39.788  0.00  0.00     0.028 H 
ENDBRANCH 102 108
ENDBRANCH  97 102
ENDBRANCH  95  97
ENDBRANCH  91  93
BRANCH  91 112
ATOM    112  CB  ARG d   1      51.203  89.727  34.643  0.00  0.00    -0.036 C 
ATOM    113  H55 ARG d   1      50.276  89.533  35.202  0.00  0.00     0.036 H 
ATOM    114  H56 ARG d   1      50.967  89.865  33.578  0.00  0.00     0.036 H 
BRANCH 112 115
ATOM    115  CG  ARG d   1      51.784  91.000  35.150  0.00  0.00    -0.048 C 
ATOM    116  H57 ARG d   1      51.723  91.771  34.368  0.00  0.00     0.035 H 
ATOM    117  H58 ARG d   1      52.837  90.841  35.427  0.00  0.00     0.035 H 
BRANCH 115 118
ATOM    118  CD  ARG d   1      51.002  91.445  36.364  0.00  0.00     0.009 C 
ATOM    119  H59 ARG d   1      50.852  90.586  37.034  0.00  0.00     0.064 H 
ATOM    120  H60 ARG d   1      50.025  91.835  36.043  0.00  0.00     0.064 H 
BRANCH 118 121
ATOM    121  NE  ARG d   1      51.715  92.475  37.067  0.00  0.00    -0.227 N 
ATOM    122  CZ  ARG d   1      51.496  93.760  36.903  0.00  0.00     0.665 C 
ATOM    123  NH1 ARG d   1      50.556  94.156  36.085  0.00  0.00    -0.235 N 
ATOM    124  NH2 ARG d   1      52.204  94.645  37.564  0.00  0.00    -0.235 N 
ATOM    125  H62 ARG d   1      50.379  95.162  35.952  0.00  0.00     0.174 HD
ATOM    126  H63 ARG d   1      49.992  93.462  35.574  0.00  0.00     0.174 HD
ATOM    127  H64 ARG d   1      52.945  94.334  38.209  0.00  0.00     0.174 HD
ATOM    128  H65 ARG d   1      52.019  95.650  37.438  0.00  0.00     0.174 HD
ATOM    129  H61 ARG d   1      52.441  92.189  37.739  0.00  0.00     0.177 HD
ENDBRANCH 118 121
ENDBRANCH 115 118
ENDBRANCH 112 115
ENDBRANCH  91 112
ENDBRANCH  89  91
ENDBRANCH  85  87
BRANCH  85 130
ATOM    130  CB  ILE d   1      52.274  85.618  31.419  0.00  0.00    -0.030 C 
ATOM    131  H44 ILE d   1      51.228  85.926  31.565  0.00  0.00     0.043 H 
BRANCH 130 132
ATOM    132  CG1 ILE d   1      52.593  84.469  32.351  0.00  0.00    -0.063 C 
ATOM    133  H45 ILE d   1      53.639  84.565  32.679  0.00  0.00     0.033 H 
ATOM    134  H46 ILE d   1      52.467  83.526  31.799  0.00  0.00     0.033 H 
BRANCH 132 135
ATOM    135  CD1 ILE d   1      51.702  84.431  33.583  0.00  0.00    -0.076 C 
ATOM    136  H50 ILE d   1      51.986  83.576  34.215  0.00  0.00     0.027 H 
ATOM    137  H51 ILE d   1      50.652  84.325  33.273  0.00  0.00     0.027 H 
ATOM    138  H52 ILE d   1      51.824  85.364  34.153  0.00  0.00     0.027 H 
ENDBRANCH 132 135
ENDBRANCH 130 132
BRANCH 130 139
ATOM    139  CG2 ILE d   1      52.464  85.119  30.022  0.00  0.00    -0.071 C 
ATOM    140  H47 ILE d   1      52.241  85.928  29.310  0.00  0.00     0.028 H 
ATOM    141  H48 ILE d   1      51.786  84.273  29.840  0.00  0.00     0.028 H 
ATOM    142  H49 ILE d   1      53.505  84.790  29.889  0.00  0.00     0.028 H 
ENDBRANCH 130 139
ENDBRANCH  85 130
ENDBRANCH  83  85
ENDBRANCH   2  81
TORSDOF 33
