REMARK WARNING: 32 MAX_TORS EXCEEDED!!!
REMARK  35 active torsions:
REMARK  status: ('A' for Active; 'I' for Inactive)
REMARK    1  A    between atoms: N_1  and  CA_2 
REMARK    2  A    between atoms: CA_2  and  C_3 
REMARK    3  A    between atoms: CA_2  and  CB_5 
REMARK       I    between atoms: C_3  and  N_9 
REMARK    4  A    between atoms: CB_5  and  CG_6 
REMARK       I    between atoms: CG_6  and  ND2_8 
REMARK    5  A    between atoms: N_9  and  CA_10 
REMARK    6  A    between atoms: CA_10  and  C_11 
REMARK    7  A    between atoms: CA_10  and  CB_13 
REMARK       I    between atoms: C_11  and  N_20 
REMARK    8  A    between atoms: CB_13  and  CG_14 
REMARK    9  A    between atoms: CG_14  and  CD_15 
REMARK   10  A    between atoms: CD_15  and  NE_16 
REMARK       I    between atoms: NE_16  and  CZ_17 
REMARK       I    between atoms: CZ_17  and  NH1_18 
REMARK   11  A    between atoms: N_20  and  CA_21 
REMARK   12  A    between atoms: CA_21  and  C_22 
REMARK   13  A    between atoms: CA_21  and  CB_24 
REMARK       I    between atoms: C_22  and  N_28 
REMARK   14  A    between atoms: CB_24  and  CG_25 
REMARK   15  A    between atoms: CG_25  and  CD1_26 
REMARK   16  A    between atoms: CG_25  and  CD2_27 
REMARK   17  A    between atoms: N_28  and  CA_29 
REMARK   18  A    between atoms: CA_29  and  C_30 
REMARK   19  A    between atoms: CA_29  and  CB_32 
REMARK       I    between atoms: C_30  and  N_36 
REMARK   20  A    between atoms: CB_32  and  CG_33 
REMARK   21  A    between atoms: CG_33  and  SD_34 
REMARK   22  A    between atoms: SD_34  and  CE_35 
REMARK   23  A    between atoms: N_36  and  CA_37 
REMARK   24  A    between atoms: CA_37  and  C_38 
REMARK   25  A    between atoms: CA_37  and  CB_40 
REMARK       I    between atoms: C_38  and  N_44 
REMARK   26  A    between atoms: CB_40  and  CG_41 
REMARK   27  A    between atoms: CG_41  and  CD1_42 
REMARK   28  A    between atoms: CG_41  and  CD2_43 
REMARK   29  A    between atoms: N_44  and  CA_45 
REMARK   30  A    between atoms: CA_45  and  C_46 
REMARK   31  A    between atoms: CA_45  and  CB_48 
REMARK       I    between atoms: C_46  and  N_51 
REMARK   32  A    between atoms: CB_48  and  OG1_49 
REMARK   33  A    between atoms: CB_48  and  CG2_50 
REMARK   34  A    between atoms: N_51  and  CA_52 
REMARK   35  A    between atoms: CA_52  and  C_53 
ROOT
ATOM      1  C   LEU d   1      -4.420 -28.603  -1.619  0.00  0.00     0.241 C 
ATOM      2  O   LEU d   1      -4.775 -29.808  -1.603  0.00  0.00    -0.271 OA
ATOM      3  N   MET d   1      -4.060 -27.962  -2.730  0.00  0.00    -0.346 N 
ATOM      4  H33 MET d   1      -3.708 -27.029  -2.649  0.00  0.00     0.163 HD
ENDROOT
BRANCH   1   5
ATOM      5  CA  LEU d   1      -4.501 -27.709  -0.382  0.00  0.00     0.089 C 
ATOM      6  H23 LEU d   1      -4.852 -26.705  -0.664  0.00  0.00     0.087 H 
BRANCH   5   7
ATOM      7  N   LEU d   1      -5.405 -28.325   0.571  0.00  0.00    -0.346 N 
ATOM      8  C   ARG d   1      -6.704 -28.325   0.401  0.00  0.00     0.241 C 
ATOM      9  O   ARG d   1      -7.256 -27.677  -0.515  0.00  0.00    -0.271 OA
ATOM     10  H22 LEU d   1      -5.024 -28.764   1.385  0.00  0.00     0.163 HD
BRANCH   8  11
ATOM     11  CA  ARG d   1      -7.478 -29.342   1.322  0.00  0.00     0.089 C 
ATOM     12  H10 ARG d   1      -6.997 -29.394   2.310  0.00  0.00     0.087 H 
BRANCH  11  13
ATOM     13  N   ARG d   1      -8.843 -28.833   1.466  0.00  0.00    -0.346 N 
ATOM     14  C   ASN d   1      -9.026 -27.635   2.008  0.00  0.00     0.249 C 
ATOM     15  O   ASN d   1      -8.090 -26.955   2.462  0.00  0.00    -0.271 OA
ATOM     16  H9  ARG d   1      -9.624 -29.378   1.161  0.00  0.00     0.163 HD
BRANCH  14  17
ATOM     17  CA  ASN d   1     -10.458 -27.075   2.012  0.00  0.00     0.183 C 
ATOM     18  H4  ASN d   1     -11.190 -27.894   2.062  0.00  0.00     0.099 H 
BRANCH  17  19
ATOM     19  N   ASN d   1     -10.624 -26.168   3.192  0.00  0.00    -0.066 N 
ATOM     20  H1  ASN d   1     -11.561 -25.797   3.201  0.00  0.00     0.275 HD
ATOM     21  H2  ASN d   1      -9.963 -25.410   3.129  0.00  0.00     0.275 HD
ATOM     22  H3  ASN d   1     -10.460 -26.687   4.040  0.00  0.00     0.275 HD
ENDBRANCH  17  19
BRANCH  17  23
ATOM     23  CB  ASN d   1     -10.641 -26.279   0.718  0.00  0.00     0.044 C 
ATOM     24  H5  ASN d   1     -10.292 -26.897  -0.122  0.00  0.00     0.051 H 
ATOM     25  H6  ASN d   1     -10.029 -25.367   0.782  0.00  0.00     0.051 H 
BRANCH  23  26
ATOM     26  CG  ASN d   1     -12.078 -25.873   0.449  0.00  0.00     0.217 C 
ATOM     27  OD1 ASN d   1     -13.008 -26.155   1.218  0.00  0.00    -0.274 OA
ATOM     28  ND2 ASN d   1     -12.265 -25.207  -0.671  0.00  0.00    -0.370 N 
ATOM     29  H7  ASN d   1     -13.183 -24.902  -0.924  0.00  0.00     0.159 HD
ATOM     30  H8  ASN d   1     -11.489 -25.006  -1.269  0.00  0.00     0.159 HD
ENDBRANCH  23  26
ENDBRANCH  17  23
ENDBRANCH  14  17
ENDBRANCH  11  13
BRANCH  11  31
ATOM     31  CB  ARG d   1      -7.469 -30.756   0.678  0.00  0.00    -0.036 C 
ATOM     32  H11 ARG d   1      -6.415 -31.051   0.565  0.00  0.00     0.036 H 
ATOM     33  H12 ARG d   1      -7.931 -30.659  -0.316  0.00  0.00     0.036 H 
BRANCH  31  34
ATOM     34  CG  ARG d   1      -8.196 -31.932   1.407  0.00  0.00    -0.048 C 
ATOM     35  H13 ARG d   1      -7.689 -32.882   1.184  0.00  0.00     0.035 H 
ATOM     36  H14 ARG d   1      -9.243 -31.989   1.075  0.00  0.00     0.035 H 
BRANCH  34  37
ATOM     37  CD  ARG d   1      -8.140 -31.652   2.902  0.00  0.00     0.009 C 
ATOM     38  H15 ARG d   1      -9.041 -31.084   3.176  0.00  0.00     0.064 H 
ATOM     39  H16 ARG d   1      -7.247 -31.041   3.101  0.00  0.00     0.064 H 
BRANCH  37  40
ATOM     40  NE  ARG d   1      -8.076 -32.837   3.752  0.00  0.00    -0.227 N 
ATOM     41  CZ  ARG d   1      -8.965 -33.828   3.793  0.00  0.00     0.665 C 
ATOM     42  NH1 ARG d   1     -10.012 -33.846   2.978  0.00  0.00    -0.235 N 
ATOM     43  NH2 ARG d   1      -8.772 -34.841   4.643  0.00  0.00    -0.235 N 
ATOM     44  H18 ARG d   1     -10.688 -34.621   3.025  0.00  0.00     0.174 HD
ATOM     45  H19 ARG d   1     -10.148 -33.084   2.298  0.00  0.00     0.174 HD
ATOM     46  H20 ARG d   1      -7.961 -34.833   5.278  0.00  0.00     0.174 HD
ATOM     47  H21 ARG d   1      -9.434 -35.630   4.663  0.00  0.00     0.174 HD
ATOM     48  H17 ARG d   1      -7.264 -32.914   4.381  0.00  0.00     0.177 HD
ENDBRANCH  37  40
ENDBRANCH  34  37
ENDBRANCH  31  34
ENDBRANCH  11  31
ENDBRANCH   8  11
ENDBRANCH   5   7
BRANCH   5  49
ATOM     49  CB  LEU d   1      -3.143 -27.625   0.304  0.00  0.00    -0.035 C 
ATOM     50  H24 LEU d   1      -2.370 -27.366  -0.435  0.00  0.00     0.037 H 
ATOM     51  H25 LEU d   1      -2.900 -28.594   0.764  0.00  0.00     0.037 H 
BRANCH  49  52
ATOM     52  CG  LEU d   1      -3.206 -26.521   1.406  0.00  0.00    -0.059 C 
ATOM     53  H26 LEU d   1      -3.996 -26.719   2.145  0.00  0.00     0.038 H 
BRANCH  52  54
ATOM     54  CD1 LEU d   1      -1.827 -26.629   2.007  0.00  0.00    -0.073 C 
ATOM     55  H27 LEU d   1      -1.722 -25.893   2.818  0.00  0.00     0.028 H 
ATOM     56  H28 LEU d   1      -1.073 -26.431   1.232  0.00  0.00     0.028 H 
ATOM     57  H29 LEU d   1      -1.681 -27.642   2.410  0.00  0.00     0.028 H 
ENDBRANCH  52  54
BRANCH  52  58
ATOM     58  CD2 LEU d   1      -3.409 -25.136   0.768  0.00  0.00    -0.073 C 
ATOM     59  H30 LEU d   1      -4.419 -25.076   0.336  0.00  0.00     0.028 H 
ATOM     60  H31 LEU d   1      -2.661 -24.984  -0.024  0.00  0.00     0.028 H 
ATOM     61  H32 LEU d   1      -3.292 -24.358   1.536  0.00  0.00     0.028 H 
ENDBRANCH  52  58
ENDBRANCH  49  52
ENDBRANCH   5  49
ENDBRANCH   1   5
BRANCH   3  62
ATOM     62  CA  MET d   1      -4.152 -28.542  -4.029  0.00  0.00     0.090 C 
ATOM     63  H34 MET d   1      -4.622 -29.530  -3.917  0.00  0.00     0.087 H 
BRANCH  62  64
ATOM     64  C   MET d   1      -2.823 -28.744  -4.664  0.00  0.00     0.241 C 
ATOM     65  O   MET d   1      -1.849 -28.020  -4.444  0.00  0.00    -0.271 OA
ATOM     66  N   LEU d   1      -2.767 -29.719  -5.563  0.00  0.00    -0.346 N 
ATOM     67  H42 LEU d   1      -3.600 -30.245  -5.735  0.00  0.00     0.163 HD
BRANCH  66  68
ATOM     68  CA  LEU d   1      -1.561 -30.076  -6.322  0.00  0.00     0.089 C 
ATOM     69  H43 LEU d   1      -0.730 -29.426  -6.010  0.00  0.00     0.087 H 
BRANCH  68  70
ATOM     70  C   LEU d   1      -1.759 -29.998  -7.819  0.00  0.00     0.241 C 
ATOM     71  O   LEU d   1      -2.801 -30.557  -8.354  0.00  0.00    -0.271 OA
ATOM     72  N   THR d   1      -0.788 -29.421  -8.508  0.00  0.00    -0.344 N 
ATOM     73  H53 THR d   1      -0.017 -28.977  -8.052  0.00  0.00     0.163 HD
BRANCH  72  74
ATOM     74  CA  THR d   1      -0.894 -29.461  -9.983  0.00  0.00     0.113 C 
ATOM     75  H54 THR d   1      -1.958 -29.451 -10.261  0.00  0.00     0.091 H 
BRANCH  74  76
ATOM     76  C   THR d   1      -0.236 -30.680 -10.579  0.00  0.00     0.243 C 
ATOM     77  O   THR d   1       0.380 -31.455  -9.864  0.00  0.00    -0.271 OA
ATOM     78  N   GLY d   1      -0.410 -30.881 -11.881  0.00  0.00    -0.349 N 
ATOM     79  H60 GLY d   1      -0.992 -30.282 -12.431  0.00  0.00     0.163 HD
BRANCH  78  80
ATOM     80  CA  GLY d   1       0.300 -32.035 -12.476  0.00  0.00     0.075 C 
ATOM     81  H61 GLY d   1       0.423 -32.829 -11.725  0.00  0.00     0.080 H 
ATOM     82  H62 GLY d   1       1.288 -31.721 -12.843  0.00  0.00     0.080 H 
BRANCH  80  83
ATOM     83  C   GLY d   1      -0.530 -32.528 -13.607  0.00  0.00     0.191 C 
ATOM     84  O   GLY d   1      -1.659 -32.050 -13.791  0.00  0.00    -0.647 OA
ATOM     85  OXT GLY d   1      -0.091 -33.440 -14.317  0.00  0.00    -0.647 OA
ENDBRANCH  80  83
ENDBRANCH  78  80
ENDBRANCH  74  76
BRANCH  74  86
ATOM     86  CB  THR d   1      -0.197 -28.257 -10.572  0.00  0.00     0.060 C 
ATOM     87  H55 THR d   1      -0.214 -28.287 -11.671  0.00  0.00     0.086 H 
BRANCH  86  88
ATOM     88  OG1 THR d   1       1.157 -28.187 -10.078  0.00  0.00    -0.393 OA
ATOM     89  H56 THR d   1       1.144 -28.111  -9.131  0.00  0.00     0.210 HD
ENDBRANCH  86  88
BRANCH  86  90
ATOM     90  CG2 THR d   1      -0.958 -27.001 -10.012  0.00  0.00    -0.050 C 
ATOM     91  H57 THR d   1      -0.494 -26.085 -10.407  0.00  0.00     0.031 H 
ATOM     92  H58 THR d   1      -0.900 -26.997  -8.914  0.00  0.00     0.031 H 
ATOM     93  H59 THR d   1      -2.012 -27.042 -10.323  0.00  0.00     0.031 H 
ENDBRANCH  86  90
ENDBRANCH  74  86
ENDBRANCH  72  74
ENDBRANCH  68  70
BRANCH  68  94
ATOM     94  CB  LEU d   1      -1.221 -31.584  -6.080  0.00  0.00    -0.035 C 
ATOM     95  H44 LEU d   1      -0.357 -31.863  -6.702  0.00  0.00     0.037 H 
ATOM     96  H45 LEU d   1      -2.089 -32.198  -6.361  0.00  0.00     0.037 H 
BRANCH  94  97
ATOM     97  CG  LEU d   1      -0.882 -31.839  -4.608  0.00  0.00    -0.059 C 
ATOM     98  H46 LEU d   1      -1.714 -31.420  -4.023  0.00  0.00     0.038 H 
BRANCH  97  99
ATOM     99  CD1 LEU d   1      -0.788 -33.385  -4.246  0.00  0.00    -0.073 C 
ATOM    100  H47 LEU d   1      -0.543 -33.498  -3.180  0.00  0.00     0.028 H 
ATOM    101  H48 LEU d   1      -0.003 -33.857  -4.854  0.00  0.00     0.028 H 
ATOM    102  H49 LEU d   1      -1.754 -33.870  -4.454  0.00  0.00     0.028 H 
ENDBRANCH  97  99
BRANCH  97 103
ATOM    103  CD2 LEU d   1       0.422 -31.115  -4.134  0.00  0.00    -0.073 C 
ATOM    104  H50 LEU d   1       0.359 -30.046  -4.383  0.00  0.00     0.028 H 
ATOM    105  H51 LEU d   1       1.292 -31.559  -4.640  0.00  0.00     0.028 H 
ATOM    106  H52 LEU d   1       0.531 -31.232  -3.046  0.00  0.00     0.028 H 
ENDBRANCH  97 103
ENDBRANCH  94  97
ENDBRANCH  68  94
ENDBRANCH  66  68
ENDBRANCH  62  64
BRANCH  62 107
ATOM    107  CB  MET d   1      -5.086 -27.653  -4.988  0.00  0.00    -0.030 C 
ATOM    108  H35 MET d   1      -4.998 -27.995  -6.030  0.00  0.00     0.037 H 
ATOM    109  H36 MET d   1      -4.799 -26.593  -4.924  0.00  0.00     0.037 H 
BRANCH 107 110
ATOM    110  CG  MET d   1      -6.533 -27.848  -4.481  0.00  0.00    -0.021 C 
ATOM    111  H37 MET d   1      -6.581 -27.755  -3.386  0.00  0.00     0.049 H 
ATOM    112  H38 MET d   1      -6.926 -28.830  -4.783  0.00  0.00     0.049 H 
BRANCH 110 113
ATOM    113  SD  MET d   1      -7.469 -26.487  -5.298  0.00  0.00    -0.173 SA
BRANCH 113 114
ATOM    114  CE  MET d   1      -9.116 -27.163  -5.202  0.00  0.00    -0.035 C 
ATOM    115  H39 MET d   1      -9.828 -26.459  -5.658  0.00  0.00     0.041 H 
ATOM    116  H40 MET d   1      -9.385 -27.325  -4.148  0.00  0.00     0.041 H 
ATOM    117  H41 MET d   1      -9.151 -28.121  -5.741  0.00  0.00     0.041 H 
ENDBRANCH 113 114
ENDBRANCH 110 113
ENDBRANCH 107 110
ENDBRANCH  62 107
ENDBRANCH   3  62
TORSDOF 35
