REMARK WARNING: 32 MAX_TORS EXCEEDED!!!
REMARK  36 active torsions:
REMARK  status: ('A' for Active; 'I' for Inactive)
REMARK    1  A    between atoms: N_1  and  CA_2 
REMARK    2  A    between atoms: CA_2  and  C_3 
REMARK    3  A    between atoms: CA_2  and  CB_5 
REMARK       I    between atoms: C_3  and  N_10 
REMARK    4  A    between atoms: CB_5  and  CG_6 
REMARK    5  A    between atoms: CG_6  and  CD_7 
REMARK    6  A    between atoms: N_10  and  CA_11 
REMARK    7  A    between atoms: CA_11  and  C_12 
REMARK    8  A    between atoms: CA_11  and  CB_14 
REMARK       I    between atoms: C_12  and  N_18 
REMARK    9  A    between atoms: CB_14  and  CG_15 
REMARK   10  A    between atoms: CG_15  and  CD1_16 
REMARK   11  A    between atoms: CG_15  and  CD2_17 
REMARK   12  A    between atoms: CA_19  and  C_20 
REMARK       I    between atoms: C_20  and  N_25 
REMARK   13  A    between atoms: N_25  and  CA_26 
REMARK   14  A    between atoms: CA_26  and  C_27 
REMARK   15  A    between atoms: CA_26  and  CB_29 
REMARK       I    between atoms: C_27  and  N_33 
REMARK   16  A    between atoms: CB_29  and  CG_30 
REMARK   17  A    between atoms: CG_30  and  CD1_31 
REMARK   18  A    between atoms: CG_30  and  CD2_32 
REMARK   19  A    between atoms: N_33  and  CA_34 
REMARK   20  A    between atoms: CA_34  and  C_35 
REMARK   21  A    between atoms: CA_34  and  CB_37 
REMARK       I    between atoms: C_35  and  N_40 
REMARK   22  A    between atoms: CB_37  and  CG1_38 
REMARK   23  A    between atoms: CB_37  and  CG2_39 
REMARK   24  A    between atoms: N_40  and  CA_41 
REMARK   25  A    between atoms: CA_41  and  C_42 
REMARK   26  A    between atoms: CA_41  and  CB_44 
REMARK       I    between atoms: C_42  and  N_49 
REMARK   27  A    between atoms: CB_44  and  CG_45 
REMARK   28  A    between atoms: CG_45  and  CD_46 
REMARK   29  A    between atoms: CD_46  and  CE_47 
REMARK   30  A    between atoms: CE_47  and  NZ_48 
REMARK   31  A    between atoms: N_49  and  CA_50 
REMARK   32  A    between atoms: CA_50  and  C_51 
REMARK   33  A    between atoms: CA_50  and  CB_53 
REMARK   34  A    between atoms: CB_53  and  CG1_54 
REMARK   35  A    between atoms: CB_53  and  CG2_55 
REMARK   36  A    between atoms: CG1_54  and  CD1_56 
ROOT
ATOM      1  CA  LEU d   1      56.530  87.799  30.009  0.00  0.00     0.089 C 
ATOM      2  H28 LEU d   1      56.873  86.758  30.104  0.00  0.00     0.087 H 
ENDROOT
BRANCH   1   3
ATOM      3  N   LEU d   1      56.936  88.279  28.668  0.00  0.00    -0.346 N 
ATOM      4  C   PRO d   1      56.437  87.736  27.576  0.00  0.00     0.241 C 
ATOM      5  O   PRO d   1      55.798  86.669  27.568  0.00  0.00    -0.271 OA
ATOM      6  H27 LEU d   1      57.597  89.025  28.590  0.00  0.00     0.163 HD
BRANCH   4   7
ATOM      7  CA  PRO d   1      56.735  88.481  26.277  0.00  0.00     0.091 C 
ATOM      8  N   PRO d   1      56.642  87.509  25.203  0.00  0.00    -0.337 N 
ATOM      9  C   LEU d   1      57.447  86.425  25.262  0.00  0.00     0.243 C 
ATOM     10  CD  PRO d   1      55.691  87.926  24.132  0.00  0.00    -0.001 C 
ATOM     11  O   LEU d   1      58.348  86.277  26.094  0.00  0.00    -0.271 OA
ATOM     12  CG  PRO d   1      55.367  89.377  24.478  0.00  0.00    -0.048 C 
ATOM     13  H25 PRO d   1      54.782  87.306  24.151  0.00  0.00     0.064 H 
ATOM     14  H26 PRO d   1      56.162  87.855  23.140  0.00  0.00     0.064 H 
ATOM     15  CB  PRO d   1      55.611  89.503  25.959  0.00  0.00    -0.036 C 
ATOM     16  H23 PRO d   1      56.024  90.061  23.921  0.00  0.00     0.035 H 
ATOM     17  H24 PRO d   1      54.317  89.603  24.241  0.00  0.00     0.035 H 
ATOM     18  H21 PRO d   1      55.936  90.523  26.211  0.00  0.00     0.036 H 
ATOM     19  H22 PRO d   1      54.698  89.259  26.522  0.00  0.00     0.036 H 
ATOM     20  H20 PRO d   1      57.722  88.966  26.318  0.00  0.00     0.087 H 
BRANCH   9  21
ATOM     21  CA  LEU d   1      57.252  85.371  24.196  0.00  0.00     0.090 C 
ATOM     22  H10 LEU d   1      56.944  85.837  23.249  0.00  0.00     0.087 H 
BRANCH  21  23
ATOM     23  N   LEU d   1      58.554  84.735  24.031  0.00  0.00    -0.346 N 
ATOM     24  C   GLU d   1      58.991  84.249  22.874  0.00  0.00     0.249 C 
ATOM     25  O   GLU d   1      58.231  84.050  21.912  0.00  0.00    -0.271 OA
ATOM     26  H9  LEU d   1      59.150  84.661  24.831  0.00  0.00     0.163 HD
BRANCH  24  27
ATOM     27  CA  GLU d   1      60.479  83.835  22.825  0.00  0.00     0.176 C 
ATOM     28  H4  GLU d   1      60.961  84.345  21.978  0.00  0.00     0.099 H 
BRANCH  27  29
ATOM     29  N   GLU d   1      61.205  84.209  24.087  0.00  0.00    -0.066 N 
ATOM     30  H1  GLU d   1      62.169  83.924  24.017  0.00  0.00     0.275 HD
ATOM     31  H2  GLU d   1      60.774  83.747  24.872  0.00  0.00     0.275 HD
ATOM     32  H3  GLU d   1      61.159  85.207  24.218  0.00  0.00     0.275 HD
ENDBRANCH  27  29
BRANCH  27  33
ATOM     33  CB  GLU d   1      60.559  82.319  22.613  0.00  0.00    -0.021 C 
ATOM     34  H5  GLU d   1      61.618  82.021  22.605  0.00  0.00     0.037 H 
ATOM     35  H6  GLU d   1      60.102  82.075  21.642  0.00  0.00     0.037 H 
BRANCH  33  36
ATOM     36  CG  GLU d   1      59.837  81.529  23.704  0.00  0.00     0.018 C 
ATOM     37  H7  GLU d   1      58.755  81.657  23.555  0.00  0.00     0.049 H 
ATOM     38  H8  GLU d   1      60.126  81.952  24.677  0.00  0.00     0.049 H 
BRANCH  36  39
ATOM     39  CD  GLU d   1      60.136  80.024  23.735  0.00  0.00     0.172 C 
ATOM     40  OE1 GLU d   1      59.164  79.258  23.624  0.00  0.00    -0.648 OA
ATOM     41  OE2 GLU d   1      61.311  79.584  23.884  0.00  0.00    -0.648 OA
ENDBRANCH  36  39
ENDBRANCH  33  36
ENDBRANCH  27  33
ENDBRANCH  24  27
ENDBRANCH  21  23
BRANCH  21  42
ATOM     42  CB  LEU d   1      56.153  84.374  24.647  0.00  0.00    -0.035 C 
ATOM     43  H11 LEU d   1      55.383  84.947  25.184  0.00  0.00     0.037 H 
ATOM     44  H12 LEU d   1      56.619  83.652  25.334  0.00  0.00     0.037 H 
BRANCH  42  45
ATOM     45  CG  LEU d   1      55.450  83.575  23.537  0.00  0.00    -0.059 C 
ATOM     46  H13 LEU d   1      56.222  82.969  23.041  0.00  0.00     0.038 H 
BRANCH  45  47
ATOM     47  CD1 LEU d   1      54.397  82.607  24.081  0.00  0.00    -0.073 C 
ATOM     48  H14 LEU d   1      53.930  82.066  23.245  0.00  0.00     0.028 H 
ATOM     49  H15 LEU d   1      53.628  83.172  24.628  0.00  0.00     0.028 H 
ATOM     50  H16 LEU d   1      54.877  81.888  24.761  0.00  0.00     0.028 H 
ENDBRANCH  45  47
BRANCH  45  51
ATOM     51  CD2 LEU d   1      54.834  84.496  22.470  0.00  0.00    -0.073 C 
ATOM     52  H17 LEU d   1      55.604  85.184  22.091  0.00  0.00     0.028 H 
ATOM     53  H18 LEU d   1      54.012  85.075  22.916  0.00  0.00     0.028 H 
ATOM     54  H19 LEU d   1      54.445  83.887  21.640  0.00  0.00     0.028 H 
ENDBRANCH  45  51
ENDBRANCH  42  45
ENDBRANCH  21  42
ENDBRANCH   9  21
ENDBRANCH   4   7
ENDBRANCH   1   3
BRANCH   1  55
ATOM     55  C   LEU d   1      55.060  87.825  30.340  0.00  0.00     0.241 C 
ATOM     56  O   LEU d   1      54.321  88.667  29.825  0.00  0.00    -0.271 OA
ATOM     57  N   VAL d   1      54.642  86.958  31.259  0.00  0.00    -0.346 N 
ATOM     58  H38 VAL d   1      55.302  86.320  31.655  0.00  0.00     0.163 HD
BRANCH  57  59
ATOM     59  CA  VAL d   1      53.248  86.906  31.711  0.00  0.00     0.092 C 
ATOM     60  H39 VAL d   1      52.629  87.452  30.984  0.00  0.00     0.088 H 
BRANCH  59  61
ATOM     61  C   VAL d   1      53.105  87.556  33.060  0.00  0.00     0.241 C 
ATOM     62  O   VAL d   1      53.804  87.204  34.019  0.00  0.00    -0.271 OA
ATOM     63  N   LYS d   1      52.218  88.535  33.117  0.00  0.00    -0.346 N 
ATOM     64  H47 LYS d   1      51.732  88.802  32.285  0.00  0.00     0.163 HD
BRANCH  63  65
ATOM     65  CA  LYS d   1      51.936  89.222  34.341  0.00  0.00     0.089 C 
ATOM     66  H48 LYS d   1      52.852  89.583  34.831  0.00  0.00     0.087 H 
BRANCH  65  67
ATOM     67  C   LYS d   1      51.261  88.157  35.178  0.00  0.00     0.241 C 
ATOM     68  O   LYS d   1      50.235  87.637  34.791  0.00  0.00    -0.271 OA
ATOM     69  N   ILE d   1      51.835  87.755  36.292  0.00  0.00    -0.344 N 
ATOM     70  H60 ILE d   1      52.681  88.171  36.626  0.00  0.00     0.163 HD
BRANCH  69  71
ATOM     71  CA  ILE d   1      51.171  86.661  37.024  0.00  0.00     0.099 C 
ATOM     72  H61 ILE d   1      50.414  86.282  36.322  0.00  0.00     0.090 H 
BRANCH  71  73
ATOM     73  C   ILE d   1      50.362  87.162  38.230  0.00  0.00     0.197 C 
ATOM     74  O   ILE d   1      50.773  87.147  39.380  0.00  0.00    -0.646 OA
ATOM     75  OXT ILE d   1      49.238  87.637  38.064  0.00  0.00    -0.646 OA
ENDBRANCH  71  73
BRANCH  71  76
ATOM     76  CB  ILE d   1      52.079  85.404  37.322  0.00  0.00    -0.029 C 
ATOM     77  H62 ILE d   1      52.416  85.005  36.354  0.00  0.00     0.043 H 
BRANCH  76  78
ATOM     78  CG1 ILE d   1      51.274  84.283  38.041  0.00  0.00    -0.063 C 
ATOM     79  H63 ILE d   1      50.206  84.523  37.935  0.00  0.00     0.033 H 
ATOM     80  H64 ILE d   1      51.551  84.308  39.105  0.00  0.00     0.033 H 
BRANCH  78  81
ATOM     81  CD1 ILE d   1      51.475  82.848  37.546  0.00  0.00    -0.076 C 
ATOM     82  H68 ILE d   1      50.850  82.165  38.139  0.00  0.00     0.027 H 
ATOM     83  H69 ILE d   1      52.533  82.567  37.657  0.00  0.00     0.027 H 
ATOM     84  H70 ILE d   1      51.187  82.782  36.486  0.00  0.00     0.027 H 
ENDBRANCH  78  81
ENDBRANCH  76  78
BRANCH  76  85
ATOM     85  CG2 ILE d   1      53.322  85.773  38.124  0.00  0.00    -0.070 C 
ATOM     86  H65 ILE d   1      53.875  86.566  37.599  0.00  0.00     0.028 H 
ATOM     87  H66 ILE d   1      53.965  84.887  38.232  0.00  0.00     0.028 H 
ATOM     88  H67 ILE d   1      53.023  86.133  39.120  0.00  0.00     0.028 H 
ENDBRANCH  76  85
ENDBRANCH  71  76
ENDBRANCH  69  71
ENDBRANCH  65  67
BRANCH  65  89
ATOM     89  CB  LYS d   1      51.014  90.409  34.014  0.00  0.00    -0.038 C 
ATOM     90  H49 LYS d   1      50.128  90.019  33.492  0.00  0.00     0.036 H 
ATOM     91  H50 LYS d   1      51.561  91.093  33.348  0.00  0.00     0.036 H 
BRANCH  89  92
ATOM     92  CG  LYS d   1      50.541  91.202  35.217  0.00  0.00    -0.061 C 
ATOM     93  H51 LYS d   1      50.124  90.505  35.959  0.00  0.00     0.033 H 
ATOM     94  H52 LYS d   1      49.758  91.903  34.893  0.00  0.00     0.033 H 
BRANCH  92  95
ATOM     95  CD  LYS d   1      51.667  91.993  35.868  0.00  0.00    -0.043 C 
ATOM     96  H53 LYS d   1      52.326  92.389  35.082  0.00  0.00     0.035 H 
ATOM     97  H54 LYS d   1      52.241  91.323  36.525  0.00  0.00     0.035 H 
BRANCH  95  98
ATOM     98  CE  LYS d   1      51.126  93.162  36.700  0.00  0.00     0.080 C 
ATOM     99  H55 LYS d   1      50.526  93.814  36.048  0.00  0.00     0.075 H 
ATOM    100  H56 LYS d   1      51.975  93.731  37.106  0.00  0.00     0.075 H 
BRANCH  98 101
ATOM    101  NZ  LYS d   1      50.270  92.697  37.835  0.00  0.00    -0.079 N 
ATOM    102  H57 LYS d   1      49.937  93.495  38.353  0.00  0.00     0.274 HD
ATOM    103  H58 LYS d   1      50.812  92.103  38.443  0.00  0.00     0.274 HD
ATOM    104  H59 LYS d   1      49.484  92.180  37.473  0.00  0.00     0.274 HD
ENDBRANCH  98 101
ENDBRANCH  95  98
ENDBRANCH  92  95
ENDBRANCH  89  92
ENDBRANCH  65  89
ENDBRANCH  63  65
ENDBRANCH  59  61
BRANCH  59 105
ATOM    105  CB  VAL d   1      52.734  85.458  31.807  0.00  0.00    -0.033 C 
ATOM    106  H40 VAL d   1      53.568  84.813  32.121  0.00  0.00     0.042 H 
BRANCH 105 107
ATOM    107  CG1 VAL d   1      51.611  85.318  32.827  0.00  0.00    -0.071 C 
ATOM    108  H41 VAL d   1      51.276  84.271  32.862  0.00  0.00     0.028 H 
ATOM    109  H42 VAL d   1      50.769  85.963  32.536  0.00  0.00     0.028 H 
ATOM    110  H43 VAL d   1      51.977  85.619  33.819  0.00  0.00     0.028 H 
ENDBRANCH 105 107
BRANCH 105 111
ATOM    111  CG2 VAL d   1      52.259  85.012  30.448  0.00  0.00    -0.071 C 
ATOM    112  H44 VAL d   1      53.078  85.118  29.721  0.00  0.00     0.028 H 
ATOM    113  H45 VAL d   1      51.408  85.634  30.135  0.00  0.00     0.028 H 
ATOM    114  H46 VAL d   1      51.945  83.959  30.497  0.00  0.00     0.028 H 
ENDBRANCH 105 111
ENDBRANCH  59 105
ENDBRANCH  57  59
ENDBRANCH   1  55
BRANCH   1 115
ATOM    115  CB  LEU d   1      57.232  88.660  31.039  0.00  0.00    -0.035 C 
ATOM    116  H29 LEU d   1      56.707  88.567  32.001  0.00  0.00     0.037 H 
ATOM    117  H30 LEU d   1      57.207  89.708  30.707  0.00  0.00     0.037 H 
BRANCH 115 118
ATOM    118  CG  LEU d   1      58.683  88.233  31.223  0.00  0.00    -0.059 C 
ATOM    119  H31 LEU d   1      59.149  88.055  30.243  0.00  0.00     0.038 H 
BRANCH 118 120
ATOM    120  CD1 LEU d   1      59.432  89.360  31.954  0.00  0.00    -0.073 C 
ATOM    121  H32 LEU d   1      60.483  89.069  32.096  0.00  0.00     0.028 H 
ATOM    122  H33 LEU d   1      58.964  89.535  32.934  0.00  0.00     0.028 H 
ATOM    123  H34 LEU d   1      59.384  90.281  31.355  0.00  0.00     0.028 H 
ENDBRANCH 118 120
BRANCH 118 124
ATOM    124  CD2 LEU d   1      58.716  86.959  32.039  0.00  0.00    -0.073 C 
ATOM    125  H35 LEU d   1      58.176  86.165  31.502  0.00  0.00     0.028 H 
ATOM    126  H36 LEU d   1      58.235  87.135  33.013  0.00  0.00     0.028 H 
ATOM    127  H37 LEU d   1      59.760  86.651  32.196  0.00  0.00     0.028 H 
ENDBRANCH 118 124
ENDBRANCH 115 118
ENDBRANCH   1 115
TORSDOF 36
