REMARK  2 active torsions:
REMARK  status: ('A' for Active; 'I' for Inactive)
REMARK    1  A    between atoms: C1_1  and  C2_2 
REMARK    2  A    between atoms: N10_10  and  C11_11 
ROOT
ATOM      1  C2  JAK d   1      16.597   7.752  12.314  0.00  0.00     0.103 A 
ATOM      2  N3  JAK d   1      17.313   8.724  12.767  0.00  0.00    -0.232 NA
ATOM      3  C4  JAK d   1      16.624   9.876  12.447  0.00  0.00     0.104 A 
ATOM      4  C5  JAK d   1      16.893  11.201  12.747  0.00  0.00     0.035 A 
ATOM      5  N6  JAK d   1      16.046  12.171  12.426  0.00  0.00    -0.240 NA
ATOM      6  C7  JAK d   1      14.923  11.822  11.792  0.00  0.00     0.139 A 
ATOM      7  C8  JAK d   1      14.574  10.528  11.428  0.00  0.00     0.041 A 
ATOM      8  C9  JAK d   1      15.480   9.524  11.785  0.00  0.00     0.081 A 
ATOM      9  N10 JAK d   1      15.513   8.150  11.726  0.00  0.00    -0.328 N 
ATOM     10  C17 JAK d   1      13.308  10.630  10.768  0.00  0.00    -0.052 A 
ATOM     11  C18 JAK d   1      12.964  11.926  10.778  0.00  0.00    -0.020 A 
ATOM     12  N19 JAK d   1      13.920  12.650  11.399  0.00  0.00    -0.350 N 
ATOM     13  H4  JAK d   1      17.817  11.452  13.256  0.00  0.00     0.118 H 
ATOM     14  H16 JAK d   1      12.733   9.810  10.339  0.00  0.00     0.087 H 
ATOM     15  H17 JAK d   1      12.050  12.334  10.349  0.00  0.00     0.111 H 
ATOM     16  H18 JAK d   1      13.893  13.668  11.551  0.00  0.00     0.166 HD
ENDROOT
BRANCH   9  17
ATOM     17  C11 JAK d   1      14.506   7.217  11.218  0.00  0.00     0.021 C 
ATOM     18  C12 JAK d   1      14.275   7.329   9.739  0.00  0.00    -0.023 C 
ATOM     19  C13 JAK d   1      13.405   6.181   9.355  0.00  0.00     0.084 C 
ATOM     20  H6  JAK d   1      15.233   7.276   9.200  0.00  0.00     0.038 H 
ATOM     21  H7  JAK d   1      13.774   8.280   9.504  0.00  0.00     0.038 H 
ATOM     22  N14 JAK d   1      12.135   6.063  10.026  0.00  0.00    -0.075 N 
ATOM     23  H8  JAK d   1      13.970   5.258   9.551  0.00  0.00     0.075 H 
ATOM     24  H9  JAK d   1      13.203   6.265   8.277  0.00  0.00     0.075 H 
ATOM     25  C15 JAK d   1      12.239   6.255  11.464  0.00  0.00     0.084 C 
ATOM     26  H10 JAK d   1      11.761   5.144   9.850  0.00  0.00     0.277 HD
ATOM     27  H11 JAK d   1      11.507   6.758   9.653  0.00  0.00     0.277 HD
ATOM     28  C16 JAK d   1      13.200   7.291  11.973  0.00  0.00    -0.023 C 
ATOM     29  H12 JAK d   1      12.537   5.291  11.901  0.00  0.00     0.075 H 
ATOM     30  H13 JAK d   1      11.239   6.530  11.830  0.00  0.00     0.075 H 
ATOM     31  H14 JAK d   1      12.760   8.290  11.838  0.00  0.00     0.038 H 
ATOM     32  H15 JAK d   1      13.389   7.115  13.042  0.00  0.00     0.038 H 
ATOM     33  H5  JAK d   1      14.911   6.210  11.393  0.00  0.00     0.073 H 
ENDBRANCH   9  17
BRANCH   1  34
ATOM     34  C1  JAK d   1      16.931   6.318  12.440  0.00  0.00    -0.021 C 
ATOM     35  H1  JAK d   1      17.889   6.210  12.970  0.00  0.00     0.037 H 
ATOM     36  H2  JAK d   1      17.014   5.871  11.438  0.00  0.00     0.037 H 
ATOM     37  H3  JAK d   1      16.139   5.805  13.006  0.00  0.00     0.037 H 
ENDBRANCH   1  34
TORSDOF 2
