REMARK  23 active torsions:
REMARK  status: ('A' for Active; 'I' for Inactive)
REMARK    1  A    between atoms: CA1_2  and  N1_1 
REMARK    2  A    between atoms: CA1_2  and  C1_3 
REMARK    3  A    between atoms: CB1_6  and  CA1_2 
REMARK    4  A    between atoms: CG1_7  and  CB1_6 
REMARK    5  A    between atoms: CD1_8  and  CG1_7 
REMARK       I    between atoms: N2_10  and  CD1_8 
REMARK    6  A    between atoms: CA2_11  and  N2_10 
REMARK    7  A    between atoms: CA2_11  and  C2_12 
REMARK    8  A    between atoms: CB2_14  and  CA2_11 
REMARK       I    between atoms: C2_12  and  N3_16 
REMARK    9  A    between atoms: SG2_15  and  CB2_14 
REMARK   10  A    between atoms: SG5_31  and  SG2_15 
REMARK   11  A    between atoms: N3_16  and  CA3_17 
REMARK   12  A    between atoms: CA3_17  and  C3_18 
REMARK   13  A    between atoms: N4_21  and  CA4_22 
REMARK       I    between atoms: C5_26  and  N4_21 
REMARK   14  A    between atoms: CA4_22  and  C4_23 
REMARK   15  A    between atoms: CA5_28  and  C5_26 
REMARK   16  A    between atoms: N5_29  and  CA5_28 
REMARK   17  A    between atoms: CA5_28  and  CB5_30 
REMARK       I    between atoms: CD6_39  and  N5_29 
REMARK   18  A    between atoms: CB5_30  and  SG5_31 
REMARK   19  A    between atoms: CA6_32  and  C6_33 
REMARK   20  A    between atoms: CA6_32  and  N6_36 
REMARK   21  A    between atoms: CB6_37  and  CA6_32 
REMARK   22  A    between atoms: CG6_38  and  CB6_37 
REMARK   23  A    between atoms: CG6_38  and  CD6_39 
ROOT
ATOM      1  SG2 GDS d   1       2.549  16.977  10.708  0.00  0.00    -0.095 SA
ENDROOT
BRANCH   1   2
ATOM      2  CB2 GDS d   1       1.014  17.826  10.275  0.00  0.00     0.013 C 
ATOM      3  H11 GDS d   1       0.161  17.278  10.702  0.00  0.00     0.053 H 
ATOM      4  H12 GDS d   1       1.035  18.848  10.682  0.00  0.00     0.053 H 
BRANCH   2   5
ATOM      5  CA2 GDS d   1       0.864  17.890   8.737  0.00  0.00     0.098 C 
ATOM      6  H10 GDS d   1       1.025  16.897   8.292  0.00  0.00     0.088 H 
BRANCH   5   7
ATOM      7  N2  GDS d   1       1.819  18.853   8.154  0.00  0.00    -0.347 N 
ATOM      8  CD1 GDS d   1       2.708  18.480   7.166  0.00  0.00     0.218 C 
ATOM      9  O1  GDS d   1       2.756  17.331   6.760  0.00  0.00    -0.274 OA
ATOM     10  H9  GDS d   1       1.822  19.797   8.482  0.00  0.00     0.163 HD
BRANCH   8  11
ATOM     11  CG1 GDS d   1       3.573  19.599   6.679  0.00  0.00     0.012 C 
ATOM     12  H7  GDS d   1       2.942  20.410   6.286  0.00  0.00     0.047 H 
ATOM     13  H8  GDS d   1       4.185  19.980   7.509  0.00  0.00     0.047 H 
BRANCH  11  14
ATOM     14  CB1 GDS d   1       4.494  19.068   5.556  0.00  0.00    -0.021 C 
ATOM     15  H5  GDS d   1       5.202  18.343   5.985  0.00  0.00     0.037 H 
ATOM     16  H6  GDS d   1       3.878  18.571   4.792  0.00  0.00     0.037 H 
BRANCH  14  17
ATOM     17  CA1 GDS d   1       5.300  20.236   4.885  0.00  0.00     0.183 C 
ATOM     18  H4  GDS d   1       4.583  20.945   4.444  0.00  0.00     0.101 H 
BRANCH  17  19
ATOM     19  N1  GDS d   1       6.202  19.736   3.779  0.00  0.00    -0.065 N 
ATOM     20  H1  GDS d   1       5.649  19.262   3.082  0.00  0.00     0.275 HD
ATOM     21  H2  GDS d   1       6.880  19.096   4.162  0.00  0.00     0.275 HD
ATOM     22  H3  GDS d   1       6.679  20.517   3.356  0.00  0.00     0.275 HD
ENDBRANCH  17  19
BRANCH  17  23
ATOM     23  C1  GDS d   1       6.128  20.987   6.002  0.00  0.00     0.204 C 
ATOM     24  OE1 GDS d   1       7.301  20.589   6.271  0.00  0.00    -0.646 OA
ATOM     25  OE2 GDS d   1       5.586  22.006   6.518  0.00  0.00    -0.646 OA
ENDBRANCH  17  23
ENDBRANCH  14  17
ENDBRANCH  11  14
ENDBRANCH   8  11
ENDBRANCH   5   7
BRANCH   5  26
ATOM     26  C2  GDS d   1      -0.552  18.357   8.502  0.00  0.00     0.241 C 
ATOM     27  O2  GDS d   1      -0.839  19.548   8.654  0.00  0.00    -0.271 OA
ATOM     28  N3  GDS d   1      -1.467  17.409   8.211  0.00  0.00    -0.349 N 
ATOM     29  H13 GDS d   1      -1.193  16.451   8.128  0.00  0.00     0.163 HD
BRANCH  28  30
ATOM     30  CA3 GDS d   1      -2.839  17.791   8.022  0.00  0.00     0.075 C 
ATOM     31  H14 GDS d   1      -2.897  18.884   7.911  0.00  0.00     0.080 H 
ATOM     32  H15 GDS d   1      -3.424  17.480   8.900  0.00  0.00     0.080 H 
BRANCH  30  33
ATOM     33  C3  GDS d   1      -3.419  17.131   6.776  0.00  0.00     0.191 C 
ATOM     34  OE3 GDS d   1      -4.658  17.172   6.615  0.00  0.00    -0.647 OA
ATOM     35  OE4 GDS d   1      -2.585  16.660   5.981  0.00  0.00    -0.647 OA
ENDBRANCH  30  33
ENDBRANCH  28  30
ENDBRANCH   5  26
ENDBRANCH   2   5
ENDBRANCH   1   2
BRANCH   1  36
ATOM     36  SG5 GDS d   1       1.964  14.914  10.634  0.00  0.00    -0.095 SA
BRANCH  36  37
ATOM     37  CB5 GDS d   1       2.989  14.135   9.328  0.00  0.00     0.013 C 
ATOM     38  H21 GDS d   1       3.935  14.688   9.232  0.00  0.00     0.053 H 
ATOM     39  H22 GDS d   1       3.201  13.093   9.608  0.00  0.00     0.053 H 
BRANCH  37  40
ATOM     40  CA5 GDS d   1       2.255  14.156   7.983  0.00  0.00     0.098 C 
ATOM     41  H19 GDS d   1       1.866  15.167   7.792  0.00  0.00     0.088 H 
BRANCH  40  42
ATOM     42  C5  GDS d   1       3.263  13.785   6.903  0.00  0.00     0.241 C 
ATOM     43  N4  GDS d   1       4.012  14.795   6.352  0.00  0.00    -0.349 N 
ATOM     44  H16 GDS d   1       3.873  15.736   6.659  0.00  0.00     0.163 HD
ATOM     45  O5  GDS d   1       3.377  12.600   6.586  0.00  0.00    -0.271 OA
BRANCH  43  46
ATOM     46  CA4 GDS d   1       5.016  14.511   5.317  0.00  0.00     0.075 C 
ATOM     47  H17 GDS d   1       4.571  14.645   4.320  0.00  0.00     0.080 H 
ATOM     48  H18 GDS d   1       5.376  13.477   5.422  0.00  0.00     0.080 H 
BRANCH  46  49
ATOM     49  C4  GDS d   1       6.202  15.503   5.501  0.00  0.00     0.191 C 
ATOM     50  OE5 GDS d   1       6.476  15.903   6.662  0.00  0.00    -0.647 OA
ATOM     51  OE6 GDS d   1       6.808  15.816   4.456  0.00  0.00    -0.647 OA
ENDBRANCH  46  49
ENDBRANCH  43  46
ENDBRANCH  40  42
BRANCH  40  52
ATOM     52  N5  GDS d   1       1.118  13.193   7.989  0.00  0.00    -0.347 N 
ATOM     53  CD6 GDS d   1      -0.204  13.655   7.783  0.00  0.00     0.218 C 
ATOM     54  O6  GDS d   1      -0.420  14.861   7.615  0.00  0.00    -0.274 OA
ATOM     55  H20 GDS d   1       1.289  12.219   8.139  0.00  0.00     0.163 HD
BRANCH  53  56
ATOM     56  CG6 GDS d   1      -1.265  12.563   7.830  0.00  0.00     0.012 C 
ATOM     57  H29 GDS d   1      -0.854  11.643   7.390  0.00  0.00     0.047 H 
ATOM     58  H30 GDS d   1      -1.542  12.376   8.878  0.00  0.00     0.047 H 
BRANCH  56  59
ATOM     59  CB6 GDS d   1      -2.519  12.978   7.045  0.00  0.00    -0.021 C 
ATOM     60  H27 GDS d   1      -3.245  12.153   7.082  0.00  0.00     0.037 H 
ATOM     61  H28 GDS d   1      -2.953  13.870   7.522  0.00  0.00     0.037 H 
BRANCH  59  62
ATOM     62  CA6 GDS d   1      -2.218  13.309   5.553  0.00  0.00     0.183 C 
ATOM     63  H23 GDS d   1      -1.298  13.910   5.500  0.00  0.00     0.101 H 
BRANCH  62  64
ATOM     64  C6  GDS d   1      -1.991  11.934   4.805  0.00  0.00     0.204 C 
ATOM     65  OE7 GDS d   1      -2.914  11.487   4.090  0.00  0.00    -0.646 OA
ATOM     66  OE8 GDS d   1      -0.882  11.382   4.969  0.00  0.00    -0.646 OA
ENDBRANCH  62  64
BRANCH  62  67
ATOM     67  N6  GDS d   1      -3.296  14.060   4.910  0.00  0.00    -0.065 N 
ATOM     68  H24 GDS d   1      -3.432  14.934   5.394  0.00  0.00     0.275 HD
ATOM     69  H25 GDS d   1      -4.147  13.521   4.943  0.00  0.00     0.275 HD
ATOM     70  H26 GDS d   1      -3.052  14.243   3.949  0.00  0.00     0.275 HD
ENDBRANCH  62  67
ENDBRANCH  59  62
ENDBRANCH  56  59
ENDBRANCH  53  56
ENDBRANCH  40  52
ENDBRANCH  37  40
ENDBRANCH  36  37
ENDBRANCH   1  36
TORSDOF 23
