REMARK  7 active torsions:
REMARK  status: ('A' for Active; 'I' for Inactive)
REMARK    1  A    between atoms: C6_4  and  N6_15 
REMARK    2  A    between atoms: S_6  and  CS5_5 
REMARK    3  A    between atoms: C5'_7  and  S_6 
REMARK    4  A    between atoms: C4'_8  and  C5'_7 
REMARK    5  A    between atoms: C10_11  and  N1'_10 
REMARK    6  A    between atoms: C10_11  and  C9_12 
REMARK    7  A    between atoms: C3'_19  and  O3'_20 
ROOT
ATOM      1  C4' TDI d   1       6.968 -17.591 -10.869  0.00  0.00     0.004 C 
ATOM      2  C1' TDI d   1       6.345 -17.377 -12.217  0.00  0.00     0.090 C 
ATOM      3  N1' TDI d   1       4.875 -17.379 -11.988  0.00  0.00    -0.064 N 
ATOM      4  C2' TDI d   1       4.594 -17.712 -10.584  0.00  0.00     0.108 C 
ATOM      5  C3' TDI d   1       5.865 -17.140  -9.926  0.00  0.00     0.064 C 
ATOM      6  H7  TDI d   1       7.854 -16.951 -10.743  0.00  0.00     0.047 H 
ATOM      7  H8  TDI d   1       6.627 -18.189 -12.903  0.00  0.00     0.076 H 
ATOM      8  H9  TDI d   1       6.666 -16.413 -12.639  0.00  0.00     0.076 H 
ATOM      9  H10 TDI d   1       4.625 -16.406 -12.072  0.00  0.00     0.280 HD
ATOM     10  H17 TDI d   1       4.505 -18.797 -10.430  0.00  0.00     0.080 H 
ATOM     11  H18 TDI d   1       3.684 -17.214 -10.219  0.00  0.00     0.080 H 
ATOM     12  H19 TDI d   1       6.006 -17.591  -8.932  0.00  0.00     0.086 H 
ENDROOT
BRANCH   3  13
ATOM     13  C10 TDI d   1       3.962 -18.031 -12.969  0.00  0.00     0.111 C 
ATOM     14  H11 TDI d   1       4.055 -17.473 -13.912  0.00  0.00     0.083 H 
ATOM     15  H12 TDI d   1       2.940 -17.921 -12.577  0.00  0.00     0.083 H 
BRANCH  13  16
ATOM     16  C9  TDI d   1       4.152 -19.521 -13.310  0.00  0.00     0.014 A 
ATOM     17  C4  TDI d   1       3.790 -20.598 -12.601  0.00  0.00     0.098 A 
ATOM     18  C5  TDI d   1       4.086 -21.708 -13.313  0.00  0.00     0.107 A 
ATOM     19  N3  TDI d   1       3.218 -20.741 -11.397  0.00  0.00    -0.239 NA
ATOM     20  C6  TDI d   1       3.882 -22.955 -12.806  0.00  0.00     0.151 A 
ATOM     21  N7  TDI d   1       4.602 -21.276 -14.444  0.00  0.00    -0.360 N 
ATOM     22  N1  TDI d   1       3.353 -23.131 -11.590  0.00  0.00    -0.223 NA
ATOM     23  C2  TDI d   1       3.000 -21.994 -10.867  0.00  0.00     0.089 A 
ATOM     24  H1  TDI d   1       2.553 -22.095  -9.885  0.00  0.00     0.146 H 
ATOM     25  C8  TDI d   1       4.635 -19.942 -14.459  0.00  0.00    -0.012 A 
ATOM     26  H14 TDI d   1       4.933 -21.881 -15.209  0.00  0.00     0.165 HD
ATOM     27  H13 TDI d   1       4.996 -19.316 -15.274  0.00  0.00     0.112 H 
BRANCH  20  28
ATOM     28  N6  TDI d   1       4.199 -24.053 -13.533  0.00  0.00    -0.382 N 
ATOM     29  H15 TDI d   1       4.041 -24.993 -13.142  0.00  0.00     0.157 HD
ATOM     30  H16 TDI d   1       4.598 -23.948 -14.477  0.00  0.00     0.157 HD
ENDBRANCH  20  28
ENDBRANCH  13  16
ENDBRANCH   3  13
BRANCH   1  31
ATOM     31  C5' TDI d   1       7.408 -19.075 -10.694  0.00  0.00    -0.017 C 
ATOM     32  H5  TDI d   1       6.512 -19.713 -10.680  0.00  0.00     0.049 H 
ATOM     33  H6  TDI d   1       8.047 -19.360 -11.543  0.00  0.00     0.049 H 
BRANCH  31  34
ATOM     34  S   TDI d   1       8.335 -19.325  -9.148  0.00  0.00    -0.173 SA
BRANCH  34  35
ATOM     35  CS5 TDI d   1       9.971 -18.930  -9.687  0.00  0.00    -0.035 C 
ATOM     36  H2  TDI d   1      10.670 -19.036  -8.844  0.00  0.00     0.041 H 
ATOM     37  H3  TDI d   1       9.995 -17.894 -10.056  0.00  0.00     0.041 H 
ATOM     38  H4  TDI d   1      10.266 -19.614 -10.496  0.00  0.00     0.041 H 
ENDBRANCH  34  35
ENDBRANCH  31  34
ENDBRANCH   1  31
BRANCH   5  39
ATOM     39  O3' TDI d   1       5.847 -15.699  -9.768  0.00  0.00    -0.393 OA
ATOM     40  H20 TDI d   1       5.111 -15.451  -9.222  0.00  0.00     0.210 HD
ENDBRANCH   5  39
TORSDOF 7
