REMARK  5 active torsions:
REMARK  status: ('A' for Active; 'I' for Inactive)
REMARK    1  A    between atoms: CG2_10  and  CD2_4 
REMARK    2  A    between atoms: CA_5  and  C_11 
REMARK    3  A    between atoms: CB_6  and  CB1_7 
REMARK    4  A    between atoms: CB1_7  and  CG1_9 
REMARK    5  A    between atoms: CG_8  and  CG2_10 
ROOT
ATOM      1  N   KAI d   1       2.722  23.745  13.790  0.00  0.00    -0.060 N 
ATOM      2  CD  KAI d   1       2.579  22.481  14.579  0.00  0.00     0.090 C 
ATOM      3  CA  KAI d   1       3.085  24.821  14.801  0.00  0.00     0.189 C 
ATOM      4  CB  KAI d   1       2.410  24.250  16.094  0.00  0.00     0.001 C 
ATOM      5  CG  KAI d   1       2.859  22.798  16.022  0.00  0.00    -0.004 C 
ATOM      6  H1  KAI d   1       1.854  23.973  13.331  0.00  0.00     0.278 HD
ATOM      7  H2  KAI d   1       3.452  23.649  13.101  0.00  0.00     0.278 HD
ATOM      8  H3  KAI d   1       3.297  21.731  14.216  0.00  0.00     0.076 H 
ATOM      9  H4  KAI d   1       1.556  22.090  14.475  0.00  0.00     0.076 H 
ATOM     10  H10 KAI d   1       2.619  25.779  14.528  0.00  0.00     0.102 H 
ATOM     11  H11 KAI d   1       2.871  24.729  16.970  0.00  0.00     0.045 H 
ATOM     12  H14 KAI d   1       3.940  22.706  16.201  0.00  0.00     0.050 H 
ENDROOT
BRANCH   5  13
ATOM     13  CG2 KAI d   1       2.164  22.040  17.096  0.00  0.00    -0.087 C 
ATOM     14  CD1 KAI d   1       1.377  20.979  16.782  0.00  0.00    -0.119 C 
ATOM     15  H5  KAI d   1       0.869  20.426  17.570  0.00  0.00     0.067 H 
ATOM     16  H6  KAI d   1       1.254  20.681  15.742  0.00  0.00     0.067 H 
BRANCH  13  17
ATOM     17  CD2 KAI d   1       2.379  22.343  18.529  0.00  0.00    -0.055 C 
ATOM     18  H7  KAI d   1       1.768  21.664  19.143  0.00  0.00     0.033 H 
ATOM     19  H8  KAI d   1       2.086  23.384  18.732  0.00  0.00     0.033 H 
ATOM     20  H9  KAI d   1       3.442  22.206  18.777  0.00  0.00     0.033 H 
ENDBRANCH  13  17
ENDBRANCH   5  13
BRANCH   4  21
ATOM     21  CB1 KAI d   1       0.884  24.442  16.260  0.00  0.00     0.022 C 
ATOM     22  H12 KAI d   1       0.571  23.790  17.089  0.00  0.00     0.049 H 
ATOM     23  H13 KAI d   1       0.418  24.096  15.326  0.00  0.00     0.049 H 
BRANCH  21  24
ATOM     24  CG1 KAI d   1       0.313  25.827  16.550  0.00  0.00     0.172 C 
ATOM     25  OD1 KAI d   1      -0.904  26.059  16.582  0.00  0.00    -0.648 OA
ATOM     26  OD2 KAI d   1       1.224  26.664  17.159  0.00  0.00    -0.648 OA
ENDBRANCH  21  24
ENDBRANCH   4  21
BRANCH   3  27
ATOM     27  C   KAI d   1       4.599  25.051  14.896  0.00  0.00     0.205 C 
ATOM     28  O   KAI d   1       5.338  24.694  14.013  0.00  0.00    -0.646 OA
ATOM     29  OXT KAI d   1       4.980  25.943  15.869  0.00  0.00    -0.646 OA
ENDBRANCH   3  27
TORSDOF 5
