REMARK  9 active torsions:
REMARK  status: ('A' for Active; 'I' for Inactive)
REMARK    1  A    between atoms: C3'_6  and  O3'_5 
REMARK    2  A    between atoms: C4'_7  and  C5'_8 
REMARK    3  A    between atoms: C5'_8  and  S5'_9 
REMARK    4  A    between atoms: S5'_9  and  C20_10 
REMARK    5  A    between atoms: C20_10  and  C21_11 
REMARK    6  A    between atoms: C21_11  and  C22_12 
REMARK    7  A    between atoms: C22_12  and  C23_13 
REMARK    8  A    between atoms: C10_17  and  N1'_15 
REMARK    9  A    between atoms: C10_17  and  C9_22 
ROOT
ATOM      1  C3' BIG d   1     -34.016  -0.593   7.813  0.00  0.00     0.064 C 
ATOM      2  C4' BIG d   1     -35.050  -0.282   6.757  0.00  0.00     0.004 C 
ATOM      3  C1' BIG d   1     -36.345  -0.862   7.334  0.00  0.00     0.090 C 
ATOM      4  N1' BIG d   1     -35.979  -1.599   8.551  0.00  0.00    -0.064 N 
ATOM      5  C2' BIG d   1     -34.531  -1.875   8.454  0.00  0.00     0.108 C 
ATOM      6  H4  BIG d   1     -33.029  -0.769   7.359  0.00  0.00     0.086 H 
ATOM      7  H5  BIG d   1     -35.127   0.804   6.602  0.00  0.00     0.047 H 
ATOM      8  H17 BIG d   1     -36.812  -1.542   6.606  0.00  0.00     0.076 H 
ATOM      9  H18 BIG d   1     -37.046  -0.051   7.580  0.00  0.00     0.076 H 
ATOM     10  H19 BIG d   1     -36.096  -0.960   9.321  0.00  0.00     0.280 HD
ATOM     11  H20 BIG d   1     -34.086  -2.034   9.447  0.00  0.00     0.080 H 
ATOM     12  H21 BIG d   1     -34.331  -2.750   7.818  0.00  0.00     0.080 H 
ENDROOT
BRANCH   4  13
ATOM     13  C10 BIG d   1     -36.841  -2.742   8.881  0.00  0.00     0.111 C 
ATOM     14  H22 BIG d   1     -37.827  -2.343   9.160  0.00  0.00     0.083 H 
ATOM     15  H23 BIG d   1     -36.395  -3.254   9.746  0.00  0.00     0.083 H 
BRANCH  13  16
ATOM     16  C9  BIG d   1     -37.060  -3.782   7.800  0.00  0.00     0.014 A 
ATOM     17  C4  BIG d   1     -36.145  -4.793   7.217  0.00  0.00     0.098 A 
ATOM     18  C5  BIG d   1     -36.927  -5.514   6.227  0.00  0.00     0.107 A 
ATOM     19  N3  BIG d   1     -34.865  -5.121   7.496  0.00  0.00    -0.239 NA
ATOM     20  N7  BIG d   1     -38.154  -4.961   6.204  0.00  0.00    -0.360 N 
ATOM     21  C6  BIG d   1     -36.268  -6.605   5.526  0.00  0.00     0.151 A 
ATOM     22  C8  BIG d   1     -38.239  -3.955   7.105  0.00  0.00    -0.012 A 
ATOM     23  H24 BIG d   1     -38.922  -5.262   5.586  0.00  0.00     0.165 HD
ATOM     24  H2  BIG d   1     -39.133  -3.353   7.263  0.00  0.00     0.112 H 
ATOM     25  N6  BIG d   1     -36.957  -7.287   4.572  0.00  0.00    -0.382 N 
ATOM     26  N1  BIG d   1     -34.951  -6.855   5.834  0.00  0.00    -0.223 NA
ATOM     27  H25 BIG d   1     -36.506  -8.062   4.066  0.00  0.00     0.157 HD
ATOM     28  H26 BIG d   1     -37.930  -7.028   4.356  0.00  0.00     0.157 HD
ATOM     29  C2  BIG d   1     -34.301  -6.145   6.796  0.00  0.00     0.089 A 
ATOM     30  H1  BIG d   1     -33.274  -6.410   7.019  0.00  0.00     0.146 H 
ENDBRANCH  13  16
ENDBRANCH   4  13
BRANCH   2  31
ATOM     31  C5' BIG d   1     -34.777  -0.971   5.426  0.00  0.00    -0.016 C 
ATOM     32  H6  BIG d   1     -35.693  -0.903   4.821  0.00  0.00     0.049 H 
ATOM     33  H7  BIG d   1     -34.554  -2.027   5.637  0.00  0.00     0.049 H 
BRANCH  31  34
ATOM     34  S5' BIG d   1     -33.445  -0.324   4.457  0.00  0.00    -0.169 SA
BRANCH  34  35
ATOM     35  C20 BIG d   1     -34.367   0.833   3.468  0.00  0.00    -0.023 C 
ATOM     36  H8  BIG d   1     -34.807   1.596   4.127  0.00  0.00     0.048 H 
ATOM     37  H9  BIG d   1     -35.170   0.294   2.943  0.00  0.00     0.048 H 
BRANCH  35  38
ATOM     38  C21 BIG d   1     -33.476   1.522   2.438  0.00  0.00    -0.058 C 
ATOM     39  H10 BIG d   1     -33.428   0.888   1.540  0.00  0.00     0.034 H 
ATOM     40  H11 BIG d   1     -32.468   1.628   2.866  0.00  0.00     0.034 H 
BRANCH  38  41
ATOM     41  C22 BIG d   1     -33.978   2.917   2.023  0.00  0.00    -0.068 C 
ATOM     42  H12 BIG d   1     -33.263   3.355   1.311  0.00  0.00     0.032 H 
ATOM     43  H13 BIG d   1     -34.040   3.553   2.918  0.00  0.00     0.032 H 
BRANCH  41  44
ATOM     44  C23 BIG d   1     -35.326   2.858   1.378  0.00  0.00    -0.076 C 
ATOM     45  H14 BIG d   1     -35.644   3.873   1.099  0.00  0.00     0.027 H 
ATOM     46  H15 BIG d   1     -36.052   2.428   2.084  0.00  0.00     0.027 H 
ATOM     47  H16 BIG d   1     -35.274   2.229   0.477  0.00  0.00     0.027 H 
ENDBRANCH  41  44
ENDBRANCH  38  41
ENDBRANCH  35  38
ENDBRANCH  34  35
ENDBRANCH  31  34
ENDBRANCH   2  31
BRANCH   1  48
ATOM     48  O3' BIG d   1     -33.922   0.506   8.714  0.00  0.00    -0.393 OA
ATOM     49  H3  BIG d   1     -33.272   0.314   9.380  0.00  0.00     0.210 HD
ENDBRANCH   1  48
TORSDOF 9
