REMARK  11 active torsions:
REMARK  status: ('A' for Active; 'I' for Inactive)
REMARK    1  A    between atoms: C_2  and  CA_4 
REMARK    2  A    between atoms: CA_4  and  N_5 
REMARK    3  A    between atoms: CA_4  and  CB_6 
REMARK    4  A    between atoms: CB_6  and  CG_7 
REMARK    5  A    between atoms: CG_7  and  S5'_8 
REMARK    6  A    between atoms: S5'_8  and  C5'_9 
REMARK    7  A    between atoms: C5'_9  and  C4'_10 
REMARK    8  A    between atoms: C3'_12  and  O3'_13 
REMARK    9  A    between atoms: N1'_15  and  C10_16 
REMARK   10  A    between atoms: C10_16  and  C9_17 
REMARK   11  A    between atoms: C6_25  and  N6_26 
ROOT
ATOM      1  C4' HCE d   1      -6.043  -1.673  20.365  0.00  0.00     0.004 C 
ATOM      2  C1' HCE d   1      -5.866  -0.963  21.680  0.00  0.00     0.090 C 
ATOM      3  C3' HCE d   1      -7.362  -1.166  19.855  0.00  0.00     0.064 C 
ATOM      4  C2' HCE d   1      -7.447   0.313  20.316  0.00  0.00     0.108 C 
ATOM      5  N1' HCE d   1      -6.961   0.072  21.713  0.00  0.00    -0.064 N 
ATOM      6  H11 HCE d   1      -6.085  -2.763  20.505  0.00  0.00     0.047 H 
ATOM      7  H12 HCE d   1      -4.878  -0.482  21.730  0.00  0.00     0.076 H 
ATOM      8  H13 HCE d   1      -5.974  -1.668  22.518  0.00  0.00     0.076 H 
ATOM      9  H14 HCE d   1      -7.404  -1.232  18.758  0.00  0.00     0.086 H 
ATOM     10  H16 HCE d   1      -8.473   0.709  20.286  0.00  0.00     0.080 H 
ATOM     11  H17 HCE d   1      -6.781   0.975  19.743  0.00  0.00     0.080 H 
ATOM     12  H18 HCE d   1      -7.739  -0.358  22.189  0.00  0.00     0.280 HD
ENDROOT
BRANCH   1  13
ATOM     13  C5' HCE d   1      -4.841  -1.320  19.442  0.00  0.00    -0.016 C 
ATOM     14  H9  HCE d   1      -4.861  -0.246  19.207  0.00  0.00     0.049 H 
ATOM     15  H10 HCE d   1      -3.899  -1.566  19.954  0.00  0.00     0.049 H 
BRANCH  13  16
ATOM     16  S5' HCE d   1      -4.966  -2.278  17.911  0.00  0.00    -0.169 SA
BRANCH  16  17
ATOM     17  CG  HCE d   1      -4.228  -3.895  18.437  0.00  0.00    -0.021 C 
ATOM     18  H7  HCE d   1      -3.490  -3.722  19.234  0.00  0.00     0.049 H 
ATOM     19  H8  HCE d   1      -5.022  -4.559  18.809  0.00  0.00     0.049 H 
BRANCH  17  20
ATOM     20  CB  HCE d   1      -3.554  -4.529  17.257  0.00  0.00    -0.021 C 
ATOM     21  H5  HCE d   1      -4.258  -4.624  16.417  0.00  0.00     0.037 H 
ATOM     22  H6  HCE d   1      -2.686  -3.931  16.943  0.00  0.00     0.037 H 
BRANCH  20  23
ATOM     23  CA  HCE d   1      -3.113  -5.892  17.733  0.00  0.00     0.183 C 
ATOM     24  H1  HCE d   1      -3.919  -6.343  18.330  0.00  0.00     0.101 H 
BRANCH  23  25
ATOM     25  C   HCE d   1      -2.846  -6.758  16.507  0.00  0.00     0.204 C 
ATOM     26  O   HCE d   1      -1.684  -6.793  16.039  0.00  0.00    -0.646 OA
ATOM     27  OXT HCE d   1      -3.806  -7.416  16.087  0.00  0.00    -0.646 OA
ENDBRANCH  23  25
BRANCH  23  28
ATOM     28  N   HCE d   1      -1.909  -5.806  18.559  0.00  0.00    -0.065 N 
ATOM     29  H2  HCE d   1      -2.096  -5.232  19.366  0.00  0.00     0.275 HD
ATOM     30  H3  HCE d   1      -1.161  -5.397  18.021  0.00  0.00     0.275 HD
ATOM     31  H4  HCE d   1      -1.641  -6.730  18.859  0.00  0.00     0.275 HD
ENDBRANCH  23  28
ENDBRANCH  20  23
ENDBRANCH  17  20
ENDBRANCH  16  17
ENDBRANCH  13  16
ENDBRANCH   1  13
BRANCH   3  32
ATOM     32  O3' HCE d   1      -8.456  -1.937  20.435  0.00  0.00    -0.393 OA
ATOM     33  H15 HCE d   1      -9.284  -1.607  20.105  0.00  0.00     0.210 HD
ENDBRANCH   3  32
BRANCH   5  34
ATOM     34  C10 HCE d   1      -6.628   1.209  22.534  0.00  0.00     0.111 C 
ATOM     35  H19 HCE d   1      -6.479   0.841  23.560  0.00  0.00     0.083 H 
ATOM     36  H20 HCE d   1      -7.488   1.894  22.511  0.00  0.00     0.083 H 
BRANCH  34  37
ATOM     37  C9  HCE d   1      -5.341   2.051  22.141  0.00  0.00     0.014 A 
ATOM     38  C8  HCE d   1      -4.205   2.085  22.857  0.00  0.00    -0.012 A 
ATOM     39  N7  HCE d   1      -3.360   2.894  22.242  0.00  0.00    -0.360 N 
ATOM     40  H21 HCE d   1      -4.014   1.542  23.781  0.00  0.00     0.112 H 
ATOM     41  C5  HCE d   1      -3.952   3.434  21.154  0.00  0.00     0.107 A 
ATOM     42  H22 HCE d   1      -2.395   3.084  22.547  0.00  0.00     0.165 HD
ATOM     43  C4  HCE d   1      -5.202   2.889  21.097  0.00  0.00     0.098 A 
ATOM     44  C6  HCE d   1      -3.553   4.313  20.189  0.00  0.00     0.151 A 
ATOM     45  N3  HCE d   1      -6.049   3.214  20.091  0.00  0.00    -0.239 NA
ATOM     46  C2  HCE d   1      -5.632   4.115  19.101  0.00  0.00     0.089 A 
ATOM     47  N1  HCE d   1      -4.351   4.643  19.154  0.00  0.00    -0.223 NA
ATOM     48  H23 HCE d   1      -6.306   4.397  18.300  0.00  0.00     0.146 H 
BRANCH  44  49
ATOM     49  N6  HCE d   1      -2.314   4.852  20.226  0.00  0.00    -0.382 N 
ATOM     50  H24 HCE d   1      -2.019   5.515  19.495  0.00  0.00     0.157 HD
ATOM     51  H25 HCE d   1      -1.665   4.600  20.985  0.00  0.00     0.157 HD
ENDBRANCH  44  49
ENDBRANCH  34  37
ENDBRANCH   5  34
TORSDOF 11
