REMARK  6 active torsions:
REMARK  status: ('A' for Active; 'I' for Inactive)
REMARK    1  A    between atoms: C2'_10  and  O2'_11 
REMARK    2  A    between atoms: C1'_12  and  N9_13 
REMARK    3  A    between atoms: C2_20  and  N2_21 
REMARK    4  A    between atoms: C2A_33  and  O2A_34 
REMARK    5  A    between atoms: C1A_35  and  N91_36 
REMARK    6  A    between atoms: C21_43  and  N21_44 
ROOT
ATOM      1  P1  C2E d   1      20.183  20.032  21.142  0.00  0.00     0.408 P 
ATOM      2  O2P C2E d   1      20.284  19.413  19.703  0.00  0.00    -0.624 OA
ATOM      3  O1P C2E d   1      21.325  19.410  21.980  0.00  0.00    -0.624 OA
ATOM      4  O5' C2E d   1      20.406  21.587  21.039  0.00  0.00    -0.287 OA
ATOM      5  C5' C2E d   1      20.549  22.286  22.259  0.00  0.00     0.058 C 
ATOM      6  C4' C2E d   1      20.392  23.792  22.005  0.00  0.00     0.090 C 
ATOM      7  O4' C2E d   1      21.605  24.298  21.463  0.00  0.00    -0.353 OA
ATOM      8  C3' C2E d   1      19.317  24.252  21.048  0.00  0.00     0.106 C 
ATOM      9  O3' C2E d   1      18.099  24.393  21.712  0.00  0.00    -0.279 OA
ATOM     10  C2' C2E d   1      19.846  25.540  20.596  0.00  0.00     0.106 C 
ATOM     11  C1' C2E d   1      21.317  25.241  20.437  0.00  0.00     0.140 C 
ATOM     12  P11 C2E d   1      16.708  24.019  21.066  0.00  0.00     0.408 P 
ATOM     13  O21 C2E d   1      15.599  24.621  21.935  0.00  0.00    -0.624 OA
ATOM     14  O11 C2E d   1      16.621  24.559  19.616  0.00  0.00    -0.624 OA
ATOM     15  O5A C2E d   1      16.566  22.435  21.054  0.00  0.00    -0.287 OA
ATOM     16  C5A C2E d   1      16.350  21.718  22.273  0.00  0.00     0.058 C 
ATOM     17  C4A C2E d   1      16.450  20.229  21.959  0.00  0.00     0.090 C 
ATOM     18  O4A C2E d   1      15.344  19.783  21.254  0.00  0.00    -0.353 OA
ATOM     19  C3A C2E d   1      17.621  19.910  21.109  0.00  0.00     0.106 C 
ATOM     20  O3A C2E d   1      18.766  19.752  21.813  0.00  0.00    -0.279 OA
ATOM     21  C2A C2E d   1      17.165  18.593  20.542  0.00  0.00     0.106 C 
ATOM     22  C1A C2E d   1      15.721  18.804  20.326  0.00  0.00     0.140 C 
ATOM     23  H1  C2E d   1      21.545  22.087  22.681  0.00  0.00     0.079 H 
ATOM     24  H2  C2E d   1      19.777  21.951  22.967  0.00  0.00     0.079 H 
ATOM     25  H3  C2E d   1      20.197  24.263  22.980  0.00  0.00     0.090 H 
ATOM     26  H4  C2E d   1      19.199  23.553  20.207  0.00  0.00     0.092 H 
ATOM     27  H5  C2E d   1      19.387  25.852  19.647  0.00  0.00     0.093 H 
ATOM     28  H7  C2E d   1      21.902  26.153  20.629  0.00  0.00     0.122 H 
ATOM     29  H12 C2E d   1      15.352  21.950  22.672  0.00  0.00     0.079 H 
ATOM     30  H13 C2E d   1      17.115  21.997  23.012  0.00  0.00     0.079 H 
ATOM     31  H14 C2E d   1      16.527  19.680  22.909  0.00  0.00     0.090 H 
ATOM     32  H15 C2E d   1      17.773  20.669  20.327  0.00  0.00     0.092 H 
ATOM     33  H16 C2E d   1      17.667  18.409  19.581  0.00  0.00     0.093 H 
ATOM     34  H18 C2E d   1      15.146  17.878  20.476  0.00  0.00     0.122 H 
ENDROOT
BRANCH  11  35
ATOM     35  N9  C2E d   1      21.605  24.823  19.084  0.00  0.00    -0.293 N 
ATOM     36  C8  C2E d   1      21.531  23.557  18.550  0.00  0.00     0.071 A 
ATOM     37  N7  C2E d   1      21.879  23.576  17.225  0.00  0.00    -0.235 NA
ATOM     38  H8  C2E d   1      21.237  22.666  19.103  0.00  0.00     0.144 H 
ATOM     39  C5  C2E d   1      22.196  24.918  16.882  0.00  0.00     0.159 A 
ATOM     40  C6  C2E d   1      22.632  25.618  15.704  0.00  0.00     0.226 A 
ATOM     41  C4  C2E d   1      22.014  25.703  18.092  0.00  0.00     0.185 A 
ATOM     42  O6  C2E d   1      22.826  24.949  14.519  0.00  0.00    -0.169 OA
ATOM     43  N1  C2E d   1      22.865  27.016  15.737  0.00  0.00    -0.164 N 
ATOM     44  C2  C2E d   1      22.679  27.737  16.934  0.00  0.00     0.702 A 
ATOM     45  H9  C2E d   1      23.162  27.492  14.909  0.00  0.00     0.186 HD
ATOM     46  N3  C2E d   1      22.262  27.085  18.072  0.00  0.00    -0.044 NA
BRANCH  44  47
ATOM     47  N2  C2E d   1      22.928  29.162  16.966  0.00  0.00    -0.233 N 
ATOM     48  H10 C2E d   1      22.792  29.689  17.840  0.00  0.00     0.174 HD
ATOM     49  H11 C2E d   1      23.241  29.649  16.114  0.00  0.00     0.174 HD
ENDBRANCH  44  47
ENDBRANCH  11  35
BRANCH  10  50
ATOM     50  O2' C2E d   1      19.672  26.533  21.558  0.00  0.00    -0.388 OA
ATOM     51  H6  C2E d   1      20.025  27.353  21.233  0.00  0.00     0.210 HD
ENDBRANCH  10  50
BRANCH  21  52
ATOM     52  O2A C2E d   1      17.423  17.499  21.381  0.00  0.00    -0.388 OA
ATOM     53  H17 C2E d   1      17.112  16.703  20.966  0.00  0.00     0.210 HD
ENDBRANCH  21  52
BRANCH  22  54
ATOM     54  N91 C2E d   1      15.567  19.282  18.990  0.00  0.00    -0.293 N 
ATOM     55  C81 C2E d   1      15.691  20.552  18.548  0.00  0.00     0.071 A 
ATOM     56  N71 C2E d   1      15.504  20.616  17.185  0.00  0.00    -0.235 NA
ATOM     57  H19 C2E d   1      15.909  21.409  19.183  0.00  0.00     0.144 H 
ATOM     58  C51 C2E d   1      15.256  19.319  16.754  0.00  0.00     0.159 A 
ATOM     59  C61 C2E d   1      14.971  18.671  15.470  0.00  0.00     0.226 A 
ATOM     60  C41 C2E d   1      15.299  18.474  17.923  0.00  0.00     0.185 A 
ATOM     61  O61 C2E d   1      14.922  19.482  14.309  0.00  0.00    -0.169 OA
ATOM     62  N11 C2E d   1      14.760  17.306  15.428  0.00  0.00    -0.164 N 
ATOM     63  C21 C2E d   1      14.816  16.506  16.647  0.00  0.00     0.702 A 
ATOM     64  H20 C2E d   1      14.567  16.862  14.553  0.00  0.00     0.186 HD
ATOM     65  N31 C2E d   1      15.077  17.100  17.853  0.00  0.00    -0.044 NA
BRANCH  63  66
ATOM     66  N21 C2E d   1      14.596  15.079  16.634  0.00  0.00    -0.233 N 
ATOM     67  H21 C2E d   1      14.643  14.543  17.512  0.00  0.00     0.174 HD
ATOM     68  H22 C2E d   1      14.393  14.597  15.747  0.00  0.00     0.174 HD
ENDBRANCH  63  66
ENDBRANCH  22  54
TORSDOF 6
