REMARK  11 active torsions:
REMARK  status: ('A' for Active; 'I' for Inactive)
REMARK       I    between atoms: C17_2  and  N16_3 
REMARK       I    between atoms: C17_2  and  N18_20 
REMARK    1  A    between atoms: N16_3  and  C10_4 
REMARK    2  A    between atoms: C9_6  and  C12_7 
REMARK    3  A    between atoms: C12_7  and  C15_8 
REMARK    4  A    between atoms: C12_7  and  C14_9 
REMARK    5  A    between atoms: C12_7  and  C13_10 
REMARK    6  A    between atoms: N7_12  and  C4_13 
REMARK    7  A    between atoms: C3_17  and  C29_18 
REMARK    8  A    between atoms: N18_20  and  C19_21 
REMARK    9  A    between atoms: C19_21  and  C20_22 
REMARK   10  A    between atoms: C20_22  and  C21_23 
REMARK   11  A    between atoms: C21_23  and  N22_24 
ROOT
ATOM      1  C10 0SR d   1     -39.439  22.021 104.665  0.00  0.00     0.135 A 
ATOM      2  C11 0SR d   1     -38.961  23.299 104.876  0.00  0.00    -0.012 A 
ATOM      3  C9  0SR d   1     -38.013  23.102 105.883  0.00  0.00     0.066 A 
ATOM      4  N8  0SR d   1     -37.948  21.808 106.207  0.00  0.00    -0.169 NA
ATOM      5  N7  0SR d   1     -38.775  21.183 105.512  0.00  0.00    -0.217 N 
ATOM      6  H2  0SR d   1     -39.250  24.226 104.382  0.00  0.00     0.092 H 
ENDROOT
BRANCH   1   7
ATOM      7  N16 0SR d   1     -40.354  21.585 103.652  0.00  0.00    -0.293 N 
ATOM      8  C17 0SR d   1     -40.388  22.093 102.352  0.00  0.00     0.321 C 
ATOM      9  O28 0SR d   1     -39.737  23.065 102.039  0.00  0.00    -0.247 OA
ATOM     10  N18 0SR d   1     -41.274  21.512 101.438  0.00  0.00    -0.343 N 
ATOM     11  H19 0SR d   1     -41.908  20.802 101.744  0.00  0.00     0.164 HD
ATOM     12  H1  0SR d   1     -41.011  20.870 103.892  0.00  0.00     0.172 HD
BRANCH  10  13
ATOM     13  C19 0SR d   1     -41.280  21.939 100.026  0.00  0.00    -0.002 C 
ATOM     14  H20 0SR d   1     -41.713  21.128  99.422  0.00  0.00     0.064 H 
ATOM     15  H21 0SR d   1     -40.240  22.113  99.714  0.00  0.00     0.064 H 
BRANCH  13  16
ATOM     16  C20 0SR d   1     -42.071  23.200  99.763  0.00  0.00    -0.028 C 
ATOM     17  H22 0SR d   1     -41.455  24.083  99.990  0.00  0.00     0.037 H 
ATOM     18  H23 0SR d   1     -42.975  23.213 100.389  0.00  0.00     0.037 H 
BRANCH  16  19
ATOM     19  C21 0SR d   1     -42.467  23.202  98.262  0.00  0.00     0.085 C 
ATOM     20  H24 0SR d   1     -43.504  22.847  98.173  0.00  0.00     0.076 H 
ATOM     21  H25 0SR d   1     -41.797  22.517  97.722  0.00  0.00     0.076 H 
BRANCH  19  22
ATOM     22  N22 0SR d   1     -42.373  24.533  97.643  0.00  0.00    -0.067 N 
ATOM     23  C27 0SR d   1     -43.449  25.424  98.112  0.00  0.00     0.103 C 
ATOM     24  C26 0SR d   1     -43.353  26.750  97.349  0.00  0.00     0.042 C 
ATOM     25  H27 0SR d   1     -43.334  25.608  99.190  0.00  0.00     0.079 H 
ATOM     26  H28 0SR d   1     -44.426  24.957  97.922  0.00  0.00     0.079 H 
ATOM     27  O24 0SR d   1     -43.400  26.552  95.928  0.00  0.00    -0.388 OA
ATOM     28  H29 0SR d   1     -42.404  27.242  97.609  0.00  0.00     0.076 H 
ATOM     29  H30 0SR d   1     -44.194  27.394  97.647  0.00  0.00     0.076 H 
ATOM     30  C23 0SR d   1     -42.338  25.738  95.452  0.00  0.00     0.042 C 
ATOM     31  C25 0SR d   1     -42.403  24.380  96.163  0.00  0.00     0.103 C 
ATOM     32  H31 0SR d   1     -41.374  26.223  95.668  0.00  0.00     0.076 H 
ATOM     33  H32 0SR d   1     -42.441  25.593  94.367  0.00  0.00     0.076 H 
ATOM     34  H33 0SR d   1     -43.335  23.871  95.876  0.00  0.00     0.079 H 
ATOM     35  H34 0SR d   1     -41.542  23.772  95.850  0.00  0.00     0.079 H 
ATOM     36  H26 0SR d   1     -41.491  24.945  97.904  0.00  0.00     0.280 HD
ENDBRANCH  19  22
ENDBRANCH  16  19
ENDBRANCH  13  16
ENDBRANCH  10  13
ENDBRANCH   1   7
BRANCH   5  37
ATOM     37  C4  0SR d   1     -38.896  19.726 105.564  0.00  0.00     0.060 A 
ATOM     38  C2  0SR d   1     -38.881  19.092 106.804  0.00  0.00    -0.055 A 
ATOM     39  C1  0SR d   1     -38.900  17.704 106.879  0.00  0.00    -0.075 A 
ATOM     40  H12 0SR d   1     -38.854  19.682 107.713  0.00  0.00     0.087 H 
ATOM     41  C3  0SR d   1     -38.895  16.945 105.713  0.00  0.00    -0.062 A 
ATOM     42  H18 0SR d   1     -38.919  17.213 107.845  0.00  0.00     0.084 H 
ATOM     43  C5  0SR d   1     -38.865  17.572 104.470  0.00  0.00    -0.075 A 
ATOM     44  C6  0SR d   1     -38.833  18.959 104.392  0.00  0.00    -0.055 A 
ATOM     45  H14 0SR d   1     -38.867  16.978 103.563  0.00  0.00     0.084 H 
ATOM     46  H13 0SR d   1     -38.760  19.447 103.427  0.00  0.00     0.087 H 
BRANCH  41  47
ATOM     47  C29 0SR d   1     -38.933  15.433 105.798  0.00  0.00    -0.051 C 
ATOM     48  H15 0SR d   1     -38.953  15.126 106.854  0.00  0.00     0.033 H 
ATOM     49  H16 0SR d   1     -38.039  15.016 105.311  0.00  0.00     0.033 H 
ATOM     50  H17 0SR d   1     -39.835  15.060 105.290  0.00  0.00     0.033 H 
ENDBRANCH  41  47
ENDBRANCH   5  37
BRANCH   3  51
ATOM     51  C12 0SR d   1     -37.164  24.173 106.555  0.00  0.00    -0.005 C 
BRANCH  51  52
ATOM     52  C15 0SR d   1     -36.783  25.244 105.545  0.00  0.00    -0.064 C 
ATOM     53  H3  0SR d   1     -36.170  26.013 106.039  0.00  0.00     0.028 H 
ATOM     54  H4  0SR d   1     -37.695  25.707 105.139  0.00  0.00     0.028 H 
ATOM     55  H5  0SR d   1     -36.208  24.788 104.726  0.00  0.00     0.028 H 
ENDBRANCH  51  52
BRANCH  51  56
ATOM     56  C14 0SR d   1     -35.890  23.558 107.154  0.00  0.00    -0.064 C 
ATOM     57  H6  0SR d   1     -36.165  22.783 107.885  0.00  0.00     0.028 H 
ATOM     58  H7  0SR d   1     -35.304  24.343 107.655  0.00  0.00     0.028 H 
ATOM     59  H8  0SR d   1     -35.288  23.107 106.351  0.00  0.00     0.028 H 
ENDBRANCH  51  56
BRANCH  51  60
ATOM     60  C13 0SR d   1     -37.985  24.799 107.678  0.00  0.00    -0.064 C 
ATOM     61  H9  0SR d   1     -38.900  25.243 107.260  0.00  0.00     0.028 H 
ATOM     62  H10 0SR d   1     -37.392  25.581 108.174  0.00  0.00     0.028 H 
ATOM     63  H11 0SR d   1     -38.255  24.024 108.411  0.00  0.00     0.028 H 
ENDBRANCH  51  60
ENDBRANCH   3  51
TORSDOF 11
