REMARK  17 active torsions:
REMARK  status: ('A' for Active; 'I' for Inactive)
REMARK       I    between atoms: C29_2  and  N30_3 
REMARK       I    between atoms: C29_2  and  N28_20 
REMARK    1  A    between atoms: N30_3  and  C32_4 
REMARK    2  A    between atoms: N35_5  and  C41_6 
REMARK    3  A    between atoms: C44_9  and  C47_10 
REMARK    4  A    between atoms: C34_14  and  C37_15 
REMARK    5  A    between atoms: C37_15  and  C40_16 
REMARK    6  A    between atoms: C37_15  and  C39_17 
REMARK    7  A    between atoms: C37_15  and  C38_18 
REMARK    8  A    between atoms: N28_20  and  C27_21 
REMARK    9  A    between atoms: C27_21  and  C26_22 
REMARK   10  A    between atoms: C26_22  and  N24_23 
REMARK       I    between atoms: N19_28  and  C18_29 
REMARK       I    between atoms: C18_29  and  N17_31 
REMARK   11  A    between atoms: N17_31  and  C10_32 
REMARK   12  A    between atoms: C11_34  and  C13_35 
REMARK   13  A    between atoms: C13_35  and  C16_36 
REMARK   14  A    between atoms: C13_35  and  C15_37 
REMARK   15  A    between atoms: C13_35  and  C14_38 
REMARK   16  A    between atoms: N8_40  and  C4_41 
REMARK   17  A    between atoms: C3_45  and  C7_46 
ROOT
ATOM      1  N24 0SS d   1      38.681  59.145 142.132  0.00  0.00    -0.067 N 
ATOM      2  C23 0SS d   1      37.902  59.547 140.935  0.00  0.00     0.098 C 
ATOM      3  C21 0SS d   1      37.236  58.405 140.150  0.00  0.00     0.022 C 
ATOM      4  C25 0SS d   1      39.497  57.951 141.827  0.00  0.00     0.098 C 
ATOM      5  C22 0SS d   1      38.564  56.835 141.331  0.00  0.00     0.022 C 
ATOM      6  N19 0SS d   1      38.104  57.217 139.973  0.00  0.00    -0.331 N 
ATOM      7  C18 0SS d   1      38.381  56.604 138.745  0.00  0.00     0.324 C 
ATOM      8  O20 0SS d   1      37.894  57.079 137.751  0.00  0.00    -0.247 OA
ATOM      9  N17 0SS d   1      39.271  55.521 138.665  0.00  0.00    -0.293 N 
ATOM     10  H24 0SS d   1      38.041  58.911 142.875  0.00  0.00     0.280 HD
ATOM     11  H25 0SS d   1      38.584  60.073 140.251  0.00  0.00     0.078 H 
ATOM     12  H26 0SS d   1      37.110  60.236 141.264  0.00  0.00     0.078 H 
ATOM     13  H27 0SS d   1      36.959  58.783 139.155  0.00  0.00     0.067 H 
ATOM     14  H28 0SS d   1      36.329  58.095 140.690  0.00  0.00     0.067 H 
ATOM     15  H29 0SS d   1      40.022  57.619 142.735  0.00  0.00     0.078 H 
ATOM     16  H30 0SS d   1      40.232  58.194 141.046  0.00  0.00     0.078 H 
ATOM     17  H31 0SS d   1      37.702  56.737 142.007  0.00  0.00     0.067 H 
ATOM     18  H32 0SS d   1      39.108  55.880 141.290  0.00  0.00     0.067 H 
ATOM     19  H33 0SS d   1      39.757  55.190 139.474  0.00  0.00     0.172 HD
ENDROOT
BRANCH   1  20
ATOM     20  C26 0SS d   1      39.513  60.277 142.570  0.00  0.00     0.098 C 
ATOM     21  H22 0SS d   1      40.306  60.434 141.825  0.00  0.00     0.078 H 
ATOM     22  H23 0SS d   1      38.879  61.174 142.625  0.00  0.00     0.078 H 
BRANCH  20  23
ATOM     23  C27 0SS d   1      40.164  60.064 143.927  0.00  0.00     0.019 C 
ATOM     24  H20 0SS d   1      41.037  59.407 143.801  0.00  0.00     0.066 H 
ATOM     25  H21 0SS d   1      40.492  61.038 144.318  0.00  0.00     0.066 H 
BRANCH  23  26
ATOM     26  N28 0SS d   1      39.244  59.447 144.902  0.00  0.00    -0.341 N 
ATOM     27  C29 0SS d   1      39.652  58.502 145.807  0.00  0.00     0.321 C 
ATOM     28  O31 0SS d   1      40.656  57.856 145.595  0.00  0.00    -0.247 OA
ATOM     29  N30 0SS d   1      38.921  58.358 146.957  0.00  0.00    -0.293 N 
ATOM     30  H1  0SS d   1      38.099  58.914 147.083  0.00  0.00     0.172 HD
ATOM     31  H19 0SS d   1      38.285  59.730 144.902  0.00  0.00     0.164 HD
BRANCH  29  32
ATOM     32  C32 0SS d   1      39.297  57.440 147.978  0.00  0.00     0.135 A 
ATOM     33  N35 0SS d   1      38.457  56.850 148.844  0.00  0.00    -0.217 N 
ATOM     34  N36 0SS d   1      39.081  56.017 149.570  0.00  0.00    -0.169 NA
ATOM     35  C34 0SS d   1      40.385  56.006 149.263  0.00  0.00     0.066 A 
ATOM     36  C33 0SS d   1      40.558  56.919 148.253  0.00  0.00    -0.012 A 
ATOM     37  H18 0SS d   1      41.495  57.183 147.764  0.00  0.00     0.092 H 
BRANCH  33  38
ATOM     38  C41 0SS d   1      36.994  56.983 148.946  0.00  0.00     0.060 A 
ATOM     39  C46 0SS d   1      36.232  56.980 147.772  0.00  0.00    -0.055 A 
ATOM     40  C45 0SS d   1      34.845  57.053 147.809  0.00  0.00    -0.075 A 
ATOM     41  H2  0SS d   1      36.735  56.919 146.814  0.00  0.00     0.087 H 
ATOM     42  C44 0SS d   1      34.181  57.089 149.033  0.00  0.00    -0.062 A 
ATOM     43  H3  0SS d   1      34.279  57.082 146.885  0.00  0.00     0.084 H 
ATOM     44  C43 0SS d   1      34.930  57.071 150.209  0.00  0.00    -0.075 A 
ATOM     45  C42 0SS d   1      36.330  56.999 150.169  0.00  0.00    -0.055 A 
ATOM     46  H7  0SS d   1      34.424  57.113 151.167  0.00  0.00     0.084 H 
ATOM     47  H8  0SS d   1      36.896  56.956 151.093  0.00  0.00     0.087 H 
BRANCH  42  48
ATOM     48  C47 0SS d   1      32.669  57.150 149.065  0.00  0.00    -0.051 C 
ATOM     49  H4  0SS d   1      32.325  57.172 150.110  0.00  0.00     0.033 H 
ATOM     50  H5  0SS d   1      32.255  56.264 148.561  0.00  0.00     0.033 H 
ATOM     51  H6  0SS d   1      32.328  58.059 148.548  0.00  0.00     0.033 H 
ENDBRANCH  42  48
ENDBRANCH  33  38
BRANCH  35  52
ATOM     52  C37 0SS d   1      41.464  55.176 149.951  0.00  0.00    -0.005 C 
BRANCH  52  53
ATOM     53  C40 0SS d   1      42.469  54.523 148.998  0.00  0.00    -0.064 C 
ATOM     54  H9  0SS d   1      43.205  53.948 149.579  0.00  0.00     0.028 H 
ATOM     55  H10 0SS d   1      42.986  55.303 148.420  0.00  0.00     0.028 H 
ATOM     56  H11 0SS d   1      41.938  53.849 148.310  0.00  0.00     0.028 H 
ENDBRANCH  52  53
BRANCH  52  57
ATOM     57  C39 0SS d   1      40.853  54.093 150.822  0.00  0.00    -0.064 C 
ATOM     58  H12 0SS d   1      40.127  54.545 151.514  0.00  0.00     0.028 H 
ATOM     59  H13 0SS d   1      41.647  53.594 151.398  0.00  0.00     0.028 H 
ATOM     60  H14 0SS d   1      40.342  53.355 150.186  0.00  0.00     0.028 H 
ENDBRANCH  52  57
BRANCH  52  61
ATOM     61  C38 0SS d   1      42.230  56.127 150.873  0.00  0.00    -0.064 C 
ATOM     62  H15 0SS d   1      42.688  56.928 150.274  0.00  0.00     0.028 H 
ATOM     63  H16 0SS d   1      43.017  55.570 151.403  0.00  0.00     0.028 H 
ATOM     64  H17 0SS d   1      41.536  56.567 151.604  0.00  0.00     0.028 H 
ENDBRANCH  52  61
ENDBRANCH  35  52
ENDBRANCH  29  32
ENDBRANCH  23  26
ENDBRANCH  20  23
ENDBRANCH   1  20
BRANCH   9  65
ATOM     65  C10 0SS d   1      39.456  54.916 137.403  0.00  0.00     0.135 A 
ATOM     66  C12 0SS d   1      39.029  53.693 136.941  0.00  0.00    -0.012 A 
ATOM     67  C11 0SS d   1      39.287  53.727 135.587  0.00  0.00     0.066 A 
ATOM     68  H34 0SS d   1      38.587  52.880 137.515  0.00  0.00     0.092 H 
ATOM     69  N9  0SS d   1      39.817  54.933 135.283  0.00  0.00    -0.169 NA
ATOM     70  N8  0SS d   1      39.903  55.614 136.336  0.00  0.00    -0.217 N 
BRANCH  67  71
ATOM     71  C13 0SS d   1      39.054  52.617 134.573  0.00  0.00    -0.005 C 
BRANCH  71  72
ATOM     72  C16 0SS d   1      40.432  52.002 134.339  0.00  0.00    -0.064 C 
ATOM     73  H35 0SS d   1      40.349  51.183 133.610  0.00  0.00     0.028 H 
ATOM     74  H36 0SS d   1      40.824  51.609 135.289  0.00  0.00     0.028 H 
ATOM     75  H37 0SS d   1      41.115  52.771 133.950  0.00  0.00     0.028 H 
ENDBRANCH  71  72
BRANCH  71  76
ATOM     76  C15 0SS d   1      38.548  53.214 133.244  0.00  0.00    -0.064 C 
ATOM     77  H38 0SS d   1      37.555  53.661 133.398  0.00  0.00     0.028 H 
ATOM     78  H39 0SS d   1      38.479  52.419 132.487  0.00  0.00     0.028 H 
ATOM     79  H40 0SS d   1      39.249  53.988 132.899  0.00  0.00     0.028 H 
ENDBRANCH  71  76
BRANCH  71  80
ATOM     80  C14 0SS d   1      38.109  51.519 135.089  0.00  0.00    -0.064 C 
ATOM     81  H41 0SS d   1      38.498  51.115 136.036  0.00  0.00     0.028 H 
ATOM     82  H42 0SS d   1      38.045  50.711 134.345  0.00  0.00     0.028 H 
ATOM     83  H43 0SS d   1      37.108  51.945 135.256  0.00  0.00     0.028 H 
ENDBRANCH  71  80
ENDBRANCH  67  71
BRANCH  70  84
ATOM     84  C4  0SS d   1      40.434  56.984 136.386  0.00  0.00     0.060 A 
ATOM     85  C2  0SS d   1      41.452  57.240 137.307  0.00  0.00    -0.055 A 
ATOM     86  C1  0SS d   1      42.007  58.509 137.425  0.00  0.00    -0.075 A 
ATOM     87  H44 0SS d   1      41.815  56.438 137.939  0.00  0.00     0.087 H 
ATOM     88  C3  0SS d   1      41.543  59.536 136.623  0.00  0.00    -0.062 A 
ATOM     89  H50 0SS d   1      42.799  58.693 138.142  0.00  0.00     0.084 H 
ATOM     90  C5  0SS d   1      40.525  59.287 135.704  0.00  0.00    -0.075 A 
ATOM     91  C6  0SS d   1      39.965  58.022 135.589  0.00  0.00    -0.055 A 
ATOM     92  H46 0SS d   1      40.166  60.091 135.071  0.00  0.00     0.084 H 
ATOM     93  H45 0SS d   1      39.164  57.844 134.880  0.00  0.00     0.087 H 
BRANCH  88  94
ATOM     94  C7  0SS d   1      42.140  60.908 136.740  0.00  0.00    -0.051 C 
ATOM     95  H47 0SS d   1      42.922  60.903 137.514  0.00  0.00     0.033 H 
ATOM     96  H48 0SS d   1      41.355  61.627 137.017  0.00  0.00     0.033 H 
ATOM     97  H49 0SS d   1      42.581  61.200 135.775  0.00  0.00     0.033 H 
ENDBRANCH  88  94
ENDBRANCH  70  84
ENDBRANCH   9  65
TORSDOF 17
