REMARK  15 active torsions:
REMARK  status: ('A' for Active; 'I' for Inactive)
REMARK    1  A    between atoms: C10_18  and  C1_1 
REMARK    2  A    between atoms: C2_3  and  O2_4 
REMARK    3  A    between atoms: C3_5  and  O3_6 
REMARK    4  A    between atoms: C4_7  and  N1_8 
REMARK    5  A    between atoms: C7_12  and  N3_13 
REMARK    6  A    between atoms: S1_19  and  C10_18 
REMARK    7  A    between atoms: C11_20  and  S1_19 
REMARK    8  A    between atoms: C12_22  and  C11_20 
REMARK    9  A    between atoms: N6_21  and  C12_22 
REMARK       I    between atoms: C13_23  and  N6_21 
REMARK   10  A    between atoms: C14_24  and  C13_23 
REMARK   11  A    between atoms: N7_25  and  C14_24 
REMARK       I    between atoms: C15_26  and  N7_25 
REMARK   12  A    between atoms: C18_35  and  C15_26 
REMARK   13  A    between atoms: C16_29  and  N9_30 
REMARK   14  A    between atoms: C19_36  and  C20_37 
REMARK   15  A    between atoms: C19_36  and  C21_38 
ROOT
ATOM      1  C12 J1D d   1       2.244  21.375  12.030  0.00  0.00     0.007 C 
ATOM      2  H16 J1D d   1       1.836  21.573  13.032  0.00  0.00     0.065 H 
ATOM      3  H17 J1D d   1       1.687  21.962  11.285  0.00  0.00     0.065 H 
ENDROOT
BRANCH   1   4
ATOM      4  C11 J1D d   1       2.133  19.888  11.709  0.00  0.00     0.043 C 
ATOM      5  H13 J1D d   1       1.097  19.672  11.408  0.00  0.00     0.058 H 
ATOM      6  H14 J1D d   1       2.813  19.658  10.876  0.00  0.00     0.058 H 
BRANCH   4   7
ATOM      7  S1  J1D d   1       2.529  18.900  13.010  0.00  0.00     0.148 S 
ATOM      8  O7  J1D d   1       2.012  17.614  12.737  0.00  0.00    -0.228 OA
ATOM      9  O8  J1D d   1       2.317  19.605  14.237  0.00  0.00    -0.228 OA
BRANCH   7  10
ATOM     10  C10 J1D d   1       4.291  18.747  12.934  0.00  0.00     0.055 C 
ATOM     11  H11 J1D d   1       4.558  18.188  12.025  0.00  0.00     0.060 H 
ATOM     12  H12 J1D d   1       4.731  19.754  12.888  0.00  0.00     0.060 H 
BRANCH  10  13
ATOM     13  C1  J1D d   1       4.865  18.014  14.149  0.00  0.00     0.081 C 
ATOM     14  O1  J1D d   1       4.307  16.670  14.372  0.00  0.00    -0.355 OA
ATOM     15  C4  J1D d   1       5.335  15.729  14.726  0.00  0.00     0.139 C 
ATOM     16  C3  J1D d   1       6.607  16.590  15.038  0.00  0.00     0.105 C 
ATOM     17  H6  J1D d   1       5.054  15.116  15.595  0.00  0.00     0.122 H 
ATOM     18  C2  J1D d   1       6.388  17.797  14.033  0.00  0.00     0.090 C 
ATOM     19  H4  J1D d   1       7.535  16.054  14.790  0.00  0.00     0.093 H 
ATOM     20  H2  J1D d   1       6.695  17.532  13.010  0.00  0.00     0.091 H 
ATOM     21  H1  J1D d   1       4.655  18.634  15.033  0.00  0.00     0.088 H 
BRANCH  15  22
ATOM     22  N1  J1D d   1       5.529  14.892  13.534  0.00  0.00    -0.294 N 
ATOM     23  C5  J1D d   1       6.684  14.643  12.727  0.00  0.00     0.071 A 
ATOM     24  N2  J1D d   1       6.413  13.834  11.701  0.00  0.00    -0.236 NA
ATOM     25  H7  J1D d   1       7.668  15.064  12.927  0.00  0.00     0.144 H 
ATOM     26  C6  J1D d   1       5.049  13.569  11.813  0.00  0.00     0.149 A 
ATOM     27  C7  J1D d   1       4.198  12.820  11.038  0.00  0.00     0.155 A 
ATOM     28  C9  J1D d   1       4.480  14.210  12.938  0.00  0.00     0.167 A 
ATOM     29  N4  J1D d   1       2.872  12.704  11.403  0.00  0.00    -0.222 NA
ATOM     30  C8  J1D d   1       2.439  13.386  12.512  0.00  0.00     0.091 A 
ATOM     31  N5  J1D d   1       3.161  14.130  13.329  0.00  0.00    -0.222 NA
ATOM     32  H10 J1D d   1       1.383  13.305  12.744  0.00  0.00     0.146 H 
BRANCH  27  33
ATOM     33  N3  J1D d   1       4.690  12.193   9.907  0.00  0.00    -0.382 N 
ATOM     34  H8  J1D d   1       4.062  11.628   9.317  0.00  0.00     0.157 HD
ATOM     35  H9  J1D d   1       5.684  12.291   9.655  0.00  0.00     0.157 HD
ENDBRANCH  27  33
ENDBRANCH  15  22
BRANCH  16  36
ATOM     36  O3  J1D d   1       6.623  16.897  16.384  0.00  0.00    -0.388 OA
ATOM     37  H5  J1D d   1       7.327  17.510  16.559  0.00  0.00     0.210 HD
ENDBRANCH  16  36
BRANCH  18  38
ATOM     38  O2  J1D d   1       7.040  18.945  14.441  0.00  0.00    -0.390 OA
ATOM     39  H3  J1D d   1       7.979  18.816  14.371  0.00  0.00     0.210 HD
ENDBRANCH  18  38
ENDBRANCH  10  13
ENDBRANCH   7  10
ENDBRANCH   4   7
ENDBRANCH   1   4
BRANCH   1  40
ATOM     40  N6  J1D d   1       3.660  21.734  11.989  0.00  0.00    -0.359 N 
ATOM     41  C13 J1D d   1       4.218  22.094  10.781  0.00  0.00     0.235 C 
ATOM     42  O6  J1D d   1       3.555  22.132   9.751  0.00  0.00    -0.272 OA
ATOM     43  H15 J1D d   1       4.214  21.719  12.822  0.00  0.00     0.162 HD
BRANCH  41  44
ATOM     44  C14 J1D d   1       5.677  22.460  10.841  0.00  0.00     0.069 C 
ATOM     45  H18 J1D d   1       6.288  21.576  10.608  0.00  0.00     0.078 H 
ATOM     46  H19 J1D d   1       5.925  22.821  11.850  0.00  0.00     0.078 H 
BRANCH  44  47
ATOM     47  N7  J1D d   1       5.947  23.505   9.872  0.00  0.00    -0.347 N 
ATOM     48  C15 J1D d   1       5.309  24.738   9.861  0.00  0.00     0.268 C 
ATOM     49  O4  J1D d   1       4.436  25.062  10.661  0.00  0.00    -0.266 OA
ATOM     50  H20 J1D d   1       6.635  23.326   9.169  0.00  0.00     0.163 HD
BRANCH  48  51
ATOM     51  C18 J1D d   1       5.789  25.629   8.757  0.00  0.00     0.127 A 
ATOM     52  N11 J1D d   1       6.955  25.324   8.275  0.00  0.00    -0.263 NA
ATOM     53  C23 J1D d   1       7.417  26.064   7.225  0.00  0.00     0.167 A 
ATOM     54  C17 J1D d   1       8.687  25.662   6.678  0.00  0.00     0.268 A 
ATOM     55  C22 J1D d   1       6.718  27.138   6.682  0.00  0.00     0.149 A 
ATOM     56  H31 J1D d   1       7.915  26.754   7.921  0.00  0.00     0.103 H 
ATOM     57  N10 J1D d   1       9.080  26.453   5.586  0.00  0.00    -0.158 N 
ATOM     58  O5  J1D d   1       9.428  24.758   6.998  0.00  0.00    -0.270 OA
ATOM     59  C16 J1D d   1       8.369  27.493   5.134  0.00  0.00     0.680 A 
ATOM     60  H24 J1D d   1       9.936  26.227   5.122  0.00  0.00     0.187 HD
ATOM     61  N8  J1D d   1       7.201  27.892   5.598  0.00  0.00    -0.176 N 
ATOM     62  H21 J1D d   1       6.685  28.690   5.199  0.00  0.00     0.185 HD
ATOM     63  N12 J1D d   1       5.544  27.528   7.216  0.00  0.00    -0.257 NA
ATOM     64  C19 J1D d   1       4.929  26.801   8.359  0.00  0.00     0.097 A 
BRANCH  59  65
ATOM     65  N9  J1D d   1       8.990  28.125   4.057  0.00  0.00    -0.234 N 
ATOM     66  H22 J1D d   1       9.903  27.788   3.719  0.00  0.00     0.174 HD
ATOM     67  H23 J1D d   1       8.536  28.928   3.600  0.00  0.00     0.174 HD
ENDBRANCH  59  65
BRANCH  64  68
ATOM     68  C20 J1D d   1       4.826  27.803   9.520  0.00  0.00    -0.046 C 
ATOM     69  H25 J1D d   1       4.196  28.652   9.216  0.00  0.00     0.031 H 
ATOM     70  H26 J1D d   1       5.831  28.166   9.781  0.00  0.00     0.031 H 
ATOM     71  H27 J1D d   1       4.377  27.307  10.393  0.00  0.00     0.031 H 
ENDBRANCH  64  68
BRANCH  64  72
ATOM     72  C21 J1D d   1       3.597  26.274   7.839  0.00  0.00    -0.046 C 
ATOM     73  H28 J1D d   1       3.778  25.569   7.015  0.00  0.00     0.031 H 
ATOM     74  H29 J1D d   1       2.987  27.114   7.475  0.00  0.00     0.031 H 
ATOM     75  H30 J1D d   1       3.064  25.759   8.652  0.00  0.00     0.031 H 
ENDBRANCH  64  72
ENDBRANCH  48  51
ENDBRANCH  44  47
ENDBRANCH  41  44
ENDBRANCH   1  40
TORSDOF 15
