REMARK  11 active torsions:
REMARK  status: ('A' for Active; 'I' for Inactive)
REMARK    1  A    between atoms: OAP_16  and  CAA_1 
REMARK    2  A    between atoms: OAQ_17  and  CAB_2 
REMARK    3  A    between atoms: CAR_18  and  SAC_3 
REMARK    4  A    between atoms: CAK_11  and  CAJ_10 
REMARK    5  A    between atoms: CAJ_10  and  CAL_12 
REMARK    6  A    between atoms: NAN_14  and  CAK_11 
REMARK    7  A    between atoms: CAL_12  and  NAV_22 
REMARK    8  A    between atoms: NAO_15  and  CAR_18 
REMARK    9  A    between atoms: CAS_19  and  NAO_15 
REMARK   10  A    between atoms: CAT_20  and  OAP_16 
REMARK   11  A    between atoms: OAQ_17  and  CAU_21 
ROOT
ATOM      1  NAO PBD d   1     -54.496  22.773 -35.992  0.00  0.00    -0.336 N 
ATOM      2  H20 PBD d   1     -54.931  23.076 -36.875  0.00  0.00     0.168 HD
ENDROOT
BRANCH   1   3
ATOM      3  CAR PBD d   1     -53.707  23.675 -35.354  0.00  0.00     0.159 C 
ATOM      4  NAN PBD d   1     -53.200  23.481 -34.121  0.00  0.00    -0.267 NA
BRANCH   3   5
ATOM      5  SAC PBD d   1     -53.490  25.212 -36.213  0.00  0.00    -0.105 SA
ATOM      6  H7  PBD d   1     -53.940  25.159 -37.114  0.00  0.00     0.110 HD
ENDBRANCH   3   5
BRANCH   4   7
ATOM      7  CAK PBD d   1     -52.319  24.432 -33.385  0.00  0.00     0.019 C 
ATOM      8  H16 PBD d   1     -51.772  25.070 -34.095  0.00  0.00     0.067 H 
ATOM      9  H17 PBD d   1     -52.919  25.062 -32.712  0.00  0.00     0.067 H 
BRANCH   7  10
ATOM     10  CAJ PBD d   1     -51.332  23.575 -32.571  0.00  0.00    -0.033 C 
ATOM     11  H14 PBD d   1     -50.730  22.985 -33.278  0.00  0.00     0.037 H 
ATOM     12  H15 PBD d   1     -51.917  22.897 -31.932  0.00  0.00     0.037 H 
BRANCH  10  13
ATOM     13  CAL PBD d   1     -50.367  24.366 -31.669  0.00  0.00     0.002 C 
ATOM     14  H18 PBD d   1     -50.949  25.005 -30.988  0.00  0.00     0.065 H 
ATOM     15  H19 PBD d   1     -49.718  24.994 -32.296  0.00  0.00     0.065 H 
BRANCH  13  16
ATOM     16  NAV PBD d   1     -49.530  23.444 -30.874  0.00  0.00    -0.350 N 
ATOM     17  CAG PBD d   1     -48.461  22.762 -31.298  0.00  0.00    -0.003 A 
ATOM     18  CAD PBD d   1     -48.007  22.053 -30.242  0.00  0.00     0.018 A 
ATOM     19  H11 PBD d   1     -48.038  22.776 -32.301  0.00  0.00     0.113 H 
ATOM     20  NAM PBD d   1     -48.817  22.317 -29.220  0.00  0.00    -0.255 NA
ATOM     21  H8  PBD d   1     -47.142  21.391 -30.229  0.00  0.00     0.117 H 
ATOM     22  CAH PBD d   1     -49.769  23.148 -29.601  0.00  0.00     0.065 A 
ATOM     23  H12 PBD d   1     -50.591  23.519 -28.990  0.00  0.00     0.143 H 
ENDBRANCH  13  16
ENDBRANCH  10  13
ENDBRANCH   7  10
ENDBRANCH   4   7
ENDBRANCH   1   3
BRANCH   1  24
ATOM     24  CAS PBD d   1     -54.761  21.529 -35.582  0.00  0.00     0.036 A 
ATOM     25  CAE PBD d   1     -55.337  21.247 -34.341  0.00  0.00    -0.054 A 
ATOM     26  CAF PBD d   1     -55.580  19.917 -33.990  0.00  0.00    -0.046 A 
ATOM     27  H9  PBD d   1     -55.592  22.050 -33.659  0.00  0.00     0.087 H 
ATOM     28  CAT PBD d   1     -55.259  18.860 -34.867  0.00  0.00     0.101 A 
ATOM     29  H10 PBD d   1     -56.023  19.693 -33.026  0.00  0.00     0.087 H 
ATOM     30  CAU PBD d   1     -54.684  19.141 -36.125  0.00  0.00     0.103 A 
ATOM     31  CAI PBD d   1     -54.444  20.482 -36.459  0.00  0.00    -0.022 A 
ATOM     32  H13 PBD d   1     -54.002  20.715 -37.421  0.00  0.00     0.091 H 
BRANCH  28  33
ATOM     33  OAP PBD d   1     -55.498  17.548 -34.518  0.00  0.00    -0.353 OA
BRANCH  33  34
ATOM     34  CAA PBD d   1     -56.111  17.355 -33.213  0.00  0.00     0.010 C 
ATOM     35  H1  PBD d   1     -56.258  16.280 -33.032  0.00  0.00     0.066 H 
ATOM     36  H2  PBD d   1     -57.084  17.868 -33.185  0.00  0.00     0.066 H 
ATOM     37  H3  PBD d   1     -55.455  17.771 -32.434  0.00  0.00     0.066 H 
ENDBRANCH  33  34
ENDBRANCH  28  33
BRANCH  30  38
ATOM     38  OAQ PBD d   1     -54.374  18.100 -36.983  0.00  0.00    -0.353 OA
BRANCH  38  39
ATOM     39  CAB PBD d   1     -53.700  18.427 -38.218  0.00  0.00     0.010 C 
ATOM     40  H4  PBD d   1     -53.520  17.506 -38.792  0.00  0.00     0.066 H 
ATOM     41  H5  PBD d   1     -52.739  18.913 -37.994  0.00  0.00     0.066 H 
ATOM     42  H6  PBD d   1     -54.328  19.111 -38.808  0.00  0.00     0.066 H 
ENDBRANCH  38  39
ENDBRANCH  30  38
ENDBRANCH   1  24
TORSDOF 11
