REMARK  5 active torsions:
REMARK  status: ('A' for Active; 'I' for Inactive)
REMARK    1  A    between atoms: C3_1  and  N2_2 
REMARK    2  A    between atoms: N2_2  and  C1_3 
REMARK    3  A    between atoms: N2_2  and  C4_4 
REMARK    4  A    between atoms: C7_7  and  C11_16 
REMARK    5  A    between atoms: C6_8  and  C10_9 
ROOT
ATOM      1  C4  LM4 d   1      -0.616   2.759  22.312  0.00  0.00     0.148 A 
ATOM      2  N9  LM4 d   1      -1.082   3.407  21.227  0.00  0.00    -0.132 NA
ATOM      3  N8  LM4 d   1      -2.074   2.889  20.409  0.00  0.00    -0.147 NA
ATOM      4  C7  LM4 d   1      -2.606   1.687  20.648  0.00  0.00     0.100 A 
ATOM      5  C6  LM4 d   1      -2.149   0.938  21.764  0.00  0.00     0.009 A 
ATOM      6  C5  LM4 d   1      -1.140   1.487  22.586  0.00  0.00    -0.024 A 
ATOM      7  H11 LM4 d   1      -0.768   0.922  23.433  0.00  0.00     0.090 H 
ENDROOT
BRANCH   4   8
ATOM      8  C11 LM4 d   1      -3.625   1.196  19.717  0.00  0.00    -0.004 A 
ATOM      9  C16 LM4 d   1      -3.310   1.138  18.376  0.00  0.00    -0.060 A 
ATOM     10  C15 LM4 d   1      -4.231   0.663  17.470  0.00  0.00    -0.025 A 
ATOM     11  H12 LM4 d   1      -2.335   1.467  18.035  0.00  0.00     0.086 H 
ATOM     12  C25 LM4 d   1      -3.906   0.601  16.130  0.00  0.00    -0.072 A 
ATOM     13  C14 LM4 d   1      -5.485   0.256  17.895  0.00  0.00    -0.026 A 
ATOM     14  C24 LM4 d   1      -4.829   0.118  15.210  0.00  0.00    -0.082 A 
ATOM     15  H13 LM4 d   1      -2.929   0.930  15.794  0.00  0.00     0.084 H 
ATOM     16  C23 LM4 d   1      -6.084  -0.324  15.630  0.00  0.00    -0.082 A 
ATOM     17  H14 LM4 d   1      -4.572   0.084  14.158  0.00  0.00     0.083 H 
ATOM     18  C22 LM4 d   1      -6.393  -0.234  16.982  0.00  0.00    -0.072 A 
ATOM     19  H15 LM4 d   1      -6.798  -0.727  14.921  0.00  0.00     0.083 H 
ATOM     20  H16 LM4 d   1      -7.369  -0.556  17.326  0.00  0.00     0.084 H 
ATOM     21  C13 LM4 d   1      -5.803   0.297  19.237  0.00  0.00    -0.071 A 
ATOM     22  C12 LM4 d   1      -4.876   0.759  20.154  0.00  0.00    -0.070 A 
ATOM     23  H17 LM4 d   1      -6.779  -0.033  19.573  0.00  0.00     0.084 H 
ATOM     24  H18 LM4 d   1      -5.121   0.781  21.210  0.00  0.00     0.084 H 
ENDBRANCH   4   8
BRANCH   5  25
ATOM     25  C10 LM4 d   1      -2.605  -0.460  22.080  0.00  0.00    -0.021 A 
ATOM     26  C21 LM4 d   1      -2.639  -1.408  21.058  0.00  0.00    -0.055 A 
ATOM     27  C20 LM4 d   1      -2.990  -2.725  21.336  0.00  0.00     0.003 A 
ATOM     28  H7  LM4 d   1      -2.391  -1.118  20.043  0.00  0.00     0.087 H 
ATOM     29  N19 LM4 d   1      -3.278  -3.090  22.600  0.00  0.00    -0.273 NA
ATOM     30  H8  LM4 d   1      -3.032  -3.456  20.537  0.00  0.00     0.114 H 
ATOM     31  C18 LM4 d   1      -3.211  -2.214  23.612  0.00  0.00     0.003 A 
ATOM     32  C17 LM4 d   1      -2.852  -0.895  23.394  0.00  0.00    -0.055 A 
ATOM     33  H9  LM4 d   1      -3.442  -2.544  24.618  0.00  0.00     0.114 H 
ATOM     34  H10 LM4 d   1      -2.762  -0.206  24.226  0.00  0.00     0.087 H 
ENDBRANCH   5  25
BRANCH   1  35
ATOM     35  N2  LM4 d   1       0.404   3.373  23.071  0.00  0.00    -0.373 N 
BRANCH  35  36
ATOM     36  C3  LM4 d   1       0.919   4.669  22.642  0.00  0.00    -0.018 C 
ATOM     37  H1  LM4 d   1       1.702   5.001  23.339  0.00  0.00     0.056 H 
ATOM     38  H2  LM4 d   1       0.101   5.404  22.633  0.00  0.00     0.056 H 
ATOM     39  H3  LM4 d   1       1.343   4.579  21.631  0.00  0.00     0.056 H 
ENDBRANCH  35  36
BRANCH  35  40
ATOM     40  C1  LM4 d   1       1.006   2.699  24.224  0.00  0.00    -0.018 C 
ATOM     41  H4  LM4 d   1       0.492   1.742  24.398  0.00  0.00     0.056 H 
ATOM     42  H5  LM4 d   1       0.906   3.337  25.115  0.00  0.00     0.056 H 
ATOM     43  H6  LM4 d   1       2.071   2.512  24.024  0.00  0.00     0.056 H 
ENDBRANCH  35  40
ENDBRANCH   1  35
TORSDOF 5
