REMARK  5 active torsions:
REMARK  status: ('A' for Active; 'I' for Inactive)
REMARK    1  A    between atoms: C3_1  and  N2_2 
REMARK    2  A    between atoms: N2_2  and  C1_3 
REMARK    3  A    between atoms: N2_2  and  C4_4 
REMARK    4  A    between atoms: C7_7  and  C11_16 
REMARK    5  A    between atoms: C6_8  and  C10_9 
ROOT
ATOM      1  C4  LM3 d   1      -1.216   3.260  21.555  0.00  0.00     0.148 A 
ATOM      2  N9  LM3 d   1      -1.912   3.800  20.511  0.00  0.00    -0.132 NA
ATOM      3  N8  LM3 d   1      -2.861   3.161  19.915  0.00  0.00    -0.147 NA
ATOM      4  C7  LM3 d   1      -3.206   1.874  20.253  0.00  0.00     0.101 A 
ATOM      5  C6  LM3 d   1      -2.579   1.263  21.335  0.00  0.00     0.009 A 
ATOM      6  C5  LM3 d   1      -1.553   1.965  21.973  0.00  0.00    -0.024 A 
ATOM      7  H11 LM3 d   1      -1.015   1.506  22.795  0.00  0.00     0.090 H 
ENDROOT
BRANCH   4   8
ATOM      8  C11 LM3 d   1      -4.331   1.301  19.489  0.00  0.00     0.006 A 
ATOM      9  C16 LM3 d   1      -4.327   1.101  18.135  0.00  0.00    -0.013 A 
ATOM     10  C25 LM3 d   1      -3.229   1.399  17.353  0.00  0.00    -0.071 A 
ATOM     11  C15 LM3 d   1      -5.478   0.577  17.536  0.00  0.00    -0.025 A 
ATOM     12  C24 LM3 d   1      -3.277   1.142  15.989  0.00  0.00    -0.082 A 
ATOM     13  H12 LM3 d   1      -2.339   1.829  17.799  0.00  0.00     0.084 H 
ATOM     14  C23 LM3 d   1      -4.414   0.624  15.412  0.00  0.00    -0.082 A 
ATOM     15  H13 LM3 d   1      -2.410   1.351  15.373  0.00  0.00     0.083 H 
ATOM     16  C22 LM3 d   1      -5.532   0.330  16.177  0.00  0.00    -0.072 A 
ATOM     17  H14 LM3 d   1      -4.436   0.443  14.343  0.00  0.00     0.083 H 
ATOM     18  H15 LM3 d   1      -6.425  -0.083  15.722  0.00  0.00     0.084 H 
ATOM     19  C14 LM3 d   1      -6.581   0.279  18.280  0.00  0.00    -0.072 A 
ATOM     20  C13 LM3 d   1      -6.593   0.507  19.626  0.00  0.00    -0.081 A 
ATOM     21  H16 LM3 d   1      -7.456  -0.143  17.799  0.00  0.00     0.084 H 
ATOM     22  C12 LM3 d   1      -5.472   1.010  20.218  0.00  0.00    -0.070 A 
ATOM     23  H17 LM3 d   1      -7.478   0.292  20.214  0.00  0.00     0.083 H 
ATOM     24  H18 LM3 d   1      -5.474   1.187  21.288  0.00  0.00     0.084 H 
ENDBRANCH   4   8
BRANCH   5  25
ATOM     25  C10 LM3 d   1      -2.876  -0.136  21.757  0.00  0.00    -0.021 A 
ATOM     26  C21 LM3 d   1      -3.113  -0.470  23.075  0.00  0.00    -0.055 A 
ATOM     27  C20 LM3 d   1      -3.335  -1.800  23.402  0.00  0.00     0.003 A 
ATOM     28  H7  LM3 d   1      -3.126   0.295  23.843  0.00  0.00     0.087 H 
ATOM     29  N19 LM3 d   1      -3.310  -2.789  22.433  0.00  0.00    -0.273 NA
ATOM     30  H8  LM3 d   1      -3.531  -2.070  24.433  0.00  0.00     0.114 H 
ATOM     31  C18 LM3 d   1      -3.064  -2.459  21.104  0.00  0.00     0.003 A 
ATOM     32  C17 LM3 d   1      -2.838  -1.133  20.787  0.00  0.00    -0.055 A 
ATOM     33  H9  LM3 d   1      -3.050  -3.224  20.336  0.00  0.00     0.114 H 
ATOM     34  H10 LM3 d   1      -2.626  -0.863  19.759  0.00  0.00     0.087 H 
ENDBRANCH   5  25
BRANCH   1  35
ATOM     35  N2  LM3 d   1      -0.205   4.072  22.134  0.00  0.00    -0.373 N 
BRANCH  35  36
ATOM     36  C3  LM3 d   1       0.243   5.328  21.517  0.00  0.00    -0.018 C 
ATOM     37  H1  LM3 d   1       1.028   5.782  22.139  0.00  0.00     0.056 H 
ATOM     38  H2  LM3 d   1      -0.608   6.021  21.437  0.00  0.00     0.056 H 
ATOM     39  H3  LM3 d   1       0.644   5.121  20.514  0.00  0.00     0.056 H 
ENDBRANCH  35  36
BRANCH  35  40
ATOM     40  C1  LM3 d   1       0.520   3.794  23.379  0.00  0.00    -0.018 C 
ATOM     41  H4  LM3 d   1       0.159   2.849  23.811  0.00  0.00     0.056 H 
ATOM     42  H5  LM3 d   1       0.349   4.612  24.094  0.00  0.00     0.056 H 
ATOM     43  H6  LM3 d   1       1.596   3.712  23.166  0.00  0.00     0.056 H 
ENDBRANCH  35  40
ENDBRANCH   1  35
TORSDOF 5
