REMARK  10 active torsions:
REMARK  status: ('A' for Active; 'I' for Inactive)
REMARK    1  A    between atoms: OAP_16  and  CAA_1 
REMARK    2  A    between atoms: OAQ_17  and  CAB_2 
REMARK    3  A    between atoms: CAK_11  and  CAJ_10 
REMARK    4  A    between atoms: CAJ_10  and  CAL_12 
REMARK    5  A    between atoms: NAN_14  and  CAK_11 
REMARK    6  A    between atoms: CAL_12  and  NAV_22 
REMARK    7  A    between atoms: CAR_18  and  NAN_14 
REMARK    8  A    between atoms: CAS_19  and  NAO_15 
REMARK    9  A    between atoms: CAT_20  and  OAP_16 
REMARK   10  A    between atoms: OAQ_17  and  CAU_21 
ROOT
ATOM      1  SAC PBD d   1     -30.434  -2.074  37.749  0.00  0.00    -0.041 SA
ATOM      2  NAO PBD d   1     -31.932  -3.758  39.153  0.00  0.00    -0.333 N 
ATOM      3  CAR PBD d   1     -30.960  -2.838  39.205  0.00  0.00     0.172 C 
ATOM      4  H20 PBD d   1     -32.336  -3.979  38.265  0.00  0.00     0.168 HD
ENDROOT
BRANCH   2   5
ATOM      5  CAS PBD d   1     -32.385  -4.394  40.240  0.00  0.00     0.037 A 
ATOM      6  CAE PBD d   1     -33.100  -3.722  41.224  0.00  0.00    -0.054 A 
ATOM      7  CAF PBD d   1     -33.556  -4.408  42.332  0.00  0.00    -0.046 A 
ATOM      8  H8  PBD d   1     -33.299  -2.661  41.122  0.00  0.00     0.087 H 
ATOM      9  CAT PBD d   1     -33.336  -5.784  42.460  0.00  0.00     0.101 A 
ATOM     10  H9  PBD d   1     -34.090  -3.875  43.111  0.00  0.00     0.087 H 
ATOM     11  CAU PBD d   1     -32.639  -6.459  41.463  0.00  0.00     0.103 A 
ATOM     12  CAI PBD d   1     -32.170  -5.755  40.366  0.00  0.00    -0.022 A 
ATOM     13  H12 PBD d   1     -31.624  -6.281  39.591  0.00  0.00     0.091 H 
BRANCH   9  14
ATOM     14  OAP PBD d   1     -33.805  -6.490  43.542  0.00  0.00    -0.353 OA
BRANCH  14  15
ATOM     15  CAA PBD d   1     -34.720  -5.695  44.366  0.00  0.00     0.010 C 
ATOM     16  H1  PBD d   1     -35.067  -6.300  45.216  0.00  0.00     0.066 H 
ATOM     17  H2  PBD d   1     -35.584  -5.385  43.760  0.00  0.00     0.066 H 
ATOM     18  H3  PBD d   1     -34.196  -4.804  44.740  0.00  0.00     0.066 H 
ENDBRANCH  14  15
ENDBRANCH   9  14
BRANCH  11  19
ATOM     19  OAQ PBD d   1     -32.427  -7.809  41.608  0.00  0.00    -0.353 OA
BRANCH  19  20
ATOM     20  CAB PBD d   1     -31.624  -8.464  40.586  0.00  0.00     0.010 C 
ATOM     21  H4  PBD d   1     -31.533  -9.535  40.822  0.00  0.00     0.066 H 
ATOM     22  H5  PBD d   1     -30.623  -8.008  40.558  0.00  0.00     0.066 H 
ATOM     23  H6  PBD d   1     -32.109  -8.344  39.606  0.00  0.00     0.066 H 
ENDBRANCH  19  20
ENDBRANCH  11  19
ENDBRANCH   2   5
BRANCH   3  24
ATOM     24  NAN PBD d   1     -30.376  -2.536  40.374  0.00  0.00    -0.367 N 
ATOM     25  H19 PBD d   1     -30.674  -3.029  41.191  0.00  0.00     0.161 HD
BRANCH  24  26
ATOM     26  CAK PBD d   1     -29.334  -1.531  40.520  0.00  0.00    -0.004 C 
ATOM     27  H15 PBD d   1     -28.456  -1.805  39.916  0.00  0.00     0.064 H 
ATOM     28  H16 PBD d   1     -29.708  -0.548  40.199  0.00  0.00     0.064 H 
BRANCH  26  29
ATOM     29  CAJ PBD d   1     -28.959  -1.494  42.016  0.00  0.00    -0.035 C 
ATOM     30  H13 PBD d   1     -28.386  -2.403  42.250  0.00  0.00     0.037 H 
ATOM     31  H14 PBD d   1     -29.889  -1.485  42.604  0.00  0.00     0.037 H 
BRANCH  29  32
ATOM     32  CAL PBD d   1     -28.126  -0.288  42.423  0.00  0.00     0.002 C 
ATOM     33  H17 PBD d   1     -28.689   0.633  42.212  0.00  0.00     0.065 H 
ATOM     34  H18 PBD d   1     -27.186  -0.282  41.851  0.00  0.00     0.065 H 
BRANCH  32  35
ATOM     35  NAV PBD d   1     -27.818  -0.360  43.887  0.00  0.00    -0.350 N 
ATOM     36  CAG PBD d   1     -26.932  -1.199  44.471  0.00  0.00    -0.003 A 
ATOM     37  CAD PBD d   1     -26.941  -0.949  45.790  0.00  0.00     0.018 A 
ATOM     38  H10 PBD d   1     -26.321  -1.944  43.962  0.00  0.00     0.113 H 
ATOM     39  NAM PBD d   1     -27.840   0.053  46.017  0.00  0.00    -0.255 NA
ATOM     40  H7  PBD d   1     -26.339  -1.455  46.544  0.00  0.00     0.117 H 
ATOM     41  CAH PBD d   1     -28.373   0.396  44.833  0.00  0.00     0.065 A 
ATOM     42  H11 PBD d   1     -29.130   1.162  44.673  0.00  0.00     0.143 H 
ENDBRANCH  32  35
ENDBRANCH  29  32
ENDBRANCH  26  29
ENDBRANCH  24  26
ENDBRANCH   3  24
TORSDOF 10
