REMARK  5 active torsions:
REMARK  status: ('A' for Active; 'I' for Inactive)
REMARK    1  A    between atoms: C19_1  and  C17_2 
REMARK    2  A    between atoms: C15_4  and  C18_5 
REMARK    3  A    between atoms: C5_8  and  C4_9 
REMARK    4  A    between atoms: C2_12  and  S6_13 
REMARK    5  A    between atoms: S6_13  and  C7_14 
ROOT
ATOM      1  C4  2N6 d   1      31.689  10.605  24.747  0.00  0.00     0.086 A 
ATOM      2  C8  2N6 d   1      30.521  10.943  24.076  0.00  0.00     0.062 A 
ATOM      3  N1  2N6 d   1      31.550  10.050  25.975  0.00  0.00    -0.221 NA
ATOM      4  C2  2N6 d   1      30.325   9.816  26.552  0.00  0.00     0.190 A 
ATOM      5  N3  2N6 d   1      29.209  10.146  25.914  0.00  0.00    -0.204 NA
ATOM      6  C9  2N6 d   1      29.295  10.675  24.681  0.00  0.00     0.144 A 
ATOM      7  N10 2N6 d   1      28.360  11.071  23.855  0.00  0.00    -0.348 N 
ATOM      8  C11 2N6 d   1      28.914  11.582  22.750  0.00  0.00    -0.000 A 
ATOM      9  C12 2N6 d   1      30.234  11.533  22.849  0.00  0.00     0.076 A 
ATOM     10  C20 2N6 d   1      31.231  11.969  21.906  0.00  0.00     0.102 C 
ATOM     11  N21 2N6 d   1      32.050  12.270  21.185  0.00  0.00    -0.191 NA
ATOM     12  H13 2N6 d   1      27.348  11.000  24.030  0.00  0.00     0.167 HD
ATOM     13  H14 2N6 d   1      28.363  11.978  21.898  0.00  0.00     0.113 H 
ENDROOT
BRANCH   1  14
ATOM     14  C5  2N6 d   1      32.998  10.835  24.319  0.00  0.00    -0.000 A 
ATOM     15  C17 2N6 d   1      33.556  12.120  24.183  0.00  0.00    -0.049 A 
ATOM     16  C16 2N6 d   1      34.905  12.222  23.869  0.00  0.00    -0.071 A 
ATOM     17  C15 2N6 d   1      35.692  11.088  23.676  0.00  0.00    -0.061 A 
ATOM     18  H4  2N6 d   1      35.355  13.203  23.772  0.00  0.00     0.085 H 
ATOM     19  C14 2N6 d   1      35.126   9.834  23.815  0.00  0.00    -0.076 A 
ATOM     20  C13 2N6 d   1      33.809   9.708  24.166  0.00  0.00    -0.070 A 
ATOM     21  H8  2N6 d   1      35.727   8.948  23.645  0.00  0.00     0.084 H 
ATOM     22  H9  2N6 d   1      33.390   8.721  24.327  0.00  0.00     0.085 H 
BRANCH  15  23
ATOM     23  C19 2N6 d   1      32.804  13.470  24.361  0.00  0.00    -0.050 C 
ATOM     24  H1  2N6 d   1      33.502  14.303  24.192  0.00  0.00     0.033 H 
ATOM     25  H2  2N6 d   1      32.399  13.532  25.382  0.00  0.00     0.033 H 
ATOM     26  H3  2N6 d   1      31.980  13.529  23.635  0.00  0.00     0.033 H 
ENDBRANCH  15  23
BRANCH  17  27
ATOM     27  C18 2N6 d   1      37.184  11.222  23.285  0.00  0.00    -0.051 C 
ATOM     28  H5  2N6 d   1      37.627  10.221  23.180  0.00  0.00     0.033 H 
ATOM     29  H6  2N6 d   1      37.719  11.780  24.067  0.00  0.00     0.033 H 
ATOM     30  H7  2N6 d   1      37.266  11.761  22.329  0.00  0.00     0.033 H 
ENDBRANCH  17  27
ENDBRANCH   1  14
BRANCH   4  31
ATOM     31  S6  2N6 d   1      30.177   9.014  28.120  0.00  0.00    -0.095 SA
BRANCH  31  32
ATOM     32  C7  2N6 d   1      31.304   7.596  27.984  0.00  0.00    -0.027 C 
ATOM     33  H10 2N6 d   1      31.286   7.022  28.922  0.00  0.00     0.042 H 
ATOM     34  H11 2N6 d   1      32.326   7.957  27.794  0.00  0.00     0.042 H 
ATOM     35  H12 2N6 d   1      30.983   6.951  27.153  0.00  0.00     0.042 H 
ENDBRANCH  31  32
ENDBRANCH   4  31
TORSDOF 5
