REMARK  7 active torsions:
REMARK  status: ('A' for Active; 'I' for Inactive)
REMARK    1  A    between atoms: N1_1  and  C28_18 
REMARK    2  A    between atoms: C6_6  and  N10_10 
REMARK    3  A    between atoms: C9_9  and  C11_11 
REMARK    4  A    between atoms: C14_14  and  C24_17 
REMARK    5  A    between atoms: C28_18  and  C29_19 
REMARK    6  A    between atoms: C28_18  and  C33_20 
REMARK    7  A    between atoms: C28_18  and  C37_21 
ROOT
ATOM      1  N1  PP1 d   1     -21.034 -27.162 -17.721  0.00  0.00    -0.242 N 
ATOM      2  C2  PP1 d   1     -21.897 -25.138 -20.568  0.00  0.00     0.091 A 
ATOM      3  N3  PP1 d   1     -21.540 -25.381 -19.322  0.00  0.00    -0.222 NA
ATOM      4  C4  PP1 d   1     -21.372 -26.649 -18.901  0.00  0.00     0.164 A 
ATOM      5  C5  PP1 d   1     -21.562 -27.716 -19.768  0.00  0.00     0.088 A 
ATOM      6  C6  PP1 d   1     -21.937 -27.406 -21.084  0.00  0.00     0.139 A 
ATOM      7  N7  PP1 d   1     -22.089 -26.127 -21.422  0.00  0.00    -0.224 NA
ATOM      8  N8  PP1 d   1     -20.991 -28.399 -17.743  0.00  0.00    -0.168 NA
ATOM      9  C9  PP1 d   1     -21.272 -28.841 -18.977  0.00  0.00     0.105 A 
ATOM     10  H1  PP1 d   1     -22.035 -24.114 -20.895  0.00  0.00     0.146 H 
ENDROOT
BRANCH   9  11
ATOM     11  C11 PP1 d   1     -21.359 -30.198 -19.317  0.00  0.00    -0.005 A 
ATOM     12  C12 PP1 d   1     -21.550 -30.665 -20.612  0.00  0.00    -0.070 A 
ATOM     13  C13 PP1 d   1     -21.622 -32.024 -20.894  0.00  0.00    -0.076 A 
ATOM     14  H4  PP1 d   1     -21.645 -29.951 -21.422  0.00  0.00     0.084 H 
ATOM     15  C14 PP1 d   1     -21.494 -32.943 -19.866  0.00  0.00    -0.062 A 
ATOM     16  H5  PP1 d   1     -21.777 -32.362 -21.912  0.00  0.00     0.084 H 
ATOM     17  C15 PP1 d   1     -21.292 -32.497 -18.563  0.00  0.00    -0.076 A 
ATOM     18  C16 PP1 d   1     -21.211 -31.133 -18.296  0.00  0.00    -0.070 A 
ATOM     19  H6  PP1 d   1     -21.198 -33.213 -17.755  0.00  0.00     0.084 H 
ATOM     20  H7  PP1 d   1     -21.031 -30.795 -17.282  0.00  0.00     0.084 H 
BRANCH  15  21
ATOM     21  C24 PP1 d   1     -21.572 -34.439 -20.174  0.00  0.00    -0.051 C 
ATOM     22  H8  PP1 d   1     -21.734 -34.583 -21.252  0.00  0.00     0.033 H 
ATOM     23  H9  PP1 d   1     -22.407 -34.886 -19.615  0.00  0.00     0.033 H 
ATOM     24  H10 PP1 d   1     -20.631 -34.924 -19.877  0.00  0.00     0.033 H 
ENDBRANCH  15  21
ENDBRANCH   9  11
BRANCH   6  25
ATOM     25  N10 PP1 d   1     -22.159 -28.298 -22.051  0.00  0.00    -0.383 N 
ATOM     26  H2  PP1 d   1     -22.432 -27.980 -22.992  0.00  0.00     0.157 HD
ATOM     27  H3  PP1 d   1     -22.058 -29.304 -21.857  0.00  0.00     0.157 HD
ENDBRANCH   6  25
BRANCH   1  28
ATOM     28  C28 PP1 d   1     -20.723 -26.353 -16.506  0.00  0.00     0.047 C 
BRANCH  28  29
ATOM     29  C29 PP1 d   1     -20.337 -27.333 -15.397  0.00  0.00    -0.052 C 
ATOM     30  H11 PP1 d   1     -20.099 -26.774 -14.480  0.00  0.00     0.030 H 
ATOM     31  H12 PP1 d   1     -19.457 -27.914 -15.711  0.00  0.00     0.030 H 
ATOM     32  H13 PP1 d   1     -21.177 -28.016 -15.203  0.00  0.00     0.030 H 
ENDBRANCH  28  29
BRANCH  28  33
ATOM     33  C33 PP1 d   1     -19.534 -25.427 -16.821  0.00  0.00    -0.052 C 
ATOM     34  H14 PP1 d   1     -19.294 -24.824 -15.933  0.00  0.00     0.030 H 
ATOM     35  H15 PP1 d   1     -19.799 -24.761 -17.656  0.00  0.00     0.030 H 
ATOM     36  H16 PP1 d   1     -18.660 -26.034 -17.099  0.00  0.00     0.030 H 
ENDBRANCH  28  33
BRANCH  28  37
ATOM     37  C37 PP1 d   1     -21.956 -25.533 -16.106  0.00  0.00    -0.052 C 
ATOM     38  H17 PP1 d   1     -21.725 -24.937 -15.210  0.00  0.00     0.030 H 
ATOM     39  H18 PP1 d   1     -22.794 -26.212 -15.889  0.00  0.00     0.030 H 
ATOM     40  H19 PP1 d   1     -22.233 -24.861 -16.932  0.00  0.00     0.030 H 
ENDBRANCH  28  37
ENDBRANCH   1  28
TORSDOF 7
