REMARK  6 active torsions:
REMARK  status: ('A' for Active; 'I' for Inactive)
REMARK    1  A    between atoms: C5_5  and  N25_20 
REMARK    2  A    between atoms: C8_7  and  C11_10 
REMARK    3  A    between atoms: N10_9  and  C22_16 
REMARK    4  A    between atoms: C22_16  and  C23_17 
REMARK    5  A    between atoms: C22_16  and  C24_18 
REMARK    6  A    between atoms: C22_16  and  C25_19 
ROOT
ATOM      1  C1  PP2 d   1     -21.312 -27.319 -17.907  0.00  0.00     0.164 A 
ATOM      2  N2  PP2 d   1     -21.463 -26.045 -18.303  0.00  0.00    -0.222 NA
ATOM      3  C3  PP2 d   1     -21.798 -25.775 -19.544  0.00  0.00     0.091 A 
ATOM      4  N4  PP2 d   1     -21.983 -26.739 -20.428  0.00  0.00    -0.224 NA
ATOM      5  C5  PP2 d   1     -21.841 -28.029 -20.112  0.00  0.00     0.139 A 
ATOM      6  C6  PP2 d   1     -21.490 -28.366 -18.803  0.00  0.00     0.088 A 
ATOM      7  C8  PP2 d   1     -21.248 -29.513 -18.028  0.00  0.00     0.105 A 
ATOM      8  N9  PP2 d   1     -20.950 -29.103 -16.796  0.00  0.00    -0.168 NA
ATOM      9  N10 PP2 d   1     -20.990 -27.870 -16.734  0.00  0.00    -0.242 N 
ATOM     10  H1  PP2 d   1     -21.925 -24.742 -19.848  0.00  0.00     0.146 H 
ENDROOT
BRANCH   9  11
ATOM     11  C22 PP2 d   1     -20.686 -27.114 -15.489  0.00  0.00     0.047 C 
BRANCH  11  12
ATOM     12  C23 PP2 d   1     -21.936 -26.373 -15.033  0.00  0.00    -0.052 C 
ATOM     13  H6  PP2 d   1     -21.715 -25.813 -14.113  0.00  0.00     0.030 H 
ATOM     14  H7  PP2 d   1     -22.741 -27.097 -14.837  0.00  0.00     0.030 H 
ATOM     15  H8  PP2 d   1     -22.255 -25.674 -15.820  0.00  0.00     0.030 H 
ENDBRANCH  11  12
BRANCH  11  16
ATOM     16  C24 PP2 d   1     -20.234 -28.132 -14.445  0.00  0.00    -0.052 C 
ATOM     17  H9  PP2 d   1     -19.998 -27.613 -13.505  0.00  0.00     0.030 H 
ATOM     18  H10 PP2 d   1     -19.338 -28.657 -14.809  0.00  0.00     0.030 H 
ATOM     19  H11 PP2 d   1     -21.040 -28.860 -14.270  0.00  0.00     0.030 H 
ENDBRANCH  11  16
BRANCH  11  20
ATOM     20  C25 PP2 d   1     -19.541 -26.124 -15.761  0.00  0.00    -0.052 C 
ATOM     21  H12 PP2 d   1     -19.314 -25.564 -14.842  0.00  0.00     0.030 H 
ATOM     22  H13 PP2 d   1     -19.843 -25.423 -16.553  0.00  0.00     0.030 H 
ATOM     23  H14 PP2 d   1     -18.646 -26.677 -16.083  0.00  0.00     0.030 H 
ENDBRANCH  11  20
ENDBRANCH   9  11
BRANCH   7  24
ATOM     24  C11 PP2 d   1     -21.294 -30.856 -18.399  0.00  0.00    -0.004 A 
ATOM     25  C12 PP2 d   1     -21.608 -31.286 -19.679  0.00  0.00    -0.069 A 
ATOM     26  C13 PP2 d   1     -21.652 -32.631 -20.001  0.00  0.00    -0.061 A 
ATOM     27  H2  PP2 d   1     -21.824 -30.551 -20.446  0.00  0.00     0.085 H 
ATOM     28  C14 PP2 d   1     -21.382 -33.573 -19.021  0.00  0.00     0.034 A 
ATOM     29  H3  PP2 d   1     -21.895 -32.945 -21.010  0.00  0.00     0.086 H 
ATOM     30  C15 PP2 d   1     -21.071 -33.164 -17.729  0.00  0.00    -0.061 A 
ATOM     31 CL   PP2 d   1     -21.432 -35.252 -19.422  0.00  0.00    -0.084 Cl
ATOM     32  C16 PP2 d   1     -21.032 -31.809 -17.420  0.00  0.00    -0.069 A 
ATOM     33  H4  PP2 d   1     -20.859 -33.901 -16.963  0.00  0.00     0.086 H 
ATOM     34  H5  PP2 d   1     -20.796 -31.493 -16.410  0.00  0.00     0.085 H 
ENDBRANCH   7  24
BRANCH   5  35
ATOM     35  N25 PP2 d   1     -22.054 -28.911 -21.080  0.00  0.00    -0.383 N 
ATOM     36  H15 PP2 d   1     -21.958 -29.919 -20.889  0.00  0.00     0.157 HD
ATOM     37  H16 PP2 d   1     -22.316 -28.588 -22.023  0.00  0.00     0.157 HD
ENDBRANCH   5  35
TORSDOF 6
