REMARK  10 active torsions:
REMARK  status: ('A' for Active; 'I' for Inactive)
REMARK    1  A    between atoms: C3'_6  and  O3'_5 
REMARK    2  A    between atoms: C4'_7  and  C5'_8 
REMARK    3  A    between atoms: C5'_8  and  S5'_9 
REMARK    4  A    between atoms: S5'_9  and  C20_10 
REMARK    5  A    between atoms: C20_10  and  C21_11 
REMARK    6  A    between atoms: C21_11  and  C22_12 
REMARK    7  A    between atoms: C22_12  and  C23_13 
REMARK    8  A    between atoms: C10_17  and  N1'_15 
REMARK    9  A    between atoms: C10_17  and  C9_22 
REMARK   10  A    between atoms: C6_19  and  N6_20 
ROOT
ATOM      1  C3' BIG d   1     -35.110 -44.476  10.848  0.00  0.00     0.064 C 
ATOM      2  C4' BIG d   1     -35.279 -45.239  12.155  0.00  0.00     0.004 C 
ATOM      3  C1' BIG d   1     -34.144 -46.247  12.129  0.00  0.00     0.090 C 
ATOM      4  N1' BIG d   1     -33.647 -46.248  10.726  0.00  0.00    -0.064 N 
ATOM      5  C2' BIG d   1     -34.618 -45.537   9.881  0.00  0.00     0.108 C 
ATOM      6  H4  BIG d   1     -36.059 -44.029  10.517  0.00  0.00     0.086 H 
ATOM      7  H5  BIG d   1     -35.191 -44.555  13.012  0.00  0.00     0.047 H 
ATOM      8  H17 BIG d   1     -34.510 -47.246  12.408  0.00  0.00     0.076 H 
ATOM      9  H18 BIG d   1     -33.344 -45.943  12.820  0.00  0.00     0.076 H 
ATOM     10  H19 BIG d   1     -32.802 -45.698  10.720  0.00  0.00     0.280 HD
ATOM     11  H20 BIG d   1     -34.136 -45.089   8.999  0.00  0.00     0.080 H 
ATOM     12  H21 BIG d   1     -35.434 -46.199   9.557  0.00  0.00     0.080 H 
ENDROOT
BRANCH   4  13
ATOM     13  C10 BIG d   1     -33.264 -47.550  10.228  0.00  0.00     0.111 C 
ATOM     14  H22 BIG d   1     -32.328 -47.820  10.739  0.00  0.00     0.083 H 
ATOM     15  H23 BIG d   1     -33.072 -47.431   9.151  0.00  0.00     0.083 H 
BRANCH  13  16
ATOM     16  C9  BIG d   1     -34.195 -48.737  10.374  0.00  0.00     0.014 A 
ATOM     17  C4  BIG d   1     -35.380 -49.040   9.555  0.00  0.00     0.098 A 
ATOM     18  C5  BIG d   1     -35.896 -50.309  10.038  0.00  0.00     0.107 A 
ATOM     19  N3  BIG d   1     -35.974 -48.351   8.557  0.00  0.00    -0.239 NA
ATOM     20  N7  BIG d   1     -35.093 -50.739  11.034  0.00  0.00    -0.360 N 
ATOM     21  C6  BIG d   1     -37.098 -50.807   9.366  0.00  0.00     0.151 A 
ATOM     22  C8  BIG d   1     -34.079 -49.834  11.259  0.00  0.00    -0.012 A 
ATOM     23  H24 BIG d   1     -35.220 -51.620  11.553  0.00  0.00     0.165 HD
ATOM     24  H2  BIG d   1     -33.299 -49.947  12.011  0.00  0.00     0.112 H 
ATOM     25  N1  BIG d   1     -37.644 -50.051   8.382  0.00  0.00    -0.223 NA
ATOM     26  C2  BIG d   1     -37.093 -48.868   7.983  0.00  0.00     0.089 A 
ATOM     27  H1  BIG d   1     -37.566 -48.319   7.177  0.00  0.00     0.146 H 
BRANCH  21  28
ATOM     28  N6  BIG d   1     -37.633 -51.999   9.783  0.00  0.00    -0.382 N 
ATOM     29  H25 BIG d   1     -38.478 -52.372   9.327  0.00  0.00     0.157 HD
ATOM     30  H26 BIG d   1     -37.190 -52.522  10.552  0.00  0.00     0.157 HD
ENDBRANCH  21  28
ENDBRANCH  13  16
ENDBRANCH   4  13
BRANCH   2  31
ATOM     31  C5' BIG d   1     -36.598 -46.003  12.247  0.00  0.00    -0.016 C 
ATOM     32  H6  BIG d   1     -36.540 -46.707  13.091  0.00  0.00     0.049 H 
ATOM     33  H7  BIG d   1     -36.748 -46.563  11.312  0.00  0.00     0.049 H 
BRANCH  31  34
ATOM     34  S5' BIG d   1     -37.971 -44.941  12.493  0.00  0.00    -0.169 SA
BRANCH  34  35
ATOM     35  C20 BIG d   1     -37.983 -44.741  14.255  0.00  0.00    -0.023 C 
ATOM     36  H8  BIG d   1     -37.002 -44.375  14.593  0.00  0.00     0.048 H 
ATOM     37  H9  BIG d   1     -38.201 -45.706  14.736  0.00  0.00     0.048 H 
BRANCH  35  38
ATOM     38  C21 BIG d   1     -39.065 -43.727  14.622  0.00  0.00    -0.058 C 
ATOM     39  H10 BIG d   1     -39.995 -44.010  14.108  0.00  0.00     0.034 H 
ATOM     40  H11 BIG d   1     -38.742 -42.734  14.276  0.00  0.00     0.034 H 
BRANCH  38  41
ATOM     41  C22 BIG d   1     -39.346 -43.647  16.113  0.00  0.00    -0.068 C 
ATOM     42  H12 BIG d   1     -39.760 -44.609  16.450  0.00  0.00     0.032 H 
ATOM     43  H13 BIG d   1     -40.080 -42.848  16.295  0.00  0.00     0.032 H 
BRANCH  41  44
ATOM     44  C23 BIG d   1     -38.101 -43.351  16.900  0.00  0.00    -0.076 C 
ATOM     45  H14 BIG d   1     -38.347 -43.302  17.971  0.00  0.00     0.027 H 
ATOM     46  H15 BIG d   1     -37.682 -42.387  16.575  0.00  0.00     0.027 H 
ATOM     47  H16 BIG d   1     -37.362 -44.148  16.730  0.00  0.00     0.027 H 
ENDBRANCH  41  44
ENDBRANCH  38  41
ENDBRANCH  35  38
ENDBRANCH  34  35
ENDBRANCH  31  34
ENDBRANCH   2  31
BRANCH   1  48
ATOM     48  O3' BIG d   1     -34.102 -43.468  10.979  0.00  0.00    -0.393 OA
ATOM     49  H3  BIG d   1     -34.011 -43.004  10.155  0.00  0.00     0.210 HD
ENDBRANCH   1  48
TORSDOF 10
