REMARK  5 active torsions:
REMARK  status: ('A' for Active; 'I' for Inactive)
REMARK    1  A    between atoms: C5_3  and  C4_1 
REMARK    2  A    between atoms: C4_1  and  N3_8 
REMARK    3  A    between atoms: C7_5  and  N6_11 
REMARK    4  A    between atoms: N3_8  and  S2_10 
REMARK    5  A    between atoms: S2_10  and  C1_9 
ROOT
ATOM      1  C5  0UJ d   1       8.547  56.980   0.414  0.00  0.00     0.126 A 
ATOM      2  N6  0UJ d   1       7.291  56.728   0.913  0.00  0.00    -0.326 N 
ATOM      3  C17 0UJ d   1       6.572  57.923   0.869  0.00  0.00     0.081 A 
ATOM      4  C18 0UJ d   1       5.277  58.416   1.212  0.00  0.00     0.041 A 
ATOM      5  C19 0UJ d   1       4.062  57.861   1.817  0.00  0.00    -0.052 A 
ATOM      6  C20 0UJ d   1       3.151  58.849   1.922  0.00  0.00    -0.020 A 
ATOM      7  N21 0UJ d   1       3.678  60.011   1.414  0.00  0.00    -0.350 N 
ATOM      8  C23 0UJ d   1       4.963  59.783   0.973  0.00  0.00     0.139 A 
ATOM      9  N24 0UJ d   1       5.865  60.601   0.425  0.00  0.00    -0.240 NA
ATOM     10  C25 0UJ d   1       7.073  60.198   0.108  0.00  0.00     0.035 A 
ATOM     11  C26 0UJ d   1       7.475  58.865   0.318  0.00  0.00     0.104 A 
ATOM     12  N27 0UJ d   1       8.632  58.223   0.071  0.00  0.00    -0.230 NA
ATOM     13  H18 0UJ d   1       3.920  56.827   2.128  0.00  0.00     0.087 H 
ATOM     14  H19 0UJ d   1       2.153  58.742   2.344  0.00  0.00     0.111 H 
ATOM     15  H20 0UJ d   1       3.187  60.915   1.369  0.00  0.00     0.166 HD
ATOM     16  H21 0UJ d   1       7.774  60.904  -0.323  0.00  0.00     0.118 H 
ENDROOT
BRANCH   2  17
ATOM     17  C7  0UJ d   1       6.914  55.381   1.397  0.00  0.00     0.022 C 
ATOM     18  C14 0UJ d   1       5.437  54.930   1.269  0.00  0.00    -0.042 C 
ATOM     19  C12 0UJ d   1       5.085  54.491   2.734  0.00  0.00    -0.052 C 
ATOM     20  H3  0UJ d   1       5.338  54.088   0.568  0.00  0.00     0.036 H 
ATOM     21  H4  0UJ d   1       4.795  55.760   0.938  0.00  0.00     0.036 H 
ATOM     22  C11 0UJ d   1       5.942  55.503   3.583  0.00  0.00    -0.056 C 
ATOM     23  C16 0UJ d   1       5.841  53.137   2.990  0.00  0.00    -0.061 C 
ATOM     24  H9  0UJ d   1       4.009  54.467   2.962  0.00  0.00     0.040 H 
ATOM     25  C9  0UJ d   1       7.302  55.123   2.894  0.00  0.00    -0.034 C 
ATOM     26  H5  0UJ d   1       5.655  56.553   3.421  0.00  0.00     0.034 H 
ATOM     27  H6  0UJ d   1       5.928  55.281   4.660  0.00  0.00     0.034 H 
ATOM     28  C15 0UJ d   1       7.370  53.563   3.058  0.00  0.00    -0.059 C 
ATOM     29  H8  0UJ d   1       8.192  55.662   3.252  0.00  0.00     0.043 H 
ATOM     30  H14 0UJ d   1       7.816  53.285   4.024  0.00  0.00     0.033 H 
ATOM     31  H15 0UJ d   1       7.946  53.103   2.242  0.00  0.00     0.033 H 
ATOM     32  H16 0UJ d   1       5.668  52.430   2.166  0.00  0.00     0.033 H 
ATOM     33  H17 0UJ d   1       5.519  52.681   3.938  0.00  0.00     0.033 H 
ATOM     34  H7  0UJ d   1       7.503  54.686   0.781  0.00  0.00     0.074 H 
ENDBRANCH   2  17
BRANCH   1  35
ATOM     35  C4  0UJ d   1       9.687  55.977   0.310  0.00  0.00     0.057 C 
ATOM     36  H1  0UJ d   1       9.334  55.108  -0.264  0.00  0.00     0.076 H 
ATOM     37  H2  0UJ d   1       9.963  55.658   1.326  0.00  0.00     0.076 H 
BRANCH  35  38
ATOM     38  N3  0UJ d   1      10.890  56.515  -0.352  0.00  0.00    -0.313 N 
ATOM     39  H10 0UJ d   1      11.458  57.187   0.123  0.00  0.00     0.172 HD
BRANCH  38  40
ATOM     40  S2  0UJ d   1      11.313  56.013  -1.890  0.00  0.00     0.223 S 
ATOM     41  O28 0UJ d   1      12.477  56.778  -2.157  0.00  0.00    -0.206 OA
ATOM     42  O29 0UJ d   1      10.140  56.193  -2.669  0.00  0.00    -0.206 OA
BRANCH  40  43
ATOM     43  C1  0UJ d   1      11.714  54.248  -1.776  0.00  0.00     0.032 C 
ATOM     44  H11 0UJ d   1      12.000  53.872  -2.769  0.00  0.00     0.051 H 
ATOM     45  H12 0UJ d   1      10.835  53.695  -1.413  0.00  0.00     0.051 H 
ATOM     46  H13 0UJ d   1      12.551  54.106  -1.076  0.00  0.00     0.051 H 
ENDBRANCH  40  43
ENDBRANCH  38  40
ENDBRANCH  35  38
ENDBRANCH   1  35
TORSDOF 5
