REMARK  11 active torsions:
REMARK  status: ('A' for Active; 'I' for Inactive)
REMARK    1  A    between atoms: N3B_8  and  PG_1 
REMARK    2  A    between atoms: PB_5  and  N3B_8 
REMARK    3  A    between atoms: O3A_12  and  PB_5 
REMARK    4  A    between atoms: PA_9  and  O3A_12 
REMARK    5  A    between atoms: PA_9  and  O5'_13 
REMARK    6  A    between atoms: O5'_13  and  C5'_14 
REMARK    7  A    between atoms: C5'_14  and  C4'_15 
REMARK    8  A    between atoms: C3'_17  and  O3'_18 
REMARK    9  A    between atoms: C2'_19  and  O2'_20 
REMARK   10  A    between atoms: C1'_21  and  N9_22 
REMARK   11  A    between atoms: C6_26  and  N6_27 
ROOT
ATOM      1  C4' ANP d   1       0.162   2.437  11.453  0.00  0.00     0.089 C 
ATOM      2  O4' ANP d   1       1.072   1.314  11.518  0.00  0.00    -0.353 OA
ATOM      3  C3' ANP d   1       0.110   2.987  12.895  0.00  0.00     0.091 C 
ATOM      4  C2' ANP d   1       0.170   1.682  13.725  0.00  0.00     0.105 C 
ATOM      5  C1' ANP d   1       1.156   0.820  12.881  0.00  0.00     0.139 C 
ATOM      6  H4  ANP d   1      -0.839   2.105  11.142  0.00  0.00     0.090 H 
ATOM      7  H5  ANP d   1       0.977   3.630  13.107  0.00  0.00     0.091 H 
ATOM      8  H7  ANP d   1       0.546   1.858  14.744  0.00  0.00     0.093 H 
ATOM      9  H9  ANP d   1       0.825  -0.229  12.903  0.00  0.00     0.122 H 
ENDROOT
BRANCH   1  10
ATOM     10  C5' ANP d   1       0.680   3.468  10.446  0.00  0.00     0.058 C 
ATOM     11  H2  ANP d   1       0.657   3.031   9.437  0.00  0.00     0.079 H 
ATOM     12  H3  ANP d   1       0.034   4.358  10.475  0.00  0.00     0.079 H 
BRANCH  10  13
ATOM     13  O5' ANP d   1       2.027   3.853  10.763  0.00  0.00    -0.287 OA
BRANCH  13  14
ATOM     14  PA  ANP d   1       2.454   5.399  10.884  0.00  0.00     0.417 P 
ATOM     15  O1A ANP d   1       3.769   5.572  11.689  0.00  0.00    -0.624 OA
ATOM     16  O2A ANP d   1       1.324   6.193  11.591  0.00  0.00    -0.624 OA
BRANCH  14  17
ATOM     17  O3A ANP d   1       2.622   5.951   9.377  0.00  0.00    -0.186 OA
BRANCH  17  18
ATOM     18  PB  ANP d   1       1.787   7.015   8.497  0.00  0.00     0.379 P 
ATOM     19  O1B ANP d   1       2.681   7.438   7.305  0.00  0.00    -0.629 OA
ATOM     20  O2B ANP d   1       1.501   8.256   9.381  0.00  0.00    -0.629 OA
BRANCH  18  21
ATOM     21  N3B ANP d   1       0.367   6.288   7.932  0.00  0.00    -0.218 N 
ATOM     22  H1  ANP d   1       0.395   5.551   7.257  0.00  0.00     0.179 HD
BRANCH  21  23
ATOM     23  PG  ANP d   1      -1.103   6.857   8.553  0.00  0.00     0.381 P 
ATOM     24  O1G ANP d   1      -1.131   6.856  10.119  0.00  0.00    -0.622 OA
ATOM     25  O2G ANP d   1      -1.384   8.312   8.027  0.00  0.00    -0.622 OA
ATOM     26  O3G ANP d   1      -2.263   5.909   8.081  0.00  0.00    -0.622 OA
ENDBRANCH  21  23
ENDBRANCH  18  21
ENDBRANCH  17  18
ENDBRANCH  14  17
ENDBRANCH  13  14
ENDBRANCH  10  13
ENDBRANCH   1  10
BRANCH   3  27
ATOM     27  O3' ANP d   1      -1.088   3.727  13.131  0.00  0.00    -0.390 OA
ATOM     28  H6  ANP d   1      -1.840   3.162  12.997  0.00  0.00     0.210 HD
ENDBRANCH   3  27
BRANCH   5  29
ATOM     29  N9  ANP d   1       2.533   0.873  13.411  0.00  0.00    -0.294 N 
ATOM     30  C8  ANP d   1       3.555   1.697  13.016  0.00  0.00     0.071 A 
ATOM     31  N7  ANP d   1       4.628   1.484  13.745  0.00  0.00    -0.236 NA
ATOM     32  H10 ANP d   1       3.487   2.427  12.210  0.00  0.00     0.144 H 
ATOM     33  C5  ANP d   1       4.347   0.539  14.685  0.00  0.00     0.149 A 
ATOM     34  C6  ANP d   1       5.047  -0.075  15.757  0.00  0.00     0.155 A 
ATOM     35  C4  ANP d   1       3.002   0.158  14.485  0.00  0.00     0.167 A 
ATOM     36  N1  ANP d   1       4.404  -0.986  16.500  0.00  0.00    -0.222 NA
ATOM     37  C2  ANP d   1       3.141  -1.291  16.274  0.00  0.00     0.091 A 
ATOM     38  N3  ANP d   1       2.453  -0.766  15.289  0.00  0.00    -0.222 NA
ATOM     39  H13 ANP d   1       2.652  -2.004  16.928  0.00  0.00     0.146 H 
BRANCH  34  40
ATOM     40  N6  ANP d   1       6.357   0.241  16.086  0.00  0.00    -0.382 N 
ATOM     41  H11 ANP d   1       6.819  -0.235  16.874  0.00  0.00     0.157 HD
ATOM     42  H12 ANP d   1       6.868   0.951  15.542  0.00  0.00     0.157 HD
ENDBRANCH  34  40
ENDBRANCH   5  29
BRANCH   4  43
ATOM     43  O2' ANP d   1      -1.126   1.061  13.774  0.00  0.00    -0.388 OA
ATOM     44  H8  ANP d   1      -1.746   1.657  14.177  0.00  0.00     0.210 HD
ENDBRANCH   4  43
TORSDOF 11
