REMARK  11 active torsions:
REMARK  status: ('A' for Active; 'I' for Inactive)
REMARK    1  A    between atoms: N3B_8  and  PG_1 
REMARK    2  A    between atoms: PB_5  and  N3B_8 
REMARK    3  A    between atoms: O3A_12  and  PB_5 
REMARK    4  A    between atoms: PA_9  and  O3A_12 
REMARK    5  A    between atoms: PA_9  and  O5'_13 
REMARK    6  A    between atoms: O5'_13  and  C5'_14 
REMARK    7  A    between atoms: C5'_14  and  C4'_15 
REMARK    8  A    between atoms: C3'_17  and  O3'_18 
REMARK    9  A    between atoms: C2'_19  and  O2'_20 
REMARK   10  A    between atoms: C1'_21  and  N9_22 
REMARK   11  A    between atoms: C6_26  and  N6_27 
ROOT
ATOM      1  C4' ANP d   1     -26.051 -11.990  -6.387  0.00  0.00     0.089 C 
ATOM      2  O4' ANP d   1     -25.071 -11.206  -7.094  0.00  0.00    -0.353 OA
ATOM      3  C3' ANP d   1     -25.899 -11.602  -4.905  0.00  0.00     0.091 C 
ATOM      4  C2' ANP d   1     -24.375 -11.537  -4.797  0.00  0.00     0.105 C 
ATOM      5  C1' ANP d   1     -24.003 -10.905  -6.162  0.00  0.00     0.139 C 
ATOM      6  H4  ANP d   1     -25.856 -13.064  -6.522  0.00  0.00     0.090 H 
ATOM      7  H5  ANP d   1     -26.368 -10.632  -4.684  0.00  0.00     0.091 H 
ATOM      8  H7  ANP d   1     -24.053 -10.915  -3.949  0.00  0.00     0.093 H 
ATOM      9  H9  ANP d   1     -23.075 -11.373  -6.523  0.00  0.00     0.122 H 
ENDROOT
BRANCH   1  10
ATOM     10  C5' ANP d   1     -27.434 -11.664  -6.896  0.00  0.00     0.058 C 
ATOM     11  H2  ANP d   1     -27.538 -12.008  -7.936  0.00  0.00     0.079 H 
ATOM     12  H3  ANP d   1     -28.188 -12.161  -6.268  0.00  0.00     0.079 H 
BRANCH  10  13
ATOM     13  O5' ANP d   1     -27.612 -10.257  -6.836  0.00  0.00    -0.287 OA
BRANCH  13  14
ATOM     14  PA  ANP d   1     -29.017  -9.566  -7.150  0.00  0.00     0.417 P 
ATOM     15  O1A ANP d   1     -29.109  -9.486  -8.696  0.00  0.00    -0.624 OA
ATOM     16  O2A ANP d   1     -29.000  -8.169  -6.500  0.00  0.00    -0.624 OA
BRANCH  14  17
ATOM     17  O3A ANP d   1     -30.212 -10.462  -6.525  0.00  0.00    -0.186 OA
BRANCH  17  18
ATOM     18  PB  ANP d   1     -30.987 -10.512  -5.112  0.00  0.00     0.379 P 
ATOM     19  O1B ANP d   1     -30.678  -9.167  -4.393  0.00  0.00    -0.629 OA
ATOM     20  O2B ANP d   1     -30.498 -11.694  -4.279  0.00  0.00    -0.629 OA
BRANCH  18  21
ATOM     21  N3B ANP d   1     -32.641 -10.718  -5.323  0.00  0.00    -0.218 N 
ATOM     22  H1  ANP d   1     -33.112 -11.531  -4.980  0.00  0.00     0.179 HD
BRANCH  21  23
ATOM     23  PG  ANP d   1     -33.484  -9.485  -6.145  0.00  0.00     0.381 P 
ATOM     24  O1G ANP d   1     -34.403  -8.714  -5.125  0.00  0.00    -0.622 OA
ATOM     25  O2G ANP d   1     -32.511  -8.512  -6.871  0.00  0.00    -0.622 OA
ATOM     26  O3G ANP d   1     -34.400 -10.201  -7.193  0.00  0.00    -0.622 OA
ENDBRANCH  21  23
ENDBRANCH  18  21
ENDBRANCH  17  18
ENDBRANCH  14  17
ENDBRANCH  13  14
ENDBRANCH  10  13
ENDBRANCH   1  10
BRANCH   3  27
ATOM     27  O3' ANP d   1     -26.440 -12.604  -4.048  0.00  0.00    -0.390 OA
ATOM     28  H6  ANP d   1     -25.984 -13.424  -4.194  0.00  0.00     0.210 HD
ENDBRANCH   3  27
BRANCH   5  29
ATOM     29  N9  ANP d   1     -23.770  -9.452  -6.066  0.00  0.00    -0.294 N 
ATOM     30  C8  ANP d   1     -24.664  -8.425  -6.294  0.00  0.00     0.071 A 
ATOM     31  N7  ANP d   1     -24.066  -7.281  -6.140  0.00  0.00    -0.236 NA
ATOM     32  H10 ANP d   1     -25.712  -8.554  -6.562  0.00  0.00     0.144 H 
ATOM     33  C5  ANP d   1     -22.769  -7.496  -5.793  0.00  0.00     0.149 A 
ATOM     34  C6  ANP d   1     -21.656  -6.689  -5.454  0.00  0.00     0.155 A 
ATOM     35  C4  ANP d   1     -22.579  -8.891  -5.728  0.00  0.00     0.167 A 
ATOM     36  N1  ANP d   1     -20.525  -7.302  -5.097  0.00  0.00    -0.222 NA
ATOM     37  C2  ANP d   1     -20.384  -8.606  -5.077  0.00  0.00     0.091 A 
ATOM     38  N3  ANP d   1     -21.389  -9.389  -5.380  0.00  0.00    -0.222 NA
ATOM     39  H13 ANP d   1     -19.427  -9.039  -4.807  0.00  0.00     0.146 H 
BRANCH  34  40
ATOM     40  N6  ANP d   1     -21.691  -5.295  -5.487  0.00  0.00    -0.382 N 
ATOM     41  H11 ANP d   1     -20.854  -4.753  -5.231  0.00  0.00     0.157 HD
ATOM     42  H12 ANP d   1     -22.554  -4.808  -5.767  0.00  0.00     0.157 HD
ENDBRANCH  34  40
ENDBRANCH   5  29
BRANCH   4  43
ATOM     43  O2' ANP d   1     -23.787 -12.850  -4.699  0.00  0.00    -0.388 OA
ATOM     44  H8  ANP d   1     -22.843 -12.769  -4.634  0.00  0.00     0.210 HD
ENDBRANCH   4  43
TORSDOF 11
