REMARK  11 active torsions:
REMARK  status: ('A' for Active; 'I' for Inactive)
REMARK    1  A    between atoms: CAV_22  and  CAA_1 
REMARK    2  A    between atoms: CAX_24  and  CAB_2 
REMARK    3  A    between atoms: CAY_25  and  CAC_3 
REMARK    4  A    between atoms: CBE_31  and  CAD_4 
REMARK    5  A    between atoms: CBE_31  and  CAE_5 
REMARK    6  A    between atoms: CBE_31  and  CAF_6 
REMARK    7  A    between atoms: CAM_13  and  CAS_19 
REMARK    8  A    between atoms: CBC_29  and  CAM_13 
REMARK    9  A    between atoms: CAS_19  and  OAQ_17 
REMARK   10  A    between atoms: OAQ_17  and  CBE_31 
REMARK   11  A    between atoms: CAT_20  and  CAW_23 
ROOT
ATOM      1  NAN JQ1 d   1       9.780  -1.064 -27.171  0.00  0.00    -0.275 NA
ATOM      2  NAO JQ1 d   1      12.059  -4.730 -27.866  0.00  0.00    -0.135 NA
ATOM      3  NAP JQ1 d   1      12.224  -3.476 -27.810  0.00  0.00    -0.132 NA
ATOM      4  SAR JQ1 d   1       8.051  -4.376 -29.919  0.00  0.00    -0.075 SA
ATOM      5  CAT JQ1 d   1       8.526  -1.512 -27.222  0.00  0.00     0.075 C 
ATOM      6  CAV JQ1 d   1      10.764  -4.978 -28.179  0.00  0.00     0.131 A 
ATOM      7  CAX JQ1 d   1       6.659  -3.328 -29.824  0.00  0.00    -0.012 A 
ATOM      8  CAY JQ1 d   1       6.895  -2.341 -28.914  0.00  0.00    -0.034 A 
ATOM      9  CAZ JQ1 d   1      11.078  -2.870 -28.112  0.00  0.00     0.161 A 
ATOM     10  CBA JQ1 d   1       8.122  -2.443 -28.232  0.00  0.00     0.035 A 
ATOM     11  CBB JQ1 d   1       8.897  -3.521 -28.696  0.00  0.00     0.097 A 
ATOM     12  CBC JQ1 d   1      10.785  -1.357 -28.205  0.00  0.00     0.101 C 
ATOM     13  NBD JQ1 d   1      10.147  -3.808 -28.323  0.00  0.00    -0.275 N 
ATOM     14  H25 JQ1 d   1      10.357  -1.155 -29.198  0.00  0.00     0.089 H 
ENDROOT
BRANCH  12  15
ATOM     15  CAM JQ1 d   1      11.982  -0.421 -28.022  0.00  0.00     0.043 C 
ATOM     16  H23 JQ1 d   1      12.395  -0.517 -27.007  0.00  0.00     0.051 H 
ATOM     17  H24 JQ1 d   1      12.766  -0.648 -28.760  0.00  0.00     0.051 H 
BRANCH  15  18
ATOM     18  CAS JQ1 d   1      11.425   0.988 -28.245  0.00  0.00     0.262 C 
ATOM     19  OAG JQ1 d   1      11.940   1.983 -27.790  0.00  0.00    -0.265 OA
BRANCH  18  20
ATOM     20  OAQ JQ1 d   1      10.281   1.143 -28.946  0.00  0.00    -0.311 OA
BRANCH  20  21
ATOM     21  CBE JQ1 d   1       9.650   2.461 -28.980  0.00  0.00     0.060 C 
BRANCH  21  22
ATOM     22  CAD JQ1 d   1       8.403   2.191 -29.817  0.00  0.00    -0.048 C 
ATOM     23  H10 JQ1 d   1       7.824   3.120 -29.923  0.00  0.00     0.031 H 
ATOM     24  H11 JQ1 d   1       7.785   1.429 -29.319  0.00  0.00     0.031 H 
ATOM     25  H12 JQ1 d   1       8.701   1.829 -30.812  0.00  0.00     0.031 H 
ENDBRANCH  21  22
BRANCH  21  26
ATOM     26  CAE JQ1 d   1       9.296   2.883 -27.550  0.00  0.00    -0.048 C 
ATOM     27  H13 JQ1 d   1      10.220   3.067 -26.983  0.00  0.00     0.031 H 
ATOM     28  H14 JQ1 d   1       8.720   2.082 -27.063  0.00  0.00     0.031 H 
ATOM     29  H15 JQ1 d   1       8.693   3.803 -27.578  0.00  0.00     0.031 H 
ENDBRANCH  21  26
BRANCH  21  30
ATOM     30  CAF JQ1 d   1      10.493   3.563 -29.658  0.00  0.00    -0.048 C 
ATOM     31  H16 JQ1 d   1      10.744   3.254 -30.684  0.00  0.00     0.031 H 
ATOM     32  H17 JQ1 d   1      11.419   3.720 -29.086  0.00  0.00     0.031 H 
ATOM     33  H18 JQ1 d   1       9.917   4.500 -29.688  0.00  0.00     0.031 H 
ENDBRANCH  21  30
ENDBRANCH  20  21
ENDBRANCH  18  20
ENDBRANCH  15  18
ENDBRANCH  12  15
BRANCH   5  34
ATOM     34  CAW JQ1 d   1       7.679  -1.135 -26.131  0.00  0.00    -0.007 A 
ATOM     35  CAK JQ1 d   1       7.870   0.053 -25.386  0.00  0.00    -0.069 A 
ATOM     36  CAI JQ1 d   1       7.057   0.405 -24.276  0.00  0.00    -0.061 A 
ATOM     37  H21 JQ1 d   1       8.671   0.723 -25.675  0.00  0.00     0.085 H 
ATOM     38  CAU JQ1 d   1       6.026  -0.457 -23.937  0.00  0.00     0.034 A 
ATOM     39  H19 JQ1 d   1       7.236   1.315 -23.714  0.00  0.00     0.086 H 
ATOM     40 CLAH JQ1 d   1       4.889  -0.205 -22.646  0.00  0.00    -0.084 Cl
ATOM     41  CAJ JQ1 d   1       5.860  -1.651 -24.633  0.00  0.00    -0.061 A 
ATOM     42  CAL JQ1 d   1       6.663  -1.976 -25.705  0.00  0.00    -0.069 A 
ATOM     43  H20 JQ1 d   1       5.082  -2.340 -24.325  0.00  0.00     0.086 H 
ATOM     44  H22 JQ1 d   1       6.496  -2.911 -26.227  0.00  0.00     0.085 H 
ENDBRANCH   5  34
BRANCH   6  45
ATOM     45  CAA JQ1 d   1      10.133  -6.313 -28.351  0.00  0.00    -0.019 C 
ATOM     46  H1  JQ1 d   1      10.882  -7.098 -28.170  0.00  0.00     0.037 H 
ATOM     47  H2  JQ1 d   1       9.745  -6.406 -29.376  0.00  0.00     0.037 H 
ATOM     48  H3  JQ1 d   1       9.306  -6.423 -27.634  0.00  0.00     0.037 H 
ENDBRANCH   6  45
BRANCH   8  49
ATOM     49  CAC JQ1 d   1       5.948  -1.228 -28.564  0.00  0.00    -0.049 C 
ATOM     50  H7  JQ1 d   1       5.047  -1.302 -29.191  0.00  0.00     0.033 H 
ATOM     51  H8  JQ1 d   1       6.439  -0.260 -28.741  0.00  0.00     0.033 H 
ATOM     52  H9  JQ1 d   1       5.665  -1.307 -27.504  0.00  0.00     0.033 H 
ENDBRANCH   8  49
BRANCH   7  53
ATOM     53  CAB JQ1 d   1       5.372  -3.549 -30.703  0.00  0.00    -0.045 C 
ATOM     54  H4  JQ1 d   1       4.632  -2.769 -30.472  0.00  0.00     0.034 H 
ATOM     55  H5  JQ1 d   1       4.943  -4.538 -30.483  0.00  0.00     0.034 H 
ATOM     56  H6  JQ1 d   1       5.641  -3.494 -31.768  0.00  0.00     0.034 H 
ENDBRANCH   7  53
TORSDOF 11
