REMARK  10 active torsions:
REMARK  status: ('A' for Active; 'I' for Inactive)
REMARK    1  A    between atoms: C8_8  and  C23_23 
REMARK    2  A    between atoms: N25_25  and  C9_9 
REMARK    3  A    between atoms: C10_10  and  O30_30 
REMARK    4  A    between atoms: O31_31  and  C11_11 
REMARK    5  A    between atoms: C17_17  and  C19_19 
REMARK    6  A    between atoms: C24_24  and  C20_20 
REMARK    7  A    between atoms: C24_24  and  C21_21 
REMARK    8  A    between atoms: N26_26  and  C22_22 
REMARK    9  A    between atoms: C23_23  and  N27_27 
REMARK   10  A    between atoms: C24_24  and  O31_31 
ROOT
ATOM      1  C13 0UP d   1      22.345  35.304  43.156  0.00  0.00    -0.017 C 
ATOM      2  C14 0UP d   1      21.914  37.716  43.453  0.00  0.00    -0.013 C 
ATOM      3  C15 0UP d   1      20.888  36.112  44.967  0.00  0.00     0.019 C 
ATOM      4  C16 0UP d   1      23.455  35.589  42.163  0.00  0.00     0.086 C 
ATOM      5  C17 0UP d   1      22.952  37.997  42.386  0.00  0.00     0.103 C 
ATOM      6  C18 0UP d   1      22.149  36.411  44.160  0.00  0.00     0.066 C 
ATOM      7  N25 0UP d   1      23.246  36.418  45.171  0.00  0.00    -0.252 N 
ATOM      8  N26 0UP d   1      21.277  35.271  46.115  0.00  0.00    -0.195 NA
ATOM      9  N27 0UP d   1      23.156  36.848  41.436  0.00  0.00    -0.063 N 
ATOM     10  O28 0UP d   1      23.649  34.504  46.814  0.00  0.00    -0.188 OA
ATOM     11  O29 0UP d   1      22.719  36.649  47.719  0.00  0.00    -0.188 OA
ATOM     12  S33 0UP d   1      22.820  35.682  46.656  0.00  0.00     0.305 S 
ATOM     13  H8  0UP d   1      22.590  34.379  43.699  0.00  0.00     0.039 H 
ATOM     14  H9  0UP d   1      21.406  35.165  42.600  0.00  0.00     0.039 H 
ATOM     15  H10 0UP d   1      20.922  37.686  42.980  0.00  0.00     0.039 H 
ATOM     16  H11 0UP d   1      21.942  38.528  44.194  0.00  0.00     0.039 H 
ATOM     17  H12 0UP d   1      20.160  35.576  44.340  0.00  0.00     0.061 H 
ATOM     18  H13 0UP d   1      20.441  37.051  45.325  0.00  0.00     0.061 H 
ATOM     19  H14 0UP d   1      23.527  34.759  41.445  0.00  0.00     0.076 H 
ATOM     20  H15 0UP d   1      24.410  35.693  42.700  0.00  0.00     0.076 H 
ATOM     21  H16 0UP d   1      23.910  38.244  42.866  0.00  0.00     0.084 H 
ATOM     22  H32 0UP d   1      22.271  36.704  40.975  0.00  0.00     0.280 HD
ENDROOT
BRANCH   9  23
ATOM     23  C23 0UP d   1      24.154  37.150  40.333  0.00  0.00     0.107 C 
ATOM     24  H29 0UP d   1      24.140  36.321  39.610  0.00  0.00     0.083 H 
ATOM     25  H30 0UP d   1      23.852  38.081  39.830  0.00  0.00     0.083 H 
BRANCH  23  26
ATOM     26  C8  0UP d   1      25.555  37.315  40.848  0.00  0.00    -0.030 A 
ATOM     27  C2  0UP d   1      26.028  38.533  41.285  0.00  0.00    -0.072 A 
ATOM     28  C4  0UP d   1      27.288  38.656  41.831  0.00  0.00    -0.048 A 
ATOM     29  H2  0UP d   1      25.398  39.411  41.198  0.00  0.00     0.084 H 
ATOM     30  C10 0UP d   1      28.091  37.539  41.899  0.00  0.00     0.099 A 
ATOM     31  H4  0UP d   1      27.640  39.613  42.200  0.00  0.00     0.087 H 
ATOM     32  C11 0UP d   1      27.646  36.325  41.412  0.00  0.00     0.102 A 
ATOM     33  C6  0UP d   1      26.379  36.205  40.909  0.00  0.00    -0.040 A 
ATOM     34  H6  0UP d   1      26.022  35.243  40.559  0.00  0.00     0.088 H 
BRANCH  30  35
ATOM     35  O30 0UP d   1      29.383  37.596  42.402  0.00  0.00    -0.358 OA
ATOM     36  H33 0UP d   1      29.566  38.478  42.703  0.00  0.00     0.217 HD
ENDBRANCH  30  35
BRANCH  32  37
ATOM     37  O31 0UP d   1      28.539  35.270  41.519  0.00  0.00    -0.344 OA
BRANCH  37  38
ATOM     38  C24 0UP d   1      28.192  34.099  40.761  0.00  0.00     0.038 C 
ATOM     39  H31 0UP d   1      27.124  33.865  40.880  0.00  0.00     0.082 H 
BRANCH  38  40
ATOM     40  C20 0UP d   1      28.517  34.274  39.289  0.00  0.00    -0.052 C 
ATOM     41  H20 0UP d   1      28.239  33.361  38.741  0.00  0.00     0.030 H 
ATOM     42  H21 0UP d   1      29.595  34.459  39.171  0.00  0.00     0.030 H 
ATOM     43  H22 0UP d   1      27.952  35.129  38.888  0.00  0.00     0.030 H 
ENDBRANCH  38  40
BRANCH  38  44
ATOM     44  C21 0UP d   1      29.057  32.992  41.331  0.00  0.00    -0.052 C 
ATOM     45  H23 0UP d   1      28.827  32.859  42.398  0.00  0.00     0.030 H 
ATOM     46  H24 0UP d   1      30.118  33.259  41.215  0.00  0.00     0.030 H 
ATOM     47  H25 0UP d   1      28.854  32.054  40.793  0.00  0.00     0.030 H 
ENDBRANCH  38  44
ENDBRANCH  37  38
ENDBRANCH  32  37
ENDBRANCH  23  26
ENDBRANCH   9  23
BRANCH   5  48
ATOM     48  C19 0UP d   1      22.443  39.172  41.581  0.00  0.00    -0.049 C 
ATOM     49  H17 0UP d   1      23.167  39.415  40.789  0.00  0.00     0.030 H 
ATOM     50  H18 0UP d   1      22.317  40.042  42.242  0.00  0.00     0.030 H 
ATOM     51  H19 0UP d   1      21.475  38.913  41.126  0.00  0.00     0.030 H 
ENDBRANCH   5  48
BRANCH   7  52
ATOM     52  C9  0UP d   1      24.519  37.072  45.161  0.00  0.00     0.050 A 
ATOM     53  C3  0UP d   1      25.648  36.286  45.058  0.00  0.00    -0.056 A 
ATOM     54  C1  0UP d   1      26.907  36.844  45.142  0.00  0.00    -0.078 A 
ATOM     55  H3  0UP d   1      25.545  35.217  44.909  0.00  0.00     0.086 H 
ATOM     56  C5  0UP d   1      27.040  38.202  45.320  0.00  0.00    -0.046 A 
ATOM     57  H1  0UP d   1      27.787  36.216  45.068  0.00  0.00     0.083 H 
ATOM     58  C12 0UP d   1      25.910  38.983  45.452  0.00  0.00     0.118 A 
ATOM     59  H5  0UP d   1      28.024  38.655  45.356  0.00  0.00     0.088 H 
ATOM     60  C7  0UP d   1      24.645  38.426  45.410  0.00  0.00    -0.019 A 
ATOM     61  F32 0UP d   1      26.054  40.311  45.638  0.00  0.00    -0.206 F 
ATOM     62  H7  0UP d   1      23.767  39.041  45.570  0.00  0.00     0.091 H 
ENDBRANCH   7  52
BRANCH   8  63
ATOM     63  C22 0UP d   1      20.217  35.095  47.133  0.00  0.00    -0.018 C 
ATOM     64  H26 0UP d   1      19.272  34.831  46.636  0.00  0.00     0.050 H 
ATOM     65  H27 0UP d   1      20.087  36.033  47.693  0.00  0.00     0.050 H 
ATOM     66  H28 0UP d   1      20.504  34.291  47.826  0.00  0.00     0.050 H 
ENDBRANCH   8  63
TORSDOF 10
