REMARK  9 active torsions:
REMARK  status: ('A' for Active; 'I' for Inactive)
REMARK    1  A    between atoms: N1_3  and  C14_17 
REMARK    2  A    between atoms: C3_4  and  C6_7 
REMARK    3  A    between atoms: N2_8  and  C8_10 
REMARK    4  A    between atoms: C14_17  and  C15_18 
REMARK    5  A    between atoms: C17_20  and  O1_24 
REMARK    6  A    between atoms: O1_24  and  C21_25 
REMARK    7  A    between atoms: C21_25  and  C22_26 
REMARK    8  A    between atoms: C21_25  and  C23_27 
REMARK    9  A    between atoms: N3_29  and  C24_31 
ROOT
ATOM      1  C1  0UQ d   1      22.388  34.637  42.468  0.00  0.00    -0.017 C 
ATOM      2  C2  0UQ d   1      23.407  34.927  41.378  0.00  0.00     0.086 C 
ATOM      3  N1  0UQ d   1      23.174  36.252  40.711  0.00  0.00    -0.063 N 
ATOM      4  C3  0UQ d   1      22.903  37.419  41.637  0.00  0.00     0.103 C 
ATOM      5  C4  0UQ d   1      21.842  37.096  42.680  0.00  0.00    -0.013 C 
ATOM      6  C5  0UQ d   1      22.096  35.790  43.422  0.00  0.00     0.066 C 
ATOM      7  N2  0UQ d   1      23.059  35.986  44.550  0.00  0.00    -0.252 N 
ATOM      8  C7  0UQ d   1      20.798  35.467  44.146  0.00  0.00     0.019 C 
ATOM      9  S1  0UQ d   1      22.673  35.049  45.925  0.00  0.00     0.305 S 
ATOM     10  N3  0UQ d   1      21.141  34.628  45.312  0.00  0.00    -0.195 NA
ATOM     11  O2  0UQ d   1      22.577  36.033  46.989  0.00  0.00    -0.188 OA
ATOM     12  O3  0UQ d   1      23.490  33.867  46.066  0.00  0.00    -0.188 OA
ATOM     13  H1  0UQ d   1      22.762  33.791  43.064  0.00  0.00     0.039 H 
ATOM     14  H2  0UQ d   1      21.443  34.353  41.981  0.00  0.00     0.039 H 
ATOM     15  H3  0UQ d   1      23.346  34.134  40.618  0.00  0.00     0.076 H 
ATOM     16  H4  0UQ d   1      24.412  34.929  41.826  0.00  0.00     0.076 H 
ATOM     17  H5  0UQ d   1      22.310  36.134  40.206  0.00  0.00     0.280 HD
ATOM     18  H6  0UQ d   1      23.840  37.652  42.165  0.00  0.00     0.084 H 
ATOM     19  H7  0UQ d   1      20.867  37.025  42.175  0.00  0.00     0.039 H 
ATOM     20  H8  0UQ d   1      21.816  37.914  43.415  0.00  0.00     0.039 H 
ATOM     21  H12 0UQ d   1      20.119  34.920  43.475  0.00  0.00     0.061 H 
ATOM     22  H13 0UQ d   1      20.313  36.396  44.481  0.00  0.00     0.061 H 
ENDROOT
BRANCH   3  23
ATOM     23  C14 0UQ d   1      24.210  36.528  39.648  0.00  0.00     0.107 C 
ATOM     24  H18 0UQ d   1      23.938  37.471  39.152  0.00  0.00     0.083 H 
ATOM     25  H19 0UQ d   1      24.169  35.705  38.919  0.00  0.00     0.083 H 
BRANCH  23  26
ATOM     26  C15 0UQ d   1      25.625  36.652  40.116  0.00  0.00    -0.030 A 
ATOM     27  C16 0UQ d   1      26.414  35.525  40.170  0.00  0.00    -0.043 A 
ATOM     28  C17 0UQ d   1      27.726  35.605  40.599  0.00  0.00     0.069 A 
ATOM     29  H20 0UQ d   1      26.003  34.567  39.874  0.00  0.00     0.088 H 
ATOM     30  C18 0UQ d   1      28.262  36.825  40.971  0.00  0.00    -0.051 A 
ATOM     31  C19 0UQ d   1      27.480  37.960  40.903  0.00  0.00    -0.080 A 
ATOM     32  H21 0UQ d   1      29.288  36.889  41.313  0.00  0.00     0.087 H 
ATOM     33  C20 0UQ d   1      26.176  37.871  40.470  0.00  0.00    -0.075 A 
ATOM     34  H22 0UQ d   1      27.892  38.921  41.190  0.00  0.00     0.083 H 
ATOM     35  H23 0UQ d   1      25.572  38.769  40.406  0.00  0.00     0.084 H 
BRANCH  28  36
ATOM     36  O1  0UQ d   1      28.579  34.499  40.688  0.00  0.00    -0.347 OA
BRANCH  36  37
ATOM     37  C21 0UQ d   1      28.244  33.389  39.869  0.00  0.00     0.038 C 
ATOM     38  H24 0UQ d   1      27.193  33.105  40.025  0.00  0.00     0.082 H 
BRANCH  37  39
ATOM     39  C22 0UQ d   1      28.471  33.697  38.394  0.00  0.00    -0.052 C 
ATOM     40  H25 0UQ d   1      28.202  32.818  37.790  0.00  0.00     0.030 H 
ATOM     41  H26 0UQ d   1      29.530  33.944  38.230  0.00  0.00     0.030 H 
ATOM     42  H27 0UQ d   1      27.845  34.551  38.097  0.00  0.00     0.030 H 
ENDBRANCH  37  39
BRANCH  37  43
ATOM     43  C23 0UQ d   1      29.174  32.263  40.308  0.00  0.00    -0.052 C 
ATOM     44  H28 0UQ d   1      28.968  31.363  39.710  0.00  0.00     0.030 H 
ATOM     45  H29 0UQ d   1      29.006  32.042  41.372  0.00  0.00     0.030 H 
ATOM     46  H30 0UQ d   1      30.219  32.571  40.158  0.00  0.00     0.030 H 
ENDBRANCH  37  43
ENDBRANCH  36  37
ENDBRANCH  28  36
ENDBRANCH  23  26
ENDBRANCH   3  23
BRANCH   4  47
ATOM     47  C6  0UQ d   1      22.483  38.637  40.860  0.00  0.00    -0.049 C 
ATOM     48  H9  0UQ d   1      22.293  39.468  41.555  0.00  0.00     0.030 H 
ATOM     49  H10 0UQ d   1      21.565  38.414  40.296  0.00  0.00     0.030 H 
ATOM     50  H11 0UQ d   1      23.284  38.920  40.161  0.00  0.00     0.030 H 
ENDBRANCH   4  47
BRANCH   7  51
ATOM     51  C8  0UQ d   1      24.452  36.362  44.502  0.00  0.00     0.050 A 
ATOM     52  C9  0UQ d   1      25.552  35.565  44.242  0.00  0.00    -0.056 A 
ATOM     53  C10 0UQ d   1      26.822  36.119  44.272  0.00  0.00    -0.078 A 
ATOM     54  H14 0UQ d   1      25.422  34.513  44.016  0.00  0.00     0.086 H 
ATOM     55  C11 0UQ d   1      26.997  37.461  44.586  0.00  0.00    -0.046 A 
ATOM     56  H15 0UQ d   1      27.684  35.501  44.049  0.00  0.00     0.083 H 
ATOM     57  C12 0UQ d   1      25.886  38.238  44.850  0.00  0.00     0.118 A 
ATOM     58  H16 0UQ d   1      27.991  37.892  44.623  0.00  0.00     0.088 H 
ATOM     59  C13 0UQ d   1      24.626  37.694  44.810  0.00  0.00    -0.019 A 
ATOM     60  F1  0UQ d   1      25.958  39.539  45.155  0.00  0.00    -0.206 F 
ATOM     61  H17 0UQ d   1      23.764  38.316  45.022  0.00  0.00     0.091 H 
ENDBRANCH   7  51
BRANCH  10  62
ATOM     62  C24 0UQ d   1      20.032  34.561  46.286  0.00  0.00    -0.018 C 
ATOM     63  H31 0UQ d   1      19.104  34.281  45.766  0.00  0.00     0.050 H 
ATOM     64  H32 0UQ d   1      19.903  35.544  46.763  0.00  0.00     0.050 H 
ATOM     65  H33 0UQ d   1      20.263  33.808  47.054  0.00  0.00     0.050 H 
ENDBRANCH  10  62
TORSDOF 9
