REMARK  17 active torsions:
REMARK  status: ('A' for Active; 'I' for Inactive)
REMARK    1  A    between atoms: C1_1  and  C2_4 
REMARK    2  A    between atoms: C2_4  and  C3_5 
REMARK    3  A    between atoms: C3_5  and  C4_6 
REMARK    4  A    between atoms: C4_6  and  C5_7 
REMARK    5  A    between atoms: C5_7  and  C6_8 
REMARK    6  A    between atoms: C6_8  and  C7_9 
REMARK    7  A    between atoms: C7_9  and  C8_10 
REMARK    8  A    between atoms: C8_10  and  C9_11 
REMARK    9  A    between atoms: C9_11  and  C10_12 
REMARK   10  A    between atoms: C10_12  and  C11_13 
REMARK   11  A    between atoms: C11_13  and  C12_14 
REMARK   12  A    between atoms: C12_14  and  C13_15 
REMARK   13  A    between atoms: C13_15  and  C14_16 
REMARK   14  A    between atoms: C14_16  and  C15_17 
REMARK   15  A    between atoms: C15_17  and  C16_18 
REMARK   16  A    between atoms: C16_18  and  C17_19 
REMARK   17  A    between atoms: C17_19  and  C18_20 
ROOT
ATOM      1  C10 STE d   1     -34.773 -22.981 -43.148  0.00  0.00    -0.065 C 
ATOM      2  H17 STE d   1     -35.239 -22.918 -42.153  0.00  0.00     0.033 H 
ATOM      3  H18 STE d   1     -35.265 -22.270 -43.829  0.00  0.00     0.033 H 
ENDROOT
BRANCH   1   4
ATOM      4  C9  STE d   1     -34.960 -24.395 -43.692  0.00  0.00    -0.065 C 
ATOM      5  H15 STE d   1     -35.220 -24.342 -44.760  0.00  0.00     0.033 H 
ATOM      6  H16 STE d   1     -34.023 -24.958 -43.570  0.00  0.00     0.033 H 
BRANCH   4   7
ATOM      7  C8  STE d   1     -36.067 -25.099 -42.942  0.00  0.00    -0.065 C 
ATOM      8  H13 STE d   1     -36.843 -25.409 -43.657  0.00  0.00     0.033 H 
ATOM      9  H14 STE d   1     -35.653 -25.988 -42.443  0.00  0.00     0.033 H 
BRANCH   7  10
ATOM     10  C7  STE d   1     -36.696 -24.187 -41.890  0.00  0.00    -0.065 C 
ATOM     11  H11 STE d   1     -37.650 -24.625 -41.561  0.00  0.00     0.033 H 
ATOM     12  H12 STE d   1     -36.013 -24.107 -41.031  0.00  0.00     0.033 H 
BRANCH  10  13
ATOM     13  C6  STE d   1     -36.955 -22.801 -42.445  0.00  0.00    -0.065 C 
ATOM     14  H9  STE d   1     -36.209 -22.607 -43.230  0.00  0.00     0.033 H 
ATOM     15  H10 STE d   1     -37.962 -22.797 -42.887  0.00  0.00     0.033 H 
BRANCH  13  16
ATOM     16  C5  STE d   1     -36.883 -21.670 -41.448  0.00  0.00    -0.065 C 
ATOM     17  H7  STE d   1     -37.569 -20.868 -41.757  0.00  0.00     0.033 H 
ATOM     18  H8  STE d   1     -37.176 -22.041 -40.455  0.00  0.00     0.033 H 
BRANCH  16  19
ATOM     19  C4  STE d   1     -35.470 -21.126 -41.385  0.00  0.00    -0.065 C 
ATOM     20  H5  STE d   1     -34.893 -21.715 -40.658  0.00  0.00     0.033 H 
ATOM     21  H6  STE d   1     -35.008 -21.216 -42.379  0.00  0.00     0.033 H 
BRANCH  19  22
ATOM     22  C3  STE d   1     -35.451 -19.660 -40.961  0.00  0.00    -0.056 C 
ATOM     23  H3  STE d   1     -35.754 -19.030 -41.811  0.00  0.00     0.033 H 
ATOM     24  H4  STE d   1     -36.153 -19.512 -40.127  0.00  0.00     0.033 H 
BRANCH  22  25
ATOM     25  C2  STE d   1     -34.048 -19.270 -40.517  0.00  0.00     0.016 C 
ATOM     26  H1  STE d   1     -33.913 -19.536 -39.458  0.00  0.00     0.049 H 
ATOM     27  H2  STE d   1     -33.309 -19.810 -41.127  0.00  0.00     0.049 H 
BRANCH  25  28
ATOM     28  C1  STE d   1     -33.853 -17.805 -40.687  0.00  0.00     0.172 C 
ATOM     29  O1  STE d   1     -32.748 -17.326 -40.474  0.00  0.00    -0.648 OA
ATOM     30  O2  STE d   1     -34.802 -17.125 -41.040  0.00  0.00    -0.648 OA
ENDBRANCH  25  28
ENDBRANCH  22  25
ENDBRANCH  19  22
ENDBRANCH  16  19
ENDBRANCH  13  16
ENDBRANCH  10  13
ENDBRANCH   7  10
ENDBRANCH   4   7
ENDBRANCH   1   4
BRANCH   1  31
ATOM     31  C11 STE d   1     -33.290 -22.606 -43.026  0.00  0.00    -0.065 C 
ATOM     32  H19 STE d   1     -33.206 -21.723 -42.376  0.00  0.00     0.033 H 
ATOM     33  H20 STE d   1     -32.908 -22.361 -44.028  0.00  0.00     0.033 H 
BRANCH  31  34
ATOM     34  C12 STE d   1     -32.433 -23.719 -42.442  0.00  0.00    -0.065 C 
ATOM     35  H21 STE d   1     -31.452 -23.701 -42.939  0.00  0.00     0.033 H 
ATOM     36  H22 STE d   1     -32.928 -24.681 -42.641  0.00  0.00     0.033 H 
BRANCH  34  37
ATOM     37  C13 STE d   1     -32.214 -23.588 -40.929  0.00  0.00    -0.065 C 
ATOM     38  H23 STE d   1     -31.697 -22.636 -40.739  0.00  0.00     0.033 H 
ATOM     39  H24 STE d   1     -31.577 -24.423 -40.602  0.00  0.00     0.033 H 
BRANCH  37  40
ATOM     40  C14 STE d   1     -33.496 -23.610 -40.091  0.00  0.00    -0.065 C 
ATOM     41  H25 STE d   1     -34.366 -23.648 -40.763  0.00  0.00     0.033 H 
ATOM     42  H26 STE d   1     -33.544 -22.696 -39.480  0.00  0.00     0.033 H 
BRANCH  40  43
ATOM     43  C15 STE d   1     -33.518 -24.833 -39.169  0.00  0.00    -0.065 C 
ATOM     44  H27 STE d   1     -32.933 -24.599 -38.268  0.00  0.00     0.033 H 
ATOM     45  H28 STE d   1     -33.052 -25.676 -39.700  0.00  0.00     0.033 H 
BRANCH  43  46
ATOM     46  C16 STE d   1     -34.927 -25.254 -38.735  0.00  0.00    -0.065 C 
ATOM     47  H29 STE d   1     -35.649 -24.865 -39.468  0.00  0.00     0.033 H 
ATOM     48  H30 STE d   1     -35.134 -24.816 -37.748  0.00  0.00     0.033 H 
BRANCH  46  49
ATOM     49  C17 STE d   1     -35.099 -26.761 -38.640  0.00  0.00    -0.069 C 
ATOM     50  H31 STE d   1     -34.979 -27.057 -37.587  0.00  0.00     0.032 H 
ATOM     51  H32 STE d   1     -34.314 -27.237 -39.246  0.00  0.00     0.032 H 
BRANCH  49  52
ATOM     52  C18 STE d   1     -36.442 -27.261 -39.124  0.00  0.00    -0.077 C 
ATOM     53  H33 STE d   1     -36.484 -28.355 -39.022  0.00  0.00     0.027 H 
ATOM     54  H34 STE d   1     -36.577 -26.986 -40.181  0.00  0.00     0.027 H 
ATOM     55  H35 STE d   1     -37.242 -26.805 -38.522  0.00  0.00     0.027 H 
ENDBRANCH  49  52
ENDBRANCH  46  49
ENDBRANCH  43  46
ENDBRANCH  40  43
ENDBRANCH  37  40
ENDBRANCH  34  37
ENDBRANCH  31  34
ENDBRANCH   1  31
TORSDOF 17
