REMARK  4 active torsions:
REMARK  status: ('A' for Active; 'I' for Inactive)
REMARK    1  A    between atoms: O01_1  and  C02_2 
REMARK    2  A    between atoms: C02_2  and  C03_3 
REMARK    3  A    between atoms: C02_2  and  C06_6 
REMARK    4  A    between atoms: C02_2  and  C10_10 
ROOT
ATOM      1  C02 BFM d   1     -22.937 -22.824 -23.276  0.00  0.00     0.342 C 
ENDROOT
BRANCH   1   2
ATOM      2  O01 BFM d   1     -22.689 -23.212 -24.629  0.00  0.00    -0.365 OA
ATOM      3  H1  BFM d   1     -21.928 -23.780 -24.660  0.00  0.00     0.211 HD
ENDBRANCH   1   2
BRANCH   1   4
ATOM      4  C03 BFM d   1     -21.745 -22.051 -22.629  0.00  0.00     0.228 C 
ATOM      5  O04 BFM d   1     -22.053 -21.194 -21.787  0.00  0.00    -0.645 OA
ATOM      6  O05 BFM d   1     -20.702 -22.424 -23.085  0.00  0.00    -0.645 OA
ENDBRANCH   1   4
BRANCH   1   7
ATOM      7  C06 BFM d   1     -24.085 -21.962 -23.341  0.00  0.00     0.437 C 
ATOM      8  F07 BFM d   1     -24.585 -21.689 -22.090  0.00  0.00    -0.167 F 
ATOM      9  F08 BFM d   1     -25.078 -22.534 -24.069  0.00  0.00    -0.167 F 
ATOM     10  F09 BFM d   1     -23.720 -20.819 -23.896  0.00  0.00    -0.167 F 
ENDBRANCH   1   7
BRANCH   1  11
ATOM     11  C10 BFM d   1     -23.487 -23.978 -22.339  0.00  0.00     0.437 C 
ATOM     12  F11 BFM d   1     -23.379 -25.159 -22.833  0.00  0.00    -0.167 F 
ATOM     13  F12 BFM d   1     -24.794 -23.942 -22.064  0.00  0.00    -0.167 F 
ATOM     14  F13 BFM d   1     -22.886 -23.918 -21.163  0.00  0.00    -0.167 F 
ENDBRANCH   1  11
TORSDOF 4
