REMARK  7 active torsions:
REMARK  status: ('A' for Active; 'I' for Inactive)
REMARK    1  A    between atoms: C1_1  and  O2_2 
REMARK    2  A    between atoms: O2_2  and  C3_3 
REMARK    3  A    between atoms: C7_7  and  C9_9 
REMARK    4  A    between atoms: C13_13  and  C14_14 
REMARK    5  A    between atoms: C14_14  and  C15_15 
REMARK    6  A    between atoms: N21_19  and  C22_20 
REMARK    7  A    between atoms: C23_21  and  N24_22 
ROOT
ATOM      1  C9  H24 d   1      26.112  10.814  19.923  0.00  0.00    -0.025 A 
ATOM      2  C10 H24 d   1      25.881  11.396  18.672  0.00  0.00    -0.072 A 
ATOM      3  C11 H24 d   1      24.593  11.580  18.203  0.00  0.00    -0.082 A 
ATOM      4  C12 H24 d   1      23.512  11.178  18.971  0.00  0.00    -0.074 A 
ATOM      5  C13 H24 d   1      23.704  10.579  20.215  0.00  0.00    -0.029 A 
ATOM      6  C26 H24 d   1      25.010  10.402  20.692  0.00  0.00    -0.064 A 
ATOM      7  H8  H24 d   1      26.722  11.707  18.063  0.00  0.00     0.084 H 
ATOM      8  H9  H24 d   1      24.429  12.039  17.235  0.00  0.00     0.083 H 
ATOM      9  H10 H24 d   1      22.505  11.331  18.600  0.00  0.00     0.084 H 
ATOM     10  H22 H24 d   1      25.171   9.944  21.661  0.00  0.00     0.085 H 
ENDROOT
BRANCH   5  11
ATOM     11  C14 H24 d   1      22.458  10.124  20.998  0.00  0.00     0.079 C 
ATOM     12  C18 H24 d   1      21.612  11.356  21.448  0.00  0.00     0.038 C 
ATOM     13  C19 H24 d   1      22.261  12.032  22.649  0.00  0.00     0.240 C 
ATOM     14  H14 H24 d   1      20.601  11.021  21.723  0.00  0.00     0.051 H 
ATOM     15  H15 H24 d   1      21.548  12.075  20.618  0.00  0.00     0.051 H 
ATOM     16  O20 H24 d   1      22.312  13.253  22.721  0.00  0.00    -0.272 OA
ATOM     17  N21 H24 d   1      22.859  11.229  23.594  0.00  0.00    -0.156 N 
ATOM     18  C23 H24 d   1      22.895   9.803  23.392  0.00  0.00     0.677 C 
ATOM     19  N25 H24 d   1      22.719   9.260  22.188  0.00  0.00    -0.213 N 
ATOM     20  H21 H24 d   1      22.763   8.237  22.077  0.00  0.00     0.179 HD
BRANCH  11  21
ATOM     21  C15 H24 d   1      21.573   9.210  20.097  0.00  0.00    -0.048 C 
ATOM     22  H11 H24 d   1      20.685   8.888  20.661  0.00  0.00     0.031 H 
ATOM     23  H12 H24 d   1      22.152   8.327  19.790  0.00  0.00     0.031 H 
ATOM     24  H13 H24 d   1      21.257   9.770  19.204  0.00  0.00     0.031 H 
ENDBRANCH  11  21
BRANCH  17  25
ATOM     25  C22 H24 d   1      23.430  11.866  24.787  0.00  0.00     0.005 C 
ATOM     26  H16 H24 d   1      23.287  12.955  24.725  0.00  0.00     0.058 H 
ATOM     27  H17 H24 d   1      24.505  11.640  24.845  0.00  0.00     0.058 H 
ATOM     28  H18 H24 d   1      22.925  11.481  25.685  0.00  0.00     0.058 H 
ENDBRANCH  17  25
BRANCH  18  29
ATOM     29  N24 H24 d   1      23.092   8.991  24.433  0.00  0.00    -0.234 N 
ATOM     30  H19 H24 d   1      23.118   7.971  24.293  0.00  0.00     0.174 HD
ATOM     31  H20 H24 d   1      23.218   9.384  25.377  0.00  0.00     0.174 HD
ENDBRANCH  18  29
ENDBRANCH   5  11
BRANCH   1  32
ATOM     32  C7  H24 d   1      27.496  10.685  20.458  0.00  0.00    -0.023 A 
ATOM     33  C6  H24 d   1      28.451  11.680  20.231  0.00  0.00    -0.072 A 
ATOM     34  C5  H24 d   1      29.707  11.614  20.816  0.00  0.00    -0.080 A 
ATOM     35  H6  H24 d   1      28.206  12.517  19.587  0.00  0.00     0.084 H 
ATOM     36  C4  H24 d   1      30.033  10.562  21.655  0.00  0.00    -0.051 A 
ATOM     37  H5  H24 d   1      30.437  12.390  20.615  0.00  0.00     0.083 H 
ATOM     38  C3  H24 d   1      29.106   9.546  21.862  0.00  0.00     0.069 A 
ATOM     39  H4  H24 d   1      31.000  10.531  22.145  0.00  0.00     0.087 H 
ATOM     40  C8  H24 d   1      27.853   9.594  21.257  0.00  0.00    -0.040 A 
ATOM     41  H7  H24 d   1      27.151   8.782  21.406  0.00  0.00     0.089 H 
BRANCH  38  42
ATOM     42  O2  H24 d   1      29.300   8.498  22.724  0.00  0.00    -0.356 OA
BRANCH  42  43
ATOM     43  C1  H24 d   1      30.466   8.525  23.562  0.00  0.00     0.010 C 
ATOM     44  H1  H24 d   1      30.484   7.625  24.194  0.00  0.00     0.066 H 
ATOM     45  H2  H24 d   1      30.438   9.420  24.201  0.00  0.00     0.066 H 
ATOM     46  H3  H24 d   1      31.369   8.551  22.934  0.00  0.00     0.066 H 
ENDBRANCH  42  43
ENDBRANCH  38  42
ENDBRANCH   1  32
TORSDOF 7
