REMARK  10 active torsions:
REMARK  status: ('A' for Active; 'I' for Inactive)
REMARK    1  A    between atoms: C14_14  and  C07_7 
REMARK    2  A    between atoms: C16_16  and  C08_8 
REMARK    3  A    between atoms: C23_23  and  C09_9 
REMARK    4  A    between atoms: C10_10  and  C19_19 
REMARK    5  A    between atoms: C11_11  and  N27_27 
REMARK    6  A    between atoms: C12_12  and  O31_31 
REMARK    7  A    between atoms: C15_15  and  C20_20 
REMARK       I    between atoms: N25_25  and  C16_16 
REMARK    8  A    between atoms: C17_17  and  C21_21 
REMARK       I    between atoms: N27_27  and  C17_17 
REMARK       I    between atoms: C18_18  and  N25_25 
REMARK       I    between atoms: C18_18  and  N26_26 
REMARK       I    between atoms: N28_28  and  C18_18 
REMARK    9  A    between atoms: O31_31  and  C22_22 
REMARK   10  A    between atoms: C23_23  and  N28_28 
ROOT
ATOM      1  C16 0VB d   1      -5.854  16.639  33.410  0.00  0.00     0.207 C 
ATOM      2  C18 0VB d   1      -5.271  15.317  35.523  0.00  0.00     0.674 C 
ATOM      3  N25 0VB d   1      -5.364  16.579  34.798  0.00  0.00    -0.167 N 
ATOM      4  N26 0VB d   1      -4.828  15.134  36.922  0.00  0.00    -0.235 N 
ATOM      5  N28 0VB d   1      -5.716  14.137  34.763  0.00  0.00    -0.222 N 
ATOM      6  O29 0VB d   1      -6.225  15.495  32.640  0.00  0.00    -0.171 OA
ATOM      7  H21 0VB d   1      -5.088  17.425  35.255  0.00  0.00     0.186 HD
ATOM      8  H22 0VB d   1      -4.801  14.191  37.335  0.00  0.00     0.174 HD
ATOM      9  H23 0VB d   1      -4.546  15.950  37.484  0.00  0.00     0.174 HD
ATOM     10  H25 0VB d   1      -6.096  14.340  33.828  0.00  0.00     0.178 HD
ENDROOT
BRANCH   5  11
ATOM     11  C23 0VB d   1      -5.702  12.719  35.131  0.00  0.00     0.033 C 
ATOM     12  H19 0VB d   1      -5.625  12.680  36.228  0.00  0.00     0.072 H 
ATOM     13  H20 0VB d   1      -6.670  12.303  34.816  0.00  0.00     0.072 H 
BRANCH  11  14
ATOM     14  C09 0VB d   1      -4.644  11.799  34.593  0.00  0.00    -0.038 A 
ATOM     15  C05 0VB d   1      -3.226  11.400  34.998  0.00  0.00    -0.067 A 
ATOM     16  C10 0VB d   1      -2.308  10.463  34.220  0.00  0.00    -0.033 A 
ATOM     17  H5  0VB d   1      -2.838  11.820  35.919  0.00  0.00     0.085 H 
ATOM     18  C11 0VB d   1      -2.788   9.861  32.896  0.00  0.00     0.061 A 
ATOM     19  C13 0VB d   1      -4.182  10.303  32.471  0.00  0.00     0.061 A 
ATOM     20  C06 0VB d   1      -5.091  11.234  33.252  0.00  0.00    -0.052 A 
ATOM     21 CL1  0VB d   1      -5.027   9.794  31.002  0.00  0.00    -0.082 Cl
ATOM     22  H6  0VB d   1      -6.064  11.498  32.853  0.00  0.00     0.087 H 
BRANCH  16  23
ATOM     23  C19 0VB d   1      -0.939  10.168  34.827  0.00  0.00    -0.049 C 
ATOM     24  H7  0VB d   1      -0.832  10.716  35.775  0.00  0.00     0.033 H 
ATOM     25  H8  0VB d   1      -0.152  10.487  34.128  0.00  0.00     0.033 H 
ATOM     26  H9  0VB d   1      -0.847   9.088  35.016  0.00  0.00     0.033 H 
ENDBRANCH  16  23
BRANCH  18  27
ATOM     27  N27 0VB d   1      -1.910   8.977  32.111  0.00  0.00    -0.337 N 
ATOM     28  C17 0VB d   1      -0.982   9.477  31.073  0.00  0.00     0.151 C 
ATOM     29  O30 0VB d   1      -0.992  10.894  30.866  0.00  0.00    -0.177 OA
ATOM     30  H24 0VB d   1      -1.943   7.993  32.288  0.00  0.00     0.168 HD
BRANCH  28  31
ATOM     31  C21 0VB d   1      -0.005   8.723  30.170  0.00  0.00    -0.014 C 
ATOM     32  H13 0VB d   1       0.519   9.438  29.519  0.00  0.00     0.038 H 
ATOM     33  H14 0VB d   1      -0.559   8.002  29.551  0.00  0.00     0.038 H 
ATOM     34  H15 0VB d   1       0.728   8.186  30.790  0.00  0.00     0.038 H 
ENDBRANCH  28  31
ENDBRANCH  18  27
ENDBRANCH  11  14
ENDBRANCH   5  11
BRANCH   1  35
ATOM     35  C08 0VB d   1      -5.954  17.905  32.624  0.00  0.00     0.063 A 
ATOM     36  C14 0VB d   1      -5.335  18.281  31.323  0.00  0.00     0.091 A 
ATOM     37  N24 0VB d   1      -5.733  19.670  30.971  0.00  0.00    -0.210 NA
ATOM     38  S32 0VB d   1      -6.714  20.329  32.105  0.00  0.00     0.008 SA
ATOM     39  C15 0VB d   1      -6.810  18.973  33.251  0.00  0.00     0.014 A 
BRANCH  36  40
ATOM     40  C07 0VB d   1      -4.420  17.659  30.292  0.00  0.00    -0.006 A 
ATOM     41  C01 0VB d   1      -4.772  17.734  28.806  0.00  0.00    -0.068 A 
ATOM     42  C03 0VB d   1      -3.870  17.069  27.753  0.00  0.00    -0.050 A 
ATOM     43  H1  0VB d   1      -5.666  18.261  28.492  0.00  0.00     0.085 H 
ATOM     44  C12 0VB d   1      -2.608  16.283  28.132  0.00  0.00     0.068 A 
ATOM     45  H3  0VB d   1      -4.135  17.159  26.706  0.00  0.00     0.087 H 
ATOM     46  C04 0VB d   1      -2.258  16.178  29.615  0.00  0.00    -0.050 A 
ATOM     47  C02 0VB d   1      -3.175  16.845  30.626  0.00  0.00    -0.068 A 
ATOM     48  H4  0VB d   1      -1.375  15.639  29.939  0.00  0.00     0.087 H 
ATOM     49  H2  0VB d   1      -2.923  16.733  31.674  0.00  0.00     0.085 H 
BRANCH  44  50
ATOM     50  O31 0VB d   1      -1.683  15.623  27.269  0.00  0.00    -0.356 OA
BRANCH  50  51
ATOM     51  C22 0VB d   1      -0.429  15.002  27.580  0.00  0.00     0.010 C 
ATOM     52  H16 0VB d   1       0.015  14.592  26.661  0.00  0.00     0.066 H 
ATOM     53  H17 0VB d   1      -0.592  14.189  28.303  0.00  0.00     0.066 H 
ATOM     54  H18 0VB d   1       0.252  15.748  28.015  0.00  0.00     0.066 H 
ENDBRANCH  50  51
ENDBRANCH  44  50
ENDBRANCH  36  40
BRANCH  39  55
ATOM     55  C20 0VB d   1      -7.618  19.002  34.545  0.00  0.00    -0.043 C 
ATOM     56  H10 0VB d   1      -8.112  19.980  34.647  0.00  0.00     0.034 H 
ATOM     57  H11 0VB d   1      -6.946  18.839  35.401  0.00  0.00     0.034 H 
ATOM     58  H12 0VB d   1      -8.379  18.208  34.520  0.00  0.00     0.034 H 
ENDBRANCH  39  55
ENDBRANCH   1  35
TORSDOF 10
