REMARK  9 active torsions:
REMARK  status: ('A' for Active; 'I' for Inactive)
REMARK    1  A    between atoms: O3A_8  and  SB_1 
REMARK    2  A    between atoms: PA_5  and  O3A_8 
REMARK    3  A    between atoms: PA_5  and  O5'_9 
REMARK    4  A    between atoms: O5'_9  and  C5'_10 
REMARK    5  A    between atoms: C5'_10  and  C4'_11 
REMARK    6  A    between atoms: C3'_13  and  O3'_14 
REMARK    7  A    between atoms: C2'_15  and  O2'_16 
REMARK    8  A    between atoms: C1'_17  and  N9_18 
REMARK    9  A    between atoms: C6_22  and  N6_23 
ROOT
ATOM      1  C4' ADX d   1     -13.982  -8.372   9.826  0.00  0.00     0.089 C 
ATOM      2  O4' ADX d   1     -14.122  -9.625   9.161  0.00  0.00    -0.353 OA
ATOM      3  C3' ADX d   1     -15.136  -8.282  10.772  0.00  0.00     0.091 C 
ATOM      4  C2' ADX d   1     -16.122  -9.114  10.188  0.00  0.00     0.105 C 
ATOM      5  C1' ADX d   1     -15.411 -10.119   9.372  0.00  0.00     0.139 C 
ATOM      6  H3  ADX d   1     -14.023  -7.542   9.105  0.00  0.00     0.090 H 
ATOM      7  H4  ADX d   1     -14.856  -8.618  11.781  0.00  0.00     0.091 H 
ATOM      8  H6  ADX d   1     -16.764  -9.579  10.951  0.00  0.00     0.093 H 
ATOM      9  H8  ADX d   1     -15.923 -10.191   8.401  0.00  0.00     0.122 H 
ENDROOT
BRANCH   5  10
ATOM     10  N9  ADX d   1     -15.384 -11.440   9.932  0.00  0.00    -0.294 N 
ATOM     11  C8  ADX d   1     -15.747 -12.571   9.286  0.00  0.00     0.071 A 
ATOM     12  N7  ADX d   1     -15.450 -13.622  10.068  0.00  0.00    -0.236 NA
ATOM     13  H9  ADX d   1     -16.203 -12.621   8.298  0.00  0.00     0.144 H 
ATOM     14  C5  ADX d   1     -14.884 -13.160  11.207  0.00  0.00     0.149 A 
ATOM     15  C6  ADX d   1     -14.380 -13.774  12.368  0.00  0.00     0.155 A 
ATOM     16  C4  ADX d   1     -14.834 -11.764  11.123  0.00  0.00     0.167 A 
ATOM     17  N1  ADX d   1     -13.865 -13.013  13.368  0.00  0.00    -0.222 NA
ATOM     18  C2  ADX d   1     -13.836 -11.672  13.257  0.00  0.00     0.091 A 
ATOM     19  N3  ADX d   1     -14.304 -11.053  12.146  0.00  0.00    -0.222 NA
ATOM     20  H12 ADX d   1     -13.432 -11.078  14.069  0.00  0.00     0.146 H 
BRANCH  15  21
ATOM     21  N6  ADX d   1     -14.390 -15.197  12.468  0.00  0.00    -0.382 N 
ATOM     22  H10 ADX d   1     -14.023 -15.656  13.314  0.00  0.00     0.157 HD
ATOM     23  H11 ADX d   1     -14.764 -15.765  11.694  0.00  0.00     0.157 HD
ENDBRANCH  15  21
ENDBRANCH   5  10
BRANCH   4  24
ATOM     24  O2' ADX d   1     -16.861  -8.347   9.283  0.00  0.00    -0.388 OA
ATOM     25  H7  ADX d   1     -16.282  -8.006   8.612  0.00  0.00     0.210 HD
ENDBRANCH   4  24
BRANCH   1  26
ATOM     26  C5' ADX d   1     -12.704  -8.353  10.508  0.00  0.00     0.058 C 
ATOM     27  H1  ADX d   1     -12.648  -7.421  11.089  0.00  0.00     0.079 H 
ATOM     28  H2  ADX d   1     -12.676  -9.214  11.192  0.00  0.00     0.079 H 
BRANCH  26  29
ATOM     29  O5' ADX d   1     -11.561  -8.418   9.688  0.00  0.00    -0.286 OA
BRANCH  29  30
ATOM     30  PA  ADX d   1     -10.126  -8.030  10.219  0.00  0.00     0.425 P 
ATOM     31  O1A ADX d   1      -9.142  -8.034   9.094  0.00  0.00    -0.623 OA
ATOM     32  O2A ADX d   1     -10.200  -6.689  10.927  0.00  0.00    -0.623 OA
BRANCH  30  33
ATOM     33  O3A ADX d   1      -9.729  -9.187  11.233  0.00  0.00    -0.144 OA
BRANCH  33  34
ATOM     34  SB  ADX d   1      -8.340  -9.618  11.620  0.00  0.00     0.261 S 
ATOM     35  O1B ADX d   1      -7.770 -10.430  10.578  0.00  0.00    -0.572 OA
ATOM     36  O2B ADX d   1      -8.470 -10.428  12.854  0.00  0.00    -0.572 OA
ATOM     37  O3B ADX d   1      -7.462  -8.457  11.872  0.00  0.00    -0.572 OA
ENDBRANCH  33  34
ENDBRANCH  30  33
ENDBRANCH  29  30
ENDBRANCH  26  29
ENDBRANCH   1  26
BRANCH   3  38
ATOM     38  O3' ADX d   1     -15.648  -6.981  10.807  0.00  0.00    -0.390 OA
ATOM     39  H5  ADX d   1     -15.943  -6.734   9.938  0.00  0.00     0.210 HD
ENDBRANCH   3  38
TORSDOF 9
