REMARK  4 active torsions:
REMARK  status: ('A' for Active; 'I' for Inactive)
REMARK    1  A    between atoms: CAN_17  and  N11_1 
REMARK       I    between atoms: N12_2  and  CAR_20 
REMARK    2  A    between atoms: CAV_24  and  OAB_5 
REMARK    3  A    between atoms: CAJ_13  and  CAN_17 
REMARK    4  A    between atoms: CAR_20  and  CAJ_13 
ROOT
ATOM      1  N12 G9L d   1     -35.951 -73.958   0.578  0.00  0.00    -0.347 N 
ATOM      2  N13 G9L d   1     -36.651 -72.976   4.599  0.00  0.00    -0.228 NA
ATOM      3  OAA G9L d   1     -35.218 -72.995  -1.342  0.00  0.00    -0.273 OA
ATOM      4  FAC G9L d   1     -35.678 -78.462   6.981  0.00  0.00    -0.206 F 
ATOM      5  CAD G9L d   1     -35.574 -77.969   4.684  0.00  0.00    -0.045 A 
ATOM      6  CAE G9L d   1     -35.689 -77.037   3.675  0.00  0.00    -0.069 A 
ATOM      7  CAF G9L d   1     -36.106 -76.240   6.362  0.00  0.00    -0.031 A 
ATOM      8  CAK G9L d   1     -36.589 -72.308   2.228  0.00  0.00    -0.009 C 
ATOM      9  CAO G9L d   1     -36.781 -72.830   0.863  0.00  0.00     0.003 C 
ATOM     10  CAP G9L d   1     -35.921 -75.043   1.521  0.00  0.00     0.024 C 
ATOM     11  CAR G9L d   1     -35.138 -73.954  -0.604  0.00  0.00     0.221 C 
ATOM     12  CAS G9L d   1     -35.794 -77.574   6.018  0.00  0.00     0.117 A 
ATOM     13  CAT G9L d   1     -36.446 -73.332   3.295  0.00  0.00     0.047 A 
ATOM     14  CAU G9L d   1     -36.139 -74.655   2.967  0.00  0.00    -0.004 A 
ATOM     15  CAV G9L d   1     -36.532 -73.885   5.618  0.00  0.00     0.173 A 
ATOM     16  CAW G9L d   1     -36.022 -75.681   4.018  0.00  0.00    -0.011 A 
ATOM     17  CAX G9L d   1     -36.221 -75.293   5.335  0.00  0.00     0.030 A 
ATOM     18  H3  G9L d   1     -35.317 -78.996   4.453  0.00  0.00     0.088 H 
ATOM     19  H4  G9L d   1     -35.531 -77.321   2.641  0.00  0.00     0.085 H 
ATOM     20  H5  G9L d   1     -36.253 -75.955   7.397  0.00  0.00     0.089 H 
ATOM     21  H14 G9L d   1     -37.458 -71.681   2.475  0.00  0.00     0.044 H 
ATOM     22  H15 G9L d   1     -35.679 -71.690   2.229  0.00  0.00     0.044 H 
ATOM     23  H22 G9L d   1     -37.833 -73.130   0.746  0.00  0.00     0.065 H 
ATOM     24  H23 G9L d   1     -36.546 -72.031   0.145  0.00  0.00     0.065 H 
ATOM     25  H24 G9L d   1     -34.938 -75.531   1.446  0.00  0.00     0.071 H 
ATOM     26  H25 G9L d   1     -36.708 -75.758   1.240  0.00  0.00     0.071 H 
ENDROOT
BRANCH  11  27
ATOM     27  CAJ G9L d   1     -34.232 -75.108  -0.948  0.00  0.00     0.032 C 
ATOM     28  H12 G9L d   1     -33.623 -75.336  -0.060  0.00  0.00     0.049 H 
ATOM     29  H13 G9L d   1     -34.865 -75.974  -1.191  0.00  0.00     0.049 H 
BRANCH  27  30
ATOM     30  CAN G9L d   1     -33.282 -74.877  -2.122  0.00  0.00     0.091 C 
ATOM     31  H20 G9L d   1     -33.885 -74.860  -3.042  0.00  0.00     0.076 H 
ATOM     32  H21 G9L d   1     -32.804 -73.897  -1.978  0.00  0.00     0.076 H 
BRANCH  30  33
ATOM     33  N11 G9L d   1     -32.237 -75.852  -2.301  0.00  0.00    -0.071 N 
ATOM     34  CAL G9L d   1     -30.863 -75.316  -3.002  0.00  0.00     0.084 C 
ATOM     35  CAH G9L d   1     -30.605 -75.844  -3.608  0.00  0.00    -0.042 C 
ATOM     36  H16 G9L d   1     -30.077 -75.236  -2.237  0.00  0.00     0.076 H 
ATOM     37  H17 G9L d   1     -31.048 -74.325  -3.443  0.00  0.00     0.076 H 
ATOM     38  CAG G9L d   1     -30.399 -77.363  -3.048  0.00  0.00    -0.062 C 
ATOM     39  H8  G9L d   1     -31.358 -75.860  -4.410  0.00  0.00     0.035 H 
ATOM     40  H9  G9L d   1     -29.648 -75.481  -4.011  0.00  0.00     0.035 H 
ATOM     41  CAI G9L d   1     -31.564 -77.783  -1.977  0.00  0.00    -0.042 C 
ATOM     42  H6  G9L d   1     -29.419 -77.429  -2.552  0.00  0.00     0.033 H 
ATOM     43  H7  G9L d   1     -30.428 -78.062  -3.897  0.00  0.00     0.033 H 
ATOM     44  CAM G9L d   1     -32.314 -77.473  -2.205  0.00  0.00     0.084 C 
ATOM     45  H10 G9L d   1     -31.299 -77.388  -0.985  0.00  0.00     0.035 H 
ATOM     46  H11 G9L d   1     -31.629 -78.880  -1.929  0.00  0.00     0.035 H 
ATOM     47  H18 G9L d   1     -32.595 -77.883  -3.186  0.00  0.00     0.076 H 
ATOM     48  H19 G9L d   1     -33.069 -77.759  -1.458  0.00  0.00     0.076 H 
ATOM     49  H1  G9L d   1     -31.915 -75.753  -1.351  0.00  0.00     0.279 HD
ENDBRANCH  30  33
ENDBRANCH  27  30
ENDBRANCH  11  27
BRANCH  15  50
ATOM     50  OAB G9L d   1     -36.740 -73.444   6.882  0.00  0.00    -0.344 OA
ATOM     51  H2  G9L d   1     -36.629 -74.165   7.490  0.00  0.00     0.219 HD
ENDBRANCH  15  50
TORSDOF 4
