REMARK  25 active torsions:
REMARK  status: ('A' for Active; 'I' for Inactive)
REMARK    1  A    between atoms: N_1  and  CA_2 
REMARK    2  A    between atoms: CA_2  and  C_3 
REMARK    3  A    between atoms: CA_2  and  CB_5 
REMARK       I    between atoms: C_3  and  N_8 
REMARK    4  A    between atoms: CB_5  and  CG1_6 
REMARK    5  A    between atoms: CB_5  and  CG2_7 
REMARK    6  A    between atoms: N_8  and  CA_9 
REMARK    7  A    between atoms: CA_9  and  C_10 
REMARK    8  A    between atoms: CA_9  and  CB_12 
REMARK       I    between atoms: C_10  and  N_20 
REMARK    9  A    between atoms: CB_12  and  CG_13 
REMARK   10  A    between atoms: CZ_18  and  OH_19 
REMARK   11  A    between atoms: N_20  and  CA_21 
REMARK   12  A    between atoms: CA_21  and  C_22 
REMARK   13  A    between atoms: CA_21  and  CB_24 
REMARK       I    between atoms: C_22  and  N_28 
REMARK   14  A    between atoms: CB_24  and  CG1_25 
REMARK   15  A    between atoms: CB_24  and  CG2_26 
REMARK   16  A    between atoms: CG1_25  and  CD1_27 
REMARK   17  A    between atoms: N_28  and  CA_29 
REMARK   18  A    between atoms: CA_29  and  C_30 
REMARK   19  A    between atoms: CA_29  and  CB_32 
REMARK       I    between atoms: C_30  and  N_38 
REMARK   20  A    between atoms: CB_32  and  CG_33 
REMARK   21  A    between atoms: CA_39  and  C_40 
REMARK       I    between atoms: C_40  and  N_45 
REMARK   22  A    between atoms: N_45  and  CA_46 
REMARK   23  A    between atoms: CA_46  and  C_47 
REMARK   24  A    between atoms: CA_46  and  CB_49 
REMARK   25  A    between atoms: CB_49  and  CG_50 
ROOT
ATOM      1  CA  ILE d   1     104.077  18.233  18.252  0.00  0.00     0.092 C 
ATOM      2  H22 ILE d   1     104.388  17.207  18.008  0.00  0.00     0.088 H 
ENDROOT
BRANCH   1   3
ATOM      3  N   ILE d   1     105.227  19.131  18.196  0.00  0.00    -0.346 N 
ATOM      4  C   TYR d   1     106.454  18.689  17.976  0.00  0.00     0.241 C 
ATOM      5  O   TYR d   1     106.747  17.502  17.953  0.00  0.00    -0.271 OA
ATOM      6  H21 ILE d   1     105.082  20.112  18.328  0.00  0.00     0.163 HD
BRANCH   4   7
ATOM      7  CA  TYR d   1     107.528  19.756  17.801  0.00  0.00     0.093 C 
ATOM      8  H13 TYR d   1     107.126  20.738  18.091  0.00  0.00     0.088 H 
BRANCH   7   9
ATOM      9  N   TYR d   1     108.617  19.405  18.690  0.00  0.00    -0.346 N 
ATOM     10  C   VAL d   1     108.692  19.936  19.899  0.00  0.00     0.249 C 
ATOM     11  O   VAL d   1     107.968  20.873  20.282  0.00  0.00    -0.271 OA
ATOM     12  H12 TYR d   1     109.316  18.757  18.388  0.00  0.00     0.163 HD
BRANCH  10  13
ATOM     13  CA  VAL d   1     109.691  19.286  20.844  0.00  0.00     0.178 C 
ATOM     14  H4  VAL d   1     110.590  18.968  20.296  0.00  0.00     0.099 H 
BRANCH  13  15
ATOM     15  N   VAL d   1     110.109  20.279  21.919  0.00  0.00    -0.066 N 
ATOM     16  H1  VAL d   1     110.590  21.055  21.491  0.00  0.00     0.275 HD
ATOM     17  H2  VAL d   1     110.724  19.824  22.576  0.00  0.00     0.275 HD
ATOM     18  H3  VAL d   1     109.291  20.616  22.402  0.00  0.00     0.275 HD
ENDBRANCH  13  15
BRANCH  13  19
ATOM     19  CB  VAL d   1     108.926  18.020  21.385  0.00  0.00    -0.025 C 
ATOM     20  H5  VAL d   1     108.319  17.640  20.550  0.00  0.00     0.042 H 
BRANCH  19  21
ATOM     21  CG1 VAL d   1     109.864  16.899  21.791  0.00  0.00    -0.071 C 
ATOM     22  H6  VAL d   1     109.277  16.045  22.159  0.00  0.00     0.028 H 
ATOM     23  H7  VAL d   1     110.535  17.253  22.587  0.00  0.00     0.028 H 
ATOM     24  H8  VAL d   1     110.460  16.586  20.921  0.00  0.00     0.028 H 
ENDBRANCH  19  21
BRANCH  19  25
ATOM     25  CG2 VAL d   1     107.948  18.369  22.527  0.00  0.00    -0.071 C 
ATOM     26  H9  VAL d   1     107.282  19.183  22.204  0.00  0.00     0.028 H 
ATOM     27  H10 VAL d   1     108.517  18.690  23.412  0.00  0.00     0.028 H 
ATOM     28  H11 VAL d   1     107.347  17.483  22.779  0.00  0.00     0.028 H 
ENDBRANCH  19  25
ENDBRANCH  13  19
ENDBRANCH  10  13
ENDBRANCH   7   9
BRANCH   7  29
ATOM     29  CB  TYR d   1     107.963  19.822  16.345  0.00  0.00    -0.014 C 
ATOM     30  H14 TYR d   1     108.355  18.840  16.043  0.00  0.00     0.043 H 
ATOM     31  H15 TYR d   1     108.754  20.580  16.241  0.00  0.00     0.043 H 
BRANCH  29  32
ATOM     32  CG  TYR d   1     106.809  20.189  15.444  0.00  0.00    -0.056 A 
ATOM     33  CD1 TYR d   1     106.555  21.516  15.110  0.00  0.00    -0.074 A 
ATOM     34  CE1 TYR d   1     105.475  21.851  14.301  0.00  0.00    -0.051 A 
ATOM     35  H16 TYR d   1     107.207  22.297  15.485  0.00  0.00     0.084 H 
ATOM     36  CZ  TYR d   1     104.636  20.844  13.830  0.00  0.00     0.065 A 
ATOM     37  H18 TYR d   1     105.288  22.886  14.039  0.00  0.00     0.087 H 
ATOM     38  CE2 TYR d   1     104.848  19.533  14.162  0.00  0.00    -0.051 A 
ATOM     39  CD2 TYR d   1     105.926  19.199  14.960  0.00  0.00    -0.074 A 
ATOM     40  H19 TYR d   1     104.176  18.763  13.802  0.00  0.00     0.087 H 
ATOM     41  H17 TYR d   1     106.096  18.160  15.219  0.00  0.00     0.084 H 
BRANCH  36  42
ATOM     42  OH  TYR d   1     103.569  21.145  13.031  0.00  0.00    -0.361 OA
ATOM     43  H20 TYR d   1     103.541  22.083  12.882  0.00  0.00     0.217 HD
ENDBRANCH  36  42
ENDBRANCH  29  32
ENDBRANCH   7  29
ENDBRANCH   4   7
ENDBRANCH   1   3
BRANCH   1  44
ATOM     44  C   ILE d   1     103.060  18.725  17.213  0.00  0.00     0.241 C 
ATOM     45  O   ILE d   1     102.719  19.909  17.219  0.00  0.00    -0.271 OA
ATOM     46  N   HIS d   1     102.579  17.859  16.320  0.00  0.00    -0.346 N 
ATOM     47  H32 HIS d   1     102.872  16.903  16.317  0.00  0.00     0.163 HD
BRANCH  46  48
ATOM     48  CA  HIS d   1     101.603  18.359  15.341  0.00  0.00     0.095 C 
ATOM     49  H33 HIS d   1     102.019  19.302  14.957  0.00  0.00     0.088 H 
BRANCH  48  50
ATOM     50  C   HIS d   1     100.272  18.692  15.990  0.00  0.00     0.243 C 
ATOM     51  O   HIS d   1      99.672  17.828  16.638  0.00  0.00    -0.271 OA
ATOM     52  N   PRO d   1      99.829  19.958  15.826  0.00  0.00    -0.337 N 
ATOM     53  CA  PRO d   1      98.498  20.422  16.172  0.00  0.00     0.091 C 
ATOM     54  CD  PRO d   1     100.627  21.055  15.241  0.00  0.00    -0.001 C 
ATOM     55  CB  PRO d   1      98.274  21.549  15.154  0.00  0.00    -0.036 C 
ATOM     56  H39 PRO d   1      98.468  20.802  17.204  0.00  0.00     0.087 H 
ATOM     57  CG  PRO d   1      99.619  22.158  15.003  0.00  0.00    -0.048 C 
ATOM     58  H40 PRO d   1      97.551  22.285  15.536  0.00  0.00     0.036 H 
ATOM     59  H41 PRO d   1      97.916  21.146  14.195  0.00  0.00     0.036 H 
ATOM     60  H42 PRO d   1      99.756  22.962  15.741  0.00  0.00     0.035 H 
ATOM     61  H43 PRO d   1      99.738  22.567  13.989  0.00  0.00     0.035 H 
ATOM     62  H44 PRO d   1     101.091  20.739  14.295  0.00  0.00     0.064 H 
ATOM     63  H45 PRO d   1     101.409  21.385  15.941  0.00  0.00     0.064 H 
BRANCH  53  64
ATOM     64  C   PRO d   1      97.441  19.324  16.004  0.00  0.00     0.241 C 
ATOM     65  O   PRO d   1      97.183  18.871  14.888  0.00  0.00    -0.271 OA
ATOM     66  N   PHE d   1      96.875  18.875  17.120  0.00  0.00    -0.344 N 
ATOM     67  H46 PHE d   1      97.200  19.212  18.004  0.00  0.00     0.163 HD
BRANCH  66  68
ATOM     68  CA  PHE d   1      95.792  17.903  17.081  0.00  0.00     0.100 C 
ATOM     69  H47 PHE d   1      95.954  17.239  16.219  0.00  0.00     0.090 H 
BRANCH  68  70
ATOM     70  C   PHE d   1      94.459  18.625  16.889  0.00  0.00     0.197 C 
ATOM     71  O   PHE d   1      94.191  19.661  17.509  0.00  0.00    -0.646 OA
ATOM     72  OXT PHE d   1      93.626  18.184  16.097  0.00  0.00    -0.646 OA
ENDBRANCH  68  70
BRANCH  68  73
ATOM     73  CB  PHE d   1      95.776  17.041  18.349  0.00  0.00    -0.013 C 
ATOM     74  H48 PHE d   1      95.528  17.687  19.204  0.00  0.00     0.043 H 
ATOM     75  H49 PHE d   1      96.780  16.614  18.490  0.00  0.00     0.043 H 
BRANCH  73  76
ATOM     76  CG  PHE d   1      94.780  15.908  18.306  0.00  0.00    -0.056 A 
ATOM     77  CD1 PHE d   1      95.016  14.781  17.513  0.00  0.00    -0.077 A 
ATOM     78  CE1 PHE d   1      94.100  13.737  17.472  0.00  0.00    -0.082 A 
ATOM     79  H50 PHE d   1      95.924  14.721  16.924  0.00  0.00     0.084 H 
ATOM     80  CZ  PHE d   1      92.938  13.807  18.243  0.00  0.00    -0.083 A 
ATOM     81  H52 PHE d   1      94.287  12.873  16.845  0.00  0.00     0.083 H 
ATOM     82  CE2 PHE d   1      92.696  14.919  19.035  0.00  0.00    -0.082 A 
ATOM     83  H54 PHE d   1      92.224  12.991  18.222  0.00  0.00     0.083 H 
ATOM     84  CD2 PHE d   1      93.612  15.962  19.064  0.00  0.00    -0.077 A 
ATOM     85  H53 PHE d   1      91.792  14.974  19.631  0.00  0.00     0.083 H 
ATOM     86  H51 PHE d   1      93.416  16.829  19.684  0.00  0.00     0.084 H 
ENDBRANCH  73  76
ENDBRANCH  68  73
ENDBRANCH  66  68
ENDBRANCH  53  64
ENDBRANCH  48  50
BRANCH  48  87
ATOM     87  CB  HIS d   1     101.374  17.462  14.121  0.00  0.00     0.004 C 
ATOM     88  H34 HIS d   1     100.938  16.511  14.460  0.00  0.00     0.046 H 
ATOM     89  H35 HIS d   1     102.343  17.269  13.638  0.00  0.00     0.046 H 
BRANCH  87  90
ATOM     90  CG  HIS d   1     100.448  18.085  13.112  0.00  0.00     0.053 A 
ATOM     91  ND1 HIS d   1     100.786  19.212  12.385  0.00  0.00    -0.247 NA
ATOM     92  CE1 HIS d   1      99.776  19.552  11.603  0.00  0.00     0.064 A 
ATOM     93  NE2 HIS d   1      98.786  18.700  11.809  0.00  0.00    -0.359 N 
ATOM     94  H37 HIS d   1      99.762  20.390  10.908  0.00  0.00     0.143 H 
ATOM     95  CD2 HIS d   1      99.177  17.778  12.753  0.00  0.00     0.002 A 
ATOM     96  H38 HIS d   1      97.870  18.723  11.339  0.00  0.00     0.166 HD
ATOM     97  H36 HIS d   1      98.577  16.955  13.140  0.00  0.00     0.114 H 
ENDBRANCH  87  90
ENDBRANCH  48  87
ENDBRANCH  46  48
ENDBRANCH   1  44
BRANCH   1  98
ATOM     98  CB  ILE d   1     103.479  18.259  19.671  0.00  0.00    -0.030 C 
ATOM     99  H23 ILE d   1     103.514  19.293  20.043  0.00  0.00     0.043 H 
BRANCH  98 100
ATOM    100  CG1 ILE d   1     104.331  17.384  20.589  0.00  0.00    -0.063 C 
ATOM    101  H24 ILE d   1     105.390  17.536  20.334  0.00  0.00     0.033 H 
ATOM    102  H25 ILE d   1     104.061  16.331  20.419  0.00  0.00     0.033 H 
BRANCH 100 103
ATOM    103  CD1 ILE d   1     104.139  17.699  22.051  0.00  0.00    -0.076 C 
ATOM    104  H29 ILE d   1     104.777  17.038  22.655  0.00  0.00     0.027 H 
ATOM    105  H30 ILE d   1     103.085  17.542  22.325  0.00  0.00     0.027 H 
ATOM    106  H31 ILE d   1     104.415  18.747  22.240  0.00  0.00     0.027 H 
ENDBRANCH 100 103
ENDBRANCH  98 100
BRANCH  98 107
ATOM    107  CG2 ILE d   1     102.016  17.804  19.677  0.00  0.00    -0.071 C 
ATOM    108  H26 ILE d   1     101.428  18.451  19.009  0.00  0.00     0.028 H 
ATOM    109  H27 ILE d   1     101.615  17.872  20.699  0.00  0.00     0.028 H 
ATOM    110  H28 ILE d   1     101.954  16.763  19.327  0.00  0.00     0.028 H 
ENDBRANCH  98 107
ENDBRANCH   1  98
TORSDOF 25
