REMARK  27 active torsions:
REMARK  status: ('A' for Active; 'I' for Inactive)
REMARK    1  A    between atoms: C_1  and  CH3_3 
REMARK       I    between atoms: N_4  and  C_1 
REMARK    2  A    between atoms: CA_5  and  N_4 
REMARK    3  A    between atoms: C_6  and  CA_5 
REMARK    4  A    between atoms: CA_5  and  CB_8 
REMARK       I    between atoms: N_15  and  C_6 
REMARK    5  A    between atoms: CB_8  and  CG_9 
REMARK    6  A    between atoms: CG_9  and  CD_10 
REMARK    7  A    between atoms: CD_10  and  NE_11 
REMARK       I    between atoms: NE_11  and  CZ_12 
REMARK       I    between atoms: CZ_12  and  NH1_13 
REMARK    8  A    between atoms: CA_16  and  N_15 
REMARK    9  A    between atoms: C_17  and  CA_16 
REMARK   10  A    between atoms: CA_16  and  CB_19 
REMARK       I    between atoms: N_25  and  C_17 
REMARK   11  A    between atoms: CB_19  and  CG_20 
REMARK   12  A    between atoms: CA_26  and  N_25 
REMARK   13  A    between atoms: C_27  and  CA_26 
REMARK   14  A    between atoms: CA_26  and  CB_29 
REMARK       I    between atoms: N_43  and  C_27 
REMARK   15  A    between atoms: CB_29  and  CG_30 
REMARK   16  A    between atoms: CG_30  and  CD_31 
REMARK   17  A    between atoms: CD_31  and  CE_32 
REMARK   18  A    between atoms: CE_32  and  NZ_33 
REMARK   19  A    between atoms: CH_35  and  CH3_36 
REMARK       I    between atoms: NZ_37  and  CH_35 
REMARK   20  A    between atoms: CE_38  and  NZ_37 
REMARK   21  A    between atoms: CD_39  and  CE_38 
REMARK   22  A    between atoms: CG_40  and  CD_39 
REMARK   23  A    between atoms: CB_41  and  CG_40 
REMARK   24  A    between atoms: CA_42  and  CB_41 
REMARK   25  A    between atoms: CA_42  and  N_43 
REMARK   26  A    between atoms: C_44  and  CA_42 
REMARK       I    between atoms: N_46  and  C_44 
REMARK   27  A    between atoms: C6_52  and  C10_56 
ROOT
ATOM      1  CA  LYS d   1      22.957 -35.541   7.043  0.00  0.00     0.089 C 
ATOM      2  H25 LYS d   1      23.921 -35.808   7.500  0.00  0.00     0.087 H 
ENDROOT
BRANCH   1   3
ATOM      3  N   LYS d   1      22.039 -35.006   8.076  0.00  0.00    -0.346 N 
ATOM      4  C   HIS d   1      22.245 -35.164   9.462  0.00  0.00     0.241 C 
ATOM      5  O   HIS d   1      23.228 -35.775   9.876  0.00  0.00    -0.271 OA
ATOM      6  H24 LYS d   1      21.228 -34.505   7.773  0.00  0.00     0.163 HD
BRANCH   4   7
ATOM      7  CA  HIS d   1      21.143 -34.655  10.462  0.00  0.00     0.094 C 
ATOM      8  H18 HIS d   1      20.405 -34.079   9.884  0.00  0.00     0.088 H 
BRANCH   7   9
ATOM      9  N   HIS d   1      20.489 -35.790  11.083  0.00  0.00    -0.346 N 
ATOM     10  C   ARG d   1      19.953 -36.701  10.314  0.00  0.00     0.241 C 
ATOM     11  O   ARG d   1      20.346 -36.857   9.173  0.00  0.00    -0.271 OA
ATOM     12  H17 HIS d   1      20.449 -35.874  12.079  0.00  0.00     0.163 HD
BRANCH  10  13
ATOM     13  CA  ARG d   1      18.852 -37.594  10.803  0.00  0.00     0.089 C 
ATOM     14  H5  ARG d   1      19.226 -38.619  10.942  0.00  0.00     0.087 H 
BRANCH  13  15
ATOM     15  N   ARG d   1      18.213 -37.155  12.039  0.00  0.00    -0.348 N 
ATOM     16  C   ACE d   1      18.808 -38.076  12.911  0.00  0.00     0.214 C 
ATOM     17  O   ACE d   1      20.078 -38.310  12.853  0.00  0.00    -0.274 OA
ATOM     18  H4  ARG d   1      17.554 -36.423  12.211  0.00  0.00     0.163 HD
BRANCH  16  19
ATOM     19  CH3 ACE d   1      17.996 -37.964  14.178  0.00  0.00    -0.003 C 
ATOM     20  H1  ACE d   1      16.945 -37.761  13.923  0.00  0.00     0.040 H 
ATOM     21  H2  ACE d   1      18.389 -37.142  14.794  0.00  0.00     0.040 H 
ATOM     22  H3  ACE d   1      18.061 -38.907  14.740  0.00  0.00     0.040 H 
ENDBRANCH  16  19
ENDBRANCH  13  15
BRANCH  13  23
ATOM     23  CB  ARG d   1      17.867 -37.519   9.671  0.00  0.00    -0.036 C 
ATOM     24  H6  ARG d   1      17.445 -36.505   9.606  0.00  0.00     0.036 H 
ATOM     25  H7  ARG d   1      17.055 -38.244   9.830  0.00  0.00     0.036 H 
BRANCH  23  26
ATOM     26  CG  ARG d   1      18.628 -37.857   8.374  0.00  0.00    -0.048 C 
ATOM     27  H8  ARG d   1      18.632 -38.948   8.236  0.00  0.00     0.035 H 
ATOM     28  H9  ARG d   1      19.663 -37.495   8.462  0.00  0.00     0.035 H 
BRANCH  26  29
ATOM     29  CD  ARG d   1      17.937 -37.165   7.081  0.00  0.00     0.009 C 
ATOM     30  H10 ARG d   1      18.346 -36.164   6.880  0.00  0.00     0.064 H 
ATOM     31  H11 ARG d   1      16.844 -37.100   7.182  0.00  0.00     0.064 H 
BRANCH  29  32
ATOM     32  NE  ARG d   1      18.335 -38.129   6.074  0.00  0.00    -0.227 N 
ATOM     33  CZ  ARG d   1      17.929 -38.172   4.807  0.00  0.00     0.665 C 
ATOM     34  NH1 ARG d   1      17.180 -37.243   4.268  0.00  0.00    -0.235 N 
ATOM     35  NH2 ARG d   1      18.451 -39.146   4.075  0.00  0.00    -0.235 N 
ATOM     36  H13 ARG d   1      16.892 -37.322   3.282  0.00  0.00     0.174 HD
ATOM     37  H14 ARG d   1      16.879 -36.434   4.830  0.00  0.00     0.174 HD
ATOM     38  H15 ARG d   1      19.037 -39.867   4.520  0.00  0.00     0.174 HD
ATOM     39  H16 ARG d   1      18.270 -39.182   3.062  0.00  0.00     0.174 HD
ATOM     40  H12 ARG d   1      19.001 -38.856   6.370  0.00  0.00     0.177 HD
ENDBRANCH  29  32
ENDBRANCH  26  29
ENDBRANCH  23  26
ENDBRANCH  13  23
ENDBRANCH  10  13
ENDBRANCH   7   9
BRANCH   7  41
ATOM     41  CB  HIS d   1      21.674 -33.751  11.618  0.00  0.00     0.004 C 
ATOM     42  H19 HIS d   1      22.202 -32.896  11.170  0.00  0.00     0.046 H 
ATOM     43  H20 HIS d   1      22.379 -34.343  12.220  0.00  0.00     0.046 H 
BRANCH  41  44
ATOM     44  CG  HIS d   1      20.580 -33.201  12.561  0.00  0.00     0.053 A 
ATOM     45  ND1 HIS d   1      19.600 -32.311  12.145  0.00  0.00    -0.247 NA
ATOM     46  CE1 HIS d   1      18.779 -32.031  13.163  0.00  0.00     0.064 A 
ATOM     47  NE2 HIS d   1      19.241 -32.675  14.244  0.00  0.00    -0.359 N 
ATOM     48  H22 HIS d   1      17.896 -31.395  13.121  0.00  0.00     0.143 H 
ATOM     49  CD2 HIS d   1      20.367 -33.409  13.890  0.00  0.00     0.002 A 
ATOM     50  H23 HIS d   1      18.828 -32.633  15.187  0.00  0.00     0.166 HD
ATOM     51  H21 HIS d   1      20.966 -34.033  14.551  0.00  0.00     0.114 H 
ENDBRANCH  41  44
ENDBRANCH   7  41
ENDBRANCH   4   7
ENDBRANCH   1   3
BRANCH   1  52
ATOM     52  C   LYS d   1      23.121 -34.462   6.047  0.00  0.00     0.241 C 
ATOM     53  O   LYS d   1      22.165 -33.776   5.734  0.00  0.00    -0.271 OA
ATOM     54  N   ALY d   1      24.403 -34.572   5.124  0.00  0.00    -0.346 N 
ATOM     55  H50 ALY d   1      25.102 -35.283   5.200  0.00  0.00     0.163 HD
BRANCH  54  56
ATOM     56  CA  ALY d   1      24.419 -33.492   4.151  0.00  0.00     0.089 C 
ATOM     57  H49 ALY d   1      23.960 -32.570   4.537  0.00  0.00     0.087 H 
BRANCH  56  58
ATOM     58  CB  ALY d   1      25.900 -33.284   3.806  0.00  0.00    -0.038 C 
ATOM     59  H47 ALY d   1      26.452 -33.069   4.733  0.00  0.00     0.036 H 
ATOM     60  H48 ALY d   1      26.290 -34.207   3.352  0.00  0.00     0.036 H 
BRANCH  58  61
ATOM     61  CG  ALY d   1      26.107 -32.152   2.849  0.00  0.00    -0.061 C 
ATOM     62  H45 ALY d   1      25.559 -32.337   1.913  0.00  0.00     0.033 H 
ATOM     63  H46 ALY d   1      25.764 -31.207   3.295  0.00  0.00     0.033 H 
BRANCH  61  64
ATOM     64  CD  ALY d   1      27.623 -32.098   2.580  0.00  0.00    -0.050 C 
ATOM     65  H43 ALY d   1      28.133 -31.733   3.484  0.00  0.00     0.035 H 
ATOM     66  H44 ALY d   1      27.980 -33.111   2.342  0.00  0.00     0.035 H 
BRANCH  64  67
ATOM     67  CE  ALY d   1      27.955 -31.167   1.412  0.00  0.00    -0.005 C 
ATOM     68  H41 ALY d   1      27.576 -31.609   0.479  0.00  0.00     0.064 H 
ATOM     69  H42 ALY d   1      27.473 -30.192   1.579  0.00  0.00     0.064 H 
BRANCH  67  70
ATOM     70  NZ  ALY d   1      29.401 -30.975   1.300  0.00  0.00    -0.361 N 
ATOM     71  CH  ALY d   1      29.934 -29.817   0.938  0.00  0.00     0.213 C 
ATOM     72  OH  ALY d   1      29.234 -28.910   0.598  0.00  0.00    -0.274 OA
ATOM     73  H40 ALY d   1      30.008 -31.744   1.504  0.00  0.00     0.162 HD
BRANCH  71  74
ATOM     74  CH3 ALY d   1      31.425 -29.671   0.902  0.00  0.00    -0.003 C 
ATOM     75  H37 ALY d   1      31.893 -30.604   1.249  0.00  0.00     0.040 H 
ATOM     76  H38 ALY d   1      31.728 -28.842   1.559  0.00  0.00     0.040 H 
ATOM     77  H39 ALY d   1      31.748 -29.459  -0.128  0.00  0.00     0.040 H 
ENDBRANCH  71  74
ENDBRANCH  67  70
ENDBRANCH  64  67
ENDBRANCH  61  64
ENDBRANCH  58  61
ENDBRANCH  56  58
BRANCH  56  78
ATOM     78  C   ALY d   1      23.663 -34.029   2.929  0.00  0.00     0.245 C 
ATOM     79  O   ALY d   1      23.915 -35.183   2.628  0.00  0.00    -0.271 OA
ATOM     80  N   MCM d   1      22.912 -33.171   2.093  0.00  0.00    -0.325 N 
ATOM     81  CA  MCM d   1      22.249 -33.338   0.916  0.00  0.00     0.037 A 
ATOM     82  H51 MCM d   1      22.855 -32.236   2.443  0.00  0.00     0.169 HD
ATOM     83  C2  MCM d   1      22.367 -34.570   0.299  0.00  0.00    -0.024 A 
ATOM     84  C9  MCM d   1      21.421 -32.345   0.368  0.00  0.00    -0.056 A 
ATOM     85  C3  MCM d   1      21.727 -34.804  -0.896  0.00  0.00     0.091 A 
ATOM     86  H52 MCM d   1      22.963 -35.351   0.757  0.00  0.00     0.091 H 
ATOM     87  C7  MCM d   1      20.916 -33.831  -1.472  0.00  0.00     0.004 A 
ATOM     88  O1  MCM d   1      21.913 -36.028  -1.478  0.00  0.00    -0.285 OA
ATOM     89  C6  MCM d   1      20.232 -34.152  -2.753  0.00  0.00    -0.044 A 
ATOM     90  C8  MCM d   1      20.773 -32.586  -0.836  0.00  0.00    -0.068 A 
ATOM     91  C5  MCM d   1      20.432 -35.422  -3.333  0.00  0.00    -0.017 A 
ATOM     92  C4  MCM d   1      21.262 -36.333  -2.669  0.00  0.00     0.221 A 
ATOM     93  H53 MCM d   1      19.953 -35.687  -4.274  0.00  0.00     0.091 H 
ATOM     94  O2  MCM d   1      21.496 -37.562  -3.157  0.00  0.00    -0.164 OA
ATOM     95  H54 MCM d   1      20.157 -31.815  -1.285  0.00  0.00     0.085 H 
ATOM     96  H55 MCM d   1      21.289 -31.399   0.880  0.00  0.00     0.086 H 
BRANCH  89  97
ATOM     97  C10 MCM d   1      19.352 -33.111  -3.404  0.00  0.00    -0.050 C 
ATOM     98  H56 MCM d   1      18.931 -33.517  -4.335  0.00  0.00     0.033 H 
ATOM     99  H57 MCM d   1      19.950 -32.216  -3.631  0.00  0.00     0.033 H 
ATOM    100  H58 MCM d   1      18.535 -32.842  -2.719  0.00  0.00     0.033 H 
ENDBRANCH  89  97
ENDBRANCH  56  78
ENDBRANCH  54  56
ENDBRANCH   1  52
BRANCH   1 101
ATOM    101  CB  LYS d   1      22.381 -36.757   6.303  0.00  0.00    -0.038 C 
ATOM    102  H26 LYS d   1      22.675 -36.685   5.245  0.00  0.00     0.036 H 
ATOM    103  H27 LYS d   1      21.285 -36.718   6.382  0.00  0.00     0.036 H 
BRANCH 101 104
ATOM    104  CG  LYS d   1      22.851 -38.116   6.839  0.00  0.00    -0.061 C 
ATOM    105  H28 LYS d   1      22.558 -38.209   7.895  0.00  0.00     0.033 H 
ATOM    106  H29 LYS d   1      23.946 -38.179   6.755  0.00  0.00     0.033 H 
BRANCH 104 107
ATOM    107  CD  LYS d   1      22.215 -39.262   6.035  0.00  0.00    -0.043 C 
ATOM    108  H30 LYS d   1      22.664 -39.283   5.031  0.00  0.00     0.035 H 
ATOM    109  H31 LYS d   1      21.134 -39.078   5.949  0.00  0.00     0.035 H 
BRANCH 107 110
ATOM    110  CE  LYS d   1      22.433 -40.620   6.701  0.00  0.00     0.080 C 
ATOM    111  H32 LYS d   1      23.483 -40.706   7.019  0.00  0.00     0.075 H 
ATOM    112  H33 LYS d   1      22.201 -41.420   5.983  0.00  0.00     0.075 H 
BRANCH 110 113
ATOM    113  NZ  LYS d   1      21.553 -40.748   7.878  0.00  0.00    -0.079 N 
ATOM    114  H34 LYS d   1      21.701 -41.645   8.312  0.00  0.00     0.274 HD
ATOM    115  H35 LYS d   1      20.591 -40.670   7.588  0.00  0.00     0.274 HD
ATOM    116  H36 LYS d   1      21.765 -40.016   8.538  0.00  0.00     0.274 HD
ENDBRANCH 110 113
ENDBRANCH 107 110
ENDBRANCH 104 107
ENDBRANCH 101 104
ENDBRANCH   1 101
TORSDOF 27
