REMARK  3 active torsions:
REMARK  status: ('A' for Active; 'I' for Inactive)
REMARK    1  A    between atoms: CAH_2  and  CAJ_4 
REMARK    2  A    between atoms: CAI_9  and  CAA_10 
REMARK    3  A    between atoms: NAM_12  and  CAB_13 
ROOT
ATOM      1  CAJ 0W1 d   1      13.856   3.535 -14.612  0.00  0.00     0.084 A 
ATOM      2  CAE 0W1 d   1      14.645   4.370 -15.317  0.00  0.00    -0.045 A 
ATOM      3  SAG 0W1 d   1      14.842   2.686 -13.378  0.00  0.00    -0.063 SA
ATOM      4  CAL 0W1 d   1      16.305   3.539 -13.971  0.00  0.00     0.106 A 
ATOM      5  CAK 0W1 d   1      15.957   4.391 -14.990  0.00  0.00     0.027 A 
ATOM      6  CAI 0W1 d   1      17.105   5.010 -15.364  0.00  0.00     0.064 A 
ATOM      7  NAF 0W1 d   1      18.129   4.601 -14.616  0.00  0.00    -0.176 NA
ATOM      8  NAM 0W1 d   1      17.629   3.681 -13.744  0.00  0.00    -0.266 N 
ATOM      9  H1  0W1 d   1      14.245   4.998 -16.112  0.00  0.00     0.087 H 
ENDROOT
BRANCH   6  10
ATOM     10  CAA 0W1 d   1      17.260   6.060 -16.480  0.00  0.00    -0.033 C 
ATOM     11  H2  0W1 d   1      18.312   6.375 -16.544  0.00  0.00     0.035 H 
ATOM     12  H3  0W1 d   1      16.630   6.932 -16.253  0.00  0.00     0.035 H 
ATOM     13  H4  0W1 d   1      16.949   5.623 -17.440  0.00  0.00     0.035 H 
ENDBRANCH   6  10
BRANCH   8  14
ATOM     14  CAB 0W1 d   1      18.468   2.926 -12.704  0.00  0.00     0.003 C 
ATOM     15  H5  0W1 d   1      19.514   3.262 -12.762  0.00  0.00     0.059 H 
ATOM     16  H6  0W1 d   1      18.418   1.846 -12.907  0.00  0.00     0.059 H 
ATOM     17  H7  0W1 d   1      18.073   3.129 -11.697  0.00  0.00     0.059 H 
ENDBRANCH   8  14
BRANCH   1  18
ATOM     18  CAH 0W1 d   1      12.520   3.381 -14.814  0.00  0.00     0.216 C 
ATOM     19  OAC 0W1 d   1      11.872   4.205 -15.530  0.00  0.00    -0.644 OA
ATOM     20  OAD 0W1 d   1      11.918   2.390 -14.324  0.00  0.00    -0.644 OA
ENDBRANCH   1  18
TORSDOF 3
