REMARK  6 active torsions:
REMARK  status: ('A' for Active; 'I' for Inactive)
REMARK    1  A    between atoms: N1_1  and  C1'_9 
REMARK    2  A    between atoms: C2'_10  and  O2'_11 
REMARK    3  A    between atoms: C3'_12  and  O3'_14 
REMARK    4  A    between atoms: C4'_13  and  C5'_16 
REMARK    5  A    between atoms: C5'_16  and  O5'_17 
REMARK    6  A    between atoms: O5'_17  and  P_18 
ROOT
ATOM      1  C1' U5P d   1      28.728  29.991  38.983  0.00  0.00     0.137 C 
ATOM      2  C2' U5P d   1      29.940  30.784  39.223  0.00  0.00     0.104 C 
ATOM      3  C3' U5P d   1      29.477  31.872  40.116  0.00  0.00     0.091 C 
ATOM      4  C4' U5P d   1      28.018  32.032  39.814  0.00  0.00     0.089 C 
ATOM      5  O4' U5P d   1      27.582  30.844  39.172  0.00  0.00    -0.354 OA
ATOM      6  H6  U5P d   1      28.693  29.218  39.765  0.00  0.00     0.122 H 
ATOM      7  H7  U5P d   1      30.225  31.244  38.265  0.00  0.00     0.093 H 
ATOM      8  H9  U5P d   1      29.854  32.726  39.534  0.00  0.00     0.091 H 
ATOM      9  H10 U5P d   1      27.584  31.913  40.818  0.00  0.00     0.090 H 
ENDROOT
BRANCH   1  10
ATOM     10  N1  U5P d   1      28.699  29.294  37.739  0.00  0.00    -0.304 N 
ATOM     11  C2  U5P d   1      28.345  27.880  37.570  0.00  0.00     0.327 C 
ATOM     12  N3  U5P d   1      28.187  27.323  36.205  0.00  0.00    -0.279 N 
ATOM     13  O2  U5P d   1      28.110  27.192  38.552  0.00  0.00    -0.247 OA
ATOM     14  C4  U5P d   1      28.541  28.114  35.044  0.00  0.00     0.227 C 
ATOM     15  H1  U5P d   1      27.834  26.395  36.085  0.00  0.00     0.173 HD
ATOM     16  C5  U5P d   1      28.812  29.592  35.192  0.00  0.00     0.025 C 
ATOM     17  O4  U5P d   1      28.546  27.587  33.943  0.00  0.00    -0.273 OA
ATOM     18  C6  U5P d   1      28.882  30.180  36.580  0.00  0.00     0.010 C 
ATOM     19  H2  U5P d   1      28.012  30.123  34.655  0.00  0.00     0.049 H 
ATOM     20  H3  U5P d   1      29.777  29.795  34.705  0.00  0.00     0.049 H 
ATOM     21  H4  U5P d   1      29.873  30.645  36.683  0.00  0.00     0.065 H 
ATOM     22  H5  U5P d   1      28.104  30.956  36.641  0.00  0.00     0.065 H 
ENDBRANCH   1  10
BRANCH   2  23
ATOM     23  O2' U5P d   1      31.076  30.083  39.636  0.00  0.00    -0.388 OA
ATOM     24  H8  U5P d   1      31.795  30.692  39.760  0.00  0.00     0.210 HD
ENDBRANCH   2  23
BRANCH   3  25
ATOM     25  O3' U5P d   1      30.132  32.280  41.356  0.00  0.00    -0.390 OA
ATOM     26  H11 U5P d   1      29.742  31.815  42.087  0.00  0.00     0.210 HD
ENDBRANCH   3  25
BRANCH   4  27
ATOM     27  C5' U5P d   1      27.390  33.341  39.452  0.00  0.00     0.059 C 
ATOM     28  H12 U5P d   1      27.946  33.769  38.605  0.00  0.00     0.079 H 
ATOM     29  H13 U5P d   1      27.468  34.014  40.319  0.00  0.00     0.079 H 
BRANCH  27  30
ATOM     30  O5' U5P d   1      26.064  33.246  39.096  0.00  0.00    -0.280 OA
BRANCH  30  31
ATOM     31  P   U5P d   1      25.366  34.398  38.310  0.00  0.00     0.422 P 
ATOM     32  O1P U5P d   1      25.918  35.739  38.716  0.00  0.00    -0.617 OA
ATOM     33  O2P U5P d   1      25.647  34.177  36.800  0.00  0.00    -0.617 OA
ATOM     34  O3P U5P d   1      23.837  34.323  38.603  0.00  0.00    -0.617 OA
ENDBRANCH  30  31
ENDBRANCH  27  30
ENDBRANCH   4  27
TORSDOF 6
