REMARK  7 active torsions:
REMARK  status: ('A' for Active; 'I' for Inactive)
REMARK    1  A    between atoms: P_2  and  O5'_5 
REMARK    2  A    between atoms: O5'_5  and  C5'_6 
REMARK    3  A    between atoms: C5'_6  and  C4'_7 
REMARK    4  A    between atoms: C3'_9  and  O3'_10 
REMARK    5  A    between atoms: C2'_11  and  O2'_12 
REMARK    6  A    between atoms: C1'_13  and  N1_14 
REMARK    7  A    between atoms: C4_17  and  N4_21 
ROOT
ATOM      1  C4' C5P d   1      28.201  32.193  40.208  0.00  0.00     0.089 C 
ATOM      2  O4' C5P d   1      27.772  31.069  39.411  0.00  0.00    -0.353 OA
ATOM      3  C3' C5P d   1      29.732  32.045  40.523  0.00  0.00     0.091 C 
ATOM      4  C2' C5P d   1      30.189  30.906  39.538  0.00  0.00     0.105 C 
ATOM      5  C1' C5P d   1      28.843  30.155  39.138  0.00  0.00     0.141 C 
ATOM      6  H3  C5P d   1      27.720  32.048  41.186  0.00  0.00     0.090 H 
ATOM      7  H4  C5P d   1      30.165  32.942  40.056  0.00  0.00     0.091 H 
ATOM      8  H6  C5P d   1      30.462  31.446  38.619  0.00  0.00     0.093 H 
ATOM      9  H8  C5P d   1      28.763  29.348  39.881  0.00  0.00     0.123 H 
ENDROOT
BRANCH   5  10
ATOM     10  N1  C5P d   1      28.618  29.441  37.843  0.00  0.00    -0.280 N 
ATOM     11  C2  C5P d   1      28.481  28.023  37.660  0.00  0.00     0.330 C 
ATOM     12  N3  C5P d   1      28.395  27.461  36.350  0.00  0.00    -0.295 N 
ATOM     13  O2  C5P d   1      28.261  27.352  38.662  0.00  0.00    -0.246 OA
ATOM     14  C4  C5P d   1      28.541  28.217  35.295  0.00  0.00     0.103 C 
ATOM     15  H9  C5P d   1      28.222  26.482  36.240  0.00  0.00     0.172 HD
ATOM     16  C5  C5P d   1      28.820  29.625  35.406  0.00  0.00    -0.026 C 
ATOM     17  C6  C5P d   1      28.836  30.183  36.653  0.00  0.00    -0.010 C 
ATOM     18  H10 C5P d   1      29.013  30.229  34.520  0.00  0.00     0.091 H 
ATOM     19  H11 C5P d   1      29.026  31.252  36.738  0.00  0.00     0.112 H 
BRANCH  14  20
ATOM     20  N4  C5P d   1      28.362  27.678  33.962  0.00  0.00    -0.385 N 
ATOM     21  H12 C5P d   1      28.481  28.287  33.140  0.00  0.00     0.157 HD
ATOM     22  H13 C5P d   1      28.116  26.686  33.837  0.00  0.00     0.157 HD
ENDBRANCH  14  20
ENDBRANCH   5  10
BRANCH   4  23
ATOM     23  O2' C5P d   1      31.357  30.222  39.786  0.00  0.00    -0.388 OA
ATOM     24  H7  C5P d   1      31.492  29.572  39.106  0.00  0.00     0.210 HD
ENDBRANCH   4  23
BRANCH   1  25
ATOM     25  C5' C5P d   1      27.612  33.576  39.732  0.00  0.00     0.059 C 
ATOM     26  H1  C5P d   1      27.555  34.263  40.589  0.00  0.00     0.079 H 
ATOM     27  H2  C5P d   1      28.267  34.006  38.960  0.00  0.00     0.079 H 
BRANCH  25  28
ATOM     28  O5' C5P d   1      26.296  33.381  39.187  0.00  0.00    -0.280 OA
BRANCH  28  29
ATOM     29  P   C5P d   1      25.481  34.576  38.439  0.00  0.00     0.422 P 
ATOM     30  O3P C5P d   1      25.629  34.408  36.873  0.00  0.00    -0.617 OA
ATOM     31  O1P C5P d   1      23.914  34.353  38.606  0.00  0.00    -0.617 OA
ATOM     32  O2P C5P d   1      25.914  35.933  38.844  0.00  0.00    -0.617 OA
ENDBRANCH  28  29
ENDBRANCH  25  28
ENDBRANCH   1  25
BRANCH   3  33
ATOM     33  O3' C5P d   1      30.218  32.216  41.797  0.00  0.00    -0.390 OA
ATOM     34  H5  C5P d   1      29.813  31.582  42.377  0.00  0.00     0.210 HD
ENDBRANCH   3  33
TORSDOF 7
