REMARK  7 active torsions:
REMARK  status: ('A' for Active; 'I' for Inactive)
REMARK    1  A    between atoms: P_1  and  O5'_5 
REMARK    2  A    between atoms: O5'_5  and  C5'_6 
REMARK    3  A    between atoms: C5'_6  and  C4'_7 
REMARK    4  A    between atoms: C3'_9  and  O3'_10 
REMARK    5  A    between atoms: C2'_11  and  O2'_12 
REMARK    6  A    between atoms: C1'_13  and  N9_14 
REMARK    7  A    between atoms: C6_18  and  N6_19 
ROOT
ATOM      1  C4' AMP d   1      28.263  32.433  39.940  0.00  0.00     0.089 C 
ATOM      2  O4' AMP d   1      27.849  31.253  39.263  0.00  0.00    -0.353 OA
ATOM      3  C3' AMP d   1      29.837  32.381  39.900  0.00  0.00     0.091 C 
ATOM      4  C2' AMP d   1      30.186  30.900  39.507  0.00  0.00     0.105 C 
ATOM      5  C1' AMP d   1      28.772  30.196  39.571  0.00  0.00     0.139 C 
ATOM      6  H3  AMP d   1      27.932  32.363  40.987  0.00  0.00     0.090 H 
ATOM      7  H4  AMP d   1      30.235  33.078  39.148  0.00  0.00     0.091 H 
ATOM      8  H6  AMP d   1      30.530  30.900  38.462  0.00  0.00     0.093 H 
ATOM      9  H8  AMP d   1      28.601  29.805  40.585  0.00  0.00     0.122 H 
ENDROOT
BRANCH   5  10
ATOM     10  N9  AMP d   1      28.565  29.115  38.610  0.00  0.00    -0.294 N 
ATOM     11  C8  AMP d   1      28.140  27.768  38.811  0.00  0.00     0.071 A 
ATOM     12  N7  AMP d   1      28.077  27.054  37.689  0.00  0.00    -0.236 NA
ATOM     13  H9  AMP d   1      27.890  27.362  39.790  0.00  0.00     0.144 H 
ATOM     14  C5  AMP d   1      28.479  27.942  36.675  0.00  0.00     0.149 A 
ATOM     15  C6  AMP d   1      28.614  27.757  35.271  0.00  0.00     0.155 A 
ATOM     16  C4  AMP d   1      28.786  29.227  37.214  0.00  0.00     0.167 A 
ATOM     17  N1  AMP d   1      29.032  28.818  34.495  0.00  0.00    -0.222 NA
ATOM     18  C2  AMP d   1      29.289  29.991  35.143  0.00  0.00     0.091 A 
ATOM     19  N3  AMP d   1      29.205  30.306  36.466  0.00  0.00    -0.222 NA
ATOM     20  H12 AMP d   1      29.612  30.803  34.502  0.00  0.00     0.146 H 
BRANCH  15  21
ATOM     21  N6  AMP d   1      28.350  26.567  34.665  0.00  0.00    -0.382 N 
ATOM     22  H10 AMP d   1      28.460  26.473  33.645  0.00  0.00     0.157 HD
ATOM     23  H11 AMP d   1      28.041  25.761  35.226  0.00  0.00     0.157 HD
ENDBRANCH  15  21
ENDBRANCH   5  10
BRANCH   4  24
ATOM     24  O2' AMP d   1      31.177  30.264  40.222  0.00  0.00    -0.388 OA
ATOM     25  H7  AMP d   1      31.991  30.745  40.130  0.00  0.00     0.210 HD
ENDBRANCH   4  24
BRANCH   1  26
ATOM     26  C5' AMP d   1      27.689  33.767  39.379  0.00  0.00     0.059 C 
ATOM     27  H1  AMP d   1      27.798  34.566  40.127  0.00  0.00     0.079 H 
ATOM     28  H2  AMP d   1      28.225  34.049  38.461  0.00  0.00     0.079 H 
BRANCH  26  29
ATOM     29  O5' AMP d   1      26.322  33.558  39.093  0.00  0.00    -0.280 OA
BRANCH  29  30
ATOM     30  P   AMP d   1      25.328  34.570  38.312  0.00  0.00     0.422 P 
ATOM     31  O1P AMP d   1      25.845  36.056  38.448  0.00  0.00    -0.617 OA
ATOM     32  O2P AMP d   1      25.646  34.331  36.782  0.00  0.00    -0.617 OA
ATOM     33  O3P AMP d   1      23.912  34.383  38.658  0.00  0.00    -0.617 OA
ENDBRANCH  29  30
ENDBRANCH  26  29
ENDBRANCH   1  26
BRANCH   3  34
ATOM     34  O3' AMP d   1      30.325  32.720  41.152  0.00  0.00    -0.390 OA
ATOM     35  H5  AMP d   1      29.998  32.103  41.796  0.00  0.00     0.210 HD
ENDBRANCH   3  34
TORSDOF 7
