REMARK  7 active torsions:
REMARK  status: ('A' for Active; 'I' for Inactive)
REMARK    1  A    between atoms: P_1  and  O5'_5 
REMARK    2  A    between atoms: O5'_5  and  C5'_6 
REMARK    3  A    between atoms: C5'_6  and  C4'_7 
REMARK    4  A    between atoms: C3'_9  and  O3'_10 
REMARK    5  A    between atoms: C2'_11  and  O2'_12 
REMARK    6  A    between atoms: C1'_13  and  N9_14 
REMARK    7  A    between atoms: C2_21  and  N2_22 
ROOT
ATOM      1  C4' 5GP d   1      28.196  32.470  39.994  0.00  0.00     0.089 C 
ATOM      2  O4' 5GP d   1      27.648  31.208  39.617  0.00  0.00    -0.353 OA
ATOM      3  C3' 5GP d   1      29.711  32.304  40.006  0.00  0.00     0.091 C 
ATOM      4  C2' 5GP d   1      29.957  30.816  39.951  0.00  0.00     0.105 C 
ATOM      5  C1' 5GP d   1      28.589  30.161  39.846  0.00  0.00     0.139 C 
ATOM      6  H3  5GP d   1      27.861  32.726  41.010  0.00  0.00     0.090 H 
ATOM      7  H4  5GP d   1      30.174  32.821  39.153  0.00  0.00     0.091 H 
ATOM      8  H6  5GP d   1      30.594  30.540  39.098  0.00  0.00     0.093 H 
ATOM      9  H8  5GP d   1      28.355  29.638  40.785  0.00  0.00     0.122 H 
ENDROOT
BRANCH   5  10
ATOM     10  N9  5GP d   1      28.525  29.196  38.720  0.00  0.00    -0.295 N 
ATOM     11  C8  5GP d   1      28.167  27.901  38.819  0.00  0.00     0.071 A 
ATOM     12  N7  5GP d   1      28.196  27.341  37.587  0.00  0.00    -0.234 NA
ATOM     13  H9  5GP d   1      27.898  27.388  39.741  0.00  0.00     0.144 H 
ATOM     14  C5  5GP d   1      28.569  28.301  36.709  0.00  0.00     0.171 A 
ATOM     15  C6  5GP d   1      28.764  28.310  35.335  0.00  0.00     0.292 A 
ATOM     16  C4  5GP d   1      28.764  29.471  37.430  0.00  0.00     0.161 A 
ATOM     17  O6  5GP d   1      28.584  27.255  34.687  0.00  0.00    -0.265 OA
ATOM     18  N1  5GP d   1      29.141  29.448  34.731  0.00  0.00    -0.154 N 
ATOM     19  C2  5GP d   1      29.325  30.576  35.436  0.00  0.00     0.680 A 
ATOM     20  H10 5GP d   1      29.287  29.456  33.742  0.00  0.00     0.187 HD
ATOM     21  N3  5GP d   1      29.144  30.596  36.778  0.00  0.00    -0.174 N 
ATOM     22  H13 5GP d   1      29.296  31.468  37.304  0.00  0.00     0.186 HD
BRANCH  19  23
ATOM     23  N2  5GP d   1      29.704  31.715  34.803  0.00  0.00    -0.234 N 
ATOM     24  H11 5GP d   1      29.846  32.581  35.342  0.00  0.00     0.174 HD
ATOM     25  H12 5GP d   1      29.850  31.713  33.783  0.00  0.00     0.174 HD
ENDBRANCH  19  23
ENDBRANCH   5  10
BRANCH   4  26
ATOM     26  O2' 5GP d   1      30.573  30.456  41.185  0.00  0.00    -0.388 OA
ATOM     27  H7  5GP d   1      31.390  30.931  41.280  0.00  0.00     0.210 HD
ENDBRANCH   4  26
BRANCH   1  28
ATOM     28  C5' 5GP d   1      27.703  33.563  39.042  0.00  0.00     0.059 C 
ATOM     29  H1  5GP d   1      28.105  34.539  39.350  0.00  0.00     0.079 H 
ATOM     30  H2  5GP d   1      28.027  33.341  38.015  0.00  0.00     0.079 H 
BRANCH  28  31
ATOM     31  O5' 5GP d   1      26.272  33.579  39.111  0.00  0.00    -0.280 OA
BRANCH  31  32
ATOM     32  P   5GP d   1      25.397  34.646  38.274  0.00  0.00     0.422 P 
ATOM     33  O1P 5GP d   1      25.945  35.987  38.684  0.00  0.00    -0.617 OA
ATOM     34  O2P 5GP d   1      25.693  34.306  36.830  0.00  0.00    -0.617 OA
ATOM     35  O3P 5GP d   1      23.974  34.357  38.691  0.00  0.00    -0.617 OA
ENDBRANCH  31  32
ENDBRANCH  28  31
ENDBRANCH   1  28
BRANCH   3  36
ATOM     36  O3' 5GP d   1      30.240  32.795  41.244  0.00  0.00    -0.390 OA
ATOM     37  H5  5GP d   1      29.863  32.304  41.965  0.00  0.00     0.210 HD
ENDBRANCH   3  36
TORSDOF 7
