REMARK  5 active torsions:
REMARK  status: ('A' for Active; 'I' for Inactive)
REMARK    1  A    between atoms: N_1  and  CA_2 
REMARK    2  A    between atoms: CA_2  and  C_3 
REMARK    3  A    between atoms: CA_2  and  CB_5 
REMARK    4  A    between atoms: CB_5  and  CG_6 
REMARK    5  A    between atoms: CG_6  and  CD_7 
REMARK       I    between atoms: CD_7  and  NE2_9 
ROOT
ATOM      1  CB  GLN d   1      27.357  19.316  27.709  0.00  0.00    -0.021 C 
ATOM      2  H5  GLN d   1      28.368  19.113  28.092  0.00  0.00     0.037 H 
ATOM      3  H6  GLN d   1      27.184  18.724  26.798  0.00  0.00     0.037 H 
ENDROOT
BRANCH   1   4
ATOM      4  CA  GLN d   1      27.294  20.790  27.324  0.00  0.00     0.183 C 
ATOM      5  H4  GLN d   1      28.006  20.963  26.504  0.00  0.00     0.101 H 
BRANCH   4   6
ATOM      6  N   GLN d   1      27.669  21.678  28.460  0.00  0.00    -0.065 N 
ATOM      7  H1  GLN d   1      28.597  21.445  28.776  0.00  0.00     0.275 HD
ATOM      8  H2  GLN d   1      27.015  21.551  29.216  0.00  0.00     0.275 HD
ATOM      9  H3  GLN d   1      27.649  22.639  28.156  0.00  0.00     0.275 HD
ENDBRANCH   4   6
BRANCH   4  10
ATOM     10  C   GLN d   1      25.912  21.123  26.839  0.00  0.00     0.204 C 
ATOM     11  O   GLN d   1      25.195  21.872  27.523  0.00  0.00    -0.646 OA
ATOM     12  OXT GLN d   1      25.523  20.658  25.754  0.00  0.00    -0.646 OA
ENDBRANCH   4  10
ENDBRANCH   1   4
BRANCH   1  13
ATOM     13  CG  GLN d   1      26.360  18.851  28.761  0.00  0.00     0.011 C 
ATOM     14  H7  GLN d   1      25.341  19.035  28.388  0.00  0.00     0.047 H 
ATOM     15  H8  GLN d   1      26.523  19.429  29.682  0.00  0.00     0.047 H 
BRANCH  13  16
ATOM     16  CD  GLN d   1      26.504  17.367  29.082  0.00  0.00     0.215 C 
ATOM     17  OE1 GLN d   1      27.065  16.585  28.304  0.00  0.00    -0.274 OA
ATOM     18  NE2 GLN d   1      25.984  16.972  30.242  0.00  0.00    -0.370 N 
ATOM     19  H9  GLN d   1      26.043  16.012  30.515  0.00  0.00     0.159 HD
ATOM     20  H10 GLN d   1      25.534  17.635  30.840  0.00  0.00     0.159 HD
ENDBRANCH  13  16
ENDBRANCH   1  13
TORSDOF 5
