REMARK  1 active torsions:
REMARK  status: ('A' for Active; 'I' for Inactive)
REMARK    1  A    between atoms: CAJ_2  and  CAM_4 
ROOT
ATOM      1  CAM 0JD d   1      15.171  10.663   4.450  0.00  0.00     0.149 C 
ATOM      2  OAI 0JD d   1      14.540  11.201   5.588  0.00  0.00    -0.330 OA
ATOM      3  CAL 0JD d   1      14.090  10.245   6.441  0.00  0.00     0.103 A 
ATOM      4  CAF 0JD d   1      13.678  10.639   7.674  0.00  0.00    -0.048 A 
ATOM      5  CAD 0JD d   1      13.358   9.691   8.610  0.00  0.00    -0.080 A 
ATOM      6  CAC 0JD d   1      13.440   8.371   8.306  0.00  0.00    -0.080 A 
ATOM      7  CAE 0JD d   1      13.838   7.963   7.057  0.00  0.00    -0.048 A 
ATOM      8  CAK 0JD d   1      14.155   8.900   6.124  0.00  0.00     0.102 A 
ATOM      9  OAH 0JD d   1      14.367   8.467   4.849  0.00  0.00    -0.345 OA
ATOM     10  CAG 0JD d   1      14.436   9.492   3.883  0.00  0.00     0.060 C 
ATOM     11  H1  0JD d   1      16.159  10.290   4.757  0.00  0.00     0.104 H 
ATOM     12  H2  0JD d   1      13.603  11.693   7.915  0.00  0.00     0.087 H 
ATOM     13  H3  0JD d   1      13.037   9.997   9.599  0.00  0.00     0.083 H 
ATOM     14  H4  0JD d   1      13.189   7.631   9.057  0.00  0.00     0.083 H 
ATOM     15  H5  0JD d   1      13.899   6.907   6.818  0.00  0.00     0.087 H 
ATOM     16  H6  0JD d   1      14.967   9.122   2.993  0.00  0.00     0.080 H 
ATOM     17  H7  0JD d   1      13.418   9.799   3.602  0.00  0.00     0.080 H 
ENDROOT
BRANCH   1  18
ATOM     18  CAJ 0JD d   1      15.398  11.806   3.478  0.00  0.00     0.205 C 
ATOM     19  OAA 0JD d   1      15.351  12.938   3.735  0.00  0.00    -0.646 OA
ATOM     20  OAB 0JD d   1      15.669  11.367   2.365  0.00  0.00    -0.646 OA
ENDBRANCH   1  18
TORSDOF 1
