REMARK  4 active torsions:
REMARK  status: ('A' for Active; 'I' for Inactive)
REMARK    1  A    between atoms: CG_4  and  CD_1 
REMARK    2  A    between atoms: CA_8  and  C_5 
REMARK    3  A    between atoms: CA_8  and  N_9 
REMARK    4  A    between atoms: CA_8  and  CB_10 
ROOT
ATOM      1  CG  G8M d   1       2.270  28.512  14.912  0.00  0.00     0.036 C 
ATOM      2  CB  G8M d   1       3.024  29.704  14.263  0.00  0.00    -0.004 C 
ATOM      3  C6  G8M d   1       4.334  29.024  14.729  0.00  0.00    -0.058 C 
ATOM      4  C7  G8M d   1       3.516  28.265  15.786  0.00  0.00    -0.052 C 
ATOM      5  H1  G8M d   1       1.356  28.777  15.463  0.00  0.00     0.057 H 
ATOM      6  H6  G8M d   1       2.843  30.642  14.808  0.00  0.00     0.045 H 
ATOM      7  H7  G8M d   1       5.083  29.715  15.143  0.00  0.00     0.033 H 
ATOM      8  H8  G8M d   1       4.807  28.381  13.972  0.00  0.00     0.033 H 
ATOM      9  H9  G8M d   1       3.790  27.206  15.903  0.00  0.00     0.034 H 
ATOM     10  H10 G8M d   1       3.485  28.747  16.774  0.00  0.00     0.034 H 
ENDROOT
BRANCH   2  11
ATOM     11  CA  G8M d   1       2.796  30.047  12.764  0.00  0.00     0.186 C 
ATOM     12  H2  G8M d   1       2.576  29.102  12.246  0.00  0.00     0.102 H 
BRANCH  11  13
ATOM     13  C   G8M d   1       1.604  30.997  12.549  0.00  0.00     0.204 C 
ATOM     14  OXT G8M d   1       1.790  32.073  11.951  0.00  0.00    -0.646 OA
ATOM     15  O   G8M d   1       0.492  30.691  12.994  0.00  0.00    -0.646 OA
ENDBRANCH  11  13
BRANCH  11  16
ATOM     16  N   G8M d   1       3.984  30.651  12.125  0.00  0.00    -0.065 N 
ATOM     17  H3  G8M d   1       3.780  30.852  11.159  0.00  0.00     0.275 HD
ATOM     18  H4  G8M d   1       4.758  30.007  12.178  0.00  0.00     0.275 HD
ATOM     19  H5  G8M d   1       4.224  31.506  12.602  0.00  0.00     0.275 HD
ENDBRANCH  11  16
ENDBRANCH   2  11
BRANCH   1  20
ATOM     20  CD  G8M d   1       1.986  27.362  13.909  0.00  0.00     0.177 C 
ATOM     21  OE1 G8M d   1       2.860  26.535  13.612  0.00  0.00    -0.648 OA
ATOM     22  OE2 G8M d   1       0.865  27.301  13.384  0.00  0.00    -0.648 OA
ENDBRANCH   1  20
TORSDOF 4
