REMARK  8 active torsions:
REMARK  status: ('A' for Active; 'I' for Inactive)
REMARK    1  A    between atoms: C4_1  and  O4_11 
REMARK    2  A    between atoms: C7_4  and  C8_5 
REMARK    3  A    between atoms: C7_4  and  N1_7 
REMARK    4  A    between atoms: N7_14  and  C1'_15 
REMARK    5  A    between atoms: C4'_17  and  C5'_18 
REMARK    6  A    between atoms: C5'_18  and  O5'_19 
REMARK    7  A    between atoms: C3'_20  and  O3'_21 
REMARK    8  A    between atoms: C2'_22  and  O2'_23 
ROOT
ATOM      1  C8  0EY d   1      36.432   0.544  12.531  0.00  0.00     0.093 A 
ATOM      2  C9  0EY d   1      36.452   1.355  13.694  0.00  0.00     0.030 A 
ATOM      3  N5  0EY d   1      36.176   1.408  11.476  0.00  0.00    -0.133 NA
ATOM      4  N6  0EY d   1      36.009   2.616  11.960  0.00  0.00    -0.064 NA
ATOM      5  N7  0EY d   1      36.119   2.626  13.256  0.00  0.00    -0.229 N 
ATOM      6  H6  0EY d   1      36.680   1.045  14.713  0.00  0.00     0.117 H 
ENDROOT
BRANCH   5   7
ATOM      7  C1' 0EY d   1      36.081   3.701  14.199  0.00  0.00     0.154 C 
ATOM      8  O4' 0EY d   1      35.961   4.983  13.673  0.00  0.00    -0.352 OA
ATOM      9  C4' 0EY d   1      37.235   5.349  13.077  0.00  0.00     0.088 C 
ATOM     10  C3' 0EY d   1      38.286   4.485  13.783  0.00  0.00     0.091 C 
ATOM     11  H10 0EY d   1      37.230   5.080  12.011  0.00  0.00     0.090 H 
ATOM     12  C2' 0EY d   1      37.488   3.609  14.766  0.00  0.00     0.106 C 
ATOM     13  H14 0EY d   1      38.961   5.138  14.356  0.00  0.00     0.091 H 
ATOM     14  H16 0EY d   1      37.862   2.575  14.791  0.00  0.00     0.094 H 
ATOM     15  H9  0EY d   1      35.299   3.534  14.954  0.00  0.00     0.125 H 
BRANCH   9  16
ATOM     16  C5' 0EY d   1      37.437   6.839  13.162  0.00  0.00     0.043 C 
ATOM     17  H11 0EY d   1      37.457   7.140  14.220  0.00  0.00     0.078 H 
ATOM     18  H12 0EY d   1      36.604   7.345  12.652  0.00  0.00     0.078 H 
BRANCH  16  19
ATOM     19  O5' 0EY d   1      38.659   7.220  12.547  0.00  0.00    -0.398 OA
ATOM     20  H13 0EY d   1      38.765   8.162  12.613  0.00  0.00     0.209 HD
ENDBRANCH  16  19
ENDBRANCH   9  16
BRANCH  10  21
ATOM     21  O3' 0EY d   1      39.084   3.742  12.876  0.00  0.00    -0.390 OA
ATOM     22  H15 0EY d   1      39.716   3.226  13.362  0.00  0.00     0.210 HD
ENDBRANCH  10  21
BRANCH  12  23
ATOM     23  O2' 0EY d   1      37.496   4.174  16.069  0.00  0.00    -0.388 OA
ATOM     24  H17 0EY d   1      36.999   3.618  16.657  0.00  0.00     0.210 HD
ENDBRANCH  12  23
ENDBRANCH   5   7
BRANCH   1  25
ATOM     25  C7  0EY d   1      36.784  -0.906  12.522  0.00  0.00     0.042 C 
ATOM     26  H4  0EY d   1      37.341  -1.049  13.460  0.00  0.00     0.074 H 
ATOM     27  H5  0EY d   1      37.471  -1.006  11.669  0.00  0.00     0.074 H 
BRANCH  25  28
ATOM     28  N1  0EY d   1      35.933  -2.100  12.432  0.00  0.00    -0.336 N 
ATOM     29  C6  0EY d   1      36.263  -3.050  13.283  0.00  0.00     0.018 A 
ATOM     30  C5  0EY d   1      35.587  -4.255  13.268  0.00  0.00    -0.037 A 
ATOM     31  H2  0EY d   1      37.325  -3.279  13.108  0.00  0.00     0.070 H 
ATOM     32  H3  0EY d   1      36.140  -2.629  14.292  0.00  0.00     0.070 H 
ATOM     33  C4  0EY d   1      34.603  -4.422  12.323  0.00  0.00     0.140 A 
ATOM     34  H1  0EY d   1      35.825  -5.044  13.979  0.00  0.00     0.086 H 
ATOM     35  N3  0EY d   1      34.322  -3.438  11.442  0.00  0.00    -0.301 N 
ATOM     36  C2  0EY d   1      34.969  -2.290  11.468  0.00  0.00     0.256 A 
ATOM     37  H7  0EY d   1      33.609  -3.583  10.756  0.00  0.00     0.171 HD
ATOM     38  O2  0EY d   1      34.670  -1.343  10.622  0.00  0.00    -0.151 OA
BRANCH  33  39
ATOM     39  O4  0EY d   1      33.927  -5.592  12.289  0.00  0.00    -0.346 OA
ATOM     40  H8  0EY d   1      33.002  -5.426  12.426  0.00  0.00     0.219 HD
ENDBRANCH  33  39
ENDBRANCH  25  28
ENDBRANCH   1  25
TORSDOF 8
