REMARK  9 active torsions:
REMARK  status: ('A' for Active; 'I' for Inactive)
REMARK    1  A    between atoms: C4_1  and  O4_11 
REMARK    2  A    between atoms: C5_2  and  C5A_12 
REMARK    3  A    between atoms: C7_4  and  C8_5 
REMARK    4  A    between atoms: C7_4  and  N1_7 
REMARK    5  A    between atoms: N7_15  and  C1'_16 
REMARK    6  A    between atoms: C4'_18  and  C5'_19 
REMARK    7  A    between atoms: C5'_19  and  O5'_20 
REMARK    8  A    between atoms: C3'_21  and  O3'_22 
REMARK    9  A    between atoms: C2'_23  and  O2'_24 
ROOT
ATOM      1  C8  0FT d   1      37.307  -0.369  23.945  0.00  0.00     0.093 A 
ATOM      2  C9  0FT d   1      37.592  -1.006  22.720  0.00  0.00     0.030 A 
ATOM      3  N5  0FT d   1      36.775  -1.377  24.743  0.00  0.00    -0.133 NA
ATOM      4  N6  0FT d   1      36.712  -2.516  24.070  0.00  0.00    -0.064 NA
ATOM      5  N7  0FT d   1      37.148  -2.337  22.880  0.00  0.00    -0.229 N 
ATOM      6  H5  0FT d   1      38.056  -0.566  21.838  0.00  0.00     0.117 H 
ENDROOT
BRANCH   1   7
ATOM      7  C7  0FT d   1      37.616   1.103  24.339  0.00  0.00     0.043 C 
ATOM      8  H3  0FT d   1      38.552   1.339  23.811  0.00  0.00     0.074 H 
ATOM      9  H4  0FT d   1      37.806   1.065  25.422  0.00  0.00     0.074 H 
BRANCH   7  10
ATOM     10  N1  0FT d   1      36.791   2.276  24.157  0.00  0.00    -0.324 N 
ATOM     11  C6  0FT d   1      37.306   3.271  23.355  0.00  0.00     0.024 A 
ATOM     12  C5  0FT d   1      36.606   4.439  23.171  0.00  0.00    -0.015 A 
ATOM     13  H1  0FT d   1      38.281   3.549  23.782  0.00  0.00     0.071 H 
ATOM     14  H2  0FT d   1      37.454   2.830  22.358  0.00  0.00     0.071 H 
ATOM     15  C4  0FT d   1      35.404   4.591  23.835  0.00  0.00     0.147 A 
ATOM     16  N3  0FT d   1      34.946   3.609  24.631  0.00  0.00    -0.289 N 
ATOM     17  C2  0FT d   1      35.649   2.467  24.802  0.00  0.00     0.324 A 
ATOM     18  H6  0FT d   1      34.072   3.725  25.104  0.00  0.00     0.172 HD
ATOM     19  O2  0FT d   1      35.196   1.615  25.516  0.00  0.00    -0.247 OA
BRANCH  12  20
ATOM     20  C5A 0FT d   1      37.110   5.517  22.294  0.00  0.00    -0.049 C 
ATOM     21  H8  0FT d   1      36.395   6.353  22.293  0.00  0.00     0.033 H 
ATOM     22  H9  0FT d   1      37.225   5.133  21.270  0.00  0.00     0.033 H 
ATOM     23  H10 0FT d   1      38.084   5.867  22.666  0.00  0.00     0.033 H 
ENDBRANCH  12  20
BRANCH  15  24
ATOM     24  O4  0FT d   1      34.681   5.749  23.672  0.00  0.00    -0.346 OA
ATOM     25  H7  0FT d   1      34.571   6.173  24.515  0.00  0.00     0.219 HD
ENDBRANCH  15  24
ENDBRANCH   7  10
ENDBRANCH   1   7
BRANCH   5  26
ATOM     26  C1' 0FT d   1      37.292  -3.318  21.862  0.00  0.00     0.154 C 
ATOM     27  O4' 0FT d   1      37.170  -4.637  22.337  0.00  0.00    -0.352 OA
ATOM     28  C4' 0FT d   1      38.491  -5.143  22.721  0.00  0.00     0.088 C 
ATOM     29  C3' 0FT d   1      39.453  -3.980  22.455  0.00  0.00     0.091 C 
ATOM     30  H12 0FT d   1      38.504  -5.371  23.797  0.00  0.00     0.090 H 
ATOM     31  C2' 0FT d   1      38.724  -3.165  21.391  0.00  0.00     0.106 C 
ATOM     32  H16 0FT d   1      40.396  -4.367  22.041  0.00  0.00     0.091 H 
ATOM     33  H18 0FT d   1      39.058  -2.118  21.360  0.00  0.00     0.094 H 
ATOM     34  H11 0FT d   1      36.571  -3.140  21.051  0.00  0.00     0.125 H 
BRANCH  28  35
ATOM     35  C5' 0FT d   1      38.792  -6.421  21.978  0.00  0.00     0.043 C 
ATOM     36  H13 0FT d   1      38.057  -6.548  21.169  0.00  0.00     0.078 H 
ATOM     37  H14 0FT d   1      38.719  -7.268  22.676  0.00  0.00     0.078 H 
BRANCH  35  38
ATOM     38  O5' 0FT d   1      40.100  -6.391  21.418  0.00  0.00    -0.398 OA
ATOM     39  H15 0FT d   1      40.264  -7.205  20.957  0.00  0.00     0.209 HD
ENDBRANCH  35  38
ENDBRANCH  28  35
BRANCH  29  40
ATOM     40  O3' 0FT d   1      39.771  -3.237  23.626  0.00  0.00    -0.390 OA
ATOM     41  H17 0FT d   1      38.975  -2.873  23.995  0.00  0.00     0.210 HD
ENDBRANCH  29  40
BRANCH  31  42
ATOM     42  O2' 0FT d   1      38.843  -3.774  20.112  0.00  0.00    -0.388 OA
ATOM     43  H19 0FT d   1      38.465  -4.645  20.141  0.00  0.00     0.210 HD
ENDBRANCH  31  42
ENDBRANCH   5  26
TORSDOF 9
