REMARK  8 active torsions:
REMARK  status: ('A' for Active; 'I' for Inactive)
REMARK    1  A    between atoms: C4_1  and  O4_11 
REMARK    2  A    between atoms: C7_4  and  C8_5 
REMARK    3  A    between atoms: C7_4  and  N1_7 
REMARK    4  A    between atoms: N7_15  and  C1'_16 
REMARK    5  A    between atoms: C4'_18  and  C5'_19 
REMARK    6  A    between atoms: C5'_19  and  O5'_20 
REMARK    7  A    between atoms: C3'_21  and  O3'_22 
REMARK    8  A    between atoms: C2'_23  and  O2'_24 
ROOT
ATOM      1  C8  0G0 d   1      36.723   0.438  12.664  0.00  0.00     0.087 A 
ATOM      2  C9  0G0 d   1      36.841   1.173  13.931  0.00  0.00     0.024 A 
ATOM      3  N5  0G0 d   1      36.394   1.384  11.706  0.00  0.00    -0.161 NA
ATOM      4  N6  0G0 d   1      36.255   2.558  12.301  0.00  0.00     0.007 NA
ATOM      5  N7  0G0 d   1      36.491   2.476  13.607  0.00  0.00    -0.252 N 
ATOM      6  H5  0G0 d   1      37.136   0.783  14.904  0.00  0.00     0.117 H 
ENDROOT
BRANCH   5   7
ATOM      7  C1' 0G0 d   1      36.484   3.550  14.591  0.00  0.00     0.149 C 
ATOM      8  O4' 0G0 d   1      36.270   4.760  13.933  0.00  0.00    -0.352 OA
ATOM      9  C4' 0G0 d   1      37.541   5.247  13.437  0.00  0.00     0.088 C 
ATOM     10  C3' 0G0 d   1      38.594   4.681  14.399  0.00  0.00     0.091 C 
ATOM     11  H9  0G0 d   1      37.729   4.833  12.435  0.00  0.00     0.090 H 
ATOM     12  C2' 0G0 d   1      37.838   3.666  15.283  0.00  0.00     0.106 C 
ATOM     13  H13 0G0 d   1      38.967   5.495  15.037  0.00  0.00     0.091 H 
ATOM     14  H15 0G0 d   1      38.363   2.700  15.328  0.00  0.00     0.093 H 
ATOM     15  H8  0G0 d   1      35.693   3.368  15.334  0.00  0.00     0.124 H 
BRANCH   9  16
ATOM     16  C5' 0G0 d   1      37.505   6.748  13.307  0.00  0.00     0.043 C 
ATOM     17  H10 0G0 d   1      37.122   7.179  14.243  0.00  0.00     0.078 H 
ATOM     18  H11 0G0 d   1      36.836   7.020  12.477  0.00  0.00     0.078 H 
BRANCH  16  19
ATOM     19  O5' 0G0 d   1      38.799   7.276  13.050  0.00  0.00    -0.398 OA
ATOM     20  H12 0G0 d   1      38.745   8.221  12.973  0.00  0.00     0.209 HD
ENDBRANCH  16  19
ENDBRANCH   9  16
BRANCH  10  21
ATOM     21  O3' 0G0 d   1      39.713   4.128  13.725  0.00  0.00    -0.390 OA
ATOM     22  H14 0G0 d   1      40.332   3.793  14.363  0.00  0.00     0.210 HD
ENDBRANCH  10  21
BRANCH  12  23
ATOM     23  O2' 0G0 d   1      37.635   4.182  16.590  0.00  0.00    -0.388 OA
ATOM     24  H16 0G0 d   1      37.124   4.981  16.538  0.00  0.00     0.210 HD
ENDBRANCH  12  23
ENDBRANCH   5   7
BRANCH   1  25
ATOM     25  C7  0G0 d   1      37.040  -0.979  12.445  0.00  0.00     0.042 C 
ATOM     26  H3  0G0 d   1      37.787  -1.213  13.217  0.00  0.00     0.074 H 
ATOM     27  H4  0G0 d   1      37.517  -1.001  11.454  0.00  0.00     0.074 H 
BRANCH  25  28
ATOM     28  N1  0G0 d   1      36.188  -2.088  12.442  0.00  0.00    -0.322 N 
ATOM     29  C6  0G0 d   1      36.539  -3.069  13.328  0.00  0.00     0.052 A 
ATOM     30  C5  0G0 d   1      35.822  -4.252  13.375  0.00  0.00     0.162 A 
ATOM     31  H1  0G0 d   1      37.582  -3.339  13.105  0.00  0.00     0.075 H 
ATOM     32  H2  0G0 d   1      36.482  -2.624  14.332  0.00  0.00     0.075 H 
ATOM     33  C4  0G0 d   1      34.779  -4.418  12.478  0.00  0.00     0.181 A 
ATOM     34  F5A 0G0 d   1      36.121  -5.193  14.236  0.00  0.00    -0.204 F 
ATOM     35  N3  0G0 d   1      34.483  -3.418  11.587  0.00  0.00    -0.287 N 
ATOM     36  C2  0G0 d   1      35.176  -2.270  11.545  0.00  0.00     0.325 A 
ATOM     37  H6  0G0 d   1      33.725  -3.549  10.947  0.00  0.00     0.172 HD
ATOM     38  O2  0G0 d   1      34.858  -1.383  10.722  0.00  0.00    -0.247 OA
BRANCH  33  39
ATOM     39  O4  0G0 d   1      34.046  -5.603  12.503  0.00  0.00    -0.344 OA
ATOM     40  H7  0G0 d   1      34.392  -6.174  13.179  0.00  0.00     0.219 HD
ENDBRANCH  33  39
ENDBRANCH  25  28
ENDBRANCH   1  25
TORSDOF 8
