REMARK WARNING: 32 MAX_TORS EXCEEDED!!!
REMARK  35 active torsions:
REMARK  status: ('A' for Active; 'I' for Inactive)
REMARK    1  A    between atoms: C2_2  and  S1_1 
REMARK    2  A    between atoms: S1_1  and  CP_12 
REMARK    3  A    between atoms: C3_3  and  C2_2 
REMARK    4  A    between atoms: N4_4  and  C3_3 
REMARK       I    between atoms: C5_5  and  N4_4 
REMARK    5  A    between atoms: C6_7  and  C5_5 
REMARK    6  A    between atoms: C7_8  and  C6_7 
REMARK    7  A    between atoms: N8_9  and  C7_8 
REMARK    8  A    between atoms: C10_13  and  C9_10 
REMARK    9  A    between atoms: CP_12  and  C1M_22 
REMARK   10  A    between atoms: C10_13  and  O10_14 
REMARK   11  A    between atoms: C11_15  and  C10_13 
REMARK   12  A    between atoms: C12_16  and  C11_15 
REMARK   13  A    between atoms: C11_15  and  C13_17 
REMARK   14  A    between atoms: C11_15  and  C14_18 
REMARK   15  A    between atoms: O6A_49  and  C12_16 
REMARK   16  A    between atoms: P1A_21  and  O3A_32 
REMARK   17  A    between atoms: O5X_46  and  P1A_21 
REMARK   18  A    between atoms: C1M_22  and  O1M_23 
REMARK   19  A    between atoms: C1M_22  and  C2M_28 
REMARK   20  A    between atoms: C1X_24  and  N9A_57 
REMARK   21  A    between atoms: O3A_32  and  P2A_27 
REMARK   22  A    between atoms: P2A_27  and  O6A_49 
REMARK   23  A    between atoms: C2M_28  and  C3M_33 
REMARK   24  A    between atoms: C2X_29  and  O2X_30 
REMARK   25  A    between atoms: C3M_33  and  C4M_39 
REMARK   26  A    between atoms: C3X_34  and  O3X_35 
REMARK   27  A    between atoms: O3X_35  and  P3X_36 
REMARK   28  A    between atoms: C5X_45  and  C4X_40 
REMARK   29  A    between atoms: C5M_44  and  C6M_50 
REMARK   30  A    between atoms: C5X_45  and  O5X_46 
REMARK   31  A    between atoms: C6A_47  and  N6A_48 
REMARK   32  A    between atoms: C6M_50  and  C7M_53 
REMARK   33  A    between atoms: C7M_53  and  C8M_56 
REMARK   34  A    between atoms: C8M_56  and  C9M_59 
REMARK   35  A    between atoms: C9M_59  and  CAM_60 
ROOT
ATOM      1  C10 0ET d   1      25.530  59.667  33.343  0.00  0.00     0.108 C 
ATOM      2  H13 0ET d   1      25.125  59.413  32.352  0.00  0.00     0.097 H 
ENDROOT
BRANCH   1   3
ATOM      3  C9  0ET d   1      24.383  59.867  34.305  0.00  0.00     0.181 C 
ATOM      4  N8  0ET d   1      24.512  59.493  35.521  0.00  0.00    -0.369 N 
ATOM      5  H10 0ET d   1      25.393  59.085  35.760  0.00  0.00     0.161 HD
ATOM      6  O9  0ET d   1      23.242  60.420  33.883  0.00  0.00    -0.174 OA
BRANCH   4   7
ATOM      7  C7  0ET d   1      23.540  59.585  36.605  0.00  0.00     0.002 C 
ATOM      8  H8  0ET d   1      22.516  59.521  36.209  0.00  0.00     0.064 H 
ATOM      9  H9  0ET d   1      23.702  58.778  37.335  0.00  0.00     0.064 H 
BRANCH   7  10
ATOM     10  C6  0ET d   1      23.778  60.952  37.256  0.00  0.00     0.024 C 
ATOM     11  H6  0ET d   1      24.846  61.046  37.503  0.00  0.00     0.049 H 
ATOM     12  H7  0ET d   1      23.497  61.739  36.541  0.00  0.00     0.049 H 
BRANCH  10  13
ATOM     13  C5  0ET d   1      22.967  61.131  38.522  0.00  0.00     0.219 C 
ATOM     14  N4  0ET d   1      23.390  62.040  39.387  0.00  0.00    -0.360 N 
ATOM     15  H5  0ET d   1      24.221  62.548  39.160  0.00  0.00     0.162 HD
ATOM     16  O5  0ET d   1      21.948  60.488  38.752  0.00  0.00    -0.274 OA
BRANCH  14  17
ATOM     17  C3  0ET d   1      22.726  62.353  40.652  0.00  0.00     0.003 C 
ATOM     18  H3  0ET d   1      22.046  61.538  40.940  0.00  0.00     0.065 H 
ATOM     19  H4  0ET d   1      23.470  62.508  41.447  0.00  0.00     0.065 H 
BRANCH  17  20
ATOM     20  C2  0ET d   1      21.941  63.636  40.403  0.00  0.00    -0.009 C 
ATOM     21  H1  0ET d   1      21.218  63.467  39.591  0.00  0.00     0.051 H 
ATOM     22  H2  0ET d   1      21.403  63.916  41.321  0.00  0.00     0.051 H 
BRANCH  20  23
ATOM     23  S1  0ET d   1      23.033  64.943  39.947  0.00  0.00    -0.165 SA
BRANCH  23  24
ATOM     24  CP  0ET d   1      23.595  64.952  41.621  0.00  0.00     0.001 C 
ATOM     25  H11 0ET d   1      24.648  65.269  41.622  0.00  0.00     0.052 H 
ATOM     26  H12 0ET d   1      23.521  63.925  42.008  0.00  0.00     0.052 H 
BRANCH  24  27
ATOM     27  C1M 0ET d   1      22.824  65.875  42.582  0.00  0.00     0.044 C 
ATOM     28  H23 0ET d   1      22.983  65.494  43.602  0.00  0.00     0.084 H 
BRANCH  27  29
ATOM     29  O1M 0ET d   1      21.410  65.889  42.343  0.00  0.00    -0.395 OA
ATOM     30  H24 0ET d   1      20.991  66.473  42.964  0.00  0.00     0.210 HD
ENDBRANCH  27  29
BRANCH  27  31
ATOM     31  C2M 0ET d   1      23.374  67.293  42.518  0.00  0.00    -0.037 C 
ATOM     32  H27 0ET d   1      23.476  67.594  41.465  0.00  0.00     0.037 H 
ATOM     33  H28 0ET d   1      24.360  67.320  43.004  0.00  0.00     0.037 H 
BRANCH  31  34
ATOM     34  C3M 0ET d   1      22.440  68.267  43.228  0.00  0.00    -0.048 C 
ATOM     35  H31 0ET d   1      22.894  68.620  44.166  0.00  0.00     0.038 H 
ATOM     36  H32 0ET d   1      21.476  67.784  43.447  0.00  0.00     0.038 H 
BRANCH  34  37
ATOM     37  C4M 0ET d   1      22.248  69.414  42.273  0.00  0.00    -0.106 C 
ATOM     38  C5M 0ET d   1      21.052  69.916  41.994  0.00  0.00    -0.107 C 
ATOM     39  H36 0ET d   1      20.144  69.526  42.451  0.00  0.00     0.076 H 
ATOM     40  H34 0ET d   1      23.124  69.848  41.793  0.00  0.00     0.076 H 
BRANCH  38  41
ATOM     41  C6M 0ET d   1      21.021  71.060  41.007  0.00  0.00    -0.050 C 
ATOM     42  H41 0ET d   1      22.042  71.432  40.836  0.00  0.00     0.038 H 
ATOM     43  H42 0ET d   1      20.395  71.874  41.400  0.00  0.00     0.038 H 
BRANCH  41  44
ATOM     44  C7M 0ET d   1      20.433  70.542  39.697  0.00  0.00    -0.062 C 
ATOM     45  H43 0ET d   1      19.717  71.282  39.311  0.00  0.00     0.033 H 
ATOM     46  H44 0ET d   1      19.911  69.594  39.891  0.00  0.00     0.033 H 
BRANCH  44  47
ATOM     47  C8M 0ET d   1      21.513  70.305  38.647  0.00  0.00    -0.065 C 
ATOM     48  H46 0ET d   1      21.988  69.330  38.828  0.00  0.00     0.033 H 
ATOM     49  H47 0ET d   1      22.270  71.100  38.718  0.00  0.00     0.033 H 
BRANCH  47  50
ATOM     50  C9M 0ET d   1      20.901  70.315  37.248  0.00  0.00    -0.069 C 
ATOM     51  H48 0ET d   1      21.409  71.078  36.640  0.00  0.00     0.032 H 
ATOM     52  H49 0ET d   1      19.832  70.561  37.327  0.00  0.00     0.032 H 
BRANCH  50  53
ATOM     53  CAM 0ET d   1      21.048  68.968  36.571  0.00  0.00    -0.077 C 
ATOM     54  H50 0ET d   1      20.598  69.011  35.568  0.00  0.00     0.027 H 
ATOM     55  H51 0ET d   1      20.538  68.199  37.170  0.00  0.00     0.027 H 
ATOM     56  H52 0ET d   1      22.115  68.716  36.483  0.00  0.00     0.027 H 
ENDBRANCH  50  53
ENDBRANCH  47  50
ENDBRANCH  44  47
ENDBRANCH  41  44
ENDBRANCH  38  41
ENDBRANCH  34  37
ENDBRANCH  31  34
ENDBRANCH  27  31
ENDBRANCH  24  27
ENDBRANCH  23  24
ENDBRANCH  20  23
ENDBRANCH  17  20
ENDBRANCH  14  17
ENDBRANCH  10  13
ENDBRANCH   7  10
ENDBRANCH   4   7
ENDBRANCH   1   3
BRANCH   1  57
ATOM     57  O10 0ET d   1      26.405  58.628  33.789  0.00  0.00    -0.386 OA
ATOM     58  H14 0ET d   1      25.920  57.814  33.856  0.00  0.00     0.210 HD
ENDBRANCH   1  57
BRANCH   1  59
ATOM     59  C11 0ET d   1      26.375  60.925  33.249  0.00  0.00     0.008 C 
BRANCH  59  60
ATOM     60  C12 0ET d   1      27.433  60.761  32.157  0.00  0.00     0.041 C 
ATOM     61  H15 0ET d   1      28.078  59.901  32.391  0.00  0.00     0.076 H 
ATOM     62  H16 0ET d   1      28.045  61.673  32.093  0.00  0.00     0.076 H 
BRANCH  60  63
ATOM     63  O6A 0ET d   1      26.766  60.539  30.912  0.00  0.00    -0.289 OA
BRANCH  63  64
ATOM     64  P2A 0ET d   1      27.384  60.743  29.424  0.00  0.00     0.417 P 
ATOM     65  O4A 0ET d   1      26.802  59.600  28.630  0.00  0.00    -0.624 OA
ATOM     66  O5A 0ET d   1      27.156  62.179  28.994  0.00  0.00    -0.624 OA
BRANCH  64  67
ATOM     67  O3A 0ET d   1      28.979  60.525  29.570  0.00  0.00    -0.180 OA
BRANCH  67  68
ATOM     68  P1A 0ET d   1      29.718  59.131  29.255  0.00  0.00     0.417 P 
ATOM     69  O1A 0ET d   1      29.019  58.017  29.997  0.00  0.00    -0.624 OA
ATOM     70  O2A 0ET d   1      29.953  59.010  27.764  0.00  0.00    -0.624 OA
BRANCH  68  71
ATOM     71  O5X 0ET d   1      31.154  59.370  29.935  0.00  0.00    -0.287 OA
BRANCH  71  72
ATOM     72  C5X 0ET d   1      31.818  60.628  29.903  0.00  0.00     0.058 C 
ATOM     73  H37 0ET d   1      31.862  61.010  28.872  0.00  0.00     0.079 H 
ATOM     74  H38 0ET d   1      31.292  61.353  30.541  0.00  0.00     0.079 H 
BRANCH  72  75
ATOM     75  C4X 0ET d   1      33.221  60.379  30.434  0.00  0.00     0.090 C 
ATOM     76  C3X 0ET d   1      33.784  59.054  29.931  0.00  0.00     0.107 C 
ATOM     77  C2X 0ET d   1      33.490  58.053  31.024  0.00  0.00     0.106 C 
ATOM     78  H33 0ET d   1      33.368  58.763  28.955  0.00  0.00     0.092 H 
ATOM     79  C1X 0ET d   1      33.572  58.930  32.259  0.00  0.00     0.140 C 
ATOM     80  H29 0ET d   1      32.499  57.590  30.904  0.00  0.00     0.093 H 
ATOM     81  O4X 0ET d   1      33.145  60.247  31.851  0.00  0.00    -0.353 OA
ATOM     82  H25 0ET d   1      34.616  58.968  32.604  0.00  0.00     0.122 H 
ATOM     83  H35 0ET d   1      33.882  61.210  30.148  0.00  0.00     0.090 H 
BRANCH  76  84
ATOM     84  O3X 0ET d   1      35.198  59.163  29.911  0.00  0.00    -0.272 OA
BRANCH  84  85
ATOM     85  P3X 0ET d   1      36.077  59.103  28.563  0.00  0.00     0.422 P 
ATOM     86  O7A 0ET d   1      35.429  58.014  27.732  0.00  0.00    -0.617 OA
ATOM     87  O8A 0ET d   1      37.464  58.745  29.056  0.00  0.00    -0.617 OA
ATOM     88  O9A 0ET d   1      35.961  60.516  28.022  0.00  0.00    -0.617 OA
ENDBRANCH  84  85
ENDBRANCH  76  84
BRANCH  77  89
ATOM     89  O2X 0ET d   1      34.506  57.049  31.084  0.00  0.00    -0.388 OA
ATOM     90  H30 0ET d   1      35.359  57.465  31.121  0.00  0.00     0.210 HD
ENDBRANCH  77  89
BRANCH  79  91
ATOM     91  N9A 0ET d   1      32.733  58.448  33.373  0.00  0.00    -0.294 N 
ATOM     92  C4A 0ET d   1      33.187  58.000  34.544  0.00  0.00     0.167 A 
ATOM     93  N3A 0ET d   1      34.435  57.828  35.048  0.00  0.00    -0.222 NA
ATOM     94  C5A 0ET d   1      32.086  57.669  35.322  0.00  0.00     0.149 A 
ATOM     95  C2A 0ET d   1      34.604  57.345  36.289  0.00  0.00     0.091 A 
ATOM     96  N1A 0ET d   1      33.558  57.026  37.073  0.00  0.00    -0.222 NA
ATOM     97  H26 0ET d   1      35.610  57.208  36.670  0.00  0.00     0.146 H 
ATOM     98  C6A 0ET d   1      32.286  57.168  36.619  0.00  0.00     0.155 A 
ATOM     99  N7A 0ET d   1      30.986  57.946  34.585  0.00  0.00    -0.236 NA
ATOM    100  C8A 0ET d   1      31.396  58.424  33.388  0.00  0.00     0.071 A 
ATOM    101  H45 0ET d   1      30.746  58.737  32.572  0.00  0.00     0.144 H 
BRANCH  98 102
ATOM    102  N6A 0ET d   1      31.231  56.829  37.420  0.00  0.00    -0.382 N 
ATOM    103  H39 0ET d   1      30.267  56.937  37.075  0.00  0.00     0.157 HD
ATOM    104  H40 0ET d   1      31.401  56.465  38.369  0.00  0.00     0.157 HD
ENDBRANCH  98 102
ENDBRANCH  79  91
ENDBRANCH  72  75
ENDBRANCH  71  72
ENDBRANCH  68  71
ENDBRANCH  67  68
ENDBRANCH  64  67
ENDBRANCH  63  64
ENDBRANCH  60  63
ENDBRANCH  59  60
BRANCH  59 105
ATOM    105  C13 0ET d   1      27.055  61.128  34.604  0.00  0.00    -0.065 C 
ATOM    106  H17 0ET d   1      26.289  61.245  35.385  0.00  0.00     0.028 H 
ATOM    107  H18 0ET d   1      27.683  62.031  34.568  0.00  0.00     0.028 H 
ATOM    108  H19 0ET d   1      27.682  60.254  34.834  0.00  0.00     0.028 H 
ENDBRANCH  59 105
BRANCH  59 109
ATOM    109  C14 0ET d   1      25.459  62.086  32.900  0.00  0.00    -0.065 C 
ATOM    110  H20 0ET d   1      24.991  61.902  31.922  0.00  0.00     0.028 H 
ATOM    111  H21 0ET d   1      26.045  63.016  32.857  0.00  0.00     0.028 H 
ATOM    112  H22 0ET d   1      24.678  62.181  33.669  0.00  0.00     0.028 H 
ENDBRANCH  59 109
ENDBRANCH   1  59
TORSDOF 35
