REMARK  7 active torsions:
REMARK  status: ('A' for Active; 'I' for Inactive)
REMARK    1  A    between atoms: O8_1  and  C8_2 
REMARK    2  A    between atoms: N3_11  and  C1S_12 
REMARK    3  A    between atoms: C2S_13  and  O2S_14 
REMARK    4  A    between atoms: C4S_16  and  C5S_19 
REMARK    5  A    between atoms: C3S_17  and  O3S_18 
REMARK    6  A    between atoms: C5S_19  and  S5S_20 
REMARK    7  A    between atoms: S5S_20  and  C6S_21 
ROOT
ATOM      1  C1S MCF d   1     -38.582  -7.093  39.675  0.00  0.00     0.139 C 
ATOM      2  C2S MCF d   1     -40.082  -6.943  39.846  0.00  0.00     0.105 C 
ATOM      3  O4S MCF d   1     -38.370  -8.471  39.777  0.00  0.00    -0.355 OA
ATOM      4  C4S MCF d   1     -39.408  -9.055  40.556  0.00  0.00     0.076 C 
ATOM      5  C3S MCF d   1     -40.387  -7.959  40.931  0.00  0.00     0.090 C 
ATOM      6  H8  MCF d   1     -38.038  -6.539  40.454  0.00  0.00     0.122 H 
ATOM      7  H9  MCF d   1     -40.602  -7.233  38.921  0.00  0.00     0.093 H 
ATOM      8  H11 MCF d   1     -38.954  -9.371  41.507  0.00  0.00     0.088 H 
ATOM      9  H12 MCF d   1     -41.425  -8.321  40.910  0.00  0.00     0.091 H 
ENDROOT
BRANCH   1  10
ATOM     10  N3  MCF d   1     -38.144  -6.650  38.334  0.00  0.00    -0.294 N 
ATOM     11  C10 MCF d   1     -36.918  -6.640  37.845  0.00  0.00     0.161 A 
ATOM     12  N4  MCF d   1     -35.816  -7.047  38.565  0.00  0.00    -0.224 NA
ATOM     13  C9  MCF d   1     -36.929  -6.063  36.487  0.00  0.00     0.112 A 
ATOM     14  C5  MCF d   1     -34.574  -6.934  38.286  0.00  0.00     0.062 C 
ATOM     15  N6  MCF d   1     -34.039  -6.400  37.176  0.00  0.00    -0.382 N 
ATOM     16  H6  MCF d   1     -33.873  -7.312  39.029  0.00  0.00     0.143 H 
ATOM     17  C7  MCF d   1     -34.641  -5.315  36.442  0.00  0.00     0.022 C 
ATOM     18  H5  MCF d   1     -33.149  -6.787  36.830  0.00  0.00     0.160 HD
ATOM     19  C8  MCF d   1     -35.805  -5.839  35.584  0.00  0.00     0.096 C 
ATOM     20  H3  MCF d   1     -35.020  -4.563  37.150  0.00  0.00     0.068 H 
ATOM     21  H4  MCF d   1     -33.886  -4.855  35.788  0.00  0.00     0.068 H 
ATOM     22  H2  MCF d   1     -36.064  -5.060  34.852  0.00  0.00     0.095 H 
ATOM     23  N1  MCF d   1     -38.236  -5.782  36.268  0.00  0.00    -0.241 NA
ATOM     24  C2  MCF d   1     -38.956  -6.135  37.375  0.00  0.00     0.070 A 
ATOM     25  H7  MCF d   1     -40.034  -6.019  37.474  0.00  0.00     0.144 H 
BRANCH  19  26
ATOM     26  O8  MCF d   1     -35.578  -7.080  34.853  0.00  0.00    -0.388 OA
ATOM     27  H1  MCF d   1     -36.360  -7.304  34.362  0.00  0.00     0.210 HD
ENDBRANCH  19  26
ENDBRANCH   1  10
BRANCH   2  28
ATOM     28  O2S MCF d   1     -40.437  -5.596  40.134  0.00  0.00    -0.388 OA
ATOM     29  H10 MCF d   1     -41.380  -5.533  40.236  0.00  0.00     0.210 HD
ENDBRANCH   2  28
BRANCH   5  30
ATOM     30  O3S MCF d   1     -40.113  -7.313  42.169  0.00  0.00    -0.390 OA
ATOM     31  H13 MCF d   1     -40.769  -6.644  42.328  0.00  0.00     0.210 HD
ENDBRANCH   5  30
BRANCH   4  32
ATOM     32  C5S MCF d   1     -39.910 -10.344  39.928  0.00  0.00     0.003 C 
ATOM     33  H14 MCF d   1     -39.146 -10.753  39.250  0.00  0.00     0.052 H 
ATOM     34  H15 MCF d   1     -40.835 -10.151  39.365  0.00  0.00     0.052 H 
BRANCH  32  35
ATOM     35  S5S MCF d   1     -40.226 -11.477  41.224  0.00  0.00    -0.171 SA
BRANCH  35  36
ATOM     36  C6S MCF d   1     -38.915 -12.643  41.172  0.00  0.00    -0.035 C 
ATOM     37  H16 MCF d   1     -39.056 -13.389  41.968  0.00  0.00     0.041 H 
ATOM     38  H17 MCF d   1     -37.957 -12.124  41.321  0.00  0.00     0.041 H 
ATOM     39  H18 MCF d   1     -38.911 -13.147  40.194  0.00  0.00     0.041 H 
ENDBRANCH  35  36
ENDBRANCH  32  35
ENDBRANCH   4  32
TORSDOF 7
