REMARK  3 active torsions:
REMARK  status: ('A' for Active; 'I' for Inactive)
REMARK    1  A    between atoms: N1_1  and  CA_2 
REMARK    2  A    between atoms: CA_2  and  CB_3 
REMARK    3  A    between atoms: CB_3  and  CG_4 
ROOT
ATOM      1  CG  TSS d   1       6.101   4.242  48.608  0.00  0.00    -0.029 A 
ATOM      2  CD1 TSS d   1       5.852   4.653  49.910  0.00  0.00    -0.015 A 
ATOM      3  NE1 TSS d   1       5.112   3.715  50.537  0.00  0.00    -0.365 N 
ATOM      4  CE2 TSS d   1       4.849   2.680  49.663  0.00  0.00     0.042 A 
ATOM      5  CD2 TSS d   1       5.452   2.977  48.467  0.00  0.00    -0.002 A 
ATOM      6  CZ2 TSS d   1       4.112   1.474  49.817  0.00  0.00    -0.056 A 
ATOM      7  CH2 TSS d   1       4.011   0.580  48.755  0.00  0.00    -0.081 A 
ATOM      8  CZ3 TSS d   1       4.626   0.882  47.538  0.00  0.00    -0.082 A 
ATOM      9  CE3 TSS d   1       5.345   2.073  47.385  0.00  0.00    -0.070 A 
ATOM     10  H8  TSS d   1       6.199   5.585  50.355  0.00  0.00     0.112 H 
ATOM     11  H9  TSS d   1       4.793   3.764  51.515  0.00  0.00     0.165 HD
ATOM     12  H10 TSS d   1       3.629   1.251  50.761  0.00  0.00     0.086 H 
ATOM     13  H11 TSS d   1       3.458  -0.345  48.872  0.00  0.00     0.083 H 
ATOM     14  H12 TSS d   1       4.546   0.190  46.707  0.00  0.00     0.083 H 
ATOM     15  H13 TSS d   1       5.819   2.302  46.438  0.00  0.00     0.084 H 
ENDROOT
BRANCH   1  16
ATOM     16  CB  TSS d   1       6.897   4.979  47.578  0.00  0.00    -0.017 C 
ATOM     17  H6  TSS d   1       7.414   5.803  48.091  0.00  0.00     0.042 H 
ATOM     18  H7  TSS d   1       7.639   4.276  47.172  0.00  0.00     0.042 H 
BRANCH  16  19
ATOM     19  CA  TSS d   1       6.160   5.569  46.417  0.00  0.00     0.083 C 
ATOM     20  H4  TSS d   1       6.787   6.370  45.998  0.00  0.00     0.075 H 
ATOM     21  H5  TSS d   1       6.031   4.774  45.668  0.00  0.00     0.075 H 
BRANCH  19  22
ATOM     22  N1  TSS d   1       4.858   6.131  46.683  0.00  0.00    -0.079 N 
ATOM     23  H1  TSS d   1       4.467   6.494  45.827  0.00  0.00     0.274 HD
ATOM     24  H2  TSS d   1       4.945   6.877  47.355  0.00  0.00     0.274 HD
ATOM     25  H3  TSS d   1       4.252   5.415  47.052  0.00  0.00     0.274 HD
ENDBRANCH  19  22
ENDBRANCH  16  19
ENDBRANCH   1  16
TORSDOF 3
