REMARK  2 active torsions:
REMARK  status: ('A' for Active; 'I' for Inactive)
REMARK    1  A    between atoms: C7_5  and  C4_1 
REMARK       I    between atoms: N1_10  and  C7_5 
REMARK    2  A    between atoms: C8_6  and  N1_10 
ROOT
ATOM      1  C7  0X2 d   1      31.935 -13.170   3.513  0.00  0.00     0.259 C 
ATOM      2  N1  0X2 d   1      33.143 -13.171   2.928  0.00  0.00    -0.326 N 
ATOM      3  O1  0X2 d   1      31.323 -12.128   3.749  0.00  0.00    -0.267 OA
ATOM      4  H6  0X2 d   1      33.581 -14.065   2.838  0.00  0.00     0.169 HD
ENDROOT
BRANCH   1   5
ATOM      5  C4  0X2 d   1      31.372 -14.538   3.879  0.00  0.00     0.075 A 
ATOM      6  C5  0X2 d   1      31.027 -15.437   2.882  0.00  0.00     0.051 A 
ATOM      7  C6  0X2 d   1      30.515 -16.703   3.185  0.00  0.00    -0.061 A 
ATOM      8 CL1  0X2 d   1      31.231 -14.959   1.176  0.00  0.00    -0.083 Cl
ATOM      9  C1  0X2 d   1      30.339 -17.096   4.510  0.00  0.00    -0.080 A 
ATOM     10  H1  0X2 d   1      30.253 -17.383   2.383  0.00  0.00     0.086 H 
ATOM     11  C2  0X2 d   1      30.679 -16.207   5.528  0.00  0.00    -0.061 A 
ATOM     12  H8  0X2 d   1      29.944 -18.078   4.745  0.00  0.00     0.083 H 
ATOM     13  C3  0X2 d   1      31.191 -14.959   5.182  0.00  0.00     0.051 A 
ATOM     14  H7  0X2 d   1      30.547 -16.482   6.568  0.00  0.00     0.086 H 
ATOM     15 CL2  0X2 d   1      31.612 -13.831   6.455  0.00  0.00    -0.083 Cl
ENDBRANCH   1   5
BRANCH   2  16
ATOM     16  C8  0X2 d   1      33.877 -12.074   2.423  0.00  0.00     0.022 A 
ATOM     17  C9  0X2 d   1      35.035 -12.352   1.683  0.00  0.00    -0.044 A 
ATOM     18  C10 0X2 d   1      35.787 -11.314   1.118  0.00  0.00     0.008 A 
ATOM     19  H2  0X2 d   1      35.353 -13.385   1.546  0.00  0.00     0.088 H 
ATOM     20  N2  0X2 d   1      35.384 -10.048   1.259  0.00  0.00    -0.226 NA
ATOM     21  H3  0X2 d   1      36.698 -11.538   0.565  0.00  0.00     0.115 H 
ATOM     22  C11 0X2 d   1      34.266  -9.744   1.968  0.00  0.00     0.248 A 
ATOM     23  C12 0X2 d   1      33.484 -10.742   2.554  0.00  0.00     0.049 A 
ATOM     24  O2  0X2 d   1      33.932  -8.549   2.090  0.00  0.00    -0.271 OA
ATOM     25  H4  0X2 d   1      32.477 -10.659   2.119  0.00  0.00     0.056 H 
ATOM     26  H5  0X2 d   1      33.438 -10.524   3.631  0.00  0.00     0.056 H 
ENDBRANCH   2  16
TORSDOF 2
