REMARK  2 active torsions:
REMARK  status: ('A' for Active; 'I' for Inactive)
REMARK    1  A    between atoms: C7_5  and  C4_1 
REMARK       I    between atoms: N1_10  and  C7_5 
REMARK    2  A    between atoms: C8_6  and  N1_10 
ROOT
ATOM      1  C7  0X2 d   1      13.661 -12.930  23.477  0.00  0.00     0.259 C 
ATOM      2  N1  0X2 d   1      13.584 -13.990  24.299  0.00  0.00    -0.326 N 
ATOM      3  O1  0X2 d   1      14.014 -11.811  23.822  0.00  0.00    -0.267 OA
ATOM      4  H6  0X2 d   1      13.228 -14.838  23.908  0.00  0.00     0.169 HD
ENDROOT
BRANCH   1   5
ATOM      5  C4  0X2 d   1      13.276 -13.062  22.034  0.00  0.00     0.075 A 
ATOM      6  C5  0X2 d   1      12.137 -12.417  21.572  0.00  0.00     0.051 A 
ATOM      7  C6  0X2 d   1      11.797 -12.461  20.218  0.00  0.00    -0.061 A 
ATOM      8 CL1  0X2 d   1      11.095 -11.555  22.740  0.00  0.00    -0.083 Cl
ATOM      9  C1  0X2 d   1      12.628 -13.129  19.316  0.00  0.00    -0.080 A 
ATOM     10  H1  0X2 d   1      10.891 -11.978  19.869  0.00  0.00     0.086 H 
ATOM     11  C2  0X2 d   1      13.792 -13.751  19.769  0.00  0.00    -0.061 A 
ATOM     12  H8  0X2 d   1      12.369 -13.164  18.264  0.00  0.00     0.083 H 
ATOM     13  C3  0X2 d   1      14.119 -13.704  21.127  0.00  0.00     0.051 A 
ATOM     14  H7  0X2 d   1      14.440 -14.268  19.071  0.00  0.00     0.086 H 
ATOM     15 CL2  0X2 d   1      15.608 -14.522  21.693  0.00  0.00    -0.083 Cl
ENDBRANCH   1   5
BRANCH   2  16
ATOM     16  C8  0X2 d   1      13.957 -14.025  25.664  0.00  0.00     0.022 A 
ATOM     17  C9  0X2 d   1      14.087 -15.277  26.290  0.00  0.00    -0.044 A 
ATOM     18  C10 0X2 d   1      14.514 -15.348  27.632  0.00  0.00     0.008 A 
ATOM     19  H2  0X2 d   1      13.859 -16.189  25.740  0.00  0.00     0.088 H 
ATOM     20  N2  0X2 d   1      14.805 -14.223  28.319  0.00  0.00    -0.226 NA
ATOM     21  H3  0X2 d   1      14.610 -16.318  28.118  0.00  0.00     0.115 H 
ATOM     22  C11 0X2 d   1      14.706 -12.992  27.739  0.00  0.00     0.248 A 
ATOM     23  C12 0X2 d   1      14.278 -12.875  26.411  0.00  0.00     0.049 A 
ATOM     24  O2  0X2 d   1      15.011 -11.957  28.375  0.00  0.00    -0.271 OA
ATOM     25  H4  0X2 d   1      15.080 -12.357  25.865  0.00  0.00     0.056 H 
ATOM     26  H5  0X2 d   1      13.377 -12.245  26.424  0.00  0.00     0.056 H 
ENDBRANCH   2  16
TORSDOF 2
