REMARK  7 active torsions:
REMARK  status: ('A' for Active; 'I' for Inactive)
REMARK    1  A    between atoms: C6_3  and  NAX_26 
REMARK    2  A    between atoms: NBI_12  and  CBG_11 
REMARK    3  A    between atoms: CAZ_17  and  CBA_16 
REMARK    4  A    between atoms: C2_21  and  CBJ_22 
REMARK    5  A    between atoms: NAX_26  and  CAR_27 
REMARK    6  A    between atoms: CAR_27  and  CAY_28 
REMARK    7  A    between atoms: CBB_33  and  NBH_34 
ROOT
ATOM      1  C4  0J8 d   1      -1.134 -17.587  14.626  0.00  0.00     0.165 A 
ATOM      2  C5  0J8 d   1      -2.183 -16.667  14.458  0.00  0.00     0.058 A 
ATOM      3  C6  0J8 d   1      -2.183 -15.470  15.231  0.00  0.00     0.140 A 
ATOM      4  N1  0J8 d   1      -1.174 -15.247  16.105  0.00  0.00    -0.207 NA
ATOM      5  N3  0J8 d   1      -0.155 -17.307  15.532  0.00  0.00    -0.204 NA
ATOM      6  CAZ 0J8 d   1      -3.067 -18.213  12.807  0.00  0.00    -0.004 A 
ATOM      7  CAL 0J8 d   1      -3.180 -16.987  13.520  0.00  0.00    -0.053 A 
ATOM      8  CAI 0J8 d   1      -2.004 -19.081  13.034  0.00  0.00     0.015 A 
ATOM      9  NAS 0J8 d   1      -1.051 -18.759  13.937  0.00  0.00    -0.240 NA
ATOM     10  C2  0J8 d   1      -0.207 -16.166  16.240  0.00  0.00     0.238 A 
ATOM     11  H14 0J8 d   1      -4.014 -16.317  13.344  0.00  0.00     0.086 H 
ATOM     12  H15 0J8 d   1      -1.940 -20.015  12.487  0.00  0.00     0.116 H 
ENDROOT
BRANCH   6  13
ATOM     13  CBA 0J8 d   1      -4.134 -18.597  11.829  0.00  0.00     0.012 A 
ATOM     14  CAM 0J8 d   1      -4.513 -19.902  11.543  0.00  0.00     0.011 A 
ATOM     15  NBI 0J8 d   1      -5.518 -19.836  10.648  0.00  0.00    -0.276 N 
ATOM     16  H12 0J8 d   1      -4.079 -20.808  11.963  0.00  0.00     0.115 H 
ATOM     17  NAT 0J8 d   1      -5.807 -18.503  10.373  0.00  0.00    -0.184 NA
ATOM     18  CAJ 0J8 d   1      -4.958 -17.727  11.105  0.00  0.00     0.034 A 
ATOM     19  H13 0J8 d   1      -4.927 -16.639  11.123  0.00  0.00     0.118 H 
BRANCH  15  20
ATOM     20  CBG 0J8 d   1      -6.220 -21.008  10.059  0.00  0.00     0.037 C 
ATOM     21  CAP 0J8 d   1      -7.613 -21.132  10.635  0.00  0.00    -0.022 C 
ATOM     22  CAN 0J8 d   1      -8.385 -22.302   9.993  0.00  0.00     0.084 C 
ATOM     23  H1  0J8 d   1      -7.538 -21.305  11.719  0.00  0.00     0.038 H 
ATOM     24  H2  0J8 d   1      -8.162 -20.197  10.450  0.00  0.00     0.038 H 
ATOM     25  NAW 0J8 d   1      -8.344 -22.271   8.528  0.00  0.00    -0.075 N 
ATOM     26  H3  0J8 d   1      -9.435 -22.250  10.317  0.00  0.00     0.075 H 
ATOM     27  H4  0J8 d   1      -7.941 -23.248  10.337  0.00  0.00     0.075 H 
ATOM     28  CAO 0J8 d   1      -7.465 -21.299   7.857  0.00  0.00     0.084 C 
ATOM     29  H5  0J8 d   1      -9.283 -22.088   8.210  0.00  0.00     0.277 HD
ATOM     30  H6  0J8 d   1      -8.058 -23.188   8.221  0.00  0.00     0.277 HD
ATOM     31  CAQ 0J8 d   1      -6.163 -20.922   8.548  0.00  0.00    -0.022 C 
ATOM     32  H7  0J8 d   1      -8.044 -20.373   7.721  0.00  0.00     0.075 H 
ATOM     33  H8  0J8 d   1      -7.205 -21.717   6.873  0.00  0.00     0.075 H 
ATOM     34  H9  0J8 d   1      -5.910 -19.888   8.270  0.00  0.00     0.038 H 
ATOM     35  H10 0J8 d   1      -5.374 -21.601   8.193  0.00  0.00     0.038 H 
ATOM     36  H11 0J8 d   1      -5.671 -21.915  10.352  0.00  0.00     0.076 H 
ENDBRANCH  15  20
ENDBRANCH   6  13
BRANCH   3  37
ATOM     37  NAX 0J8 d   1      -3.208 -14.453  15.102  0.00  0.00    -0.370 N 
ATOM     38  H16 0J8 d   1      -4.068 -14.631  14.564  0.00  0.00     0.161 HD
BRANCH  37  39
ATOM     39  CAR 0J8 d   1      -2.985 -13.176  15.754  0.00  0.00     0.018 C 
ATOM     40  H17 0J8 d   1      -3.454 -12.360  15.184  0.00  0.00     0.071 H 
ATOM     41  H18 0J8 d   1      -1.909 -12.976  15.862  0.00  0.00     0.071 H 
BRANCH  39  42
ATOM     42  CAY 0J8 d   1      -3.642 -13.329  17.113  0.00  0.00    -0.038 A 
ATOM     43  CAK 0J8 d   1      -2.840 -13.422  18.253  0.00  0.00    -0.043 A 
ATOM     44  CBB 0J8 d   1      -3.449 -13.606  19.500  0.00  0.00     0.103 A 
ATOM     45  H19 0J8 d   1      -1.761 -13.353  18.173  0.00  0.00     0.088 H 
ATOM     46  CAH 0J8 d   1      -4.865 -13.703  19.611  0.00  0.00    -0.051 A 
ATOM     47  CAF 0J8 d   1      -5.660 -13.615  18.465  0.00  0.00    -0.080 A 
ATOM     48  H22 0J8 d   1      -5.325 -13.845  20.582  0.00  0.00     0.087 H 
ATOM     49  CAG 0J8 d   1      -5.057 -13.440  17.210  0.00  0.00    -0.075 A 
ATOM     50  H21 0J8 d   1      -6.739 -13.682  18.545  0.00  0.00     0.083 H 
ATOM     51  H20 0J8 d   1      -5.668 -13.389  16.316  0.00  0.00     0.084 H 
BRANCH  44  52
ATOM     52  NBH 0J8 d   1      -2.668 -13.702  20.695  0.00  0.00    -0.116 N 
ATOM     53  OAB 0J8 d   1      -3.225 -14.278  21.715  0.00  0.00    -0.532 OA
ATOM     54  OAA 0J8 d   1      -1.438 -13.226  20.761  0.00  0.00    -0.532 OA
ENDBRANCH  44  52
ENDBRANCH  39  42
ENDBRANCH  37  39
ENDBRANCH   3  37
BRANCH  10  55
ATOM     55  CBJ 0J8 d   1       0.913 -15.872  17.233  0.00  0.00     0.453 C 
ATOM     56  FAD 0J8 d   1       1.607 -16.968  17.501  0.00  0.00    -0.163 F 
ATOM     57  FAE 0J8 d   1       1.653 -14.932  16.679  0.00  0.00    -0.163 F 
ATOM     58  FAC 0J8 d   1       0.431 -15.434  18.382  0.00  0.00    -0.163 F 
ENDBRANCH  10  55
TORSDOF 7
