REMARK  5 active torsions:
REMARK  status: ('A' for Active; 'I' for Inactive)
REMARK    1  A    between atoms: C11_1  and  C10_4 
REMARK    2  A    between atoms: C10_4  and  C9_5 
REMARK    3  A    between atoms: C9_5  and  C8_6 
REMARK    4  A    between atoms: C8_6  and  C7_7 
REMARK    5  A    between atoms: C7_7  and  C2_8 
ROOT
ATOM      1  C2  BTN d   1      41.149  -8.278   0.950  0.00  0.00     0.012 C 
ATOM      2  S1  BTN d   1      41.514  -7.482   2.398  0.00  0.00    -0.160 SA
ATOM      3  C6  BTN d   1      43.197  -7.196   1.780  0.00  0.00    -0.002 C 
ATOM      4  C5  BTN d   1      43.039  -6.802   0.311  0.00  0.00     0.041 A 
ATOM      5  N1  BTN d   1      42.808  -5.379   0.174  0.00  0.00    -0.347 N 
ATOM      6  C3  BTN d   1      41.581  -5.153  -0.300  0.00  0.00     0.248 A 
ATOM      7  O3  BTN d   1      41.119  -3.893  -0.543  0.00  0.00    -0.152 OA
ATOM      8  N2  BTN d   1      40.893  -6.254  -0.497  0.00  0.00    -0.347 N 
ATOM      9  C4  BTN d   1      41.739  -7.401  -0.159  0.00  0.00     0.045 A 
ATOM     10  H9  BTN d   1      41.656  -9.254   0.944  0.00  0.00     0.059 H 
ATOM     11  H10 BTN d   1      43.799  -8.113   1.868  0.00  0.00     0.052 H 
ATOM     12  H11 BTN d   1      43.680  -6.385   2.345  0.00  0.00     0.052 H 
ATOM     13  H12 BTN d   1      43.902  -7.136  -0.284  0.00  0.00     0.076 H 
ATOM     14  H13 BTN d   1      43.473  -4.668   0.402  0.00  0.00     0.163 HD
ATOM     15  H14 BTN d   1      39.949  -6.301  -0.823  0.00  0.00     0.163 HD
ATOM     16  H15 BTN d   1      41.901  -8.020  -1.054  0.00  0.00     0.077 H 
ENDROOT
BRANCH   1  17
ATOM     17  C7  BTN d   1      39.644  -8.538   0.755  0.00  0.00    -0.051 C 
ATOM     18  H7  BTN d   1      39.073  -7.717   1.214  0.00  0.00     0.034 H 
ATOM     19  H8  BTN d   1      39.422  -8.582  -0.321  0.00  0.00     0.034 H 
BRANCH  17  20
ATOM     20  C8  BTN d   1      39.231  -9.874   1.414  0.00  0.00    -0.063 C 
ATOM     21  H5  BTN d   1      39.804 -10.692   0.954  0.00  0.00     0.033 H 
ATOM     22  H6  BTN d   1      39.457  -9.827   2.489  0.00  0.00     0.033 H 
BRANCH  20  23
ATOM     23  C9  BTN d   1      37.733 -10.150   1.231  0.00  0.00    -0.056 C 
ATOM     24  H3  BTN d   1      37.155  -9.335   1.692  0.00  0.00     0.033 H 
ATOM     25  H4  BTN d   1      37.502 -10.202   0.157  0.00  0.00     0.033 H 
BRANCH  23  26
ATOM     26  C10 BTN d   1      37.354 -11.481   1.897  0.00  0.00     0.016 C 
ATOM     27  H1  BTN d   1      37.650 -11.434   2.955  0.00  0.00     0.049 H 
ATOM     28  H2  BTN d   1      36.263 -11.604   1.827  0.00  0.00     0.049 H 
BRANCH  26  29
ATOM     29  C11 BTN d   1      38.011 -12.694   1.272  0.00  0.00     0.172 C 
ATOM     30  O11 BTN d   1      38.305 -12.747   0.030  0.00  0.00    -0.648 OA
ATOM     31  O12 BTN d   1      38.255 -13.692   2.009  0.00  0.00    -0.648 OA
ENDBRANCH  26  29
ENDBRANCH  23  26
ENDBRANCH  20  23
ENDBRANCH  17  20
ENDBRANCH   1  17
TORSDOF 5
