REMARK  3 active torsions:
REMARK  status: ('A' for Active; 'I' for Inactive)
REMARK    1  A    between atoms: CAO_8  and  NAN_9 
REMARK    2  A    between atoms: NAN_9  and  CAM_10 
REMARK    3  A    between atoms: CAL_11  and  NAT_12 
ROOT
ATOM      1  CAM 0X3 d   1      12.149 -41.741  10.347  0.00  0.00     0.068 A 
ATOM      2  CAL 0X3 d   1      10.852 -41.445  10.659  0.00  0.00     0.162 A 
ATOM      3  CAF 0X3 d   1      12.553 -41.656   8.952  0.00  0.00    -0.052 A 
ATOM      4  CAE 0X3 d   1      11.722 -41.283   7.955  0.00  0.00    -0.048 A 
ATOM      5  CAD 0X3 d   1      10.364 -40.987   8.258  0.00  0.00     0.120 A 
ATOM      6  CAK 0X3 d   1       9.931 -41.065   9.640  0.00  0.00     0.152 A 
ATOM      7  NAC 0X3 d   1       9.312 -40.601   7.523  0.00  0.00    -0.103 NA
ATOM      8  OAB 0X3 d   1       8.307 -40.451   8.382  0.00  0.00    -0.106 OA
ATOM      9  NAJ 0X3 d   1       8.626 -40.707   9.646  0.00  0.00    -0.100 NA
ATOM     10  H5  0X3 d   1      13.577 -41.906   8.699  0.00  0.00     0.087 H 
ATOM     11  H6  0X3 d   1      12.085 -41.210   6.936  0.00  0.00     0.087 H 
ENDROOT
BRANCH   1  12
ATOM     12  NAN 0X3 d   1      13.098 -42.144  11.240  0.00  0.00    -0.354 N 
ATOM     13  H4  0X3 d   1      12.779 -42.408  12.183  0.00  0.00     0.166 HD
BRANCH  12  14
ATOM     14  CAO 0X3 d   1      14.501 -42.230  10.973  0.00  0.00     0.037 A 
ATOM     15  CAG 0X3 d   1      15.204 -41.124  10.530  0.00  0.00    -0.036 A 
ATOM     16  CAH 0X3 d   1      16.534 -41.235  10.283  0.00  0.00     0.039 A 
ATOM     17  H1  0X3 d   1      14.697 -40.177  10.382  0.00  0.00     0.089 H 
ATOM     18 CL1  0X3 d   1      17.404 -39.824   9.741  0.00  0.00    -0.084 Cl
ATOM     19  CAI 0X3 d   1      17.264 -42.370  10.506  0.00  0.00    -0.025 A 
ATOM     20  CAQ 0X3 d   1      16.544 -43.448  10.987  0.00  0.00     0.120 A 
ATOM     21  H2  0X3 d   1      18.331 -42.421  10.319  0.00  0.00     0.090 H 
ATOM     22  FAR 0X3 d   1      17.193 -44.598  11.221  0.00  0.00    -0.206 F 
ATOM     23  CAP 0X3 d   1      15.176 -43.398  11.207  0.00  0.00    -0.020 A 
ATOM     24  H3  0X3 d   1      14.646 -44.275  11.561  0.00  0.00     0.091 H 
ENDBRANCH  12  14
ENDBRANCH   1  12
BRANCH   2  25
ATOM     25  NAT 0X3 d   1      10.368 -41.517  11.991  0.00  0.00    -0.111 N 
ATOM     26  OAS 0X3 d   1      11.177 -41.798  12.875  0.00  0.00    -0.532 OA
ATOM     27  OAU 0X3 d   1       9.205 -41.316  12.239  0.00  0.00    -0.532 OA
ENDBRANCH   2  25
TORSDOF 3
