REMARK  4 active torsions:
REMARK  status: ('A' for Active; 'I' for Inactive)
REMARK    1  A    between atoms: C8_5  and  C4_1 
REMARK    2  A    between atoms: N10_13  and  C11_4 
REMARK       I    between atoms: C8_5  and  N10_13 
REMARK    3  A    between atoms: C15_15  and  N17_17 
REMARK       I    between atoms: N17_17  and  C18_18 
REMARK    4  A    between atoms: C18_18  and  C20_20 
ROOT
ATOM      1  C11 0X5 d   1      -8.762  -9.186 -16.028  0.00  0.00     0.040 A 
ATOM      2  C12 0X5 d   1      -9.576  -9.514 -14.923  0.00  0.00    -0.040 A 
ATOM      3  C13 0X5 d   1     -10.448 -10.596 -15.033  0.00  0.00     0.007 A 
ATOM      4  N14 0X5 d   1     -10.484 -11.323 -16.149  0.00  0.00    -0.243 NA
ATOM      5  C15 0X5 d   1      -9.728 -11.061 -17.216  0.00  0.00     0.131 A 
ATOM      6  C16 0X5 d   1      -8.864  -9.963 -17.181  0.00  0.00    -0.013 A 
ATOM      7  H2  0X5 d   1      -9.524  -8.936 -14.007  0.00  0.00     0.089 H 
ATOM      8  H3  0X5 d   1     -11.101 -10.848 -14.205  0.00  0.00     0.114 H 
ATOM      9  H7  0X5 d   1      -8.271  -9.715 -18.054  0.00  0.00     0.092 H 
ENDROOT
BRANCH   1  10
ATOM     10  N10 0X5 d   1      -7.915  -8.078 -16.116  0.00  0.00    -0.323 N 
ATOM     11  C8  0X5 d   1      -7.648  -7.169 -15.163  0.00  0.00     0.259 C 
ATOM     12  O9  0X5 d   1      -8.140  -7.216 -14.031  0.00  0.00    -0.267 OA
ATOM     13  H6  0X5 d   1      -7.452  -7.946 -16.993  0.00  0.00     0.169 HD
BRANCH  11  14
ATOM     14  C4  0X5 d   1      -6.768  -6.029 -15.496  0.00  0.00     0.075 A 
ATOM     15  C5  0X5 d   1      -7.363  -4.756 -15.587  0.00  0.00     0.051 A 
ATOM     16  C6  0X5 d   1      -6.592  -3.626 -15.825  0.00  0.00    -0.061 A 
ATOM     17 CL1  0X5 d   1      -9.078  -4.602 -15.447  0.00  0.00    -0.083 Cl
ATOM     18  C1  0X5 d   1      -5.225  -3.757 -16.003  0.00  0.00    -0.080 A 
ATOM     19  H1  0X5 d   1      -7.057  -2.648 -15.871  0.00  0.00     0.086 H 
ATOM     20  C2  0X5 d   1      -4.622  -5.012 -15.935  0.00  0.00    -0.061 A 
ATOM     21  H4  0X5 d   1      -4.620  -2.878 -16.196  0.00  0.00     0.083 H 
ATOM     22  C3  0X5 d   1      -5.379  -6.153 -15.688  0.00  0.00     0.051 A 
ATOM     23  H5  0X5 d   1      -3.551  -5.100 -16.076  0.00  0.00     0.086 H 
ATOM     24 CL2  0X5 d   1      -4.581  -7.696 -15.677  0.00  0.00    -0.083 Cl
ENDBRANCH  11  14
ENDBRANCH   1  10
BRANCH   5  25
ATOM     25  N17 0X5 d   1      -9.832 -11.877 -18.364  0.00  0.00    -0.311 N 
ATOM     26  C18 0X5 d   1      -8.875 -11.980 -19.336  0.00  0.00     0.227 C 
ATOM     27  O19 0X5 d   1      -7.842 -11.339 -19.271  0.00  0.00    -0.273 OA
ATOM     28  H8  0X5 d   1     -10.665 -12.419 -18.474  0.00  0.00     0.170 HD
BRANCH  26  29
ATOM     29  C20 0X5 d   1      -9.094 -12.903 -20.528  0.00  0.00     0.024 A 
ATOM     30  C21 0X5 d   1      -8.448 -12.543 -21.873  0.00  0.00    -0.053 A 
ATOM     31  C22 0X5 d   1      -7.900 -13.709 -21.055  0.00  0.00    -0.053 A 
ATOM     32  H10 0X5 d   1      -7.862 -11.617 -21.971  0.00  0.00     0.034 H 
ATOM     33  H11 0X5 d   1      -8.988 -12.736 -22.811  0.00  0.00     0.034 H 
ATOM     34  H12 0X5 d   1      -8.046 -14.742 -21.405  0.00  0.00     0.034 H 
ATOM     35  H13 0X5 d   1      -6.919 -13.623 -20.564  0.00  0.00     0.034 H 
ATOM     36  H9  0X5 d   1     -10.100 -13.346 -20.489  0.00  0.00     0.054 H 
ENDBRANCH  26  29
ENDBRANCH   5  25
TORSDOF 4
