REMARK  4 active torsions:
REMARK  status: ('A' for Active; 'I' for Inactive)
REMARK    1  A    between atoms: C4_1  and  N20_20 
REMARK    2  A    between atoms: N7_13  and  C6_4 
REMARK    3  A    between atoms: C10_7  and  C8_6 
REMARK       I    between atoms: C8_6  and  N7_13 
REMARK       I    between atoms: N20_20  and  C21_21 
REMARK    4  A    between atoms: C21_21  and  C23_23 
ROOT
ATOM      1  C14 0X6 d   1      -4.616  -4.875 -16.164  0.00  0.00    -0.041 A 
ATOM      2  C11 0X6 d   1      -7.310  -4.503 -15.489  0.00  0.00     0.052 A 
ATOM      3  C10 0X6 d   1      -6.750  -5.794 -15.484  0.00  0.00     0.075 A 
ATOM      4  C12 0X6 d   1      -6.525  -3.412 -15.814  0.00  0.00    -0.041 A 
ATOM      5  C13 0X6 d   1      -5.177  -3.590 -16.152  0.00  0.00     0.048 A 
ATOM      6  C15 0X6 d   1      -5.398  -5.970 -15.837  0.00  0.00     0.052 A 
ATOM      7 CL1  0X6 d   1      -4.691  -7.550 -15.882  0.00  0.00    -0.083 Cl
ATOM      8  C17 0X6 d   1      -4.367  -2.462 -16.488  0.00  0.00     0.099 C 
ATOM      9  N18 0X6 d   1      -3.716  -1.572 -16.752  0.00  0.00    -0.191 NA
ATOM     10 CL2  0X6 d   1      -8.985  -4.269 -15.094  0.00  0.00    -0.083 Cl
ATOM     11  H1  0X6 d   1      -3.574  -5.011 -16.428  0.00  0.00     0.088 H 
ATOM     12  H3  0X6 d   1      -6.954  -2.416 -15.807  0.00  0.00     0.088 H 
ENDROOT
BRANCH   3  13
ATOM     13  C8  0X6 d   1      -7.598  -6.954 -15.129  0.00  0.00     0.259 C 
ATOM     14  N7  0X6 d   1      -7.933  -7.812 -16.123  0.00  0.00    -0.323 N 
ATOM     15  H6  0X6 d   1      -7.556  -7.593 -17.023  0.00  0.00     0.169 HD
ATOM     16  O9  0X6 d   1      -7.963  -7.085 -13.971  0.00  0.00    -0.267 OA
BRANCH  14  17
ATOM     17  C6  0X6 d   1      -8.734  -8.964 -16.070  0.00  0.00     0.040 A 
ATOM     18  C5  0X6 d   1      -8.846  -9.703 -17.250  0.00  0.00    -0.013 A 
ATOM     19  C4  0X6 d   1      -9.639 -10.852 -17.286  0.00  0.00     0.131 A 
ATOM     20  H2  0X6 d   1      -8.316  -9.384 -18.140  0.00  0.00     0.092 H 
ATOM     21  N3  0X6 d   1     -10.328 -11.208 -16.199  0.00  0.00    -0.243 NA
ATOM     22  C2  0X6 d   1     -10.274 -10.523 -15.060  0.00  0.00     0.007 A 
ATOM     23  C1  0X6 d   1      -9.487  -9.384 -14.955  0.00  0.00    -0.040 A 
ATOM     24  H5  0X6 d   1     -10.850 -10.857 -14.205  0.00  0.00     0.114 H 
ATOM     25  H4  0X6 d   1      -9.452  -8.825 -14.027  0.00  0.00     0.089 H 
BRANCH  19  26
ATOM     26  N20 0X6 d   1      -9.753 -11.635 -18.447  0.00  0.00    -0.311 N 
ATOM     27  C21 0X6 d   1      -8.777 -11.863 -19.371  0.00  0.00     0.227 C 
ATOM     28  O22 0X6 d   1      -7.665 -11.359 -19.285  0.00  0.00    -0.273 OA
ATOM     29  H7  0X6 d   1     -10.639 -12.069 -18.612  0.00  0.00     0.170 HD
BRANCH  27  30
ATOM     30  C23 0X6 d   1      -9.123 -12.758 -20.543  0.00  0.00     0.024 A 
ATOM     31  C24 0X6 d   1      -8.429 -12.548 -21.892  0.00  0.00    -0.053 A 
ATOM     32  C25 0X6 d   1      -8.081 -13.766 -21.031  0.00  0.00    -0.053 A 
ATOM     33  H9  0X6 d   1      -7.699 -11.734 -22.015  0.00  0.00     0.034 H 
ATOM     34  H10 0X6 d   1      -8.993 -12.678 -22.827  0.00  0.00     0.034 H 
ATOM     35  H11 0X6 d   1      -8.395 -14.771 -21.348  0.00  0.00     0.034 H 
ATOM     36  H12 0X6 d   1      -7.101 -13.827 -20.535  0.00  0.00     0.034 H 
ATOM     37  H8  0X6 d   1     -10.188 -13.030 -20.505  0.00  0.00     0.054 H 
ENDBRANCH  27  30
ENDBRANCH  19  26
ENDBRANCH  14  17
ENDBRANCH   3  13
TORSDOF 4
