REMARK  4 active torsions:
REMARK  status: ('A' for Active; 'I' for Inactive)
REMARK    1  A    between atoms: C4_4  and  C8_8 
REMARK       I    between atoms: C8_8  and  N10_10 
REMARK    2  A    between atoms: N10_10  and  C11_11 
REMARK    3  A    between atoms: C15_15  and  N17_17 
REMARK       I    between atoms: N17_17  and  C18_18 
REMARK    4  A    between atoms: C18_18  and  C20_20 
ROOT
ATOM      1  C11 0XH d   1      -8.746  -9.311 -16.216  0.00  0.00     0.040 A 
ATOM      2  C12 0XH d   1      -9.551  -9.697 -15.127  0.00  0.00    -0.040 A 
ATOM      3  C13 0XH d   1     -10.382 -10.804 -15.261  0.00  0.00     0.007 A 
ATOM      4  N14 0XH d   1     -10.417 -11.500 -16.394  0.00  0.00    -0.243 NA
ATOM      5  C15 0XH d   1      -9.668 -11.178 -17.447  0.00  0.00     0.131 A 
ATOM      6  C16 0XH d   1      -8.855 -10.045 -17.393  0.00  0.00    -0.013 A 
ATOM      7  H5  0XH d   1      -9.523  -9.139 -14.198  0.00  0.00     0.089 H 
ATOM      8  H6  0XH d   1     -11.010 -11.104 -14.430  0.00  0.00     0.114 H 
ATOM      9  H7  0XH d   1      -8.305  -9.735 -18.274  0.00  0.00     0.092 H 
ENDROOT
BRANCH   1  10
ATOM     10  N10 0XH d   1      -7.938  -8.172 -16.275  0.00  0.00    -0.323 N 
ATOM     11  C8  0XH d   1      -7.553  -7.353 -15.277  0.00  0.00     0.259 C 
ATOM     12  O9  0XH d   1      -7.871  -7.529 -14.113  0.00  0.00    -0.267 OA
ATOM     13  H4  0XH d   1      -7.598  -7.932 -17.184  0.00  0.00     0.169 HD
BRANCH  11  14
ATOM     14  C4  0XH d   1      -6.747  -6.160 -15.623  0.00  0.00     0.075 A 
ATOM     15  C3  0XH d   1      -5.367  -6.239 -15.886  0.00  0.00     0.051 A 
ATOM     16  C2  0XH d   1      -4.647  -5.088 -16.185  0.00  0.00    -0.061 A 
ATOM     17 CL2  0XH d   1      -4.554  -7.765 -15.868  0.00  0.00    -0.083 Cl
ATOM     18  C1  0XH d   1      -5.286  -3.854 -16.235  0.00  0.00    -0.080 A 
ATOM     19  H2  0XH d   1      -3.583  -5.153 -16.380  0.00  0.00     0.086 H 
ATOM     20  C6  0XH d   1      -6.650  -3.770 -15.988  0.00  0.00    -0.061 A 
ATOM     21  H1  0XH d   1      -4.720  -2.959 -16.466  0.00  0.00     0.083 H 
ATOM     22  C5  0XH d   1      -7.387  -4.908 -15.688  0.00  0.00     0.051 A 
ATOM     23  H3  0XH d   1      -7.144  -2.806 -16.030  0.00  0.00     0.086 H 
ATOM     24 CL1  0XH d   1      -9.096  -4.782 -15.394  0.00  0.00    -0.083 Cl
ENDBRANCH  11  14
ENDBRANCH   1  10
BRANCH   5  25
ATOM     25  N17 0XH d   1      -9.797 -11.914 -18.630  0.00  0.00    -0.311 N 
ATOM     26  C18 0XH d   1      -8.864 -12.062 -19.607  0.00  0.00     0.230 C 
ATOM     27  O19 0XH d   1      -7.756 -11.556 -19.550  0.00  0.00    -0.273 OA
ATOM     28  H8  0XH d   1     -10.670 -12.381 -18.772  0.00  0.00     0.170 HD
BRANCH  26  29
ATOM     29  C20 0XH d   1      -9.272 -12.879 -20.807  0.00  0.00     0.056 A 
ATOM     30  C22 0XH d   1      -8.471 -12.759 -22.108  0.00  0.00    -0.022 A 
ATOM     31  C23 0XH d   1      -8.373 -14.026 -21.258  0.00  0.00     0.091 A 
ATOM     32  H10 0XH d   1      -7.617 -12.068 -22.167  0.00  0.00     0.038 H 
ATOM     33  H11 0XH d   1      -8.989 -12.786 -23.078  0.00  0.00     0.038 H 
ATOM     34  F1  0XH d   1      -7.198 -14.232 -20.536  0.00  0.00    -0.248 F 
ATOM     35  H12 0XH d   1      -8.794 -14.980 -21.608  0.00  0.00     0.092 H 
ATOM     36  H9  0XH d   1     -10.367 -12.983 -20.836  0.00  0.00     0.059 H 
ENDBRANCH  26  29
ENDBRANCH   5  25
TORSDOF 4
