REMARK  4 active torsions:
REMARK  status: ('A' for Active; 'I' for Inactive)
REMARK    1  A    between atoms: C4_4  and  N20_20 
REMARK    2  A    between atoms: C6_6  and  N7_7 
REMARK       I    between atoms: N7_7  and  C8_8 
REMARK    3  A    between atoms: C8_8  and  C10_10 
REMARK       I    between atoms: N20_20  and  C21_21 
REMARK    4  A    between atoms: C21_21  and  C23_23 
ROOT
ATOM      1  C10 0XP d   1      -6.673  -6.045 -15.691  0.00  0.00     0.075 A 
ATOM      2  C11 0XP d   1      -7.225  -4.748 -15.786  0.00  0.00     0.052 A 
ATOM      3  C12 0XP d   1      -6.413  -3.681 -16.136  0.00  0.00    -0.041 A 
ATOM      4  C13 0XP d   1      -5.060  -3.890 -16.435  0.00  0.00     0.048 A 
ATOM      5  C14 0XP d   1      -4.514  -5.179 -16.365  0.00  0.00    -0.041 A 
ATOM      6  C15 0XP d   1      -5.313  -6.252 -16.009  0.00  0.00     0.052 A 
ATOM      7 CL1  0XP d   1      -4.606  -7.838 -15.956  0.00  0.00    -0.083 Cl
ATOM      8  C17 0XP d   1      -4.231  -2.784 -16.804  0.00  0.00     0.099 C 
ATOM      9  N18 0XP d   1      -3.570  -1.908 -17.095  0.00  0.00    -0.191 NA
ATOM     10 CL2  0XP d   1      -8.906  -4.444 -15.450  0.00  0.00    -0.083 Cl
ATOM     11  H5  0XP d   1      -6.826  -2.680 -16.179  0.00  0.00     0.088 H 
ATOM     12  H6  0XP d   1      -3.465  -5.336 -16.590  0.00  0.00     0.088 H 
ENDROOT
BRANCH   1  13
ATOM     13  C8  0XP d   1      -7.543  -7.189 -15.340  0.00  0.00     0.259 C 
ATOM     14  N7  0XP d   1      -7.779  -8.099 -16.317  0.00  0.00    -0.323 N 
ATOM     15  H4  0XP d   1      -7.299  -7.925 -17.177  0.00  0.00     0.169 HD
ATOM     16  O9  0XP d   1      -8.003  -7.271 -14.215  0.00  0.00    -0.267 OA
BRANCH  14  17
ATOM     17  C6  0XP d   1      -8.588  -9.247 -16.317  0.00  0.00     0.040 A 
ATOM     18  C1  0XP d   1      -9.350  -9.714 -15.227  0.00  0.00    -0.040 A 
ATOM     19  C2  0XP d   1     -10.159 -10.830 -15.397  0.00  0.00     0.007 A 
ATOM     20  H1  0XP d   1      -9.305  -9.209 -14.269  0.00  0.00     0.089 H 
ATOM     21  N3  0XP d   1     -10.219 -11.461 -16.565  0.00  0.00    -0.243 NA
ATOM     22  H2  0XP d   1     -10.751 -11.192 -14.564  0.00  0.00     0.114 H 
ATOM     23  C4  0XP d   1      -9.506 -11.069 -17.623  0.00  0.00     0.131 A 
ATOM     24  C5  0XP d   1      -8.707  -9.928 -17.534  0.00  0.00    -0.013 A 
ATOM     25  H3  0XP d   1      -8.178  -9.569 -18.409  0.00  0.00     0.092 H 
BRANCH  23  26
ATOM     26  N20 0XP d   1      -9.666 -11.761 -18.831  0.00  0.00    -0.311 N 
ATOM     27  C21 0XP d   1      -8.723 -12.017 -19.773  0.00  0.00     0.230 C 
ATOM     28  O22 0XP d   1      -7.563 -11.659 -19.664  0.00  0.00    -0.273 OA
ATOM     29  H7  0XP d   1     -10.585 -12.107 -19.022  0.00  0.00     0.170 HD
BRANCH  27  30
ATOM     30  C23 0XP d   1      -9.176 -12.779 -20.995  0.00  0.00     0.056 A 
ATOM     31  C25 0XP d   1      -8.326 -12.731 -22.267  0.00  0.00    -0.022 A 
ATOM     32  C26 0XP d   1      -8.367 -14.002 -21.413  0.00  0.00     0.091 A 
ATOM     33  H9  0XP d   1      -7.414 -12.117 -22.297  0.00  0.00     0.038 H 
ATOM     34  H10 0XP d   1      -8.812 -12.715 -23.254  0.00  0.00     0.038 H 
ATOM     35  F1  0XP d   1      -7.253 -14.311 -20.629  0.00  0.00    -0.248 F 
ATOM     36  H11 0XP d   1      -8.855 -14.916 -21.782  0.00  0.00     0.092 H 
ATOM     37  H8  0XP d   1     -10.274 -12.780 -21.059  0.00  0.00     0.059 H 
ENDBRANCH  27  30
ENDBRANCH  23  26
ENDBRANCH  14  17
ENDBRANCH   1  13
TORSDOF 4
