REMARK  6 active torsions:
REMARK  status: ('A' for Active; 'I' for Inactive)
REMARK    1  A    between atoms: C6_6  and  NAD_10 
REMARK    2  A    between atoms: CAX_23  and  CAA_7 
REMARK    3  A    between atoms: CAX_23  and  CAB_8 
REMARK    4  A    between atoms: CAX_23  and  CAC_9 
REMARK    5  A    between atoms: CAR_19  and  CAQ_18 
REMARK    6  A    between atoms: NAW_22  and  CAX_23 
ROOT
ATOM      1  N1  0J9 d   1      83.823  49.725 -38.261  0.00  0.00    -0.224 NA
ATOM      2  C2  0J9 d   1      82.667  50.412 -37.946  0.00  0.00     0.091 A 
ATOM      3  N3  0J9 d   1      81.867  49.865 -36.952  0.00  0.00    -0.222 NA
ATOM      4  C4  0J9 d   1      82.229  48.720 -36.347  0.00  0.00     0.164 A 
ATOM      5  C5  0J9 d   1      83.363  48.055 -36.653  0.00  0.00     0.088 A 
ATOM      6  C6  0J9 d   1      84.141  48.588 -37.634  0.00  0.00     0.139 A 
ATOM      7  NAO 0J9 d   1      82.235  47.025 -35.156  0.00  0.00    -0.168 NA
ATOM      8  CAR 0J9 d   1      83.407  47.012 -35.783  0.00  0.00     0.106 C 
ATOM      9  NAW 0J9 d   1      81.602  48.061 -35.378  0.00  0.00    -0.242 N 
ATOM     10  H1  0J9 d   1      82.398  51.333 -38.450  0.00  0.00     0.146 H 
ENDROOT
BRANCH   8  11
ATOM     11  CAQ 0J9 d   1      84.262  45.945 -35.712  0.00  0.00     0.006 C 
ATOM     12  CAI 0J9 d   1      85.616  46.139 -35.944  0.00  0.00    -0.070 C 
ATOM     13  CAG 0J9 d   1      86.574  45.135 -35.884  0.00  0.00    -0.081 C 
ATOM     14  H15 0J9 d   1      85.949  47.141 -36.188  0.00  0.00     0.084 H 
ATOM     15  CAK 0J9 d   1      86.161  43.824 -35.758  0.00  0.00    -0.072 C 
ATOM     16  H19 0J9 d   1      87.629  45.377 -35.935  0.00  0.00     0.083 H 
ATOM     17  CAS 0J9 d   1      84.807  43.558 -35.625  0.00  0.00    -0.025 A 
ATOM     18  H17 0J9 d   1      86.883  43.016 -35.763  0.00  0.00     0.084 H 
ATOM     19  CAJ 0J9 d   1      84.426  42.230 -35.490  0.00  0.00    -0.072 A 
ATOM     20  CAT 0J9 d   1      83.852  44.590 -35.628  0.00  0.00    -0.013 A 
ATOM     21  CAE 0J9 d   1      83.086  41.892 -35.359  0.00  0.00    -0.082 A 
ATOM     22  H16 0J9 d   1      85.180  41.451 -35.487  0.00  0.00     0.084 H 
ATOM     23  CAF 0J9 d   1      82.125  42.897 -35.355  0.00  0.00    -0.082 A 
ATOM     24  H13 0J9 d   1      82.791  40.853 -35.261  0.00  0.00     0.083 H 
ATOM     25  CAL 0J9 d   1      82.511  44.227 -35.493  0.00  0.00    -0.071 A 
ATOM     26  H14 0J9 d   1      81.076  42.645 -35.245  0.00  0.00     0.083 H 
ATOM     27  H18 0J9 d   1      81.751  45.000 -35.496  0.00  0.00     0.084 H 
ENDBRANCH   8  11
BRANCH   6  28
ATOM     28  NAD 0J9 d   1      85.264  47.998 -38.010  0.00  0.00    -0.383 N 
ATOM     29  H11 0J9 d   1      85.559  47.119 -37.561  0.00  0.00     0.157 HD
ATOM     30  H12 0J9 d   1      85.843  48.418 -38.751  0.00  0.00     0.157 HD
ENDBRANCH   6  28
BRANCH   9  31
ATOM     31  CAX 0J9 d   1      80.304  48.429 -34.753  0.00  0.00     0.047 C 
BRANCH  31  32
ATOM     32  CAA 0J9 d   1      79.205  48.529 -35.827  0.00  0.00    -0.052 C 
ATOM     33  H2  0J9 d   1      78.251  48.801 -35.351  0.00  0.00     0.030 H 
ATOM     34  H3  0J9 d   1      79.098  47.559 -36.334  0.00  0.00     0.030 H 
ATOM     35  H4  0J9 d   1      79.481  49.298 -36.563  0.00  0.00     0.030 H 
ENDBRANCH  31  32
BRANCH  31  36
ATOM     36  CAB 0J9 d   1      79.892  47.327 -33.758  0.00  0.00    -0.052 C 
ATOM     37  H5  0J9 d   1      80.661  47.232 -32.977  0.00  0.00     0.030 H 
ATOM     38  H6  0J9 d   1      79.792  46.370 -34.291  0.00  0.00     0.030 H 
ATOM     39  H7  0J9 d   1      78.930  47.592 -33.295  0.00  0.00     0.030 H 
ENDBRANCH  31  36
BRANCH  31  40
ATOM     40  CAC 0J9 d   1      80.442  49.763 -34.011  0.00  0.00    -0.052 C 
ATOM     41  H8  0J9 d   1      80.736  50.549 -34.722  0.00  0.00     0.030 H 
ATOM     42  H9  0J9 d   1      81.210  49.670 -33.229  0.00  0.00     0.030 H 
ATOM     43  H10 0J9 d   1      79.479  50.027 -33.550  0.00  0.00     0.030 H 
ENDBRANCH  31  40
ENDBRANCH   9  31
TORSDOF 6
