REMARK  7 active torsions:
REMARK  status: ('A' for Active; 'I' for Inactive)
REMARK    1  A    between atoms: C6_6  and  NAD_22 
REMARK    2  A    between atoms: CAY_19  and  CAA_7 
REMARK    3  A    between atoms: CAY_19  and  CAB_8 
REMARK    4  A    between atoms: CAM_23  and  CAR_15 
REMARK    5  A    between atoms: CAS_16  and  CAM_23 
REMARK    6  A    between atoms: NAX_18  and  CAY_19 
REMARK    7  A    between atoms: CAY_19  and  CAC_20 
ROOT
ATOM      1  N1  0JN d   1      35.828  13.013  18.872  0.00  0.00    -0.224 NA
ATOM      2  C2  0JN d   1      36.964  12.285  18.526  0.00  0.00     0.091 A 
ATOM      3  N3  0JN d   1      37.986  12.960  17.857  0.00  0.00    -0.222 NA
ATOM      4  C4  0JN d   1      37.856  14.266  17.562  0.00  0.00     0.164 A 
ATOM      5  C5  0JN d   1      36.751  14.939  17.908  0.00  0.00     0.084 A 
ATOM      6  C6  0JN d   1      35.756  14.312  18.554  0.00  0.00     0.138 A 
ATOM      7  CAS 0JN d   1      36.973  16.179  17.460  0.00  0.00     0.077 A 
ATOM      8  NAX 0JN d   1      38.681  15.120  16.936  0.00  0.00    -0.242 N 
ATOM      9  NAP 0JN d   1      38.172  16.208  16.882  0.00  0.00    -0.173 NA
ATOM     10  H1  0JN d   1      37.051  11.232  18.768  0.00  0.00     0.146 H 
ENDROOT
BRANCH   7  11
ATOM     11  CAM 0JN d   1      36.078  17.441  17.562  0.00  0.00     0.003 C 
ATOM     12  H19 0JN d   1      35.639  17.473  18.570  0.00  0.00     0.049 H 
ATOM     13  H20 0JN d   1      36.711  18.328  17.409  0.00  0.00     0.049 H 
BRANCH  11  14
ATOM     14  CAR 0JN d   1      35.038  17.476  16.627  0.00  0.00    -0.041 A 
ATOM     15  CAH 0JN d   1      33.733  17.317  17.078  0.00  0.00    -0.076 A 
ATOM     16  CAG 0JN d   1      32.659  17.348  16.196  0.00  0.00    -0.082 A 
ATOM     17  H11 0JN d   1      33.550  17.166  18.136  0.00  0.00     0.084 H 
ATOM     18  CAJ 0JN d   1      32.890  17.552  14.844  0.00  0.00    -0.072 A 
ATOM     19  H10 0JN d   1      31.648  17.214  16.563  0.00  0.00     0.083 H 
ATOM     20  CAT 0JN d   1      34.190  17.723  14.382  0.00  0.00    -0.025 A 
ATOM     21  H13 0JN d   1      32.059  17.578  14.149  0.00  0.00     0.084 H 
ATOM     22  CAI 0JN d   1      34.408  17.926  13.026  0.00  0.00    -0.072 A 
ATOM     23  CAU 0JN d   1      35.266  17.691  15.265  0.00  0.00    -0.019 A 
ATOM     24  CAE 0JN d   1      35.698  18.099  12.545  0.00  0.00    -0.082 A 
ATOM     25  H12 0JN d   1      33.568  17.949  12.341  0.00  0.00     0.084 H 
ATOM     26  CAF 0JN d   1      36.777  18.067  13.418  0.00  0.00    -0.082 A 
ATOM     27  H8  0JN d   1      35.864  18.259  11.486  0.00  0.00     0.083 H 
ATOM     28  CAK 0JN d   1      36.556  17.865  14.773  0.00  0.00    -0.072 A 
ATOM     29  H9  0JN d   1      37.786  18.199  13.044  0.00  0.00     0.083 H 
ATOM     30  H21 0JN d   1      37.398  17.843  15.456  0.00  0.00     0.084 H 
ENDBRANCH  11  14
ENDBRANCH   7  11
BRANCH   6  31
ATOM     31  NAD 0JN d   1      34.680  15.018  18.881  0.00  0.00    -0.383 N 
ATOM     32  H17 0JN d   1      34.626  16.017  18.636  0.00  0.00     0.157 HD
ATOM     33  H18 0JN d   1      33.900  14.567  19.380  0.00  0.00     0.157 HD
ENDBRANCH   6  31
BRANCH   8  34
ATOM     34  CAY 0JN d   1      40.039  14.877  16.353  0.00  0.00     0.047 C 
BRANCH  34  35
ATOM     35  CAA 0JN d   1      40.028  13.627  15.472  0.00  0.00    -0.052 C 
ATOM     36  H2  0JN d   1      41.032  13.465  15.053  0.00  0.00     0.030 H 
ATOM     37  H3  0JN d   1      39.307  13.762  14.653  0.00  0.00     0.030 H 
ATOM     38  H4  0JN d   1      39.737  12.755  16.076  0.00  0.00     0.030 H 
ENDBRANCH  34  35
BRANCH  34  39
ATOM     39  CAB 0JN d   1      40.441  16.087  15.509  0.00  0.00    -0.052 C 
ATOM     40  H5  0JN d   1      40.450  16.988  16.140  0.00  0.00     0.030 H 
ATOM     41  H6  0JN d   1      39.718  16.220  14.691  0.00  0.00     0.030 H 
ATOM     42  H7  0JN d   1      41.444  15.924  15.089  0.00  0.00     0.030 H 
ENDBRANCH  34  39
BRANCH  34  43
ATOM     43  CAC 0JN d   1      41.063  14.699  17.477  0.00  0.00    -0.052 C 
ATOM     44  H14 0JN d   1      40.785  13.831  18.092  0.00  0.00     0.030 H 
ATOM     45  H15 0JN d   1      41.080  15.602  18.104  0.00  0.00     0.030 H 
ATOM     46  H16 0JN d   1      42.060  14.536  17.042  0.00  0.00     0.030 H 
ENDBRANCH  34  43
ENDBRANCH   8  34
TORSDOF 7
