REMARK  5 active torsions:
REMARK  status: ('A' for Active; 'I' for Inactive)
REMARK    1  A    between atoms: CY1_2  and  CY2_4 
REMARK    2  A    between atoms: CY4_6  and  C4_7 
REMARK    3  A    between atoms: CY0_10  and  N1_11 
REMARK    4  A    between atoms: N1_11  and  CX2_12 
REMARK    5  A    between atoms: CX1_17  and  CX0_18 
ROOT
ATOM      1  CY2 683 d   1     -28.227 -30.275   7.826  0.00  0.00     0.068 A 
ATOM      2  CY3 683 d   1     -27.515 -29.096   8.026  0.00  0.00    -0.059 A 
ATOM      3  CY4 683 d   1     -26.159 -29.146   8.308  0.00  0.00    -0.061 A 
ATOM      4  CY5 683 d   1     -25.507 -30.364   8.378  0.00  0.00    -0.075 A 
ATOM      5  CY6 683 d   1     -26.213 -31.534   8.165  0.00  0.00    -0.056 A 
ATOM      6  CY0 683 d   1     -27.574 -31.505   7.901  0.00  0.00     0.049 A 
ATOM      7  H   683 d   1     -28.021 -28.139   7.961  0.00  0.00     0.086 H 
ATOM      8  H   683 d   1     -24.446 -30.401   8.599  0.00  0.00     0.084 H 
ATOM      9  H   683 d   1     -25.696 -32.486   8.205  0.00  0.00     0.087 H 
ENDROOT
BRANCH   6  10
ATOM     10  N1  683 d   1     -28.336 -32.698   7.670  0.00  0.00    -0.354 N 
ATOM     11  H   683 d   1     -29.164 -32.615   7.063  0.00  0.00     0.166 HD
BRANCH  10  12
ATOM     12  CX2 683 d   1     -28.050 -33.996   8.208  0.00  0.00     0.049 A 
ATOM     13  CX3 683 d   1     -27.191 -34.171   9.284  0.00  0.00    -0.056 A 
ATOM     14  CX4 683 d   1     -26.923 -35.431   9.791  0.00  0.00    -0.081 A 
ATOM     15  H   683 d   1     -26.721 -33.305   9.736  0.00  0.00     0.086 H 
ATOM     16  CX5 683 d   1     -27.545 -36.530   9.226  0.00  0.00    -0.082 A 
ATOM     17  H   683 d   1     -26.235 -35.555  10.620  0.00  0.00     0.083 H 
ATOM     18  CX6 683 d   1     -28.420 -36.371   8.164  0.00  0.00    -0.064 A 
ATOM     19  H   683 d   1     -27.346 -37.522   9.617  0.00  0.00     0.083 H 
ATOM     20  CX1 683 d   1     -28.680 -35.106   7.651  0.00  0.00     0.067 A 
ATOM     21  H   683 d   1     -28.905 -37.238   7.731  0.00  0.00     0.085 H 
BRANCH  20  22
ATOM     22  CX0 683 d   1     -29.620 -34.973   6.498  0.00  0.00     0.211 C 
ATOM     23  OY1 683 d   1     -29.921 -35.993   5.821  0.00  0.00    -0.644 OA
ATOM     24  OY2 683 d   1     -30.102 -33.853   6.186  0.00  0.00    -0.644 OA
ENDBRANCH  20  22
ENDBRANCH  10  12
ENDBRANCH   6  10
BRANCH   1  25
ATOM     25  CY1 683 d   1     -29.688 -30.222   7.534  0.00  0.00     0.211 C 
ATOM     26  OX1 683 d   1     -30.211 -31.062   6.752  0.00  0.00    -0.644 OA
ATOM     27  OX2 683 d   1     -30.407 -29.343   8.082  0.00  0.00    -0.644 OA
ENDBRANCH   1  25
BRANCH   3  28
ATOM     28  C4  683 d   1     -25.384 -27.892   8.537  0.00  0.00    -0.051 C 
ATOM     29  H   683 d   1     -24.333 -28.143   8.744  0.00  0.00     0.033 H 
ATOM     30  H   683 d   1     -25.808 -27.351   9.396  0.00  0.00     0.033 H 
ATOM     31  H   683 d   1     -25.439 -27.258   7.640  0.00  0.00     0.033 H 
ENDBRANCH   3  28
TORSDOF 5
