REMARK  13 active torsions:
REMARK  status: ('A' for Active; 'I' for Inactive)
REMARK    1  A    between atoms: O2S_3  and  S_1 
REMARK    2  A    between atoms: C1_6  and  O2S_3 
REMARK    3  A    between atoms: C12_17  and  C1_6 
REMARK    4  A    between atoms: C3_8  and  C2_7 
REMARK    5  A    between atoms: C4_9  and  C3_8 
REMARK    6  A    between atoms: C5_10  and  C4_9 
REMARK    7  A    between atoms: C6_11  and  C5_10 
REMARK    8  A    between atoms: C7_12  and  C6_11 
REMARK    9  A    between atoms: C8_13  and  C7_12 
REMARK   10  A    between atoms: C9_14  and  C8_13 
REMARK   11  A    between atoms: C10_15  and  C9_14 
REMARK   12  A    between atoms: C11_16  and  C10_15 
REMARK   13  A    between atoms: C11_16  and  C12_17 
ROOT
ATOM      1  C8  SDS d   1      22.794  35.066  18.848  0.00  0.00    -0.065 C 
ATOM      2  H16 SDS d   1      22.991  35.250  19.915  0.00  0.00     0.033 H 
ATOM      3  H17 SDS d   1      21.708  35.058  18.671  0.00  0.00     0.033 H 
ENDROOT
BRANCH   1   4
ATOM      4  C7  SDS d   1      23.388  33.766  18.436  0.00  0.00    -0.065 C 
ATOM      5  H14 SDS d   1      23.160  33.601  17.373  0.00  0.00     0.033 H 
ATOM      6  H15 SDS d   1      24.478  33.822  18.573  0.00  0.00     0.033 H 
BRANCH   4   7
ATOM      7  C6  SDS d   1      22.872  32.599  19.218  0.00  0.00    -0.065 C 
ATOM      8  H12 SDS d   1      22.837  32.854  20.288  0.00  0.00     0.033 H 
ATOM      9  H13 SDS d   1      21.862  32.336  18.871  0.00  0.00     0.033 H 
BRANCH   7  10
ATOM     10  C5  SDS d   1      23.796  31.447  19.003  0.00  0.00    -0.065 C 
ATOM     11  H10 SDS d   1      24.262  31.555  18.012  0.00  0.00     0.033 H 
ATOM     12  H11 SDS d   1      24.575  31.477  19.780  0.00  0.00     0.033 H 
BRANCH  10  13
ATOM     13  C4  SDS d   1      23.121  30.119  19.063  0.00  0.00    -0.065 C 
ATOM     14  H8  SDS d   1      22.337  30.081  18.293  0.00  0.00     0.033 H 
ATOM     15  H9  SDS d   1      23.864  29.331  18.869  0.00  0.00     0.033 H 
BRANCH  13  16
ATOM     16  C3  SDS d   1      22.503  29.884  20.394  0.00  0.00    -0.069 C 
ATOM     17  H6  SDS d   1      23.180  30.258  21.176  0.00  0.00     0.032 H 
ATOM     18  H7  SDS d   1      21.547  30.426  20.447  0.00  0.00     0.032 H 
BRANCH  16  19
ATOM     19  C2  SDS d   1      22.252  28.428  20.622  0.00  0.00    -0.077 C 
ATOM     20  H3  SDS d   1      21.795  28.285  21.613  0.00  0.00     0.027 H 
ATOM     21  H4  SDS d   1      23.205  27.880  20.575  0.00  0.00     0.027 H 
ATOM     22  H5  SDS d   1      21.571  28.047  19.846  0.00  0.00     0.027 H 
ENDBRANCH  16  19
ENDBRANCH  13  16
ENDBRANCH  10  13
ENDBRANCH   7  10
ENDBRANCH   4   7
ENDBRANCH   1   4
BRANCH   1  23
ATOM     23  C9  SDS d   1      23.440  36.122  18.019  0.00  0.00    -0.065 C 
ATOM     24  H18 SDS d   1      23.333  35.854  16.958  0.00  0.00     0.033 H 
ATOM     25  H19 SDS d   1      24.508  36.172  18.279  0.00  0.00     0.033 H 
BRANCH  23  26
ATOM     26  C10 SDS d   1      22.830  37.463  18.238  0.00  0.00    -0.065 C 
ATOM     27  H20 SDS d   1      22.817  37.695  19.313  0.00  0.00     0.033 H 
ATOM     28  H21 SDS d   1      21.801  37.472  17.849  0.00  0.00     0.033 H 
BRANCH  26  29
ATOM     29  C11 SDS d   1      23.652  38.476  17.513  0.00  0.00    -0.063 C 
ATOM     30  H22 SDS d   1      23.813  38.135  16.480  0.00  0.00     0.033 H 
ATOM     31  H23 SDS d   1      24.622  38.581  18.020  0.00  0.00     0.033 H 
BRANCH  29  32
ATOM     32  C12 SDS d   1      22.968  39.804  17.488  0.00  0.00    -0.044 C 
ATOM     33  H24 SDS d   1      22.002  39.709  16.971  0.00  0.00     0.036 H 
ATOM     34  H25 SDS d   1      22.800  40.149  18.519  0.00  0.00     0.036 H 
BRANCH  32  35
ATOM     35  C1  SDS d   1      23.826  40.793  16.764  0.00  0.00     0.040 C 
ATOM     36  H1  SDS d   1      23.837  40.548  15.692  0.00  0.00     0.076 H 
ATOM     37  H2  SDS d   1      23.414  41.803  16.905  0.00  0.00     0.076 H 
BRANCH  35  38
ATOM     38  O2S SDS d   1      25.120  40.754  17.256  0.00  0.00    -0.257 OA
BRANCH  38  39
ATOM     39  S   SDS d   1      25.855  41.989  17.591  0.00  0.00     0.251 S 
ATOM     40  O1S SDS d   1      26.036  42.836  16.437  0.00  0.00    -0.572 OA
ATOM     41  O3S SDS d   1      27.148  41.669  18.219  0.00  0.00    -0.572 OA
ATOM     42  O4  SDS d   1      25.061  42.846  18.438  0.00  0.00    -0.572 OA
ENDBRANCH  38  39
ENDBRANCH  35  38
ENDBRANCH  32  35
ENDBRANCH  29  32
ENDBRANCH  26  29
ENDBRANCH  23  26
ENDBRANCH   1  23
TORSDOF 13
