REMARK  6 active torsions:
REMARK  status: ('A' for Active; 'I' for Inactive)
REMARK    1  A    between atoms: CAZ_2  and  CAM_5 
REMARK    2  A    between atoms: CAM_5  and  CAT_6 
REMARK    3  A    between atoms: C6_14  and  NAY_15 
REMARK    4  A    between atoms: NAX_20  and  CAS_21 
REMARK    5  A    between atoms: CBA_23  and  CAA_24 
REMARK    6  A    between atoms: CBA_23  and  CAB_25 
ROOT
ATOM      1  NAY 0RT d   1     -12.076  10.906  11.293  0.00  0.00    -0.362 N 
ATOM      2  CAK 0RT d   1     -11.212  11.884  11.944  0.00  0.00     0.011 C 
ATOM      3  CAI 0RT d   1     -12.088  12.919  12.608  0.00  0.00     0.012 C 
ATOM      4  CAJ 0RT d   1     -13.288  11.421  10.625  0.00  0.00     0.011 C 
ATOM      5  CAH 0RT d   1     -13.178  12.896  10.284  0.00  0.00     0.012 C 
ATOM      6  NAX 0RT d   1     -12.905  13.635  11.636  0.00  0.00    -0.359 N 
ATOM      7  H5  0RT d   1     -10.566  12.367  11.196  0.00  0.00     0.066 H 
ATOM      8  H6  0RT d   1     -10.588  11.385  12.699  0.00  0.00     0.066 H 
ATOM      9  H7  0RT d   1     -11.449  13.641  13.137  0.00  0.00     0.066 H 
ATOM     10  H8  0RT d   1     -12.750  12.417  13.329  0.00  0.00     0.066 H 
ATOM     11  H9  0RT d   1     -14.149  11.276  11.294  0.00  0.00     0.066 H 
ATOM     12  H10 0RT d   1     -13.447  10.854   9.696  0.00  0.00     0.066 H 
ATOM     13  H11 0RT d   1     -14.116  13.255   9.835  0.00  0.00     0.066 H 
ATOM     14  H12 0RT d   1     -12.348  13.065   9.582  0.00  0.00     0.066 H 
ENDROOT
BRANCH   1  15
ATOM     15  C6  0RT d   1     -12.066   9.538  11.587  0.00  0.00     0.140 A 
ATOM     16  C5  0RT d   1     -10.907   8.911  12.056  0.00  0.00     0.047 A 
ATOM     17  CAG 0RT d   1      -9.604   9.238  12.311  0.00  0.00    -0.053 A 
ATOM     18  C4  0RT d   1     -11.054   7.513  12.384  0.00  0.00     0.113 A 
ATOM     19  CAT 0RT d   1      -8.767   8.290  12.853  0.00  0.00    -0.006 A 
ATOM     20  H3  0RT d   1      -9.233  10.237  12.088  0.00  0.00     0.086 H 
ATOM     21  SAR 0RT d   1      -9.699   6.811  12.999  0.00  0.00    -0.074 SA
ATOM     22  N3  0RT d   1     -12.220   6.906  12.192  0.00  0.00    -0.234 NA
ATOM     23  C2  0RT d   1     -13.206   7.545  11.654  0.00  0.00     0.090 A 
ATOM     24  N1  0RT d   1     -13.180   8.885  11.314  0.00  0.00    -0.224 NA
ATOM     25  H4  0RT d   1     -14.117   6.992  11.455  0.00  0.00     0.146 H 
BRANCH  19  26
ATOM     26  CAM 0RT d   1      -7.368   8.350  13.143  0.00  0.00     0.056 C 
ATOM     27  H1  0RT d   1      -7.133   9.415  13.287  0.00  0.00     0.054 H 
ATOM     28  H2  0RT d   1      -7.231   7.812  14.092  0.00  0.00     0.054 H 
BRANCH  26  29
ATOM     29  CAZ 0RT d   1      -6.309   7.810  12.197  0.00  0.00     0.392 C 
ATOM     30  FAC 0RT d   1      -6.725   6.474  11.936  0.00  0.00    -0.171 F 
ATOM     31  FAD 0RT d   1      -6.678   8.286  10.912  0.00  0.00    -0.171 F 
ATOM     32  FAE 0RT d   1      -5.169   7.884  12.371  0.00  0.00    -0.171 F 
ENDBRANCH  26  29
ENDBRANCH  19  26
ENDBRANCH   1  15
BRANCH   6  33
ATOM     33  CAS 0RT d   1     -13.620  14.732  11.952  0.00  0.00     0.139 C 
ATOM     34  SAQ 0RT d   1     -13.521  15.368  13.507  0.00  0.00    -0.083 SA
ATOM     35  CBA 0RT d   1     -14.317  16.882  13.035  0.00  0.00     0.024 C 
ATOM     36  CAL 0RT d   1     -15.039  16.566  11.747  0.00  0.00     0.010 C 
ATOM     37  NAN 0RT d   1     -14.365  15.446  11.126  0.00  0.00    -0.369 N 
ATOM     38  H19 0RT d   1     -15.010  17.438  11.078  0.00  0.00     0.066 H 
ATOM     39  H20 0RT d   1     -16.085  16.302  11.960  0.00  0.00     0.066 H 
ATOM     40  H21 0RT d   1     -14.458  15.224  10.124  0.00  0.00     0.161 HD
BRANCH  35  41
ATOM     41  CAA 0RT d   1     -15.405  17.150  14.043  0.00  0.00    -0.059 C 
ATOM     42  H13 0RT d   1     -15.924  18.085  13.783  0.00  0.00     0.029 H 
ATOM     43  H14 0RT d   1     -14.961  17.244  15.045  0.00  0.00     0.029 H 
ATOM     44  H15 0RT d   1     -16.124  16.318  14.036  0.00  0.00     0.029 H 
ENDBRANCH  35  41
BRANCH  35  45
ATOM     45  CAB 0RT d   1     -13.281  17.919  12.862  0.00  0.00    -0.059 C 
ATOM     46  H16 0RT d   1     -13.756  18.867  12.569  0.00  0.00     0.029 H 
ATOM     47  H17 0RT d   1     -12.575  17.605  12.079  0.00  0.00     0.029 H 
ATOM     48  H18 0RT d   1     -12.740  18.058  13.809  0.00  0.00     0.029 H 
ENDBRANCH  35  45
ENDBRANCH   6  33
TORSDOF 6
