REMARK  18 active torsions:
REMARK  status: ('A' for Active; 'I' for Inactive)
REMARK    1  A    between atoms: C17_5  and  C25_4 
REMARK       I    between atoms: C25_4  and  N2_34 
REMARK    2  A    between atoms: C16_6  and  C17_5 
REMARK    3  A    between atoms: C17_5  and  C18_23 
REMARK    4  A    between atoms: C15_15  and  C16_6 
REMARK    5  A    between atoms: C12_9  and  C13_8 
REMARK    6  A    between atoms: C6_22  and  C7_12 
REMARK    7  A    between atoms: C18_23  and  P1_24 
REMARK    8  A    between atoms: P1_24  and  C19_27 
REMARK    9  A    between atoms: N2_34  and  C26_35 
REMARK   10  A    between atoms: C26_35  and  C30_36 
REMARK   11  A    between atoms: C26_35  and  C27_38 
REMARK       I    between atoms: C30_36  and  N3_43 
REMARK   12  A    between atoms: C27_38  and  C28_39 
REMARK   13  A    between atoms: C28_39  and  C29_40 
REMARK   14  A    between atoms: N3_43  and  C31_44 
REMARK   15  A    between atoms: C31_44  and  C35_45 
REMARK   16  A    between atoms: C31_44  and  C32_47 
REMARK       I    between atoms: C35_45  and  N4_52 
REMARK   17  A    between atoms: C32_47  and  C33_48 
REMARK   18  A    between atoms: C33_48  and  C34_49 
ROOT
ATOM      1  C17 R47 d   1       8.834  25.869   2.487  0.00  0.00     0.038 C 
ATOM      2  H1  R47 d   1       7.790  26.050   2.193  0.00  0.00     0.056 H 
ENDROOT
BRANCH   1   3
ATOM      3  C25 R47 d   1       9.264  26.797   3.448  0.00  0.00     0.223 C 
ATOM      4  O4  R47 d   1      10.146  26.740   4.221  0.00  0.00    -0.273 OA
ATOM      5  N2  R47 d   1       8.535  27.966   3.459  0.00  0.00    -0.347 N 
ATOM      6  H19 R47 d   1       7.734  28.028   2.864  0.00  0.00     0.163 HD
BRANCH   5   7
ATOM      7  C26 R47 d   1       8.866  29.117   4.290  0.00  0.00     0.090 C 
ATOM      8  H20 R47 d   1       9.922  29.024   4.585  0.00  0.00     0.087 H 
BRANCH   7   9
ATOM      9  C30 R47 d   1       8.042  29.177   5.564  0.00  0.00     0.241 C 
ATOM     10  O7  R47 d   1       6.871  28.777   5.585  0.00  0.00    -0.271 OA
ATOM     11  N3  R47 d   1       8.644  29.697   6.627  0.00  0.00    -0.346 N 
ATOM     12  H25 R47 d   1       9.612  29.945   6.579  0.00  0.00     0.163 HD
BRANCH  11  13
ATOM     13  C31 R47 d   1       7.902  29.908   7.863  0.00  0.00     0.089 C 
ATOM     14  H26 R47 d   1       7.519  28.939   8.216  0.00  0.00     0.087 H 
BRANCH  13  15
ATOM     15  C35 R47 d   1       6.747  30.849   7.643  0.00  0.00     0.238 C 
ATOM     16  O10 R47 d   1       5.619  30.596   8.099  0.00  0.00    -0.271 OA
ATOM     17  N4  R47 d   1       7.039  31.952   6.962  0.00  0.00    -0.368 N 
ATOM     18  H31 R47 d   1       6.326  32.627   6.774  0.00  0.00     0.159 HD
ATOM     19  H32 R47 d   1       7.972  32.107   6.637  0.00  0.00     0.159 HD
ENDBRANCH  13  15
BRANCH  13  20
ATOM     20  C32 R47 d   1       8.798  30.513   8.928  0.00  0.00    -0.029 C 
ATOM     21  H27 R47 d   1       8.163  30.927   9.725  0.00  0.00     0.037 H 
ATOM     22  H28 R47 d   1       9.387  31.322   8.471  0.00  0.00     0.037 H 
BRANCH  20  23
ATOM     23  C33 R47 d   1       9.727  29.539   9.528  0.00  0.00     0.018 C 
ATOM     24  H29 R47 d   1      10.535  29.330   8.811  0.00  0.00     0.049 H 
ATOM     25  H30 R47 d   1       9.178  28.610   9.743  0.00  0.00     0.049 H 
BRANCH  23  26
ATOM     26  C34 R47 d   1      10.332  30.053  10.807  0.00  0.00     0.172 C 
ATOM     27  O8  R47 d   1      10.633  29.226  11.693  0.00  0.00    -0.648 OA
ATOM     28  O9  R47 d   1      10.509  31.286  10.914  0.00  0.00    -0.648 OA
ENDBRANCH  23  26
ENDBRANCH  20  23
ENDBRANCH  13  20
ENDBRANCH  11  13
ENDBRANCH   7   9
BRANCH   7  29
ATOM     29  C27 R47 d   1       8.715  30.403   3.474  0.00  0.00    -0.029 C 
ATOM     30  H21 R47 d   1       8.811  31.267   4.149  0.00  0.00     0.037 H 
ATOM     31  H22 R47 d   1       7.720  30.413   3.006  0.00  0.00     0.037 H 
BRANCH  29  32
ATOM     32  C28 R47 d   1       9.772  30.507   2.387  0.00  0.00     0.018 C 
ATOM     33  H23 R47 d   1       9.676  29.634   1.724  0.00  0.00     0.049 H 
ATOM     34  H24 R47 d   1      10.763  30.498   2.864  0.00  0.00     0.049 H 
BRANCH  32  35
ATOM     35  C29 R47 d   1       9.656  31.768   1.541  0.00  0.00     0.172 C 
ATOM     36  O5  R47 d   1      10.480  32.693   1.726  0.00  0.00    -0.648 OA
ATOM     37  O6  R47 d   1       8.770  31.818   0.666  0.00  0.00    -0.648 OA
ENDBRANCH  32  35
ENDBRANCH  29  32
ENDBRANCH   7  29
ENDBRANCH   5   7
ENDBRANCH   1   3
BRANCH   1  38
ATOM     38  C16 R47 d   1       8.999  24.464   3.128  0.00  0.00    -0.006 C 
ATOM     39  H2  R47 d   1       9.921  24.468   3.728  0.00  0.00     0.044 H 
ATOM     40  H3  R47 d   1       9.093  23.727   2.317  0.00  0.00     0.044 H 
BRANCH  38  41
ATOM     41  C15 R47 d   1       7.879  24.042   4.006  0.00  0.00     0.082 A 
ATOM     42  O1  R47 d   1       7.987  23.008   4.825  0.00  0.00    -0.217 OA
ATOM     43  N1  R47 d   1       6.884  22.707   5.481  0.00  0.00    -0.128 NA
ATOM     44  C13 R47 d   1       6.010  23.550   5.070  0.00  0.00     0.097 A 
ATOM     45  C14 R47 d   1       6.625  24.389   4.067  0.00  0.00    -0.021 A 
ATOM     46  H4  R47 d   1       6.135  25.162   3.477  0.00  0.00     0.091 H 
BRANCH  44  47
ATOM     47  C12 R47 d   1       4.603  23.513   5.501  0.00  0.00    -0.005 A 
ATOM     48  C11 R47 d   1       4.259  22.674   6.642  0.00  0.00    -0.070 A 
ATOM     49  C10 R47 d   1       2.955  22.647   7.026  0.00  0.00    -0.071 A 
ATOM     50  H5  R47 d   1       5.012  22.095   7.163  0.00  0.00     0.084 H 
ATOM     51  C7  R47 d   1       1.934  23.426   6.285  0.00  0.00    -0.026 A 
ATOM     52  H6  R47 d   1       2.659  22.051   7.881  0.00  0.00     0.084 H 
ATOM     53  C8  R47 d   1       2.304  24.155   5.194  0.00  0.00    -0.071 A 
ATOM     54  C9  R47 d   1       3.693  24.202   4.785  0.00  0.00    -0.070 A 
ATOM     55  H7  R47 d   1       1.556  24.701   4.631  0.00  0.00     0.084 H 
ATOM     56  H8  R47 d   1       3.994  24.780   3.919  0.00  0.00     0.084 H 
BRANCH  51  57
ATOM     57  C6  R47 d   1       0.506  23.371   6.679  0.00  0.00    -0.024 A 
ATOM     58  C2  R47 d   1      -0.342  24.332   6.299  0.00  0.00    -0.051 A 
ATOM     59  C1  R47 d   1      -1.719  24.177   6.672  0.00  0.00     0.034 A 
ATOM     60  H9  R47 d   1      -0.004  25.192   5.733  0.00  0.00     0.087 H 
ATOM     61 CL1  R47 d   1      -2.745  25.381   6.111  0.00  0.00    -0.084 Cl
ATOM     62  C3  R47 d   1      -2.204  23.129   7.317  0.00  0.00    -0.062 A 
ATOM     63  C4  R47 d   1      -1.322  22.082   7.708  0.00  0.00    -0.081 A 
ATOM     64  H10 R47 d   1      -3.262  23.068   7.545  0.00  0.00     0.086 H 
ATOM     65  C5  R47 d   1      -0.026  22.223   7.401  0.00  0.00    -0.072 A 
ATOM     66  H11 R47 d   1      -1.685  21.206   8.233  0.00  0.00     0.083 H 
ATOM     67  H12 R47 d   1       0.662  21.443   7.705  0.00  0.00     0.084 H 
ENDBRANCH  51  57
ENDBRANCH  44  47
ENDBRANCH  38  41
ENDBRANCH   1  38
BRANCH   1  68
ATOM     68  C18 R47 d   1       9.794  25.989   1.245  0.00  0.00     0.023 C 
ATOM     69  H13 R47 d   1      10.795  25.649   1.549  0.00  0.00     0.050 H 
ATOM     70  H14 R47 d   1       9.841  27.047   0.946  0.00  0.00     0.050 H 
BRANCH  68  71
ATOM     71  P1  R47 d   1       9.274  25.013  -0.196  0.00  0.00     0.141 P 
ATOM     72  O2  R47 d   1       7.720  25.310  -0.391  0.00  0.00    -0.664 OA
ATOM     73  O3  R47 d   1       9.567  23.488  -0.083  0.00  0.00    -0.664 OA
BRANCH  71  74
ATOM     74  C19 R47 d   1      10.170  25.752  -1.582  0.00  0.00     0.030 A 
ATOM     75  C20 R47 d   1      11.623  25.709  -1.552  0.00  0.00    -0.066 A 
ATOM     76  C21 R47 d   1      12.297  26.256  -2.624  0.00  0.00    -0.065 A 
ATOM     77  H15 R47 d   1      12.156  25.264  -0.719  0.00  0.00     0.085 H 
ATOM     78  C22 R47 d   1      11.515  26.785  -3.789  0.00  0.00     0.011 A 
ATOM     79  H16 R47 d   1      13.380  26.303  -2.624  0.00  0.00     0.085 H 
ATOM     80 BR1  R47 d   1      12.068  27.474  -5.522  0.00  0.00    -0.051 Br
ATOM     81  C23 R47 d   1      10.199  26.787  -3.774  0.00  0.00    -0.065 A 
ATOM     82  C24 R47 d   1       9.486  26.291  -2.636  0.00  0.00    -0.066 A 
ATOM     83  H17 R47 d   1       9.651  27.167  -4.629  0.00  0.00     0.085 H 
ATOM     84  H18 R47 d   1       8.403  26.343  -2.610  0.00  0.00     0.085 H 
ENDBRANCH  71  74
ENDBRANCH  68  71
ENDBRANCH   1  68
TORSDOF 18
