REMARK  5 active torsions:
REMARK  status: ('A' for Active; 'I' for Inactive)
REMARK    1  A    between atoms: N_1  and  CA_2 
REMARK    2  A    between atoms: N_1  and  CM_11 
REMARK    3  A    between atoms: CA_2  and  C_3 
REMARK    4  A    between atoms: CA_2  and  CB_4 
REMARK    5  A    between atoms: CB_4  and  CG_5 
ROOT
ATOM      1  CB  B40 d   1      -3.315  -3.664  17.027  0.00  0.00    -0.015 C 
ATOM      2  H7  B40 d   1      -3.987  -2.842  17.314  0.00  0.00     0.043 H 
ATOM      3  H8  B40 d   1      -2.435  -3.666  17.687  0.00  0.00     0.043 H 
ENDROOT
BRANCH   1   4
ATOM      4  CA  B40 d   1      -2.815  -3.403  15.524  0.00  0.00     0.102 C 
ATOM      5  H3  B40 d   1      -3.623  -3.604  14.806  0.00  0.00     0.084 H 
BRANCH   4   6
ATOM      6  N   B40 d   1      -2.224  -2.041  15.297  0.00  0.00    -0.075 N 
ATOM      7  H1  B40 d   1      -1.724  -2.017  14.422  0.00  0.00     0.277 HD
ATOM      8  H2  B40 d   1      -1.597  -1.801  16.049  0.00  0.00     0.277 HD
BRANCH   6   9
ATOM      9  CM  B40 d   1      -3.388  -1.088  15.261  0.00  0.00     0.065 C 
ATOM     10  H14 B40 d   1      -3.019  -0.065  15.096  0.00  0.00     0.067 H 
ATOM     11  H15 B40 d   1      -3.929  -1.133  16.218  0.00  0.00     0.067 H 
ATOM     12  H16 B40 d   1      -4.067  -1.369  14.443  0.00  0.00     0.067 H 
ENDBRANCH   6   9
ENDBRANCH   4   6
BRANCH   4  13
ATOM     13  C   B40 d   1      -1.630  -4.328  15.353  0.00  0.00    -0.049 C 
ATOM     14  H4  B40 d   1      -1.953  -5.369  15.500  0.00  0.00     0.030 H 
ATOM     15  H5  B40 d   1      -0.858  -4.076  16.095  0.00  0.00     0.030 H 
ATOM     16  H6  B40 d   1      -1.217  -4.212  14.340  0.00  0.00     0.030 H 
ENDBRANCH   4  13
ENDBRANCH   1   4
BRANCH   1  17
ATOM     17  CG  B40 d   1      -4.030  -4.926  17.213  0.00  0.00    -0.056 A 
ATOM     18  CD1 B40 d   1      -3.368  -6.019  17.723  0.00  0.00    -0.077 A 
ATOM     19  CE1 B40 d   1      -4.071  -7.196  17.967  0.00  0.00    -0.082 A 
ATOM     20  H9  B40 d   1      -2.306  -5.964  17.933  0.00  0.00     0.084 H 
ATOM     21  CZ  B40 d   1      -5.465  -7.351  17.672  0.00  0.00    -0.083 A 
ATOM     22  H11 B40 d   1      -3.539  -8.035  18.401  0.00  0.00     0.083 H 
ATOM     23  CE2 B40 d   1      -6.135  -6.243  17.171  0.00  0.00    -0.082 A 
ATOM     24  H13 B40 d   1      -5.975  -8.294  17.833  0.00  0.00     0.083 H 
ATOM     25  CD2 B40 d   1      -5.404  -5.052  16.988  0.00  0.00    -0.077 A 
ATOM     26  H12 B40 d   1      -7.190  -6.293  16.928  0.00  0.00     0.083 H 
ATOM     27  H10 B40 d   1      -5.944  -4.175  16.650  0.00  0.00     0.084 H 
ENDBRANCH   1  17
TORSDOF 5
