REMARK  14 active torsions:
REMARK  status: ('A' for Active; 'I' for Inactive)
REMARK    1  A    between atoms: C17_5  and  C25_4 
REMARK       I    between atoms: C25_4  and  N2_34 
REMARK    2  A    between atoms: C16_6  and  C17_5 
REMARK    3  A    between atoms: C17_5  and  C18_23 
REMARK    4  A    between atoms: C15_15  and  C16_6 
REMARK    5  A    between atoms: C12_9  and  C13_8 
REMARK    6  A    between atoms: C6_22  and  C7_12 
REMARK    7  A    between atoms: C18_23  and  P1_24 
REMARK    8  A    between atoms: P1_24  and  C19_27 
REMARK    9  A    between atoms: N2_34  and  C26_35 
REMARK   10  A    between atoms: C26_35  and  C30_36 
REMARK   11  A    between atoms: C26_35  and  C27_38 
REMARK       I    between atoms: C30_36  and  N3_39 
REMARK   12  A    between atoms: N3_39  and  C31_40 
REMARK   13  A    between atoms: C31_40  and  C35_41 
REMARK   14  A    between atoms: C31_40  and  C32_43 
REMARK       I    between atoms: C35_41  and  N4_44 
ROOT
ATOM      1  C17 R4B d   1      -8.198  25.457  -2.902  0.00  0.00     0.038 C 
ATOM      2  H1  R4B d   1      -7.194  25.716  -2.533  0.00  0.00     0.056 H 
ENDROOT
BRANCH   1   3
ATOM      3  C25 R4B d   1      -8.642  26.365  -4.005  0.00  0.00     0.223 C 
ATOM      4  O4  R4B d   1      -9.601  26.045  -4.733  0.00  0.00    -0.273 OA
ATOM      5  N2  R4B d   1      -7.981  27.501  -4.161  0.00  0.00    -0.348 N 
ATOM      6  H19 R4B d   1      -7.149  27.674  -3.633  0.00  0.00     0.163 HD
BRANCH   5   7
ATOM      7  C26 R4B d   1      -8.469  28.501  -5.106  0.00  0.00     0.086 C 
ATOM      8  H20 R4B d   1      -9.535  28.295  -5.282  0.00  0.00     0.086 H 
BRANCH   7   9
ATOM      9  C30 R4B d   1      -7.764  28.438  -6.461  0.00  0.00     0.240 C 
ATOM     10  O7  R4B d   1      -6.602  28.025  -6.558  0.00  0.00    -0.271 OA
ATOM     11  N3  R4B d   1      -8.474  28.834  -7.512  0.00  0.00    -0.346 N 
ATOM     12  H24 R4B d   1      -9.448  29.034  -7.406  0.00  0.00     0.163 HD
BRANCH  11  13
ATOM     13  C31 R4B d   1      -7.846  28.979  -8.815  0.00  0.00     0.086 C 
ATOM     14  H25 R4B d   1      -7.373  28.026  -9.095  0.00  0.00     0.086 H 
BRANCH  13  15
ATOM     15  C35 R4B d   1      -6.769  30.060  -8.719  0.00  0.00     0.237 C 
ATOM     16  O10 R4B d   1      -5.602  29.827  -9.049  0.00  0.00    -0.271 OA
ATOM     17  N4  R4B d   1      -7.165  31.238  -8.245  0.00  0.00    -0.368 N 
ATOM     18  H29 R4B d   1      -6.509  31.988  -8.157  0.00  0.00     0.159 HD
ATOM     19  H30 R4B d   1      -8.119  31.374  -7.977  0.00  0.00     0.159 HD
ENDBRANCH  13  15
BRANCH  13  20
ATOM     20  C32 R4B d   1      -8.885  29.338  -9.875  0.00  0.00    -0.049 C 
ATOM     21  H26 R4B d   1      -8.391  29.443 -10.852  0.00  0.00     0.030 H 
ATOM     22  H27 R4B d   1      -9.371  30.288  -9.606  0.00  0.00     0.030 H 
ATOM     23  H28 R4B d   1      -9.642  28.542  -9.931  0.00  0.00     0.030 H 
ENDBRANCH  13  20
ENDBRANCH  11  13
ENDBRANCH   7   9
BRANCH   7  24
ATOM     24  C27 R4B d   1      -8.356  29.892  -4.507  0.00  0.00    -0.049 C 
ATOM     25  H21 R4B d   1      -8.727  30.634  -5.230  0.00  0.00     0.030 H 
ATOM     26  H22 R4B d   1      -7.303  30.105  -4.271  0.00  0.00     0.030 H 
ATOM     27  H23 R4B d   1      -8.956  29.945  -3.587  0.00  0.00     0.030 H 
ENDBRANCH   7  24
ENDBRANCH   5   7
ENDBRANCH   1   3
BRANCH   1  28
ATOM     28  C16 R4B d   1      -8.251  24.043  -3.452  0.00  0.00    -0.006 C 
ATOM     29  H2  R4B d   1      -9.165  23.960  -4.058  0.00  0.00     0.044 H 
ATOM     30  H3  R4B d   1      -8.316  23.359  -2.593  0.00  0.00     0.044 H 
BRANCH  28  31
ATOM     31  C15 R4B d   1      -7.093  23.579  -4.314  0.00  0.00     0.082 A 
ATOM     32  O1  R4B d   1      -7.227  22.558  -5.198  0.00  0.00    -0.217 OA
ATOM     33  N1  R4B d   1      -6.120  22.270  -5.868  0.00  0.00    -0.128 NA
ATOM     34  C13 R4B d   1      -5.190  23.135  -5.402  0.00  0.00     0.097 A 
ATOM     35  C14 R4B d   1      -5.758  23.973  -4.425  0.00  0.00    -0.021 A 
ATOM     36  H4  R4B d   1      -5.259  24.766  -3.870  0.00  0.00     0.091 H 
BRANCH  34  37
ATOM     37  C12 R4B d   1      -3.788  23.105  -5.885  0.00  0.00    -0.005 A 
ATOM     38  C11 R4B d   1      -3.443  22.252  -6.928  0.00  0.00    -0.070 A 
ATOM     39  C10 R4B d   1      -2.119  22.203  -7.368  0.00  0.00    -0.071 A 
ATOM     40  H5  R4B d   1      -4.197  21.630  -7.396  0.00  0.00     0.084 H 
ATOM     41  C7  R4B d   1      -1.165  23.002  -6.743  0.00  0.00    -0.026 A 
ATOM     42  H6  R4B d   1      -1.837  21.551  -8.187  0.00  0.00     0.084 H 
ATOM     43  C8  R4B d   1      -1.521  23.826  -5.681  0.00  0.00    -0.071 A 
ATOM     44  C9  R4B d   1      -2.833  23.878  -5.241  0.00  0.00    -0.070 A 
ATOM     45  H7  R4B d   1      -0.766  24.432  -5.194  0.00  0.00     0.084 H 
ATOM     46  H8  R4B d   1      -3.109  24.513  -4.407  0.00  0.00     0.084 H 
BRANCH  41  47
ATOM     47  C6  R4B d   1       0.280  23.012  -7.118  0.00  0.00    -0.024 A 
ATOM     48  C2  R4B d   1       0.953  21.860  -7.500  0.00  0.00    -0.051 A 
ATOM     49  C1  R4B d   1       2.314  21.938  -7.804  0.00  0.00     0.034 A 
ATOM     50  H9  R4B d   1       0.430  20.913  -7.562  0.00  0.00     0.087 H 
ATOM     51 CL1  R4B d   1       3.199  20.470  -8.322  0.00  0.00    -0.084 Cl
ATOM     52  C3  R4B d   1       2.998  23.144  -7.706  0.00  0.00    -0.062 A 
ATOM     53  C4  R4B d   1       2.328  24.290  -7.303  0.00  0.00    -0.081 A 
ATOM     54  H10 R4B d   1       4.054  23.189  -7.944  0.00  0.00     0.086 H 
ATOM     55  C5  R4B d   1       0.974  24.216  -7.003  0.00  0.00    -0.072 A 
ATOM     56  H11 R4B d   1       2.856  25.233  -7.223  0.00  0.00     0.083 H 
ATOM     57  H12 R4B d   1       0.450  25.106  -6.675  0.00  0.00     0.084 H 
ENDBRANCH  41  47
ENDBRANCH  34  37
ENDBRANCH  28  31
ENDBRANCH   1  28
BRANCH   1  58
ATOM     58  C18 R4B d   1      -9.253  25.559  -1.801  0.00  0.00     0.023 C 
ATOM     59  H13 R4B d   1     -10.157  25.036  -2.145  0.00  0.00     0.050 H 
ATOM     60  H14 R4B d   1      -9.482  26.623  -1.645  0.00  0.00     0.050 H 
BRANCH  58  61
ATOM     61  P1  R4B d   1      -8.764  24.848  -0.202  0.00  0.00     0.141 P 
ATOM     62  O2  R4B d   1      -7.326  25.237   0.062  0.00  0.00    -0.664 OA
ATOM     63  O3  R4B d   1      -9.067  23.373  -0.197  0.00  0.00    -0.664 OA
BRANCH  61  64
ATOM     64  C19 R4B d   1      -9.778  25.593   1.006  0.00  0.00     0.030 A 
ATOM     65  C20 R4B d   1      -9.211  25.949   2.218  0.00  0.00    -0.066 A 
ATOM     66  C21 R4B d   1     -10.000  26.534   3.203  0.00  0.00    -0.065 A 
ATOM     67  H15 R4B d   1      -8.157  25.773   2.398  0.00  0.00     0.085 H 
ATOM     68  C22 R4B d   1     -11.347  26.744   2.964  0.00  0.00     0.011 A 
ATOM     69  H16 R4B d   1      -9.563  26.823   4.152  0.00  0.00     0.085 H 
ATOM     70 BR1  R4B d   1     -12.374  27.544   4.351  0.00  0.00    -0.051 Br
ATOM     71  C23 R4B d   1     -11.921  26.372   1.750  0.00  0.00    -0.065 A 
ATOM     72  C24 R4B d   1     -11.134  25.794   0.756  0.00  0.00    -0.066 A 
ATOM     73  H17 R4B d   1     -12.979  26.532   1.579  0.00  0.00     0.085 H 
ATOM     74  H18 R4B d   1     -11.569  25.506  -0.194  0.00  0.00     0.085 H 
ENDBRANCH  61  64
ENDBRANCH  58  61
ENDBRANCH   1  58
TORSDOF 14
