REMARK  17 active torsions:
REMARK  status: ('A' for Active; 'I' for Inactive)
REMARK    1  A    between atoms: C17_5  and  C25_4 
REMARK       I    between atoms: C25_4  and  N2_27 
REMARK    2  A    between atoms: C16_6  and  C17_5 
REMARK    3  A    between atoms: C17_5  and  C18_16 
REMARK    4  A    between atoms: C16_6  and  C15_15 
REMARK    5  A    between atoms: C13_8  and  C12_9 
REMARK    6  A    between atoms: C18_16  and  P1_17 
REMARK    7  A    between atoms: P1_17  and  C19_20 
REMARK    8  A    between atoms: N2_27  and  C26_28 
REMARK    9  A    between atoms: C26_28  and  C30_29 
REMARK   10  A    between atoms: C26_28  and  C27_31 
REMARK       I    between atoms: C30_29  and  N3_36 
REMARK   11  A    between atoms: C27_31  and  C28_32 
REMARK   12  A    between atoms: C28_32  and  C29_33 
REMARK   13  A    between atoms: N3_36  and  C31_37 
REMARK   14  A    between atoms: C31_37  and  C35_38 
REMARK   15  A    between atoms: C31_37  and  C32_40 
REMARK       I    between atoms: C35_38  and  N4_45 
REMARK   16  A    between atoms: C32_40  and  C33_41 
REMARK   17  A    between atoms: C33_41  and  C34_42 
ROOT
ATOM      1  C17 R45 d   1       8.430  25.613   2.789  0.00  0.00     0.038 C 
ATOM      2  H1  R45 d   1       7.414  25.805   2.414  0.00  0.00     0.056 H 
ENDROOT
BRANCH   1   3
ATOM      3  C25 R45 d   1       8.821  26.595   3.851  0.00  0.00     0.223 C 
ATOM      4  O4  R45 d   1       9.703  26.305   4.699  0.00  0.00    -0.273 OA
ATOM      5  N2  R45 d   1       8.191  27.761   3.833  0.00  0.00    -0.347 N 
ATOM      6  H16 R45 d   1       7.426  27.900   3.204  0.00  0.00     0.163 HD
BRANCH   5   7
ATOM      7  C26 R45 d   1       8.600  28.842   4.718  0.00  0.00     0.090 C 
ATOM      8  H17 R45 d   1       9.656  28.673   4.977  0.00  0.00     0.087 H 
BRANCH   7   9
ATOM      9  C30 R45 d   1       7.814  28.876   6.023  0.00  0.00     0.241 C 
ATOM     10  O7  R45 d   1       6.656  28.464   6.090  0.00  0.00    -0.271 OA
ATOM     11  N3  R45 d   1       8.461  29.369   7.071  0.00  0.00    -0.346 N 
ATOM     12  H22 R45 d   1       9.432  29.593   6.986  0.00  0.00     0.163 HD
BRANCH  11  13
ATOM     13  C31 R45 d   1       7.790  29.589   8.336  0.00  0.00     0.089 C 
ATOM     14  H23 R45 d   1       7.345  28.643   8.678  0.00  0.00     0.087 H 
BRANCH  13  15
ATOM     15  C35 R45 d   1       6.677  30.627   8.160  0.00  0.00     0.238 C 
ATOM     16  O10 R45 d   1       5.521  30.380   8.517  0.00  0.00    -0.271 OA
ATOM     17  N4  R45 d   1       7.026  31.779   7.596  0.00  0.00    -0.368 N 
ATOM     18  H28 R45 d   1       6.342  32.495   7.455  0.00  0.00     0.159 HD
ATOM     19  H29 R45 d   1       7.973  31.930   7.312  0.00  0.00     0.159 HD
ENDBRANCH  13  15
BRANCH  13  20
ATOM     20  C32 R45 d   1       8.805  30.062   9.367  0.00  0.00    -0.029 C 
ATOM     21  H24 R45 d   1       9.134  31.073   9.085  0.00  0.00     0.037 H 
ATOM     22  H25 R45 d   1       9.664  29.376   9.341  0.00  0.00     0.037 H 
BRANCH  20  23
ATOM     23  C33 R45 d   1       8.290  30.115  10.783  0.00  0.00     0.018 C 
ATOM     24  H26 R45 d   1       7.636  29.248  10.960  0.00  0.00     0.049 H 
ATOM     25  H27 R45 d   1       7.715  31.043  10.921  0.00  0.00     0.049 H 
BRANCH  23  26
ATOM     26  C34 R45 d   1       9.424  30.086  11.777  0.00  0.00     0.172 C 
ATOM     27  O8  R45 d   1      10.128  31.113  11.903  0.00  0.00    -0.648 OA
ATOM     28  O9  R45 d   1       9.630  29.026  12.406  0.00  0.00    -0.648 OA
ENDBRANCH  23  26
ENDBRANCH  20  23
ENDBRANCH  13  20
ENDBRANCH  11  13
ENDBRANCH   7   9
BRANCH   7  29
ATOM     29  C27 R45 d   1       8.505  30.188   3.990  0.00  0.00    -0.029 C 
ATOM     30  H18 R45 d   1       8.780  30.985   4.697  0.00  0.00     0.037 H 
ATOM     31  H19 R45 d   1       7.465  30.332   3.661  0.00  0.00     0.037 H 
BRANCH  29  32
ATOM     32  C28 R45 d   1       9.413  30.292   2.772  0.00  0.00     0.018 C 
ATOM     33  H20 R45 d   1       9.093  29.547   2.029  0.00  0.00     0.049 H 
ATOM     34  H21 R45 d   1      10.446  30.079   3.083  0.00  0.00     0.049 H 
BRANCH  32  35
ATOM     35  C29 R45 d   1       9.373  31.663   2.132  0.00  0.00     0.172 C 
ATOM     36  O6  R45 d   1       8.649  31.831   1.128  0.00  0.00    -0.648 OA
ATOM     37  O5  R45 d   1      10.070  32.570   2.632  0.00  0.00    -0.648 OA
ENDBRANCH  32  35
ENDBRANCH  29  32
ENDBRANCH   7  29
ENDBRANCH   5   7
ENDBRANCH   1   3
BRANCH   1  38
ATOM     38  C16 R45 d   1       8.531  24.215   3.376  0.00  0.00    -0.006 C 
ATOM     39  H2  R45 d   1       9.427  24.189   4.013  0.00  0.00     0.044 H 
ATOM     40  H3  R45 d   1       8.656  23.513   2.538  0.00  0.00     0.044 H 
BRANCH  38  41
ATOM     41  C15 R45 d   1       7.364  23.723   4.211  0.00  0.00     0.082 A 
ATOM     42  O1  R45 d   1       7.453  22.709   5.120  0.00  0.00    -0.217 OA
ATOM     43  N1  R45 d   1       6.309  22.429   5.726  0.00  0.00    -0.128 NA
ATOM     44  C13 R45 d   1       5.402  23.302   5.226  0.00  0.00     0.097 A 
ATOM     45  C14 R45 d   1       6.027  24.122   4.267  0.00  0.00    -0.021 A 
ATOM     46  H4  R45 d   1       5.559  24.913   3.683  0.00  0.00     0.091 H 
BRANCH  44  47
ATOM     47  C12 R45 d   1       3.975  23.255   5.656  0.00  0.00    -0.005 A 
ATOM     48  C11 R45 d   1       2.975  23.976   5.015  0.00  0.00    -0.071 A 
ATOM     49  C10 R45 d   1       1.649  23.875   5.448  0.00  0.00    -0.082 A 
ATOM     50  H5  R45 d   1       3.223  24.618   4.178  0.00  0.00     0.084 H 
ATOM     51  C7  R45 d   1       1.322  23.029   6.508  0.00  0.00    -0.083 A 
ATOM     52  H6  R45 d   1       0.874  24.455   4.959  0.00  0.00     0.083 H 
ATOM     53  C8  R45 d   1       2.323  22.295   7.137  0.00  0.00    -0.082 A 
ATOM     54  H7  R45 d   1       0.294  22.944   6.840  0.00  0.00     0.083 H 
ATOM     55  C9  R45 d   1       3.643  22.399   6.702  0.00  0.00    -0.071 A 
ATOM     56  H8  R45 d   1       2.076  21.642   7.966  0.00  0.00     0.083 H 
ATOM     57  H9  R45 d   1       4.416  21.809   7.181  0.00  0.00     0.084 H 
ENDBRANCH  44  47
ENDBRANCH  38  41
ENDBRANCH   1  38
BRANCH   1  58
ATOM     58  C18 R45 d   1       9.475  25.782   1.679  0.00  0.00     0.023 C 
ATOM     59  H10 R45 d   1      10.431  25.391   2.058  0.00  0.00     0.050 H 
ATOM     60  H11 R45 d   1       9.574  26.858   1.474  0.00  0.00     0.050 H 
BRANCH  58  61
ATOM     61  P1  R45 d   1       9.125  24.951   0.104  0.00  0.00     0.141 P 
ATOM     62  O2  R45 d   1       9.471  23.472   0.153  0.00  0.00    -0.664 OA
ATOM     63  O3  R45 d   1       7.722  25.276  -0.354  0.00  0.00    -0.664 OA
BRANCH  61  64
ATOM     64  C19 R45 d   1      10.189  25.663  -1.096  0.00  0.00     0.030 A 
ATOM     65  C20 R45 d   1       9.685  26.150  -2.301  0.00  0.00    -0.066 A 
ATOM     66  C21 R45 d   1      10.555  26.705  -3.241  0.00  0.00    -0.065 A 
ATOM     67  H12 R45 d   1       8.622  26.098  -2.507  0.00  0.00     0.085 H 
ATOM     68  C22 R45 d   1      11.924  26.756  -2.987  0.00  0.00     0.011 A 
ATOM     69  H13 R45 d   1      10.164  27.098  -4.173  0.00  0.00     0.085 H 
ATOM     70 BR1  R45 d   1      13.120  27.509  -4.260  0.00  0.00    -0.051 Br
ATOM     71  C23 R45 d   1      12.426  26.261  -1.786  0.00  0.00    -0.065 A 
ATOM     72  C24 R45 d   1      11.553  25.716  -0.849  0.00  0.00    -0.066 A 
ATOM     73  H14 R45 d   1      13.490  26.300  -1.582  0.00  0.00     0.085 H 
ATOM     74  H15 R45 d   1      11.944  25.328   0.085  0.00  0.00     0.085 H 
ENDBRANCH  61  64
ENDBRANCH  58  61
ENDBRANCH   1  58
TORSDOF 17
