REMARK  13 active torsions:
REMARK  status: ('A' for Active; 'I' for Inactive)
REMARK    1  A    between atoms: C17_5  and  C25_4 
REMARK       I    between atoms: C25_4  and  N2_27 
REMARK    2  A    between atoms: C16_6  and  C17_5 
REMARK    3  A    between atoms: C17_5  and  C18_16 
REMARK    4  A    between atoms: C16_6  and  C15_15 
REMARK    5  A    between atoms: C13_8  and  C12_9 
REMARK    6  A    between atoms: C18_16  and  P1_17 
REMARK    7  A    between atoms: P1_17  and  C19_20 
REMARK    8  A    between atoms: N2_27  and  C26_28 
REMARK    9  A    between atoms: C26_28  and  C30_29 
REMARK   10  A    between atoms: C26_28  and  C27_31 
REMARK       I    between atoms: C30_29  and  N3_32 
REMARK   11  A    between atoms: N3_32  and  C31_33 
REMARK   12  A    between atoms: C31_33  and  C35_34 
REMARK   13  A    between atoms: C31_33  and  C32_36 
REMARK       I    between atoms: C35_34  and  N4_37 
ROOT
ATOM      1  C17 R4C d   1      -6.487  25.508  -3.609  0.00  0.00     0.038 C 
ATOM      2  H1  R4C d   1      -5.467  25.757  -3.282  0.00  0.00     0.056 H 
ENDROOT
BRANCH   1   3
ATOM      3  C25 R4C d   1      -6.946  26.368  -4.748  0.00  0.00     0.223 C 
ATOM      4  O4  R4C d   1      -8.027  26.127  -5.326  0.00  0.00    -0.273 OA
ATOM      5  N2  R4C d   1      -6.100  27.334  -5.106  0.00  0.00    -0.348 N 
ATOM      6  H16 R4C d   1      -5.174  27.314  -4.728  0.00  0.00     0.163 HD
BRANCH   5   7
ATOM      7  C26 R4C d   1      -6.446  28.419  -6.017  0.00  0.00     0.086 C 
ATOM      8  H17 R4C d   1      -7.534  28.570  -5.962  0.00  0.00     0.086 H 
BRANCH   7   9
ATOM      9  C30 R4C d   1      -6.087  28.136  -7.465  0.00  0.00     0.240 C 
ATOM     10  O7  R4C d   1      -5.068  27.512  -7.748  0.00  0.00    -0.271 OA
ATOM     11  N3  R4C d   1      -6.917  28.643  -8.374  0.00  0.00    -0.346 N 
ATOM     12  H21 R4C d   1      -7.731  29.131  -8.060  0.00  0.00     0.163 HD
BRANCH  11  13
ATOM     13  C31 R4C d   1      -6.688  28.516  -9.811  0.00  0.00     0.086 C 
ATOM     14  H22 R4C d   1      -6.547  27.448 -10.034  0.00  0.00     0.086 H 
BRANCH  13  15
ATOM     15  C35 R4C d   1      -5.432  29.253 -10.270  0.00  0.00     0.237 C 
ATOM     16  O10 R4C d   1      -4.823  28.883 -11.274  0.00  0.00    -0.271 OA
ATOM     17  N4  R4C d   1      -5.058  30.298  -9.538  0.00  0.00    -0.368 N 
ATOM     18  H26 R4C d   1      -4.243  30.819  -9.791  0.00  0.00     0.159 HD
ATOM     19  H27 R4C d   1      -5.592  30.563  -8.735  0.00  0.00     0.159 HD
ENDBRANCH  13  15
BRANCH  13  20
ATOM     20  C32 R4C d   1      -7.909  29.004 -10.586  0.00  0.00    -0.049 C 
ATOM     21  H23 R4C d   1      -7.723  28.903 -11.665  0.00  0.00     0.030 H 
ATOM     22  H24 R4C d   1      -8.099  30.060 -10.344  0.00  0.00     0.030 H 
ATOM     23  H25 R4C d   1      -8.786  28.401 -10.307  0.00  0.00     0.030 H 
ENDBRANCH  13  20
ENDBRANCH  11  13
ENDBRANCH   7   9
BRANCH   7  24
ATOM     24  C27 R4C d   1      -5.755  29.696  -5.574  0.00  0.00    -0.049 C 
ATOM     25  H18 R4C d   1      -6.018  30.513  -6.263  0.00  0.00     0.030 H 
ATOM     26  H19 R4C d   1      -4.665  29.545  -5.582  0.00  0.00     0.030 H 
ATOM     27  H20 R4C d   1      -6.081  29.955  -4.556  0.00  0.00     0.030 H 
ENDBRANCH   7  24
ENDBRANCH   5   7
ENDBRANCH   1   3
BRANCH   1  28
ATOM     28  C16 R4C d   1      -6.590  24.052  -4.021  0.00  0.00    -0.006 C 
ATOM     29  H2  R4C d   1      -7.495  23.943  -4.637  0.00  0.00     0.044 H 
ATOM     30  H3  R4C d   1      -6.696  23.453  -3.104  0.00  0.00     0.044 H 
BRANCH  28  31
ATOM     31  C15 R4C d   1      -5.437  23.487  -4.803  0.00  0.00     0.082 A 
ATOM     32  O1  R4C d   1      -5.591  22.470  -5.685  0.00  0.00    -0.217 OA
ATOM     33  N1  R4C d   1      -4.457  22.083  -6.264  0.00  0.00    -0.128 NA
ATOM     34  C13 R4C d   1      -3.508  22.899  -5.770  0.00  0.00     0.097 A 
ATOM     35  C14 R4C d   1      -4.073  23.777  -4.824  0.00  0.00    -0.021 A 
ATOM     36  H4  R4C d   1      -3.552  24.527  -4.231  0.00  0.00     0.091 H 
BRANCH  34  37
ATOM     37  C12 R4C d   1      -2.085  22.746  -6.162  0.00  0.00    -0.005 A 
ATOM     38  C11 R4C d   1      -1.096  23.467  -5.515  0.00  0.00    -0.071 A 
ATOM     39  C10 R4C d   1       0.233  23.288  -5.888  0.00  0.00    -0.082 A 
ATOM     40  H5  R4C d   1      -1.354  24.164  -4.726  0.00  0.00     0.084 H 
ATOM     41  C7  R4C d   1       0.563  22.393  -6.896  0.00  0.00    -0.083 A 
ATOM     42  H6  R4C d   1       1.014  23.850  -5.389  0.00  0.00     0.083 H 
ATOM     43  C8  R4C d   1      -0.429  21.657  -7.541  0.00  0.00    -0.082 A 
ATOM     44  H7  R4C d   1       1.600  22.265  -7.184  0.00  0.00     0.083 H 
ATOM     45  C9  R4C d   1      -1.755  21.834  -7.159  0.00  0.00    -0.071 A 
ATOM     46  H8  R4C d   1      -0.172  20.957  -8.328  0.00  0.00     0.083 H 
ATOM     47  H9  R4C d   1      -2.536  21.258  -7.641  0.00  0.00     0.084 H 
ENDBRANCH  34  37
ENDBRANCH  28  31
ENDBRANCH   1  28
BRANCH   1  48
ATOM     48  C18 R4C d   1      -7.518  25.784  -2.536  0.00  0.00     0.023 C 
ATOM     49  H10 R4C d   1      -8.487  25.409  -2.896  0.00  0.00     0.050 H 
ATOM     50  H11 R4C d   1      -7.575  26.874  -2.397  0.00  0.00     0.050 H 
BRANCH  48  51
ATOM     51  P1  R4C d   1      -7.201  25.034  -0.915  0.00  0.00     0.141 P 
ATOM     52  O3  R4C d   1      -5.787  25.324  -0.433  0.00  0.00    -0.664 OA
ATOM     53  O2  R4C d   1      -7.583  23.575  -0.872  0.00  0.00    -0.664 OA
BRANCH  51  54
ATOM     54  C19 R4C d   1      -8.206  25.957   0.166  0.00  0.00     0.030 A 
ATOM     55  C20 R4C d   1      -9.584  25.923   0.016  0.00  0.00    -0.066 A 
ATOM     56  C21 R4C d   1     -10.397  26.654   0.863  0.00  0.00    -0.065 A 
ATOM     57  H12 R4C d   1     -10.026  25.320  -0.769  0.00  0.00     0.085 H 
ATOM     58  C22 R4C d   1      -9.803  27.422   1.856  0.00  0.00     0.011 A 
ATOM     59  H13 R4C d   1     -11.475  26.628   0.754  0.00  0.00     0.085 H 
ATOM     60 BR1  R4C d   1     -10.868  28.417   3.042  0.00  0.00    -0.051 Br
ATOM     61  C23 R4C d   1      -8.421  27.461   2.007  0.00  0.00    -0.065 A 
ATOM     62  C24 R4C d   1      -7.613  26.729   1.152  0.00  0.00    -0.066 A 
ATOM     63  H14 R4C d   1      -7.977  28.063   2.792  0.00  0.00     0.085 H 
ATOM     64  H15 R4C d   1      -6.534  26.760   1.253  0.00  0.00     0.085 H 
ENDBRANCH  51  54
ENDBRANCH  48  51
ENDBRANCH   1  48
TORSDOF 13
