REMARK  8 active torsions:
REMARK  status: ('A' for Active; 'I' for Inactive)
REMARK    1  A    between atoms: C4_4  and  N5_5 
REMARK    2  A    between atoms: N5_5  and  C6_6 
REMARK    3  A    between atoms: C6_6  and  C7_7 
REMARK    4  A    between atoms: C12_12  and  N13_13 
REMARK    5  A    between atoms: N13_13  and  S14_14 
REMARK    6  A    between atoms: N13_13  and  C18_18 
REMARK    7  A    between atoms: S14_14  and  C17_17 
REMARK    8  A    between atoms: C22_22  and  C24_24 
ROOT
ATOM      1  N1  10N d   1      23.630  -6.707 -39.417  0.00  0.00    -0.241 NA
ATOM      2  C2  10N d   1      22.843  -5.686 -39.258  0.00  0.00     0.027 A 
ATOM      3  C3  10N d   1      21.977  -5.272 -40.267  0.00  0.00     0.089 A 
ATOM      4  C4  10N d   1      21.947  -5.966 -41.493  0.00  0.00     0.065 A 
ATOM      5  C19 10N d   1      22.823  -7.065 -41.624  0.00  0.00     0.040 A 
ATOM      6  C20 10N d   1      23.657  -7.399 -40.540  0.00  0.00     0.140 A 
ATOM      7  N21 10N d   1      24.397  -8.479 -40.898  0.00  0.00    -0.340 N 
ATOM      8  C22 10N d   1      24.089  -8.867 -42.167  0.00  0.00     0.045 A 
ATOM      9  C23 10N d   1      23.132  -8.044 -42.668  0.00  0.00    -0.041 A 
ATOM     10  C30 10N d   1      21.134  -4.148 -40.025  0.00  0.00     0.103 C 
ATOM     11  N31 10N d   1      20.472  -3.258 -39.825  0.00  0.00    -0.191 NA
ATOM     12  H1  10N d   1      22.861  -5.144 -38.319  0.00  0.00     0.117 H 
ATOM     13  H14 10N d   1      25.093  -8.940 -40.295  0.00  0.00     0.167 HD
ATOM     14  H15 10N d   1      22.681  -8.101 -43.657  0.00  0.00     0.088 H 
ENDROOT
BRANCH   4  15
ATOM     15  N5  10N d   1      21.077  -5.525 -42.479  0.00  0.00    -0.383 N 
ATOM     16  H2  10N d   1      20.719  -4.559 -42.489  0.00  0.00     0.160 HD
BRANCH  15  17
ATOM     17  C6  10N d   1      20.690  -6.495 -43.506  0.00  0.00     0.020 C 
ATOM     18  H3  10N d   1      20.233  -7.375 -43.031  0.00  0.00     0.071 H 
ATOM     19  H4  10N d   1      21.578  -6.806 -44.076  0.00  0.00     0.071 H 
BRANCH  17  20
ATOM     20  C7  10N d   1      19.691  -5.840 -44.435  0.00  0.00     0.006 A 
ATOM     21  C8  10N d   1      20.147  -5.074 -45.490  0.00  0.00    -0.070 A 
ATOM     22  C9  10N d   1      19.224  -4.477 -46.333  0.00  0.00    -0.065 A 
ATOM     23  H5  10N d   1      21.210  -4.942 -45.656  0.00  0.00     0.084 H 
ATOM     24  C10 10N d   1      17.882  -4.663 -46.101  0.00  0.00     0.004 A 
ATOM     25  H6  10N d   1      19.557  -3.869 -47.167  0.00  0.00     0.085 H 
ATOM     26  N11 10N d   1      17.470  -5.394 -45.090  0.00  0.00    -0.242 NA
ATOM     27  H7  10N d   1      17.155  -4.201 -46.760  0.00  0.00     0.114 H 
ATOM     28  C12 10N d   1      18.313  -5.976 -44.261  0.00  0.00     0.146 A 
BRANCH  28  29
ATOM     29  N13 10N d   1      17.772  -6.734 -43.231  0.00  0.00    -0.264 N 
BRANCH  29  30
ATOM     30  S14 10N d   1      17.318  -6.031 -41.805  0.00  0.00     0.230 S 
ATOM     31  O15 10N d   1      18.267  -5.031 -41.576  0.00  0.00    -0.206 OA
ATOM     32  O16 10N d   1      15.974  -5.684 -42.025  0.00  0.00    -0.206 OA
BRANCH  30  33
ATOM     33  C17 10N d   1      17.429  -7.353 -40.582  0.00  0.00     0.033 C 
ATOM     34  H8  10N d   1      17.140  -6.964 -39.594  0.00  0.00     0.051 H 
ATOM     35  H9  10N d   1      18.462  -7.728 -40.540  0.00  0.00     0.051 H 
ATOM     36  H10 10N d   1      16.752  -8.173 -40.866  0.00  0.00     0.051 H 
ENDBRANCH  30  33
ENDBRANCH  29  30
BRANCH  29  37
ATOM     37  C18 10N d   1      17.561  -8.162 -43.439  0.00  0.00    -0.002 C 
ATOM     38  H11 10N d   1      17.923  -8.444 -44.438  0.00  0.00     0.058 H 
ATOM     39  H12 10N d   1      16.488  -8.389 -43.360  0.00  0.00     0.058 H 
ATOM     40  H13 10N d   1      18.113  -8.729 -42.675  0.00  0.00     0.058 H 
ENDBRANCH  29  37
ENDBRANCH  28  29
ENDBRANCH  17  20
ENDBRANCH  15  17
ENDBRANCH   4  15
BRANCH   8  41
ATOM     41  C24 10N d   1      24.733 -10.016 -42.834  0.00  0.00    -0.009 A 
ATOM     42  C25 10N d   1      25.910 -10.545 -42.302  0.00  0.00    -0.071 A 
ATOM     43  C26 10N d   1      26.523 -11.617 -42.910  0.00  0.00    -0.082 A 
ATOM     44  H16 10N d   1      26.342 -10.111 -41.408  0.00  0.00     0.084 H 
ATOM     45  C27 10N d   1      25.968 -12.173 -44.043  0.00  0.00    -0.083 A 
ATOM     46  H17 10N d   1      27.440 -12.023 -42.499  0.00  0.00     0.083 H 
ATOM     47  C28 10N d   1      24.802 -11.657 -44.574  0.00  0.00    -0.082 A 
ATOM     48  H18 10N d   1      26.449 -13.019 -44.520  0.00  0.00     0.083 H 
ATOM     49  C29 10N d   1      24.180 -10.585 -43.977  0.00  0.00    -0.071 A 
ATOM     50  H19 10N d   1      24.375 -12.099 -45.467  0.00  0.00     0.083 H 
ATOM     51  H20 10N d   1      23.263 -10.185 -44.395  0.00  0.00     0.084 H 
ENDBRANCH   8  41
TORSDOF 8
