REMARK  2 active torsions:
REMARK  status: ('A' for Active; 'I' for Inactive)
REMARK    1  A    between atoms: C1_1  and  N4_4 
REMARK    2  A    between atoms: N4_4  and  C9_9 
ROOT
ATOM      1  N4  4GU d   1      11.962  27.631 -41.839  0.00  0.00    -0.338 N 
ATOM      2  H1  4GU d   1      12.052  28.275 -41.041  0.00  0.00     0.167 HD
ENDROOT
BRANCH   1   3
ATOM      3  C1  4GU d   1      13.088  26.881 -42.170  0.00  0.00     0.145 A 
ATOM      4  C2  4GU d   1      14.125  26.732 -41.225  0.00  0.00     0.076 A 
ATOM      5  C3  4GU d   1      15.263  25.974 -41.599  0.00  0.00     0.160 A 
ATOM      6  C11 4GU d   1      14.324  27.182 -39.906  0.00  0.00     0.039 A 
ATOM      7  N7  4GU d   1      15.332  25.433 -42.807  0.00  0.00    -0.222 NA
ATOM      8  N8  4GU d   1      16.100  25.981 -40.537  0.00  0.00    -0.261 N 
ATOM      9  C10 4GU d   1      14.357  25.593 -43.667  0.00  0.00     0.091 A 
ATOM     10  N6  4GU d   1      13.277  26.311 -43.374  0.00  0.00    -0.223 NA
ATOM     11  H3  4GU d   1      14.433  25.128 -44.643  0.00  0.00     0.146 H 
ATOM     12  N5  4GU d   1      15.480  26.719 -39.510  0.00  0.00    -0.184 NA
ATOM     13  H2  4GU d   1      17.024  25.528 -40.488  0.00  0.00     0.191 HD
ATOM     14  H4  4GU d   1      13.642  27.800 -39.324  0.00  0.00     0.119 H 
ENDBRANCH   1   3
BRANCH   1  15
ATOM     15  C9  4GU d   1      10.711  27.596 -42.488  0.00  0.00     0.072 A 
ATOM     16  C12 4GU d   1       9.761  28.570 -42.136  0.00  0.00     0.143 A 
ATOM     17  F13 4GU d   1      10.069  29.512 -41.227  0.00  0.00    -0.204 F 
ATOM     18  C15 4GU d   1       8.487  28.563 -42.706  0.00  0.00    -0.043 A 
ATOM     19  C17 4GU d   1       8.150  27.590 -43.653  0.00  0.00    -0.080 A 
ATOM     20  H6  4GU d   1       7.759  29.311 -42.415  0.00  0.00     0.088 H 
ATOM     21  C16 4GU d   1       9.085  26.618 -44.014  0.00  0.00    -0.081 A 
ATOM     22  H8  4GU d   1       7.165  27.591 -44.106  0.00  0.00     0.083 H 
ATOM     23  C14 4GU d   1      10.355  26.614 -43.435  0.00  0.00    -0.054 A 
ATOM     24  H7  4GU d   1       8.823  25.863 -44.747  0.00  0.00     0.083 H 
ATOM     25  H5  4GU d   1      11.072  25.851 -43.715  0.00  0.00     0.087 H 
ENDBRANCH   1  15
TORSDOF 2
