REMARK  11 active torsions:
REMARK  status: ('A' for Active; 'I' for Inactive)
REMARK    1  A    between atoms: O10_1  and  C23_2 
REMARK    2  A    between atoms: C22_3  and  O9_4 
REMARK    3  A    between atoms: C24_5  and  O11_6 
REMARK    4  A    between atoms: C25_7  and  C26_8 
REMARK    5  A    between atoms: C21_10  and  O7_11 
REMARK    6  A    between atoms: O7_11  and  C3_12 
REMARK    7  A    between atoms: C2_15  and  C11_16 
REMARK    8  A    between atoms: C13_18  and  O5_19 
REMARK    9  A    between atoms: C14_20  and  O6_21 
REMARK   10  A    between atoms: C7_27  and  O4_28 
REMARK   11  A    between atoms: C5_30  and  O3_32 
ROOT
ATOM      1  C3  QCT d   1      34.464   4.473   8.947  0.00  0.00     0.157 A 
ATOM      2  C4  QCT d   1      35.849   4.331   8.930  0.00  0.00     0.223 A 
ATOM      3  O2  QCT d   1      36.499   4.300   7.856  0.00  0.00    -0.284 OA
ATOM      4  C2  QCT d   1      33.794   4.507  10.178  0.00  0.00     0.124 A 
ATOM      5  O1  QCT d   1      34.424   4.442  11.255  0.00  0.00    -0.306 OA
ATOM      6  C9  QCT d   1      35.652   4.297  11.326  0.00  0.00     0.096 A 
ATOM      7  C8  QCT d   1      36.221   4.210  12.597  0.00  0.00    -0.017 A 
ATOM      8  C7  QCT d   1      37.595   4.070  12.722  0.00  0.00     0.071 A 
ATOM      9  C6  QCT d   1      38.418   4.011  11.591  0.00  0.00    -0.018 A 
ATOM     10  C5  QCT d   1      37.839   4.106  10.321  0.00  0.00     0.085 A 
ATOM     11  C10 QCT d   1      36.462   4.242  10.186  0.00  0.00     0.084 A 
ATOM     12  H17 QCT d   1      35.594   4.252  13.480  0.00  0.00     0.092 H 
ATOM     13  H19 QCT d   1      39.490   3.893  11.698  0.00  0.00     0.092 H 
ENDROOT
BRANCH   1  14
ATOM     14  O7  QCT d   1      33.717   4.554   7.733  0.00  0.00    -0.311 OA
BRANCH  14  15
ATOM     15  C21 QCT d   1      34.165   5.521   6.787  0.00  0.00     0.165 C 
ATOM     16  C22 QCT d   1      33.131   5.414   5.638  0.00  0.00     0.110 C 
ATOM     17  C23 QCT d   1      31.849   6.221   5.915  0.00  0.00     0.092 C 
ATOM     18  H3  QCT d   1      32.856   4.355   5.521  0.00  0.00     0.094 H 
ATOM     19  C24 QCT d   1      32.148   7.617   6.497  0.00  0.00     0.087 C 
ATOM     20  H2  QCT d   1      31.213   5.666   6.620  0.00  0.00     0.091 H 
ATOM     21  C25 QCT d   1      32.998   7.450   7.767  0.00  0.00     0.065 C 
ATOM     22  H5  QCT d   1      32.699   8.213   5.755  0.00  0.00     0.091 H 
ATOM     23  O8  QCT d   1      34.197   6.835   7.336  0.00  0.00    -0.351 OA
ATOM     24  H7  QCT d   1      32.477   6.795   8.481  0.00  0.00     0.086 H 
ATOM     25  H11 QCT d   1      35.171   5.263   6.425  0.00  0.00     0.134 H 
BRANCH  16  26
ATOM     26  O9  QCT d   1      33.713   5.882   4.416  0.00  0.00    -0.388 OA
ATOM     27  H4  QCT d   1      33.095   5.761   3.705  0.00  0.00     0.210 HD
ENDBRANCH  16  26
BRANCH  17  28
ATOM     28  O10 QCT d   1      31.170   6.380   4.654  0.00  0.00    -0.390 OA
ATOM     29  H1  QCT d   1      31.735   6.844   4.048  0.00  0.00     0.210 HD
ENDBRANCH  17  28
BRANCH  19  30
ATOM     30  O11 QCT d   1      30.939   8.287   6.841  0.00  0.00    -0.390 OA
ATOM     31  H6  QCT d   1      30.469   7.777   7.490  0.00  0.00     0.210 HD
ENDBRANCH  19  30
BRANCH  21  32
ATOM     32  C26 QCT d   1      33.275   8.801   8.450  0.00  0.00    -0.050 C 
ATOM     33  H8  QCT d   1      33.884   8.638   9.351  0.00  0.00     0.031 H 
ATOM     34  H9  QCT d   1      32.322   9.272   8.732  0.00  0.00     0.031 H 
ATOM     35  H10 QCT d   1      33.818   9.459   7.755  0.00  0.00     0.031 H 
ENDBRANCH  21  32
ENDBRANCH  14  15
ENDBRANCH   1  14
BRANCH   4  36
ATOM     36  C11 QCT d   1      32.278   4.611  10.307  0.00  0.00     0.004 A 
ATOM     37  C12 QCT d   1      31.420   4.262   9.253  0.00  0.00    -0.035 A 
ATOM     38  C13 QCT d   1      30.038   4.343   9.442  0.00  0.00     0.099 A 
ATOM     39  H12 QCT d   1      31.825   3.933   8.303  0.00  0.00     0.089 H 
ATOM     40  C14 QCT d   1      29.497   4.705  10.672  0.00  0.00     0.098 A 
ATOM     41  C15 QCT d   1      30.349   5.013  11.744  0.00  0.00    -0.047 A 
ATOM     42  C16 QCT d   1      31.736   4.949  11.562  0.00  0.00    -0.068 A 
ATOM     43  H15 QCT d   1      29.937   5.298  12.705  0.00  0.00     0.087 H 
ATOM     44  H16 QCT d   1      32.398   5.161  12.394  0.00  0.00     0.085 H 
BRANCH  38  45
ATOM     45  O5  QCT d   1      29.139   4.037   8.381  0.00  0.00    -0.358 OA
ATOM     46  H13 QCT d   1      28.245   4.144   8.684  0.00  0.00     0.217 HD
ENDBRANCH  38  45
BRANCH  40  47
ATOM     47  O6  QCT d   1      28.110   4.753  10.811  0.00  0.00    -0.358 OA
ATOM     48  H14 QCT d   1      27.745   3.894  10.632  0.00  0.00     0.217 HD
ENDBRANCH  40  47
ENDBRANCH   4  36
BRANCH  10  49
ATOM     49  O3  QCT d   1      38.676   4.046   9.180  0.00  0.00    -0.360 OA
ATOM     50  H20 QCT d   1      38.578   4.845   8.675  0.00  0.00     0.217 HD
ENDBRANCH  10  49
BRANCH   8  51
ATOM     51  O4  QCT d   1      38.165   3.990  14.012  0.00  0.00    -0.361 OA
ATOM     52  H18 QCT d   1      39.107   3.897  13.935  0.00  0.00     0.217 HD
ENDBRANCH   8  51
TORSDOF 11
