REMARK  10 active torsions:
REMARK  status: ('A' for Active; 'I' for Inactive)
REMARK    1  A    between atoms: C1_1  and  C2_4 
REMARK    2  A    between atoms: C4_6  and  N4_20 
REMARK    3  A    between atoms: C5_7  and  N5_8 
REMARK       I    between atoms: N5_8  and  C10_9 
REMARK    4  A    between atoms: C10_9  and  C11_11 
REMARK    5  A    between atoms: C6_12  and  O7_14 
REMARK    6  A    between atoms: O7_14  and  C8_15 
REMARK    7  A    between atoms: C8_15  and  C9_16 
REMARK    8  A    between atoms: C8_15  and  C81_17 
REMARK    9  A    between atoms: C9_16  and  C91_19 
REMARK   10  A    between atoms: C81_17  and  C82_18 
ROOT
ATOM      1  C2  G39 d   1      24.893  -7.106  13.172  0.00  0.00     0.019 C 
ATOM      2  C3  G39 d   1      26.416  -7.231  13.084  0.00  0.00    -0.006 C 
ATOM      3  C4  G39 d   1      26.892  -8.033  14.325  0.00  0.00     0.126 C 
ATOM      4  C5  G39 d   1      26.120  -9.326  14.394  0.00  0.00     0.068 C 
ATOM      5  C6  G39 d   1      24.683  -9.024  14.739  0.00  0.00     0.077 C 
ATOM      6  C7  G39 d   1      24.124  -8.054  13.726  0.00  0.00    -0.061 C 
ATOM      7  H1  G39 d   1      26.875  -6.231  13.084  0.00  0.00     0.043 H 
ATOM      8  H2  G39 d   1      26.696  -7.763  12.163  0.00  0.00     0.043 H 
ATOM      9  H3  G39 d   1      26.764  -7.430  15.236  0.00  0.00     0.087 H 
ATOM     10  H4  G39 d   1      26.148  -9.800  13.402  0.00  0.00     0.080 H 
ATOM     11  H9  G39 d   1      24.588  -8.629  15.761  0.00  0.00     0.093 H 
ATOM     12  H10 G39 d   1      23.076  -8.126  13.440  0.00  0.00     0.082 H 
ENDROOT
BRANCH   5  13
ATOM     13  O7  G39 d   1      23.978 -10.269  14.577  0.00  0.00    -0.375 OA
BRANCH  13  14
ATOM     14  C8  G39 d   1      22.918 -10.504  15.545  0.00  0.00     0.039 C 
ATOM     15  H11 G39 d   1      23.320 -10.450  16.567  0.00  0.00     0.083 H 
BRANCH  14  16
ATOM     16  C9  G39 d   1      21.835  -9.450  15.329  0.00  0.00    -0.044 C 
ATOM     17  H12 G39 d   1      21.101  -9.839  14.607  0.00  0.00     0.036 H 
ATOM     18  H13 G39 d   1      22.302  -8.540  14.923  0.00  0.00     0.036 H 
BRANCH  16  19
ATOM     19  C91 G39 d   1      21.114  -9.096  16.615  0.00  0.00    -0.074 C 
ATOM     20  H19 G39 d   1      20.346  -8.336  16.408  0.00  0.00     0.027 H 
ATOM     21  H20 G39 d   1      21.837  -8.698  17.343  0.00  0.00     0.027 H 
ATOM     22  H21 G39 d   1      20.636  -9.997  17.027  0.00  0.00     0.027 H 
ENDBRANCH  16  19
ENDBRANCH  14  16
BRANCH  14  23
ATOM     23  C81 G39 d   1      22.258 -11.871  15.300  0.00  0.00    -0.044 C 
ATOM     24  H14 G39 d   1      21.684 -11.830  14.363  0.00  0.00     0.036 H 
ATOM     25  H15 G39 d   1      21.580 -12.098  16.136  0.00  0.00     0.036 H 
BRANCH  23  26
ATOM     26  C82 G39 d   1      23.302 -12.971  15.195  0.00  0.00    -0.074 C 
ATOM     27  H16 G39 d   1      22.802 -13.935  15.020  0.00  0.00     0.027 H 
ATOM     28  H17 G39 d   1      23.878 -13.021  16.131  0.00  0.00     0.027 H 
ATOM     29  H18 G39 d   1      23.981 -12.753  14.358  0.00  0.00     0.027 H 
ENDBRANCH  23  26
ENDBRANCH  14  23
ENDBRANCH  13  14
ENDBRANCH   5  13
BRANCH   4  30
ATOM     30  N5  G39 d   1      26.709 -10.254  15.354  0.00  0.00    -0.352 N 
ATOM     31  C10 G39 d   1      26.919 -11.521  14.969  0.00  0.00     0.214 C 
ATOM     32  O10 G39 d   1      26.557 -11.955  13.875  0.00  0.00    -0.274 OA
ATOM     33  H5  G39 d   1      26.950  -9.952  16.276  0.00  0.00     0.163 HD
BRANCH  31  34
ATOM     34  C11 G39 d   1      27.590 -12.410  15.929  0.00  0.00    -0.003 C 
ATOM     35  H6  G39 d   1      27.698 -13.412  15.488  0.00  0.00     0.040 H 
ATOM     36  H7  G39 d   1      26.990 -12.477  16.848  0.00  0.00     0.040 H 
ATOM     37  H8  G39 d   1      28.585 -12.006  16.169  0.00  0.00     0.040 H 
ENDBRANCH  31  34
ENDBRANCH   4  30
BRANCH   3  38
ATOM     38  N4  G39 d   1      28.252  -8.482  14.185  0.00  0.00    -0.073 N 
ATOM     39  H22 G39 d   1      28.865  -7.684  14.129  0.00  0.00     0.274 HD
ATOM     40  H23 G39 d   1      28.339  -9.033  13.345  0.00  0.00     0.274 HD
ATOM     41  H24 G39 d   1      28.504  -9.044  14.983  0.00  0.00     0.274 HD
ENDBRANCH   3  38
BRANCH   1  42
ATOM     42  C1  G39 d   1      24.268  -5.885  12.727  0.00  0.00     0.205 C 
ATOM     43  O1A G39 d   1      23.001  -5.693  12.797  0.00  0.00    -0.644 OA
ATOM     44  O1B G39 d   1      25.105  -5.054  12.345  0.00  0.00    -0.644 OA
ENDBRANCH   1  42
TORSDOF 10
