REMARK  10 active torsions:
REMARK  status: ('A' for Active; 'I' for Inactive)
REMARK    1  A    between atoms: C1_1  and  C2_4 
REMARK    2  A    between atoms: C4_6  and  N4_20 
REMARK    3  A    between atoms: C5_7  and  N5_8 
REMARK       I    between atoms: N5_8  and  C10_9 
REMARK    4  A    between atoms: C10_9  and  C11_11 
REMARK    5  A    between atoms: C6_12  and  O7_14 
REMARK    6  A    between atoms: O7_14  and  C8_15 
REMARK    7  A    between atoms: C8_15  and  C9_16 
REMARK    8  A    between atoms: C8_15  and  C81_17 
REMARK    9  A    between atoms: C9_16  and  C91_19 
REMARK   10  A    between atoms: C81_17  and  C82_18 
ROOT
ATOM      1  C2  G39 d   1      12.039  24.812  16.253  0.00  0.00     0.035 C 
ATOM      2  C3  G39 d   1      12.083  26.324  15.936  0.00  0.00    -0.024 C 
ATOM      3  C4  G39 d   1      13.473  26.689  15.289  0.00  0.00     0.122 C 
ATOM      4  C5  G39 d   1      13.626  25.760  14.096  0.00  0.00     0.064 C 
ATOM      5  C6  G39 d   1      13.803  24.327  14.573  0.00  0.00     0.061 C 
ATOM      6  C7  G39 d   1      12.595  23.930  15.409  0.00  0.00    -0.026 C 
ATOM      7  H1  G39 d   1      11.073  24.729  15.733  0.00  0.00     0.056 H 
ATOM      8  H2  G39 d   1      11.950  26.897  16.866  0.00  0.00     0.037 H 
ATOM      9  H3  G39 d   1      11.275  26.574  15.233  0.00  0.00     0.037 H 
ATOM     10  H4  G39 d   1      14.277  26.536  16.024  0.00  0.00     0.087 H 
ATOM     11  H5  G39 d   1      12.683  25.781  13.530  0.00  0.00     0.079 H 
ATOM     12  H10 G39 d   1      14.746  24.214  15.127  0.00  0.00     0.086 H 
ATOM     13  H11 G39 d   1      11.807  23.627  14.703  0.00  0.00     0.038 H 
ATOM     14  H12 G39 d   1      12.899  23.062  16.013  0.00  0.00     0.038 H 
ENDROOT
BRANCH   5  15
ATOM     15  O7  G39 d   1      13.727  23.445  13.474  0.00  0.00    -0.379 OA
BRANCH  15  16
ATOM     16  C8  G39 d   1      14.901  22.619  13.379  0.00  0.00     0.038 C 
ATOM     17  H13 G39 d   1      15.822  23.202  13.529  0.00  0.00     0.083 H 
BRANCH  16  18
ATOM     18  C9  G39 d   1      14.700  21.576  14.494  0.00  0.00    -0.044 C 
ATOM     19  H14 G39 d   1      13.752  21.050  14.309  0.00  0.00     0.036 H 
ATOM     20  H15 G39 d   1      14.645  22.105  15.457  0.00  0.00     0.036 H 
BRANCH  18  21
ATOM     21  C91 G39 d   1      15.788  20.563  14.578  0.00  0.00    -0.074 C 
ATOM     22  H21 G39 d   1      15.571  19.859  15.395  0.00  0.00     0.027 H 
ATOM     23  H22 G39 d   1      16.745  21.068  14.775  0.00  0.00     0.027 H 
ATOM     24  H23 G39 d   1      15.852  20.014  13.627  0.00  0.00     0.027 H 
ENDBRANCH  18  21
ENDBRANCH  16  18
BRANCH  16  25
ATOM     25  C81 G39 d   1      14.926  21.923  12.022  0.00  0.00    -0.044 C 
ATOM     26  H16 G39 d   1      14.045  21.269  11.938  0.00  0.00     0.036 H 
ATOM     27  H17 G39 d   1      15.841  21.317  11.946  0.00  0.00     0.036 H 
BRANCH  25  28
ATOM     28  C82 G39 d   1      14.905  22.918  10.903  0.00  0.00    -0.074 C 
ATOM     29  H18 G39 d   1      14.924  22.387   9.940  0.00  0.00     0.027 H 
ATOM     30  H19 G39 d   1      15.786  23.573  10.978  0.00  0.00     0.027 H 
ATOM     31  H20 G39 d   1      13.990  23.525  10.969  0.00  0.00     0.027 H 
ENDBRANCH  25  28
ENDBRANCH  16  25
ENDBRANCH  15  16
ENDBRANCH   5  15
BRANCH   4  32
ATOM     32  N5  G39 d   1      14.649  26.292  13.211  0.00  0.00    -0.352 N 
ATOM     33  C10 G39 d   1      14.388  26.401  11.931  0.00  0.00     0.214 C 
ATOM     34  O10 G39 d   1      13.331  25.997  11.379  0.00  0.00    -0.274 OA
ATOM     35  H6  G39 d   1      15.539  26.571  13.573  0.00  0.00     0.163 HD
BRANCH  33  36
ATOM     36  C11 G39 d   1      15.521  26.896  11.177  0.00  0.00    -0.003 C 
ATOM     37  H7  G39 d   1      15.250  26.968  10.113  0.00  0.00     0.040 H 
ATOM     38  H8  G39 d   1      16.369  26.205  11.293  0.00  0.00     0.040 H 
ATOM     39  H9  G39 d   1      15.805  27.891  11.552  0.00  0.00     0.040 H 
ENDBRANCH  33  36
ENDBRANCH   4  32
BRANCH   3  40
ATOM     40  N4  G39 d   1      13.545  28.041  14.757  0.00  0.00    -0.073 N 
ATOM     41  H24 G39 d   1      13.449  28.704  15.510  0.00  0.00     0.274 HD
ATOM     42  H25 G39 d   1      12.802  28.180  14.090  0.00  0.00     0.274 HD
ATOM     43  H26 G39 d   1      14.434  28.176  14.302  0.00  0.00     0.274 HD
ENDBRANCH   3  40
BRANCH   1  44
ATOM     44  C1  G39 d   1      11.433  24.291  17.495  0.00  0.00     0.177 C 
ATOM     45  O1A G39 d   1      11.510  23.035  17.809  0.00  0.00    -0.648 OA
ATOM     46  O1B G39 d   1      10.833  25.139  18.210  0.00  0.00    -0.648 OA
ENDBRANCH   1  44
TORSDOF 10
