REMARK  24 active torsions:
REMARK  status: ('A' for Active; 'I' for Inactive)
REMARK    1  A    between atoms: C2_2  and  C1_1 
REMARK    2  A    between atoms: O3_43  and  C2_2 
REMARK    3  A    between atoms: C4_4  and  O4_15 
REMARK    4  A    between atoms: C5_5  and  N5_12 
REMARK    5  A    between atoms: C6_6  and  C7_7 
REMARK    6  A    between atoms: C7_7  and  C8_8 
REMARK    7  A    between atoms: C7_7  and  O7_17 
REMARK    8  A    between atoms: C8_8  and  C9_9 
REMARK    9  A    between atoms: C8_8  and  O8_18 
REMARK   10  A    between atoms: C9_9  and  O9_19 
REMARK   11  A    between atoms: C10_10  and  C11_11 
REMARK       I    between atoms: N5_12  and  C10_10 
REMARK   12  A    between atoms: C1_21  and  O1_30 
REMARK   13  A    between atoms: C2_22  and  N2_29 
REMARK   14  A    between atoms: C3_23  and  O3_31 
REMARK   15  A    between atoms: O4_32  and  C4_24 
REMARK   16  A    between atoms: C5_25  and  C6_26 
REMARK   17  A    between atoms: C6_26  and  O6_34 
REMARK   18  A    between atoms: C7_27  and  C8_28 
REMARK       I    between atoms: N2_29  and  C7_27 
REMARK   19  A    between atoms: C1_36  and  O4_32 
REMARK   20  A    between atoms: C2_37  and  O2_42 
REMARK   21  A    between atoms: C3_38  and  O3_43 
REMARK   22  A    between atoms: C4_39  and  O4_44 
REMARK   23  A    between atoms: C5_40  and  C6_41 
REMARK   24  A    between atoms: C6_41  and  O6_46 
ROOT
ATOM      1  H32 SIA d   1       5.754  86.996  31.178  0.00  0.00     0.133 H 
ATOM      2  H33 SIA d   1       7.075  84.751  32.748  0.00  0.00     0.094 H 
ATOM      3  H34 SIA d   1       8.276  86.002  30.263  0.00  0.00     0.091 H 
ATOM      4  H35 SIA d   1       7.585  84.156  28.910  0.00  0.00     0.091 H 
ATOM      5  H36 SIA d   1       5.869  85.906  29.152  0.00  0.00     0.090 H 
ATOM      6  C1  GAL d   1       5.701  86.042  31.722  0.00  0.00     0.159 C 
ATOM      7  C2  GAL d   1       7.135  85.594  32.044  0.00  0.00     0.110 C 
ATOM      8  C3  GAL d   1       7.920  85.117  30.811  0.00  0.00     0.099 C 
ATOM      9  C4  GAL d   1       7.061  84.266  29.871  0.00  0.00     0.090 C 
ATOM     10  C5  GAL d   1       5.703  84.923  29.617  0.00  0.00     0.089 C 
ATOM     11  O5  GAL d   1       5.050  85.110  30.866  0.00  0.00    -0.348 OA
ENDROOT
BRANCH   8  12
ATOM     12  O3  GAL d   1       9.037  84.333  31.211  0.00  0.00    -0.336 OA
BRANCH  12  13
ATOM     13  C2  SIA d   1      10.325  84.893  30.849  0.00  0.00     0.259 C 
ATOM     14  C3  SIA d   1      10.991  83.501  30.876  0.00  0.00     0.024 C 
ATOM     15  C4  SIA d   1      11.946  83.195  32.025  0.00  0.00     0.063 C 
ATOM     16  H1  SIA d   1      11.557  83.389  29.939  0.00  0.00     0.045 H 
ATOM     17  H2  SIA d   1      10.186  82.752  30.909  0.00  0.00     0.045 H 
ATOM     18  C5  SIA d   1      11.836  84.176  33.179  0.00  0.00     0.064 C 
ATOM     19  H3  SIA d   1      12.976  83.222  31.639  0.00  0.00     0.086 H 
ATOM     20  C6  SIA d   1      11.911  85.598  32.647  0.00  0.00     0.091 C 
ATOM     21  H4  SIA d   1      10.860  84.046  33.670  0.00  0.00     0.080 H 
ATOM     22  O6  SIA d   1      10.755  85.838  31.844  0.00  0.00    -0.336 OA
ATOM     23  H5  SIA d   1      12.820  85.709  32.038  0.00  0.00     0.090 H 
BRANCH  13  24
ATOM     24  C1  SIA d   1      10.451  85.499  29.457  0.00  0.00     0.239 C 
ATOM     25  O1A SIA d   1      10.309  84.764  28.454  0.00  0.00    -0.644 OA
ATOM     26  O1B SIA d   1      10.692  86.723  29.349  0.00  0.00    -0.644 OA
ENDBRANCH  13  24
BRANCH  15  27
ATOM     27  O4  SIA d   1      11.658  81.889  32.524  0.00  0.00    -0.393 OA
ATOM     28  H14 SIA d   1      11.722  81.259  31.816  0.00  0.00     0.210 HD
ENDBRANCH  15  27
BRANCH  18  29
ATOM     29  N5  SIA d   1      12.876  83.865  34.141  0.00  0.00    -0.352 N 
ATOM     30  C10 SIA d   1      12.549  83.450  35.362  0.00  0.00     0.214 C 
ATOM     31  O10 SIA d   1      11.391  83.328  35.721  0.00  0.00    -0.274 OA
ATOM     32  H13 SIA d   1      13.838  83.963  33.887  0.00  0.00     0.163 HD
BRANCH  30  33
ATOM     33  C11 SIA d   1      13.692  83.138  36.280  0.00  0.00    -0.003 C 
ATOM     34  H10 SIA d   1      13.301  82.807  37.253  0.00  0.00     0.040 H 
ATOM     35  H11 SIA d   1      14.307  84.039  36.419  0.00  0.00     0.040 H 
ATOM     36  H12 SIA d   1      14.307  82.338  35.841  0.00  0.00     0.040 H 
ENDBRANCH  30  33
ENDBRANCH  18  29
BRANCH  20  37
ATOM     37  C7  SIA d   1      11.932  86.631  33.780  0.00  0.00     0.089 C 
ATOM     38  H6  SIA d   1      12.667  86.299  34.528  0.00  0.00     0.091 H 
BRANCH  37  39
ATOM     39  C8  SIA d   1      12.348  88.024  33.296  0.00  0.00     0.083 C 
ATOM     40  H7  SIA d   1      11.751  88.270  32.406  0.00  0.00     0.090 H 
BRANCH  39  41
ATOM     41  C9  SIA d   1      12.114  89.113  34.346  0.00  0.00     0.043 C 
ATOM     42  H8  SIA d   1      11.035  89.206  34.536  0.00  0.00     0.078 H 
ATOM     43  H9  SIA d   1      12.504  90.070  33.968  0.00  0.00     0.078 H 
BRANCH  41  44
ATOM     44  O9  SIA d   1      12.782  88.782  35.571  0.00  0.00    -0.398 OA
ATOM     45  H17 SIA d   1      13.715  88.703  35.410  0.00  0.00     0.209 HD
ENDBRANCH  41  44
ENDBRANCH  39  41
BRANCH  39  46
ATOM     46  O8  SIA d   1      13.734  88.009  32.936  0.00  0.00    -0.391 OA
ATOM     47  H16 SIA d   1      13.976  88.855  32.579  0.00  0.00     0.210 HD
ENDBRANCH  39  46
ENDBRANCH  37  39
BRANCH  37  48
ATOM     48  O7  SIA d   1      10.641  86.695  34.409  0.00  0.00    -0.390 OA
ATOM     49  H15 SIA d   1      10.001  87.013  33.784  0.00  0.00     0.210 HD
ENDBRANCH  37  48
ENDBRANCH  20  37
ENDBRANCH  12  13
ENDBRANCH   8  12
BRANCH   7  50
ATOM     50  O2  GAL d   1       7.821  86.656  32.672  0.00  0.00    -0.388 OA
ATOM     51  H39 SIA d   1       8.681  86.359  32.944  0.00  0.00     0.210 HD
ENDBRANCH   7  50
BRANCH   9  52
ATOM     52  O4  GAL d   1       6.880  82.988  30.449  0.00  0.00    -0.390 OA
ATOM     53  H40 SIA d   1       6.417  83.077  31.273  0.00  0.00     0.210 HD
ENDBRANCH   9  52
BRANCH   6  54
ATOM     54  O4  NAG d   1       5.007  86.289  32.972  0.00  0.00    -0.348 OA
BRANCH  54  55
ATOM     55  C4  NAG d   1       3.701  86.826  32.795  0.00  0.00     0.095 C 
ATOM     56  C3  NAG d   1       2.687  85.839  33.412  0.00  0.00     0.087 C 
ATOM     57  C2  NAG d   1       1.340  86.484  33.758  0.00  0.00     0.086 C 
ATOM     58  H20 SIA d   1       3.120  85.454  34.347  0.00  0.00     0.090 H 
ATOM     59  C1  NAG d   1       1.598  87.778  34.528  0.00  0.00     0.151 C 
ATOM     60  H19 SIA d   1       0.815  86.719  32.821  0.00  0.00     0.084 H 
ATOM     61  O5  NAG d   1       2.323  88.671  33.705  0.00  0.00    -0.349 OA
ATOM     62  H18 SIA d   1       2.183  87.553  35.432  0.00  0.00     0.132 H 
ATOM     63  C5  NAG d   1       3.639  88.255  33.377  0.00  0.00     0.089 C 
ATOM     64  H22 SIA d   1       4.255  88.275  34.288  0.00  0.00     0.090 H 
ATOM     65  H21 SIA d   1       3.490  86.897  31.718  0.00  0.00     0.091 H 
BRANCH  56  66
ATOM     66  O3  NAG d   1       2.498  84.752  32.526  0.00  0.00    -0.391 OA
ATOM     67  H30 SIA d   1       3.328  84.311  32.386  0.00  0.00     0.210 HD
ENDBRANCH  56  66
BRANCH  57  68
ATOM     68  N2  NAG d   1       0.486  85.611  34.559  0.00  0.00    -0.349 N 
ATOM     69  C7  NAG d   1      -0.709  85.137  34.172  0.00  0.00     0.214 C 
ATOM     70  O7  NAG d   1      -1.226  85.370  33.078  0.00  0.00    -0.274 OA
ATOM     71  H28 SIA d   1       0.817  85.346  35.465  0.00  0.00     0.163 HD
BRANCH  69  72
ATOM     72  C8  NAG d   1      -1.439  84.265  35.157  0.00  0.00    -0.003 C 
ATOM     73  H25 SIA d   1      -2.397  83.944  34.723  0.00  0.00     0.040 H 
ATOM     74  H26 SIA d   1      -1.627  84.832  36.080  0.00  0.00     0.040 H 
ATOM     75  H27 SIA d   1      -0.827  83.381  35.388  0.00  0.00     0.040 H 
ENDBRANCH  69  72
ENDBRANCH  57  68
BRANCH  59  76
ATOM     76  O1  NAG d   1       0.379  88.379  34.899  0.00  0.00    -0.369 OA
ATOM     77  H29 SIA d   1      -0.112  87.782  35.452  0.00  0.00     0.212 HD
ENDBRANCH  59  76
BRANCH  63  78
ATOM     78  C6  NAG d   1       4.175  89.282  32.385  0.00  0.00     0.043 C 
ATOM     79  H23 SIA d   1       3.659  90.242  32.537  0.00  0.00     0.078 H 
ATOM     80  H24 SIA d   1       3.996  88.928  31.359  0.00  0.00     0.078 H 
BRANCH  78  81
ATOM     81  O6  NAG d   1       5.558  89.457  32.585  0.00  0.00    -0.398 OA
ATOM     82  H31 SIA d   1       6.003  88.628  32.453  0.00  0.00     0.209 HD
ENDBRANCH  78  81
ENDBRANCH  63  78
ENDBRANCH  54  55
ENDBRANCH   6  54
BRANCH  10  83
ATOM     83  C6  GAL d   1       4.838  84.087  28.671  0.00  0.00     0.043 C 
ATOM     84  H37 SIA d   1       4.006  83.645  29.239  0.00  0.00     0.078 H 
ATOM     85  H38 SIA d   1       5.452  83.285  28.235  0.00  0.00     0.078 H 
BRANCH  83  86
ATOM     86  O6  GAL d   1       4.315  84.885  27.632  0.00  0.00    -0.398 OA
ATOM     87  H41 SIA d   1       3.783  84.347  27.058  0.00  0.00     0.209 HD
ENDBRANCH  83  86
ENDBRANCH  10  83
TORSDOF 24
