REMARK  17 active torsions:
REMARK  status: ('A' for Active; 'I' for Inactive)
REMARK    1  A    between atoms: C2_2  and  C1_1 
REMARK    2  A    between atoms: O6_32  and  C2_2 
REMARK    3  A    between atoms: C4_4  and  O4_15 
REMARK    4  A    between atoms: C5_5  and  N5_12 
REMARK    5  A    between atoms: C6_6  and  C7_7 
REMARK    6  A    between atoms: C7_7  and  C8_8 
REMARK    7  A    between atoms: C7_7  and  O7_17 
REMARK    8  A    between atoms: C8_8  and  C9_9 
REMARK    9  A    between atoms: C8_8  and  O8_18 
REMARK   10  A    between atoms: C9_9  and  O9_19 
REMARK   11  A    between atoms: C10_10  and  C11_11 
REMARK       I    between atoms: N5_12  and  C10_10 
REMARK   12  A    between atoms: C1_21  and  O1_27 
REMARK   13  A    between atoms: C2_22  and  O2_28 
REMARK   14  A    between atoms: C3_23  and  O3_29 
REMARK   15  A    between atoms: C4_24  and  O4_30 
REMARK   16  A    between atoms: C6_26  and  C5_25 
REMARK   17  A    between atoms: C6_26  and  O6_32 
ROOT
ATOM      1  C2  SIA d   1       9.893  84.728  31.098  0.00  0.00     0.258 C 
ATOM      2  C3  SIA d   1      10.562  83.336  31.091  0.00  0.00     0.024 C 
ATOM      3  C4  SIA d   1      11.418  82.923  32.288  0.00  0.00     0.063 C 
ATOM      4  C5  SIA d   1      11.288  83.875  33.456  0.00  0.00     0.064 C 
ATOM      5  C6  SIA d   1      11.456  85.306  32.960  0.00  0.00     0.091 C 
ATOM      6  O6  SIA d   1      10.384  85.667  32.085  0.00  0.00    -0.336 OA
ATOM      7  H1  SIA d   1      11.208  83.293  30.202  0.00  0.00     0.045 H 
ATOM      8  H2  SIA d   1       9.758  82.591  30.997  0.00  0.00     0.045 H 
ATOM      9  H3  SIA d   1      12.470  82.886  31.967  0.00  0.00     0.086 H 
ATOM     10  H4  SIA d   1      10.290  83.770  33.906  0.00  0.00     0.080 H 
ATOM     11  H5  SIA d   1      12.399  85.353  32.395  0.00  0.00     0.090 H 
ENDROOT
BRANCH   1  12
ATOM     12  C1  SIA d   1      10.052  85.328  29.704  0.00  0.00     0.239 C 
ATOM     13  O1A SIA d   1       9.902  84.570  28.717  0.00  0.00    -0.644 OA
ATOM     14  O1B SIA d   1      10.319  86.549  29.574  0.00  0.00    -0.644 OA
ENDBRANCH   1  12
BRANCH   1  15
ATOM     15  O6  GAL d   1       8.476  84.633  31.413  0.00  0.00    -0.344 OA
BRANCH  15  16
ATOM     16  C6  GAL d   1       7.317  84.858  30.595  0.00  0.00     0.050 C 
ATOM     17  H23 SIA d   1       7.318  85.904  30.256  0.00  0.00     0.078 H 
ATOM     18  H24 SIA d   1       7.361  84.190  29.722  0.00  0.00     0.078 H 
BRANCH  16  19
ATOM     19  C5  GAL d   1       6.012  84.584  31.369  0.00  0.00     0.089 C 
ATOM     20  C4  GAL d   1       4.739  84.881  30.537  0.00  0.00     0.090 C 
ATOM     21  C3  GAL d   1       4.004  86.164  30.963  0.00  0.00     0.092 C 
ATOM     22  H21 SIA d   1       4.048  84.041  30.705  0.00  0.00     0.091 H 
ATOM     23  C2  GAL d   1       3.821  86.291  32.485  0.00  0.00     0.110 C 
ATOM     24  H20 SIA d   1       3.005  86.146  30.502  0.00  0.00     0.091 H 
ATOM     25  C1  GAL d   1       4.788  85.371  33.251  0.00  0.00     0.156 C 
ATOM     26  H19 SIA d   1       4.063  87.327  32.764  0.00  0.00     0.094 H 
ATOM     27  O5  GAL d   1       6.031  85.338  32.571  0.00  0.00    -0.349 OA
ATOM     28  H18 SIA d   1       4.364  84.357  33.298  0.00  0.00     0.133 H 
ATOM     29  H22 SIA d   1       5.992  83.516  31.632  0.00  0.00     0.090 H 
BRANCH  20  30
ATOM     30  O4  GAL d   1       5.021  84.932  29.144  0.00  0.00    -0.390 OA
ATOM     31  H28 SIA d   1       5.656  85.618  28.976  0.00  0.00     0.210 HD
ENDBRANCH  20  30
BRANCH  21  32
ATOM     32  O3  GAL d   1       4.702  87.301  30.487  0.00  0.00    -0.390 OA
ATOM     33  H27 SIA d   1       4.750  87.267  29.539  0.00  0.00     0.210 HD
ENDBRANCH  21  32
BRANCH  23  34
ATOM     34  O2  GAL d   1       2.468  86.055  32.847  0.00  0.00    -0.388 OA
ATOM     35  H26 SIA d   1       2.374  86.138  33.789  0.00  0.00     0.210 HD
ENDBRANCH  23  34
BRANCH  25  36
ATOM     36  O1  GAL d   1       5.002  85.850  34.564  0.00  0.00    -0.369 OA
ATOM     37  H25 SIA d   1       5.603  85.270  35.017  0.00  0.00     0.212 HD
ENDBRANCH  25  36
ENDBRANCH  16  19
ENDBRANCH  15  16
ENDBRANCH   1  15
BRANCH   3  38
ATOM     38  O4  SIA d   1      11.017  81.639  32.766  0.00  0.00    -0.393 OA
ATOM     39  H14 SIA d   1      11.083  81.005  32.061  0.00  0.00     0.210 HD
ENDBRANCH   3  38
BRANCH   5  40
ATOM     40  C7  SIA d   1      11.532  86.350  34.107  0.00  0.00     0.089 C 
ATOM     41  H6  SIA d   1      12.150  85.944  34.921  0.00  0.00     0.091 H 
BRANCH  40  42
ATOM     42  C8  SIA d   1      12.207  87.630  33.598  0.00  0.00     0.083 C 
ATOM     43  H7  SIA d   1      11.896  87.788  32.555  0.00  0.00     0.090 H 
BRANCH  42  44
ATOM     44  C9  SIA d   1      11.874  88.897  34.386  0.00  0.00     0.043 C 
ATOM     45  H8  SIA d   1      10.783  89.040  34.394  0.00  0.00     0.078 H 
ATOM     46  H9  SIA d   1      12.354  89.760  33.900  0.00  0.00     0.078 H 
BRANCH  44  47
ATOM     47  O9  SIA d   1      12.342  88.798  35.731  0.00  0.00    -0.398 OA
ATOM     48  H17 SIA d   1      13.284  88.678  35.729  0.00  0.00     0.209 HD
ENDBRANCH  44  47
ENDBRANCH  42  44
BRANCH  42  49
ATOM     49  O8  SIA d   1      13.620  87.428  33.647  0.00  0.00    -0.391 OA
ATOM     50  H16 SIA d   1      13.894  87.331  34.551  0.00  0.00     0.210 HD
ENDBRANCH  42  49
ENDBRANCH  40  42
BRANCH  40  51
ATOM     51  O7  SIA d   1      10.200  86.556  34.614  0.00  0.00    -0.390 OA
ATOM     52  H15 SIA d   1       9.651  86.909  33.924  0.00  0.00     0.210 HD
ENDBRANCH  40  51
ENDBRANCH   5  40
BRANCH   4  53
ATOM     53  N5  SIA d   1      12.293  83.528  34.449  0.00  0.00    -0.352 N 
ATOM     54  C10 SIA d   1      11.998  82.999  35.641  0.00  0.00     0.214 C 
ATOM     55  O10 SIA d   1      10.853  82.753  36.017  0.00  0.00    -0.274 OA
ATOM     56  H13 SIA d   1      13.254  83.694  34.229  0.00  0.00     0.163 HD
BRANCH  54  57
ATOM     57  C11 SIA d   1      13.205  82.717  36.498  0.00  0.00    -0.003 C 
ATOM     58  H10 SIA d   1      12.881  82.286  37.457  0.00  0.00     0.040 H 
ATOM     59  H11 SIA d   1      13.750  83.654  36.683  0.00  0.00     0.040 H 
ATOM     60  H12 SIA d   1      13.864  82.005  35.980  0.00  0.00     0.040 H 
ENDBRANCH  54  57
ENDBRANCH   4  53
TORSDOF 17
