REMARK  6 active torsions:
REMARK  status: ('A' for Active; 'I' for Inactive)
REMARK    1  A    between atoms: C5_7  and  C1_1 
REMARK    2  A    between atoms: N1_3  and  C15_23 
REMARK    3  A    between atoms: N3_8  and  C11_15 
REMARK    4  A    between atoms: C12_18  and  C9_12 
REMARK    5  A    between atoms: C20_28  and  O2_32 
REMARK    6  A    between atoms: O2_32  and  C24_33 
ROOT
ATOM      1  N4  10O d   1      29.779   9.264  23.981  0.00  0.00    -0.191 NA
ATOM      2  C12 10O d   1      26.921  11.030  20.468  0.00  0.00    -0.024 A 
ATOM      3  C13 10O d   1      29.358   9.769  23.034  0.00  0.00     0.099 C 
ATOM      4  C14 10O d   1      27.474  10.423  21.621  0.00  0.00    -0.052 A 
ATOM      5  C16 10O d   1      28.865  10.399  21.850  0.00  0.00     0.045 A 
ATOM      6  C17 10O d   1      27.826  11.622  19.544  0.00  0.00    -0.072 A 
ATOM      7  C19 10O d   1      29.228  11.601  19.767  0.00  0.00    -0.081 A 
ATOM      8  C21 10O d   1      29.760  10.986  20.927  0.00  0.00    -0.063 A 
ATOM      9  H11 10O d   1      26.811   9.965  22.346  0.00  0.00     0.087 H 
ATOM     10  H15 10O d   1      27.437  12.099  18.651  0.00  0.00     0.084 H 
ATOM     11  H17 10O d   1      29.895  12.058  19.045  0.00  0.00     0.083 H 
ATOM     12  H18 10O d   1      30.829  10.966  21.103  0.00  0.00     0.085 H 
ENDROOT
BRANCH   2  13
ATOM     13  C9  10O d   1      25.431  11.060  20.242  0.00  0.00    -0.018 A 
ATOM     14  C8  10O d   1      24.486  10.623  21.206  0.00  0.00    -0.057 A 
ATOM     15  C5  10O d   1      23.109  10.754  20.780  0.00  0.00     0.015 A 
ATOM     16  H7  10O d   1      24.771  10.225  22.179  0.00  0.00     0.086 H 
ATOM     17  S1  10O d   1      23.097  11.422  19.209  0.00  0.00    -0.103 SA
ATOM     18  C10 10O d   1      24.793  11.531  19.081  0.00  0.00    -0.034 A 
ATOM     19  H8  10O d   1      25.317  11.918  18.208  0.00  0.00     0.096 H 
BRANCH  15  20
ATOM     20  C1  10O d   1      21.862  10.385  21.564  0.00  0.00     0.110 C 
ATOM     21  C2  10O d   1      21.172  11.673  22.059  0.00  0.00     0.071 C 
ATOM     22  C4  10O d   1      21.815  12.261  23.342  0.00  0.00     0.246 C 
ATOM     23  C7  10O d   1      19.695  11.304  22.244  0.00  0.00     0.011 C 
ATOM     24  H1  10O d   1      21.250  12.439  21.274  0.00  0.00     0.061 H 
ATOM     25  N1  10O d   1      22.463  11.356  24.182  0.00  0.00    -0.156 N 
ATOM     26  O1  10O d   1      21.744  13.467  23.562  0.00  0.00    -0.272 OA
ATOM     27  C3  10O d   1      22.478   9.984  23.955  0.00  0.00     0.677 C 
ATOM     28  N2  10O d   1      22.174   9.501  22.702  0.00  0.00    -0.210 N 
ATOM     29  N5  10O d   1      22.772   9.139  24.936  0.00  0.00    -0.234 N 
ATOM     30  H2  10O d   1      22.164   8.482  22.554  0.00  0.00     0.179 HD
ATOM     31  H9  10O d   1      23.000   9.498  25.874  0.00  0.00     0.174 HD
ATOM     32  H10 10O d   1      22.772   8.124  24.759  0.00  0.00     0.174 HD
ATOM     33  N3  10O d   1      19.537  10.167  21.328  0.00  0.00    -0.362 N 
ATOM     34  H5  10O d   1      19.038  12.139  21.959  0.00  0.00     0.065 H 
ATOM     35  H6  10O d   1      19.485  11.010  23.283  0.00  0.00     0.065 H 
ATOM     36  C6  10O d   1      20.786   9.719  20.710  0.00  0.00     0.026 C 
ATOM     37  H3  10O d   1      20.874   8.623  20.750  0.00  0.00     0.068 H 
ATOM     38  H4  10O d   1      20.850  10.054  19.664  0.00  0.00     0.068 H 
BRANCH  25  39
ATOM     39  C15 10O d   1      23.172  11.905  25.374  0.00  0.00     0.005 C 
ATOM     40  H12 10O d   1      23.632  11.081  25.939  0.00  0.00     0.058 H 
ATOM     41  H13 10O d   1      22.453  12.433  26.017  0.00  0.00     0.058 H 
ATOM     42  H14 10O d   1      23.954  12.606  25.045  0.00  0.00     0.058 H 
ENDBRANCH  25  39
BRANCH  33  43
ATOM     43  C11 10O d   1      18.340   9.555  21.037  0.00  0.00     0.128 A 
ATOM     44  N6  10O d   1      18.394   8.574  20.101  0.00  0.00    -0.207 NA
ATOM     45  C20 10O d   1      17.284   7.901  19.729  0.00  0.00     0.165 A 
ATOM     46  C23 10O d   1      16.029   8.182  20.289  0.00  0.00    -0.032 A 
ATOM     47  C22 10O d   1      15.943   9.202  21.270  0.00  0.00    -0.075 A 
ATOM     48  H20 10O d   1      15.147   7.633  19.980  0.00  0.00     0.090 H 
ATOM     49  C18 10O d   1      17.109   9.906  21.656  0.00  0.00    -0.039 A 
ATOM     50  H19 10O d   1      14.988   9.442  21.723  0.00  0.00     0.083 H 
ATOM     51  H16 10O d   1      17.065  10.691  22.403  0.00  0.00     0.089 H 
BRANCH  45  52
ATOM     52  O2  10O d   1      17.361   6.896  18.767  0.00  0.00    -0.339 OA
BRANCH  52  53
ATOM     53  C24 10O d   1      18.670   6.666  18.243  0.00  0.00     0.012 C 
ATOM     54  H21 10O d   1      18.629   5.860  17.496  0.00  0.00     0.067 H 
ATOM     55  H22 10O d   1      19.346   6.374  19.060  0.00  0.00     0.067 H 
ATOM     56  H23 10O d   1      19.043   7.586  17.770  0.00  0.00     0.067 H 
ENDBRANCH  52  53
ENDBRANCH  45  52
ENDBRANCH  33  43
ENDBRANCH  15  20
ENDBRANCH   2  13
TORSDOF 6
