REMARK  4 active torsions:
REMARK  status: ('A' for Active; 'I' for Inactive)
REMARK    1  A    between atoms: C5_7  and  C1_1 
REMARK    2  A    between atoms: N1_3  and  C17_24 
REMARK    3  A    between atoms: N3_8  and  C11_15 
REMARK    4  A    between atoms: C12_18  and  C9_12 
ROOT
ATOM      1  N4  10Q d   1      29.816   9.515  23.602  0.00  0.00    -0.191 NA
ATOM      2  C12 10Q d   1      26.986  11.058  19.959  0.00  0.00    -0.024 A 
ATOM      3  C14 10Q d   1      29.403   9.963  22.623  0.00  0.00     0.099 C 
ATOM      4  C16 10Q d   1      27.521  10.518  21.154  0.00  0.00    -0.052 A 
ATOM      5  C18 10Q d   1      28.912  10.521  21.401  0.00  0.00     0.045 A 
ATOM      6  C19 10Q d   1      27.898  11.607  19.017  0.00  0.00    -0.072 A 
ATOM      7  C21 10Q d   1      29.294  11.610  19.259  0.00  0.00    -0.081 A 
ATOM      8  C23 10Q d   1      29.816  11.067  20.458  0.00  0.00    -0.063 A 
ATOM      9  H12 10Q d   1      26.851  10.094  21.893  0.00  0.00     0.087 H 
ATOM     10  H16 10Q d   1      27.518  12.032  18.095  0.00  0.00     0.084 H 
ATOM     11  H18 10Q d   1      29.967  12.031  18.521  0.00  0.00     0.083 H 
ATOM     12  H20 10Q d   1      30.883  11.069  20.649  0.00  0.00     0.085 H 
ENDROOT
BRANCH   2  13
ATOM     13  C9  10Q d   1      25.499  11.059  19.714  0.00  0.00    -0.018 A 
ATOM     14  C8  10Q d   1      24.560  10.848  20.749  0.00  0.00    -0.057 A 
ATOM     15  C5  10Q d   1      23.185  10.898  20.311  0.00  0.00     0.015 A 
ATOM     16  H7  10Q d   1      24.848  10.664  21.783  0.00  0.00     0.086 H 
ATOM     17  S1  10Q d   1      23.158  11.212  18.628  0.00  0.00    -0.103 SA
ATOM     18  C10 10Q d   1      24.863  11.279  18.468  0.00  0.00    -0.034 A 
ATOM     19  H8  10Q d   1      25.388  11.466  17.532  0.00  0.00     0.096 H 
BRANCH  15  20
ATOM     20  C1  10Q d   1      21.955  10.717  21.186  0.00  0.00     0.110 C 
ATOM     21  C2  10Q d   1      21.495  12.118  21.625  0.00  0.00     0.071 C 
ATOM     22  C4  10Q d   1      22.249  12.634  22.879  0.00  0.00     0.246 C 
ATOM     23  C7  10Q d   1      19.977  11.999  21.819  0.00  0.00     0.011 C 
ATOM     24  H1  10Q d   1      21.692  12.830  20.810  0.00  0.00     0.061 H 
ATOM     25  N1  10Q d   1      22.691  11.670  23.790  0.00  0.00    -0.156 N 
ATOM     26  O1  10Q d   1      22.438  13.840  23.023  0.00  0.00    -0.272 OA
ATOM     27  C3  10Q d   1      22.571  10.297  23.580  0.00  0.00     0.677 C 
ATOM     28  N2  10Q d   1      22.173   9.835  22.352  0.00  0.00    -0.210 N 
ATOM     29  N5  10Q d   1      22.859   9.432  24.556  0.00  0.00    -0.234 N 
ATOM     30  H2  10Q d   1      22.018   8.823  22.236  0.00  0.00     0.179 HD
ATOM     31  H9  10Q d   1      23.158   9.778  25.479  0.00  0.00     0.174 HD
ATOM     32  H10 10Q d   1      22.782   8.419  24.386  0.00  0.00     0.174 HD
ATOM     33  N3  10Q d   1      19.630  10.789  21.067  0.00  0.00    -0.361 N 
ATOM     34  H5  10Q d   1      19.458  12.879  21.410  0.00  0.00     0.065 H 
ATOM     35  H6  10Q d   1      19.724  11.886  22.884  0.00  0.00     0.065 H 
ATOM     36  C6  10Q d   1      20.788  10.164  20.432  0.00  0.00     0.026 C 
ATOM     37  H3  10Q d   1      20.743   9.069  20.528  0.00  0.00     0.068 H 
ATOM     38  H4  10Q d   1      20.845  10.437  19.368  0.00  0.00     0.068 H 
BRANCH  25  39
ATOM     39  C17 10Q d   1      23.336  12.152  25.049  0.00  0.00     0.005 C 
ATOM     40  H13 10Q d   1      23.630  11.289  25.664  0.00  0.00     0.058 H 
ATOM     41  H14 10Q d   1      22.625  12.776  25.610  0.00  0.00     0.058 H 
ATOM     42  H15 10Q d   1      24.228  12.746  24.800  0.00  0.00     0.058 H 
ENDBRANCH  25  39
BRANCH  33  43
ATOM     43  C11 10Q d   1      18.321  10.298  21.018  0.00  0.00     0.146 A 
ATOM     44  C13 10Q d   1      17.722   9.505  19.965  0.00  0.00     0.090 A 
ATOM     45  C15 10Q d   1      16.381   9.095  20.102  0.00  0.00    -0.058 A 
ATOM     46  C24 10Q d   1      18.405   9.094  18.753  0.00  0.00     0.103 C 
ATOM     47  C22 10Q d   1      15.644   9.455  21.248  0.00  0.00    -0.064 A 
ATOM     48  H11 10Q d   1      15.915   8.501  19.324  0.00  0.00     0.086 H 
ATOM     49  C20 10Q d   1      16.280  10.222  22.230  0.00  0.00     0.004 A 
ATOM     50  H19 10Q d   1      14.612   9.146  21.366  0.00  0.00     0.085 H 
ATOM     51  N6  10Q d   1      17.567  10.643  22.112  0.00  0.00    -0.242 NA
ATOM     52  H17 10Q d   1      15.724  10.491  23.121  0.00  0.00     0.114 H 
ATOM     53  N7  10Q d   1      19.003   8.791  17.802  0.00  0.00    -0.191 NA
ENDBRANCH  33  43
ENDBRANCH  15  20
ENDBRANCH   2  13
TORSDOF 4
