REMARK  4 active torsions:
REMARK  status: ('A' for Active; 'I' for Inactive)
REMARK    1  A    between atoms: N1_2  and  C3_6 
REMARK    2  A    between atoms: C5_9  and  C8_13 
REMARK    3  A    between atoms: N4_11  and  C19_27 
REMARK    4  A    between atoms: C11_16  and  C12_18 
ROOT
ATOM      1  C12 10W d   1      26.453  10.880  19.930  0.00  0.00    -0.017 A 
ATOM      2  C13 10W d   1      27.194  10.488  21.057  0.00  0.00    -0.049 A 
ATOM      3  C14 10W d   1      28.590  10.563  21.068  0.00  0.00     0.084 A 
ATOM      4  C15 10W d   1      29.265  11.050  19.927  0.00  0.00     0.137 A 
ATOM      5  C16 10W d   1      28.547  11.461  18.788  0.00  0.00    -0.043 A 
ATOM      6  C17 10W d   1      27.132  11.381  18.798  0.00  0.00    -0.069 A 
ATOM      7  C18 10W d   1      29.276  10.132  22.252  0.00  0.00     0.102 C 
ATOM      8  N5  10W d   1      29.804   9.774  23.218  0.00  0.00    -0.191 NA
ATOM      9  F1  10W d   1      30.586  11.139  19.895  0.00  0.00    -0.204 F 
ATOM     10  H14 10W d   1      26.674  10.121  21.934  0.00  0.00     0.087 H 
ATOM     11  H15 10W d   1      29.070  11.834  17.915  0.00  0.00     0.088 H 
ATOM     12  H16 10W d   1      26.568  11.706  17.931  0.00  0.00     0.085 H 
ENDROOT
BRANCH   1  13
ATOM     13  C11 10W d   1      25.001  10.817  20.038  0.00  0.00     0.015 A 
ATOM     14  C10 10W d   1      24.046  11.307  19.119  0.00  0.00    -0.065 A 
ATOM     15  C9  10W d   1      22.717  11.148  19.554  0.00  0.00    -0.066 A 
ATOM     16  H13 10W d   1      24.312  11.763  18.167  0.00  0.00     0.085 H 
ATOM     17  C8  10W d   1      22.617  10.530  20.845  0.00  0.00     0.015 A 
ATOM     18  H12 10W d   1      21.853  11.462  18.970  0.00  0.00     0.085 H 
ATOM     19  S1  10W d   1      24.185  10.200  21.387  0.00  0.00    -0.091 SA
BRANCH  17  20
ATOM     20  C5  10W d   1      21.393  10.225  21.627  0.00  0.00     0.110 C 
ATOM     21  N2  10W d   1      21.744   9.428  22.806  0.00  0.00    -0.210 N 
ATOM     22  C2  10W d   1      22.248   9.997  23.965  0.00  0.00     0.677 C 
ATOM     23  H1  10W d   1      21.611   8.407  22.772  0.00  0.00     0.179 HD
ATOM     24  N1  10W d   1      22.237  11.364  24.134  0.00  0.00    -0.156 N 
ATOM     25  N3  10W d   1      22.737   9.226  24.909  0.00  0.00    -0.234 N 
ATOM     26  C1  10W d   1      21.543  12.229  23.313  0.00  0.00     0.246 C 
ATOM     27  O1  10W d   1      21.504  13.438  23.505  0.00  0.00    -0.272 OA
ATOM     28  C4  10W d   1      20.787  11.584  22.117  0.00  0.00     0.071 C 
ATOM     29  C7  10W d   1      19.347  11.258  22.460  0.00  0.00     0.009 C 
ATOM     30  H7  10W d   1      20.809  12.304  21.286  0.00  0.00     0.061 H 
ATOM     31  N4  10W d   1      19.044  10.179  21.507  0.00  0.00    -0.377 N 
ATOM     32  H10 10W d   1      18.692  12.127  22.302  0.00  0.00     0.065 H 
ATOM     33  H11 10W d   1      19.252  10.912  23.500  0.00  0.00     0.065 H 
ATOM     34  C6  10W d   1      20.231   9.562  20.893  0.00  0.00     0.024 C 
ATOM     35  H8  10W d   1      20.235   8.473  21.051  0.00  0.00     0.068 H 
ATOM     36  H9  10W d   1      20.273   9.776  19.815  0.00  0.00     0.068 H 
ATOM     37  H2  10W d   1      23.113   9.644  25.772  0.00  0.00     0.174 HD
ATOM     38  H3  10W d   1      22.745   8.203  24.786  0.00  0.00     0.174 HD
BRANCH  24  39
ATOM     39  C3  10W d   1      22.991  12.006  25.255  0.00  0.00     0.005 C 
ATOM     40  H4  10W d   1      22.853  13.097  25.212  0.00  0.00     0.058 H 
ATOM     41  H5  10W d   1      24.061  11.768  25.161  0.00  0.00     0.058 H 
ATOM     42  H6  10W d   1      22.614  11.626  26.216  0.00  0.00     0.058 H 
ENDBRANCH  24  39
BRANCH  31  43
ATOM     43  C19 10W d   1      17.728   9.779  21.218  0.00  0.00     0.030 A 
ATOM     44  C20 10W d   1      17.452   8.802  20.213  0.00  0.00    -0.057 A 
ATOM     45  C21 10W d   1      16.124   8.404  19.929  0.00  0.00    -0.081 A 
ATOM     46  H17 10W d   1      18.272   8.359  19.660  0.00  0.00     0.086 H 
ATOM     47  C22 10W d   1      15.054   8.973  20.641  0.00  0.00    -0.083 A 
ATOM     48  H18 10W d   1      15.932   7.661  19.163  0.00  0.00     0.083 H 
ATOM     49  C23 10W d   1      15.300   9.941  21.641  0.00  0.00    -0.081 A 
ATOM     50  H19 10W d   1      14.037   8.668  20.422  0.00  0.00     0.083 H 
ATOM     51  C24 10W d   1      16.627  10.338  21.924  0.00  0.00    -0.057 A 
ATOM     52  H20 10W d   1      14.473  10.378  22.189  0.00  0.00     0.083 H 
ATOM     53  H21 10W d   1      16.808  11.081  22.692  0.00  0.00     0.086 H 
ENDBRANCH  31  43
ENDBRANCH  17  20
ENDBRANCH   1  13
TORSDOF 4
