REMARK  4 active torsions:
REMARK  status: ('A' for Active; 'I' for Inactive)
REMARK    1  A    between atoms: C9_2  and  C8_4 
REMARK    2  A    between atoms: C8_4  and  N1_5 
REMARK       I    between atoms: N1_5  and  C7_6 
REMARK    3  A    between atoms: C7_6  and  C3_8 
REMARK    4  A    between atoms: C10_16  and  N3_17 
ROOT
ATOM      1  C3  11E d   1     -27.574 -16.639  12.105  0.00  0.00     0.033 A 
ATOM      2  C2  11E d   1     -27.981 -17.368  13.243  0.00  0.00    -0.065 A 
ATOM      3  C4  11E d   1     -28.180 -16.816  10.860  0.00  0.00    -0.049 A 
ATOM      4  C5  11E d   1     -29.205 -17.747  10.801  0.00  0.00     0.038 A 
ATOM      5  S1  11E d   1     -30.038 -18.053   9.397  0.00  0.00    -0.050 SA
ATOM      6  C6  11E d   1     -29.654 -18.484  11.925  0.00  0.00     0.076 A 
ATOM      7  C1  11E d   1     -29.037 -18.272  13.161  0.00  0.00    -0.053 A 
ATOM      8  N2  11E d   1     -30.693 -19.323  11.574  0.00  0.00    -0.224 NA
ATOM      9  C10 11E d   1     -31.014 -19.196  10.263  0.00  0.00     0.165 A 
ATOM     10  H4  11E d   1     -27.468 -17.223  14.187  0.00  0.00     0.085 H 
ATOM     11  H5  11E d   1     -27.866 -16.256   9.987  0.00  0.00     0.087 H 
ATOM     12  H6  11E d   1     -29.376 -18.804  14.043  0.00  0.00     0.087 H 
ENDROOT
BRANCH   1  13
ATOM     13  C7  11E d   1     -26.434 -15.709  12.230  0.00  0.00     0.252 C 
ATOM     14  N1  11E d   1     -25.619 -15.732  11.191  0.00  0.00    -0.347 N 
ATOM     15  H3  11E d   1     -25.846 -16.357  10.445  0.00  0.00     0.163 HD
ATOM     16  O1  11E d   1     -26.244 -15.058  13.240  0.00  0.00    -0.268 OA
BRANCH  14  17
ATOM     17  C8  11E d   1     -24.446 -14.943  11.044  0.00  0.00     0.075 C 
ATOM     18  H1  11E d   1     -24.606 -13.884  11.293  0.00  0.00     0.080 H 
ATOM     19  H2  11E d   1     -23.592 -15.330  11.619  0.00  0.00     0.080 H 
BRANCH  17  20
ATOM     20  C9  11E d   1     -24.324 -15.178   9.620  0.00  0.00     0.191 C 
ATOM     21  O3  11E d   1     -23.565 -15.968   9.148  0.00  0.00    -0.647 OA
ATOM     22  O2  11E d   1     -25.070 -14.601   8.960  0.00  0.00    -0.647 OA
ENDBRANCH  17  20
ENDBRANCH  14  17
ENDBRANCH   1  13
BRANCH   9  23
ATOM     23  N3  11E d   1     -32.008 -19.916   9.712  0.00  0.00    -0.378 N 
ATOM     24  H7  11E d   1     -32.546 -20.577  10.290  0.00  0.00     0.158 HD
ATOM     25  H8  11E d   1     -32.231 -19.806   8.712  0.00  0.00     0.158 HD
ENDBRANCH   9  23
TORSDOF 4
