REMARK  5 active torsions:
REMARK  status: ('A' for Active; 'I' for Inactive)
REMARK    1  A    between atoms: C1_1  and  C2_4 
REMARK    2  A    between atoms: C2_4  and  C3_6 
REMARK    3  A    between atoms: C3_6  and  C4_7 
REMARK    4  A    between atoms: C4_7  and  C5_8 
REMARK    5  A    between atoms: C4_7  and  C6_9 
ROOT
ATOM      1  C4  COI d   1      -9.353 -32.667  16.902  0.00  0.00    -0.054 C 
ATOM      2  H3  COI d   1      -9.455 -33.747  17.083  0.00  0.00     0.039 H 
ENDROOT
BRANCH   1   3
ATOM      3  C3  COI d   1      -8.257 -32.584  15.836  0.00  0.00     0.004 C 
ATOM      4  H1  COI d   1      -7.308 -32.420  16.368  0.00  0.00     0.045 H 
ATOM      5  H2  COI d   1      -8.230 -33.561  15.331  0.00  0.00     0.045 H 
BRANCH   3   6
ATOM      6  C2  COI d   1      -8.337 -31.530  14.747  0.00  0.00     0.225 C 
ATOM      7  O3  COI d   1      -8.668 -30.395  14.973  0.00  0.00    -0.286 OA
BRANCH   6   8
ATOM      8  C1  COI d   1      -7.986 -31.942  13.375  0.00  0.00     0.246 C 
ATOM      9  O1  COI d   1      -8.589 -31.478  12.376  0.00  0.00    -0.642 OA
ATOM     10  O2  COI d   1      -7.065 -32.795  13.236  0.00  0.00    -0.642 OA
ENDBRANCH   6   8
ENDBRANCH   3   6
ENDBRANCH   1   3
BRANCH   1  11
ATOM     11  C5  COI d   1      -8.989 -32.143  18.200  0.00  0.00    -0.073 C 
ATOM     12  H4  COI d   1      -9.839 -32.249  18.890  0.00  0.00     0.028 H 
ATOM     13  H5  COI d   1      -8.724 -31.080  18.105  0.00  0.00     0.028 H 
ATOM     14  H6  COI d   1      -8.127 -32.702  18.593  0.00  0.00     0.028 H 
ENDBRANCH   1  11
BRANCH   1  15
ATOM     15  C6  COI d   1     -10.697 -32.266  16.424  0.00  0.00    -0.073 C 
ATOM     16  H7  COI d   1     -10.882 -32.711  15.435  0.00  0.00     0.028 H 
ATOM     17  H8  COI d   1     -10.747 -31.170  16.349  0.00  0.00     0.028 H 
ATOM     18  H9  COI d   1     -11.459 -32.620  17.134  0.00  0.00     0.028 H 
ENDBRANCH   1  15
TORSDOF 5
