REMARK  3 active torsions:
REMARK  status: ('A' for Active; 'I' for Inactive)
REMARK    1  A    between atoms: C02_2  and  C03_3 
REMARK    2  A    between atoms: C02_2  and  C06_6 
REMARK    3  A    between atoms: C06_6  and  C07_7 
ROOT
ATOM      1  C07 WJ2 d   1      -9.155 -32.417  16.893  0.00  0.00    -0.056 A 
ATOM      2  C08 WJ2 d   1      -8.350 -32.715  17.981  0.00  0.00    -0.077 A 
ATOM      3  C09 WJ2 d   1      -8.746 -32.401  19.274  0.00  0.00    -0.082 A 
ATOM      4  C10 WJ2 d   1      -9.960 -31.769  19.481  0.00  0.00    -0.083 A 
ATOM      5  C11 WJ2 d   1     -10.767 -31.470  18.393  0.00  0.00    -0.082 A 
ATOM      6  C12 WJ2 d   1     -10.368 -31.787  17.100  0.00  0.00    -0.077 A 
ATOM      7  H4  WJ2 d   1      -7.395 -33.202  17.820  0.00  0.00     0.084 H 
ATOM      8  H5  WJ2 d   1      -8.109 -32.649  20.115  0.00  0.00     0.083 H 
ATOM      9  H6  WJ2 d   1     -10.277 -31.510  20.485  0.00  0.00     0.083 H 
ATOM     10  H7  WJ2 d   1     -11.722 -30.983  18.553  0.00  0.00     0.083 H 
ATOM     11  H8  WJ2 d   1     -11.005 -31.541  16.258  0.00  0.00     0.084 H 
ENDROOT
BRANCH   1  12
ATOM     12  C06 WJ2 d   1      -8.711 -32.754  15.502  0.00  0.00    -0.016 C 
ATOM     13  H2  WJ2 d   1      -7.664 -33.087  15.556  0.00  0.00     0.043 H 
ATOM     14  H3  WJ2 d   1      -9.340 -33.580  15.140  0.00  0.00     0.043 H 
BRANCH  12  15
ATOM     15  C02 WJ2 d   1      -8.787 -31.647  14.494  0.00  0.00     0.105 C 
ATOM     16 CL1  WJ2 d   1      -8.011 -30.220  15.079  0.00  0.00    -0.113 Cl
ATOM     17  H1  WJ2 d   1      -9.848 -31.427  14.307  0.00  0.00     0.082 H 
BRANCH  15  18
ATOM     18  C03 WJ2 d   1      -8.137 -32.014  13.204  0.00  0.00     0.192 C 
ATOM     19  O04 WJ2 d   1      -7.124 -32.759  13.216  0.00  0.00    -0.647 OA
ATOM     20  O05 WJ2 d   1      -8.618 -31.570  12.116  0.00  0.00    -0.647 OA
ENDBRANCH  15  18
ENDBRANCH  12  15
ENDBRANCH   1  12
TORSDOF 3
