REMARK  5 active torsions:
REMARK  status: ('A' for Active; 'I' for Inactive)
REMARK    1  A    between atoms: CZ_1  and  CH1_2 
REMARK    2  A    between atoms: CZ_1  and  CH2_6 
REMARK    3  A    between atoms: CH1_2  and  CF1_3 
REMARK    4  A    between atoms: CF1_3  and  CI1_4 
REMARK    5  A    between atoms: CF1_3  and  CI2_5 
ROOT
ATOM      1  CF1 HRI d   1      -9.364 -32.138  16.977  0.00  0.00    -0.059 C 
ATOM      2  H4  HRI d   1      -9.590 -33.206  16.842  0.00  0.00     0.038 H 
ENDROOT
BRANCH   1   3
ATOM      3  CH1 HRI d   1      -8.347 -31.895  15.875  0.00  0.00    -0.037 C 
ATOM      4  H2  HRI d   1      -7.474 -31.416  16.343  0.00  0.00     0.036 H 
ATOM      5  H3  HRI d   1      -8.057 -32.881  15.482  0.00  0.00     0.036 H 
BRANCH   3   6
ATOM      6  CZ  HRI d   1      -8.735 -31.040  14.683  0.00  0.00     0.102 C 
ATOM      7 CL   HRI d   1      -8.185 -29.409  14.878  0.00  0.00    -0.114 Cl
ATOM      8  H1  HRI d   1      -9.832 -31.036  14.596  0.00  0.00     0.081 H 
BRANCH   6   9
ATOM      9  CH2 HRI d   1      -8.147 -31.613  13.423  0.00  0.00     0.192 C 
ATOM     10  OF2 HRI d   1      -8.611 -31.319  12.273  0.00  0.00    -0.647 OA
ATOM     11  OF3 HRI d   1      -7.186 -32.414  13.538  0.00  0.00    -0.647 OA
ENDBRANCH   6   9
ENDBRANCH   3   6
ENDBRANCH   1   3
BRANCH   1  12
ATOM     12  CI1 HRI d   1     -10.720 -31.500  16.780  0.00  0.00    -0.073 C 
ATOM     13  H5  HRI d   1     -11.367 -31.743  17.635  0.00  0.00     0.028 H 
ATOM     14  H6  HRI d   1     -11.175 -31.884  15.855  0.00  0.00     0.028 H 
ATOM     15  H7  HRI d   1     -10.604 -30.409  16.706  0.00  0.00     0.028 H 
ENDBRANCH   1  12
BRANCH   1  16
ATOM     16  CI2 HRI d   1      -8.845 -32.103  18.399  0.00  0.00    -0.073 C 
ATOM     17  H8  HRI d   1      -7.859 -32.588  18.441  0.00  0.00     0.028 H 
ATOM     18  H9  HRI d   1      -9.545 -32.638  19.058  0.00  0.00     0.028 H 
ATOM     19  H10 HRI d   1      -8.754 -31.058  18.731  0.00  0.00     0.028 H 
ENDBRANCH   1  16
TORSDOF 5
