REMARK  5 active torsions:
REMARK  status: ('A' for Active; 'I' for Inactive)
REMARK    1  A    between atoms: C5_5  and  C7_7 
REMARK    2  A    between atoms: C9_9  and  C11_12 
REMARK    3  A    between atoms: C11_12  and  C15_19 
REMARK    4  A    between atoms: N1_15  and  C16_20 
REMARK    5  A    between atoms: C14_16  and  N3_18 
ROOT
ATOM      1  C1  13W d   1      28.276  11.245  18.721  0.00  0.00    -0.081 A 
ATOM      2  C2  13W d   1      28.976  10.834  19.880  0.00  0.00    -0.063 A 
ATOM      3  C3  13W d   1      28.245  10.482  21.038  0.00  0.00     0.045 A 
ATOM      4  C4  13W d   1      26.836  10.537  21.044  0.00  0.00    -0.052 A 
ATOM      5  C5  13W d   1      26.105  10.945  19.888  0.00  0.00    -0.024 A 
ATOM      6  C6  13W d   1      26.855  11.303  18.723  0.00  0.00    -0.072 A 
ATOM      7  C17 13W d   1      28.927  10.060  22.234  0.00  0.00     0.099 C 
ATOM      8  N4  13W d   1      29.447   9.716  23.211  0.00  0.00    -0.191 NA
ATOM      9  H1  13W d   1      28.826  11.517  17.827  0.00  0.00     0.083 H 
ATOM     10  H2  13W d   1      30.059  10.790  19.880  0.00  0.00     0.085 H 
ATOM     11  H3  13W d   1      26.297  10.264  21.944  0.00  0.00     0.087 H 
ATOM     12  H4  13W d   1      26.332  11.623  17.829  0.00  0.00     0.084 H 
ENDROOT
BRANCH   5  13
ATOM     13  C7  13W d   1      24.627  11.002  19.916  0.00  0.00    -0.018 A 
ATOM     14  C8  13W d   1      23.851  10.490  20.984  0.00  0.00    -0.057 A 
ATOM     15  C9  13W d   1      22.481  10.670  20.776  0.00  0.00     0.012 A 
ATOM     16  H5  13W d   1      24.273  10.011  21.866  0.00  0.00     0.086 H 
ATOM     17  S1  13W d   1      22.193  11.457  19.299  0.00  0.00    -0.103 SA
ATOM     18  C10 13W d   1      23.829  11.568  18.910  0.00  0.00    -0.034 A 
ATOM     19  H6  13W d   1      24.216  12.020  17.998  0.00  0.00     0.096 H 
BRANCH  15  20
ATOM     20  C11 13W d   1      21.336  10.250  21.705  0.00  0.00     0.085 C 
ATOM     21  C12 13W d   1      20.647  11.519  22.264  0.00  0.00     0.038 C 
ATOM     22  C13 13W d   1      21.457  12.188  23.405  0.00  0.00     0.240 C 
ATOM     23  H7  13W d   1      19.657  11.239  22.653  0.00  0.00     0.051 H 
ATOM     24  H8  13W d   1      20.528  12.244  21.445  0.00  0.00     0.051 H 
ATOM     25  N1  13W d   1      22.271  11.345  24.174  0.00  0.00    -0.156 N 
ATOM     26  O1  13W d   1      21.372  13.400  23.590  0.00  0.00    -0.272 OA
ATOM     27  C14 13W d   1      22.327   9.968  23.995  0.00  0.00     0.677 C 
ATOM     28  N2  13W d   1      21.861   9.425  22.821  0.00  0.00    -0.212 N 
ATOM     29  H9  13W d   1      21.877   8.401  22.711  0.00  0.00     0.179 HD
BRANCH  25  30
ATOM     30  C16 13W d   1      23.096  12.025  25.220  0.00  0.00     0.005 C 
ATOM     31  H15 13W d   1      22.903  13.107  25.193  0.00  0.00     0.058 H 
ATOM     32  H16 13W d   1      24.162  11.838  25.025  0.00  0.00     0.058 H 
ATOM     33  H17 13W d   1      22.830  11.630  26.211  0.00  0.00     0.058 H 
ENDBRANCH  25  30
BRANCH  27  34
ATOM     34  N3  13W d   1      22.824   9.163  24.939  0.00  0.00    -0.234 N 
ATOM     35  H10 13W d   1      23.175   9.560  25.822  0.00  0.00     0.174 HD
ATOM     36  H11 13W d   1      22.855   8.145  24.784  0.00  0.00     0.174 HD
ENDBRANCH  27  34
BRANCH  20  37
ATOM     37  C15 13W d   1      20.333   9.385  20.916  0.00  0.00    -0.048 C 
ATOM     38  H12 13W d   1      20.844   8.491  20.529  0.00  0.00     0.031 H 
ATOM     39  H13 13W d   1      19.928   9.968  20.076  0.00  0.00     0.031 H 
ATOM     40  H14 13W d   1      19.511   9.079  21.580  0.00  0.00     0.031 H 
ENDBRANCH  20  37
ENDBRANCH  15  20
ENDBRANCH   5  13
TORSDOF 5
