REMARK  9 active torsions:
REMARK  status: ('A' for Active; 'I' for Inactive)
REMARK    1  A    between atoms: C6_7  and  C7_8 
REMARK    2  A    between atoms: N1_9  and  C8_10 
REMARK    3  A    between atoms: C8_10  and  C9_11 
REMARK    4  A    between atoms: C8_10  and  C10_29 
REMARK    5  A    between atoms: C9_11  and  O4_12 
REMARK    6  A    between atoms: C12_15  and  C13_16 
REMARK    7  A    between atoms: C13_16  and  C14_17 
REMARK    8  A    between atoms: C16_21  and  C17_22 
REMARK    9  A    between atoms: C10_29  and  C23_30 
ROOT
ATOM      1  C7  0Y7 d   1      18.683  13.144  15.601  0.00  0.00     0.048 C 
ATOM      2  N1  0Y7 d   1      19.581  13.518  14.485  0.00  0.00    -0.336 N 
ATOM      3  C11 0Y7 d   1      20.881  13.146  14.437  0.00  0.00     0.225 C 
ATOM      4  O1  0Y7 d   1      21.618  13.495  13.527  0.00  0.00    -0.273 OA
ATOM      5  C12 0Y7 d   1      21.467  12.236  15.576  0.00  0.00     0.034 C 
ATOM      6  C15 0Y7 d   1      20.444  11.474  16.395  0.00  0.00    -0.044 C 
ATOM      7  C16 0Y7 d   1      19.345  12.407  16.834  0.00  0.00    -0.004 C 
ATOM      8  H5  0Y7 d   1      18.006  12.394  15.167  0.00  0.00     0.081 H 
ATOM      9  H10 0Y7 d   1      22.082  11.476  15.071  0.00  0.00     0.055 H 
ATOM     10  H13 0Y7 d   1      20.933  11.043  17.281  0.00  0.00     0.035 H 
ATOM     11  H14 0Y7 d   1      20.015  10.666  15.784  0.00  0.00     0.035 H 
ATOM     12  H15 0Y7 d   1      19.822  13.191  17.440  0.00  0.00     0.051 H 
ENDROOT
BRANCH   2  13
ATOM     13  C8  0Y7 d   1      19.022  14.339  13.361  0.00  0.00     0.035 C 
ATOM     14  H6  0Y7 d   1      18.040  14.700  13.700  0.00  0.00     0.076 H 
BRANCH  13  15
ATOM     15  C9  0Y7 d   1      18.798  13.463  12.133  0.00  0.00     0.036 C 
ATOM     16  H7  0Y7 d   1      19.719  12.905  11.907  0.00  0.00     0.077 H 
ATOM     17  H8  0Y7 d   1      18.533  14.097  11.274  0.00  0.00     0.077 H 
BRANCH  15  18
ATOM     18  O4  0Y7 d   1      17.745  12.551  12.389  0.00  0.00    -0.399 OA
ATOM     19  H9  0Y7 d   1      17.975  12.004  13.131  0.00  0.00     0.209 HD
ENDBRANCH  15  18
ENDBRANCH  13  15
BRANCH  13  20
ATOM     20  C10 0Y7 d   1      19.827  15.580  12.956  0.00  0.00    -0.047 C 
ATOM     21  H20 0Y7 d   1      19.688  15.724  11.874  0.00  0.00     0.035 H 
ATOM     22  H21 0Y7 d   1      20.886  15.368  13.164  0.00  0.00     0.035 H 
BRANCH  20  23
ATOM     23  C23 0Y7 d   1      19.484  16.896  13.638  0.00  0.00    -0.075 C 
ATOM     24  H22 0Y7 d   1      20.138  17.691  13.250  0.00  0.00     0.027 H 
ATOM     25  H23 0Y7 d   1      19.632  16.796  14.723  0.00  0.00     0.027 H 
ATOM     26  H24 0Y7 d   1      18.434  17.152  13.433  0.00  0.00     0.027 H 
ENDBRANCH  20  23
ENDBRANCH  13  20
ENDBRANCH   2  13
BRANCH   1  27
ATOM     27  C6  0Y7 d   1      17.809  14.264  16.017  0.00  0.00    -0.035 A 
ATOM     28  C3  0Y7 d   1      18.348  15.406  16.641  0.00  0.00    -0.073 A 
ATOM     29  C2  0Y7 d   1      17.494  16.420  17.074  0.00  0.00    -0.061 A 
ATOM     30  H2  0Y7 d   1      19.419  15.496  16.784  0.00  0.00     0.084 H 
ATOM     31  C1  0Y7 d   1      16.113  16.287  16.882  0.00  0.00     0.034 A 
ATOM     32  H1  0Y7 d   1      17.896  17.304  17.555  0.00  0.00     0.086 H 
ATOM     33 CL1  0Y7 d   1      15.076  17.545  17.479  0.00  0.00    -0.084 Cl
ATOM     34  C4  0Y7 d   1      15.572  15.156  16.251  0.00  0.00    -0.061 A 
ATOM     35  C5  0Y7 d   1      16.426  14.143  15.817  0.00  0.00    -0.073 A 
ATOM     36  H3  0Y7 d   1      14.502  15.071  16.103  0.00  0.00     0.086 H 
ATOM     37  H4  0Y7 d   1      16.022  13.265  15.326  0.00  0.00     0.084 H 
ENDBRANCH   1  27
BRANCH   7  38
ATOM     38  C17 0Y7 d   1      18.352  11.721  17.743  0.00  0.00    -0.050 A 
ATOM     39  C18 0Y7 d   1      17.827  10.441  17.446  0.00  0.00    -0.076 A 
ATOM     40  C19 0Y7 d   1      16.889   9.857  18.296  0.00  0.00    -0.081 A 
ATOM     41  H16 0Y7 d   1      18.154   9.914  16.557  0.00  0.00     0.084 H 
ATOM     42  C20 0Y7 d   1      16.460  10.523  19.444  0.00  0.00    -0.062 A 
ATOM     43  H17 0Y7 d   1      16.489   8.877  18.063  0.00  0.00     0.083 H 
ATOM     44  C21 0Y7 d   1      16.987  11.787  19.734  0.00  0.00     0.034 A 
ATOM     45  H18 0Y7 d   1      15.729  10.068  20.102  0.00  0.00     0.086 H 
ATOM     46 CL2  0Y7 d   1      16.460  12.605  21.118  0.00  0.00    -0.084 Cl
ATOM     47  C22 0Y7 d   1      17.922  12.391  18.906  0.00  0.00    -0.055 A 
ATOM     48  H19 0Y7 d   1      18.318  13.370  19.151  0.00  0.00     0.086 H 
ENDBRANCH   7  38
BRANCH   5  49
ATOM     49  C13 0Y7 d   1      22.407  13.038  16.500  0.00  0.00     0.027 C 
ATOM     50  H11 0Y7 d   1      21.816  13.677  17.173  0.00  0.00     0.050 H 
ATOM     51  H12 0Y7 d   1      23.080  13.665  15.897  0.00  0.00     0.050 H 
BRANCH  49  52
ATOM     52  C14 0Y7 d   1      23.230  12.026  17.325  0.00  0.00     0.173 C 
ATOM     53  O2  0Y7 d   1      23.077  11.751  18.488  0.00  0.00    -0.648 OA
ATOM     54  O3  0Y7 d   1      24.174  11.453  16.564  0.00  0.00    -0.648 OA
ENDBRANCH  49  52
ENDBRANCH   5  49
TORSDOF 9
