REMARK  17 active torsions:
REMARK  status: ('A' for Active; 'I' for Inactive)
REMARK    1  A    between atoms: C2_1  and  O39_38 
REMARK    2  A    between atoms: S8_7  and  C5_4 
REMARK    3  A    between atoms: N11_10  and  S8_7 
REMARK    4  A    between atoms: N11_10  and  C12_11 
REMARK    5  A    between atoms: C16_15  and  N11_10 
REMARK    6  A    between atoms: C12_11  and  C13_12 
REMARK    7  A    between atoms: C13_12  and  C14_13 
REMARK    8  A    between atoms: C13_12  and  C15_14 
REMARK    9  A    between atoms: C17_16  and  C16_15 
REMARK   10  A    between atoms: C17_16  and  O18_17 
REMARK   11  A    between atoms: C19_18  and  C17_16 
REMARK   12  A    between atoms: C19_18  and  N20_19 
REMARK   13  A    between atoms: C32_31  and  C19_18 
REMARK       I    between atoms: N20_19  and  C21_20 
REMARK   14  A    between atoms: C21_20  and  O23_22 
REMARK   15  A    between atoms: O23_22  and  C24_23 
REMARK   16  A    between atoms: C38_37  and  C32_31 
REMARK   17  A    between atoms: O39_38  and  C40_39 
ROOT
ATOM      1  C19 G52 d   1      15.103  22.932  16.931  0.00  0.00     0.044 C 
ATOM      2  H18 G52 d   1      16.027  22.406  16.651  0.00  0.00     0.077 H 
ENDROOT
BRANCH   1   3
ATOM      3  C17 G52 d   1      15.444  24.091  17.870  0.00  0.00     0.071 C 
ATOM      4  H16 G52 d   1      15.779  23.652  18.822  0.00  0.00     0.088 H 
BRANCH   3   5
ATOM      5  C16 G52 d   1      16.598  24.944  17.342  0.00  0.00     0.031 C 
ATOM      6  H14 G52 d   1      16.379  25.250  16.308  0.00  0.00     0.069 H 
ATOM      7  H15 G52 d   1      16.706  25.838  17.974  0.00  0.00     0.069 H 
BRANCH   5   8
ATOM      8  N11 G52 d   1      17.848  24.184  17.365  0.00  0.00    -0.304 N 
BRANCH   8   9
ATOM      9  S8  G52 d   1      18.563  23.948  15.908  0.00  0.00     0.260 S 
ATOM     10  O9  G52 d   1      17.496  23.772  14.880  0.00  0.00    -0.200 OA
ATOM     11  O10 G52 d   1      19.457  22.759  16.002  0.00  0.00    -0.200 OA
BRANCH   9  12
ATOM     12  C5  G52 d   1      19.516  25.365  15.486  0.00  0.00     0.079 A 
ATOM     13  C4  G52 d   1      18.926  26.445  14.831  0.00  0.00    -0.058 A 
ATOM     14  C3  G52 d   1      19.684  27.573  14.535  0.00  0.00    -0.049 A 
ATOM     15  H2  G52 d   1      17.879  26.406  14.553  0.00  0.00     0.086 H 
ATOM     16  C2  G52 d   1      21.030  27.665  14.900  0.00  0.00     0.068 A 
ATOM     17  H1  G52 d   1      19.220  28.400  14.009  0.00  0.00     0.087 H 
ATOM     18  C7  G52 d   1      21.636  26.572  15.527  0.00  0.00    -0.049 A 
ATOM     19  C6  G52 d   1      20.856  25.457  15.823  0.00  0.00    -0.058 A 
ATOM     20  H4  G52 d   1      22.691  26.592  15.777  0.00  0.00     0.087 H 
ATOM     21  H3  G52 d   1      21.318  24.624  16.340  0.00  0.00     0.086 H 
BRANCH  16  22
ATOM     22  O39 G52 d   1      21.694  28.825  14.673  0.00  0.00    -0.356 OA
BRANCH  22  23
ATOM     23  C40 G52 d   1      23.073  28.731  15.037  0.00  0.00     0.010 C 
ATOM     24  H34 G52 d   1      23.571  29.691  14.837  0.00  0.00     0.066 H 
ATOM     25  H35 G52 d   1      23.555  27.938  14.447  0.00  0.00     0.066 H 
ATOM     26  H36 G52 d   1      23.154  28.492  16.108  0.00  0.00     0.066 H 
ENDBRANCH  22  23
ENDBRANCH  16  22
ENDBRANCH   9  12
ENDBRANCH   8   9
BRANCH   8  27
ATOM     27  C12 G52 d   1      18.745  24.552  18.441  0.00  0.00     0.008 C 
ATOM     28  H5  G52 d   1      18.664  25.636  18.607  0.00  0.00     0.066 H 
ATOM     29  H6  G52 d   1      19.773  24.303  18.139  0.00  0.00     0.066 H 
BRANCH  27  30
ATOM     30  C13 G52 d   1      18.439  23.832  19.764  0.00  0.00    -0.045 C 
ATOM     31  H7  G52 d   1      17.389  24.020  20.033  0.00  0.00     0.041 H 
BRANCH  30  32
ATOM     32  C14 G52 d   1      18.664  22.315  19.669  0.00  0.00    -0.072 C 
ATOM     33  H8  G52 d   1      18.432  21.849  20.638  0.00  0.00     0.028 H 
ATOM     34  H9  G52 d   1      19.714  22.116  19.408  0.00  0.00     0.028 H 
ATOM     35  H10 G52 d   1      18.007  21.895  18.893  0.00  0.00     0.028 H 
ENDBRANCH  30  32
BRANCH  30  36
ATOM     36  C15 G52 d   1      19.360  24.383  20.869  0.00  0.00    -0.072 C 
ATOM     37  H11 G52 d   1      19.217  25.470  20.957  0.00  0.00     0.028 H 
ATOM     38  H12 G52 d   1      20.408  24.170  20.613  0.00  0.00     0.028 H 
ATOM     39  H13 G52 d   1      19.112  23.902  21.827  0.00  0.00     0.028 H 
ENDBRANCH  30  36
ENDBRANCH  27  30
ENDBRANCH   8  27
ENDBRANCH   5   8
ENDBRANCH   3   5
BRANCH   3  40
ATOM     40  O18 G52 d   1      14.278  24.873  18.149  0.00  0.00    -0.392 OA
ATOM     41  H17 G52 d   1      13.988  25.303  17.353  0.00  0.00     0.210 HD
ENDBRANCH   3  40
ENDBRANCH   1   3
BRANCH   1  42
ATOM     42  N20 G52 d   1      14.191  22.013  17.617  0.00  0.00    -0.329 N 
ATOM     43  C21 G52 d   1      14.462  20.751  17.968  0.00  0.00     0.361 C 
ATOM     44  O22 G52 d   1      15.569  20.232  17.775  0.00  0.00    -0.238 OA
ATOM     45  H19 G52 d   1      13.282  22.362  17.844  0.00  0.00     0.165 HD
BRANCH  43  46
ATOM     46  O23 G52 d   1      13.420  20.086  18.532  0.00  0.00    -0.296 OA
BRANCH  46  47
ATOM     47  C24 G52 d   1      13.686  18.706  18.802  0.00  0.00     0.078 C 
ATOM     48  C25 G52 d   1      13.226  18.440  20.239  0.00  0.00     0.048 C 
ATOM     49  O26 G52 d   1      11.799  18.287  20.179  0.00  0.00    -0.358 OA
ATOM     50  H21 G52 d   1      13.492  19.287  20.888  0.00  0.00     0.078 H 
ATOM     51  H22 G52 d   1      13.692  17.522  20.625  0.00  0.00     0.078 H 
ATOM     52  C27 G52 d   1      11.440  17.936  18.851  0.00  0.00     0.140 C 
ATOM     53  O28 G52 d   1      10.648  18.988  18.313  0.00  0.00    -0.331 OA
ATOM     54  C31 G52 d   1      12.686  17.857  17.999  0.00  0.00     0.030 C 
ATOM     55  H23 G52 d   1      10.894  16.981  18.837  0.00  0.00     0.129 H 
ATOM     56  C29 G52 d   1      11.107  19.404  17.049  0.00  0.00     0.138 C 
ATOM     57  C30 G52 d   1      12.281  18.506  16.667  0.00  0.00     0.006 C 
ATOM     58  O41 G52 d   1      10.089  19.131  16.079  0.00  0.00    -0.361 OA
ATOM     59  H24 G52 d   1      11.388  20.468  17.056  0.00  0.00     0.129 H 
ATOM     60  C43 G52 d   1      11.656  17.499  15.701  0.00  0.00    -0.037 C 
ATOM     61  H25 G52 d   1      13.119  19.049  16.206  0.00  0.00     0.048 H 
ATOM     62  C42 G52 d   1      10.153  17.714  15.848  0.00  0.00     0.023 C 
ATOM     63  H39 G52 d   1      11.931  16.471  15.979  0.00  0.00     0.036 H 
ATOM     64  H40 G52 d   1      11.978  17.698  14.668  0.00  0.00     0.036 H 
ATOM     65  H37 G52 d   1       9.615  17.431  14.931  0.00  0.00     0.074 H 
ATOM     66  H38 G52 d   1       9.748  17.149  16.700  0.00  0.00     0.074 H 
ATOM     67  H26 G52 d   1      13.052  16.830  17.849  0.00  0.00     0.052 H 
ATOM     68  H20 G52 d   1      14.736  18.438  18.616  0.00  0.00     0.088 H 
ENDBRANCH  46  47
ENDBRANCH  43  46
ENDBRANCH   1  42
BRANCH   1  69
ATOM     69  C32 G52 d   1      14.396  23.436  15.670  0.00  0.00    -0.020 C 
ATOM     70  H27 G52 d   1      15.052  24.145  15.143  0.00  0.00     0.043 H 
ATOM     71  H28 G52 d   1      13.461  23.942  15.953  0.00  0.00     0.043 H 
BRANCH  69  72
ATOM     72  C38 G52 d   1      14.075  22.256  14.745  0.00  0.00    -0.056 A 
ATOM     73  C33 G52 d   1      12.763  21.830  14.584  0.00  0.00    -0.077 A 
ATOM     74  C34 G52 d   1      12.474  20.744  13.759  0.00  0.00    -0.082 A 
ATOM     75  H29 G52 d   1      11.961  22.344  15.102  0.00  0.00     0.084 H 
ATOM     76  C35 G52 d   1      13.495  20.075  13.081  0.00  0.00    -0.083 A 
ATOM     77  H30 G52 d   1      11.447  20.416  13.643  0.00  0.00     0.083 H 
ATOM     78  C36 G52 d   1      14.801  20.545  13.206  0.00  0.00    -0.082 A 
ATOM     79  H31 G52 d   1      13.276  19.207  12.470  0.00  0.00     0.083 H 
ATOM     80  C37 G52 d   1      15.093  21.620  14.050  0.00  0.00    -0.077 A 
ATOM     81  H32 G52 d   1      15.598  20.072  12.643  0.00  0.00     0.083 H 
ATOM     82  H33 G52 d   1      16.117  21.957  14.162  0.00  0.00     0.084 H 
ENDBRANCH  69  72
ENDBRANCH   1  69
TORSDOF 17
