REMARK  17 active torsions:
REMARK  status: ('A' for Active; 'I' for Inactive)
REMARK    1  A    between atoms: C2_1  and  O39_38 
REMARK    2  A    between atoms: S8_7  and  C5_4 
REMARK    3  A    between atoms: N11_10  and  S8_7 
REMARK    4  A    between atoms: N11_10  and  C12_11 
REMARK    5  A    between atoms: C16_15  and  N11_10 
REMARK    6  A    between atoms: C12_11  and  C13_12 
REMARK    7  A    between atoms: C13_12  and  C14_13 
REMARK    8  A    between atoms: C13_12  and  C15_14 
REMARK    9  A    between atoms: C17_16  and  C16_15 
REMARK   10  A    between atoms: C17_16  and  O18_17 
REMARK   11  A    between atoms: C19_18  and  C17_16 
REMARK   12  A    between atoms: C19_18  and  N20_19 
REMARK   13  A    between atoms: C32_31  and  C19_18 
REMARK       I    between atoms: N20_19  and  C21_20 
REMARK   14  A    between atoms: C21_20  and  O23_22 
REMARK   15  A    between atoms: O23_22  and  C24_23 
REMARK   16  A    between atoms: C38_37  and  C32_31 
REMARK   17  A    between atoms: O39_38  and  C40_39 
ROOT
ATOM      1  C19 G52 d   1      12.272 -19.214 -18.738  0.00  0.00     0.044 C 
ATOM      2  H18 G52 d   1      12.012 -20.189 -18.300  0.00  0.00     0.077 H 
ENDROOT
BRANCH   1   3
ATOM      3  C17 G52 d   1      13.754 -18.997 -18.462  0.00  0.00     0.071 C 
ATOM      4  H16 G52 d   1      13.865 -18.846 -17.378  0.00  0.00     0.088 H 
BRANCH   3   5
ATOM      5  C16 G52 d   1      14.622 -20.184 -18.872  0.00  0.00     0.031 C 
ATOM      6  H14 G52 d   1      14.296 -20.544 -19.859  0.00  0.00     0.069 H 
ATOM      7  H15 G52 d   1      15.671 -19.860 -18.929  0.00  0.00     0.069 H 
BRANCH   5   8
ATOM      8  N11 G52 d   1      14.511 -21.262 -17.914  0.00  0.00    -0.304 N 
BRANCH   8   9
ATOM      9  S8  G52 d   1      13.887 -22.675 -18.465  0.00  0.00     0.260 S 
ATOM     10  O9  G52 d   1      12.956 -22.318 -19.567  0.00  0.00    -0.200 OA
ATOM     11  O10 G52 d   1      13.313 -23.351 -17.293  0.00  0.00    -0.200 OA
BRANCH   9  12
ATOM     12  C5  G52 d   1      15.245 -23.579 -19.099  0.00  0.00     0.079 A 
ATOM     13  C4  G52 d   1      15.616 -23.398 -20.398  0.00  0.00    -0.058 A 
ATOM     14  C3  G52 d   1      16.659 -24.110 -20.962  0.00  0.00    -0.049 A 
ATOM     15  H2  G52 d   1      15.080 -22.677 -21.005  0.00  0.00     0.086 H 
ATOM     16  C2  G52 d   1      17.344 -25.032 -20.177  0.00  0.00     0.068 A 
ATOM     17  H1  G52 d   1      16.938 -23.952 -21.998  0.00  0.00     0.087 H 
ATOM     18  C7  G52 d   1      16.919 -25.292 -18.880  0.00  0.00    -0.049 A 
ATOM     19  C6  G52 d   1      15.858 -24.561 -18.357  0.00  0.00    -0.058 A 
ATOM     20  H4  G52 d   1      17.408 -26.054 -18.284  0.00  0.00     0.087 H 
ATOM     21  H3  G52 d   1      15.510 -24.768 -17.352  0.00  0.00     0.086 H 
BRANCH  16  22
ATOM     22  O39 G52 d   1      18.388 -25.644 -20.778  0.00  0.00    -0.356 OA
BRANCH  22  23
ATOM     23  C40 G52 d   1      19.072 -26.522 -19.886  0.00  0.00     0.010 C 
ATOM     24  H34 G52 d   1      19.912 -26.998 -20.413  0.00  0.00     0.066 H 
ATOM     25  H35 G52 d   1      18.377 -27.296 -19.529  0.00  0.00     0.066 H 
ATOM     26  H36 G52 d   1      19.455 -25.949 -19.029  0.00  0.00     0.066 H 
ENDBRANCH  22  23
ENDBRANCH  16  22
ENDBRANCH   9  12
ENDBRANCH   8   9
BRANCH   8  27
ATOM     27  C12 G52 d   1      15.550 -21.375 -16.941  0.00  0.00     0.008 C 
ATOM     28  H5  G52 d   1      16.515 -21.200 -17.438  0.00  0.00     0.066 H 
ATOM     29  H6  G52 d   1      15.531 -22.393 -16.526  0.00  0.00     0.066 H 
BRANCH  27  30
ATOM     30  C13 G52 d   1      15.408 -20.377 -15.788  0.00  0.00    -0.045 C 
ATOM     31  H7  G52 d   1      15.474 -19.354 -16.186  0.00  0.00     0.041 H 
BRANCH  30  32
ATOM     32  C14 G52 d   1      14.089 -20.566 -15.082  0.00  0.00    -0.072 C 
ATOM     33  H8  G52 d   1      14.007 -19.841 -14.259  0.00  0.00     0.028 H 
ATOM     34  H9  G52 d   1      14.032 -21.587 -14.678  0.00  0.00     0.028 H 
ATOM     35  H10 G52 d   1      13.266 -20.407 -15.794  0.00  0.00     0.028 H 
ENDBRANCH  30  32
BRANCH  30  36
ATOM     36  C15 G52 d   1      16.513 -20.605 -14.753  0.00  0.00    -0.072 C 
ATOM     37  H11 G52 d   1      17.495 -20.476 -15.231  0.00  0.00     0.028 H 
ATOM     38  H12 G52 d   1      16.433 -21.625 -14.350  0.00  0.00     0.028 H 
ATOM     39  H13 G52 d   1      16.405 -19.878 -13.935  0.00  0.00     0.028 H 
ENDBRANCH  30  36
ENDBRANCH  27  30
ENDBRANCH   8  27
ENDBRANCH   5   8
ENDBRANCH   3   5
BRANCH   3  40
ATOM     40  O18 G52 d   1      14.270 -17.856 -19.129  0.00  0.00    -0.392 OA
ATOM     41  H17 G52 d   1      14.229 -17.994 -20.068  0.00  0.00     0.210 HD
ENDBRANCH   3  40
ENDBRANCH   1   3
BRANCH   1  42
ATOM     42  N20 G52 d   1      11.438 -18.208 -18.122  0.00  0.00    -0.329 N 
ATOM     43  C21 G52 d   1      10.647 -18.321 -17.061  0.00  0.00     0.361 C 
ATOM     44  O22 G52 d   1      10.514 -19.338 -16.355  0.00  0.00    -0.238 OA
ATOM     45  H19 G52 d   1      11.459 -17.305 -18.552  0.00  0.00     0.165 HD
BRANCH  43  46
ATOM     46  O23 G52 d   1      10.035 -17.144 -16.779  0.00  0.00    -0.296 OA
BRANCH  46  47
ATOM     47  C24 G52 d   1       9.049 -17.188 -15.755  0.00  0.00     0.078 C 
ATOM     48  C25 G52 d   1       9.280 -15.947 -14.879  0.00  0.00     0.048 C 
ATOM     49  O26 G52 d   1       8.662 -14.840 -15.562  0.00  0.00    -0.358 OA
ATOM     50  H21 G52 d   1      10.358 -15.764 -14.757  0.00  0.00     0.078 H 
ATOM     51  H22 G52 d   1       8.818 -16.089 -13.891  0.00  0.00     0.078 H 
ATOM     52  C27 G52 d   1       7.675 -15.349 -16.481  0.00  0.00     0.140 C 
ATOM     53  O28 G52 d   1       8.022 -15.066 -17.846  0.00  0.00    -0.331 OA
ATOM     54  C31 G52 d   1       7.650 -16.858 -16.328  0.00  0.00     0.030 C 
ATOM     55  H23 G52 d   1       6.691 -14.917 -16.248  0.00  0.00     0.129 H 
ATOM     56  C29 G52 d   1       7.900 -16.229 -18.662  0.00  0.00     0.138 C 
ATOM     57  C30 G52 d   1       7.437 -17.362 -17.745  0.00  0.00     0.006 C 
ATOM     58  O41 G52 d   1       6.861 -16.075 -19.639  0.00  0.00    -0.361 OA
ATOM     59  H24 G52 d   1       8.859 -16.463 -19.146  0.00  0.00     0.129 H 
ATOM     60  C43 G52 d   1       5.982 -17.569 -18.130  0.00  0.00    -0.037 C 
ATOM     61  H25 G52 d   1       8.010 -18.287 -17.905  0.00  0.00     0.048 H 
ATOM     62  C42 G52 d   1       5.654 -16.301 -18.896  0.00  0.00     0.023 C 
ATOM     63  H39 G52 d   1       5.346 -17.669 -17.238  0.00  0.00     0.036 H 
ATOM     64  H40 G52 d   1       5.863 -18.458 -18.766  0.00  0.00     0.036 H 
ATOM     65  H37 G52 d   1       4.795 -16.451 -19.567  0.00  0.00     0.074 H 
ATOM     66  H38 G52 d   1       5.444 -15.465 -18.212  0.00  0.00     0.074 H 
ATOM     67  H26 G52 d   1       6.853 -17.213 -15.658  0.00  0.00     0.052 H 
ATOM     68  H20 G52 d   1       9.075 -18.138 -15.202  0.00  0.00     0.088 H 
ENDBRANCH  46  47
ENDBRANCH  43  46
ENDBRANCH   1  42
BRANCH   1  69
ATOM     69  C32 G52 d   1      11.889 -19.254 -20.215  0.00  0.00    -0.020 C 
ATOM     70  H27 G52 d   1      12.493 -20.024 -20.717  0.00  0.00     0.043 H 
ATOM     71  H28 G52 d   1      12.100 -18.272 -20.663  0.00  0.00     0.043 H 
BRANCH  69  72
ATOM     72  C38 G52 d   1      10.416 -19.578 -20.416  0.00  0.00    -0.056 A 
ATOM     73  C33 G52 d   1       9.566 -18.634 -20.962  0.00  0.00    -0.077 A 
ATOM     74  C34 G52 d   1       8.230 -18.964 -21.081  0.00  0.00    -0.082 A 
ATOM     75  H29 G52 d   1       9.935 -17.668 -21.286  0.00  0.00     0.084 H 
ATOM     76  C35 G52 d   1       7.704 -20.166 -20.609  0.00  0.00    -0.083 A 
ATOM     77  H30 G52 d   1       7.562 -18.259 -21.562  0.00  0.00     0.083 H 
ATOM     78  C36 G52 d   1       8.596 -21.105 -20.115  0.00  0.00    -0.082 A 
ATOM     79  H31 G52 d   1       6.638 -20.359 -20.628  0.00  0.00     0.083 H 
ATOM     80  C37 G52 d   1       9.926 -20.806 -20.006  0.00  0.00    -0.077 A 
ATOM     81  H32 G52 d   1       8.237 -22.082 -19.813  0.00  0.00     0.083 H 
ATOM     82  H33 G52 d   1      10.607 -21.541 -19.592  0.00  0.00     0.084 H 
ENDBRANCH  69  72
ENDBRANCH   1  69
TORSDOF 17
