REMARK  17 active torsions:
REMARK  status: ('A' for Active; 'I' for Inactive)
REMARK    1  A    between atoms: C2_1  and  O39_38 
REMARK    2  A    between atoms: S8_7  and  C5_4 
REMARK    3  A    between atoms: N11_10  and  S8_7 
REMARK    4  A    between atoms: N11_10  and  C12_11 
REMARK    5  A    between atoms: C16_15  and  N11_10 
REMARK    6  A    between atoms: C12_11  and  C13_12 
REMARK    7  A    between atoms: C13_12  and  C14_13 
REMARK    8  A    between atoms: C13_12  and  C15_14 
REMARK    9  A    between atoms: C17_16  and  C16_15 
REMARK   10  A    between atoms: C17_16  and  O18_17 
REMARK   11  A    between atoms: C19_18  and  C17_16 
REMARK   12  A    between atoms: C19_18  and  N20_19 
REMARK   13  A    between atoms: C32_31  and  C19_18 
REMARK       I    between atoms: N20_19  and  C21_20 
REMARK   14  A    between atoms: C21_20  and  O23_22 
REMARK   15  A    between atoms: O23_22  and  C24_23 
REMARK   16  A    between atoms: C38_37  and  C32_31 
REMARK   17  A    between atoms: O39_38  and  C40_39 
ROOT
ATOM      1  C19 G52 d   1     -12.118  19.083 -18.699  0.00  0.00     0.044 C 
ATOM      2  H18 G52 d   1     -11.827  20.039 -18.239  0.00  0.00     0.077 H 
ENDROOT
BRANCH   1   3
ATOM      3  C17 G52 d   1     -13.601  18.891 -18.408  0.00  0.00     0.071 C 
ATOM      4  H16 G52 d   1     -13.707  18.730 -17.325  0.00  0.00     0.088 H 
BRANCH   3   5
ATOM      5  C16 G52 d   1     -14.510  20.052 -18.795  0.00  0.00     0.031 C 
ATOM      6  H14 G52 d   1     -14.286  20.351 -19.830  0.00  0.00     0.069 H 
ATOM      7  H15 G52 d   1     -15.557  19.723 -18.727  0.00  0.00     0.069 H 
BRANCH   5   8
ATOM      8  N11 G52 d   1     -14.317  21.205 -17.916  0.00  0.00    -0.304 N 
BRANCH   8   9
ATOM      9  S8  G52 d   1     -13.703  22.584 -18.584  0.00  0.00     0.260 S 
ATOM     10  O9  G52 d   1     -12.812  22.160 -19.669  0.00  0.00    -0.200 OA
ATOM     11  O10 G52 d   1     -13.073  23.318 -17.499  0.00  0.00    -0.200 OA
BRANCH   9  12
ATOM     12  C5  G52 d   1     -15.014  23.516 -19.283  0.00  0.00     0.079 C 
ATOM     13  C4  G52 d   1     -15.407  23.314 -20.610  0.00  0.00    -0.058 C 
ATOM     14  C3  G52 d   1     -16.488  24.082 -21.078  0.00  0.00    -0.049 C 
ATOM     15  H2  G52 d   1     -14.902  22.598 -21.248  0.00  0.00     0.086 H 
ATOM     16  C2  G52 d   1     -17.254  24.908 -20.251  0.00  0.00     0.068 C 
ATOM     17  H1  G52 d   1     -16.739  24.031 -22.131  0.00  0.00     0.087 H 
ATOM     18  C7  G52 d   1     -16.746  25.198 -18.981  0.00  0.00    -0.049 C 
ATOM     19  C6  G52 d   1     -15.673  24.435 -18.518  0.00  0.00    -0.058 C 
ATOM     20  H4  G52 d   1     -17.172  25.990 -18.375  0.00  0.00     0.087 H 
ATOM     21  H3  G52 d   1     -15.345  24.580 -17.495  0.00  0.00     0.086 H 
BRANCH  16  22
ATOM     22  O39 G52 d   1     -18.266  25.543 -20.852  0.00  0.00    -0.356 OA
BRANCH  22  23
ATOM     23  C40 G52 d   1     -18.960  26.428 -19.965  0.00  0.00     0.010 C 
ATOM     24  H34 G52 d   1     -19.779  26.923 -20.507  0.00  0.00     0.066 H 
ATOM     25  H35 G52 d   1     -18.261  27.188 -19.584  0.00  0.00     0.066 H 
ATOM     26  H36 G52 d   1     -19.372  25.854 -19.122  0.00  0.00     0.066 H 
ENDBRANCH  22  23
ENDBRANCH  16  22
ENDBRANCH   9  12
ENDBRANCH   8   9
BRANCH   8  27
ATOM     27  C12 G52 d   1     -15.326  21.450 -16.908  0.00  0.00     0.008 C 
ATOM     28  H5  G52 d   1     -16.314  21.463 -17.392  0.00  0.00     0.066 H 
ATOM     29  H6  G52 d   1     -15.132  22.428 -16.444  0.00  0.00     0.066 H 
BRANCH  27  30
ATOM     30  C13 G52 d   1     -15.328  20.374 -15.811  0.00  0.00    -0.045 C 
ATOM     31  H7  G52 d   1     -15.510  19.376 -16.237  0.00  0.00     0.041 H 
BRANCH  30  32
ATOM     32  C14 G52 d   1     -14.001  20.411 -15.066  0.00  0.00    -0.072 C 
ATOM     33  H8  G52 d   1     -14.000  19.641 -14.280  0.00  0.00     0.028 H 
ATOM     34  H9  G52 d   1     -13.865  21.402 -14.609  0.00  0.00     0.028 H 
ATOM     35  H10 G52 d   1     -13.179  20.216 -15.771  0.00  0.00     0.028 H 
ENDBRANCH  30  32
BRANCH  30  36
ATOM     36  C15 G52 d   1     -16.429  20.768 -14.813  0.00  0.00    -0.072 C 
ATOM     37  H11 G52 d   1     -17.405  20.752 -15.319  0.00  0.00     0.028 H 
ATOM     38  H12 G52 d   1     -16.231  21.780 -14.430  0.00  0.00     0.028 H 
ATOM     39  H13 G52 d   1     -16.438  20.054 -13.976  0.00  0.00     0.028 H 
ENDBRANCH  30  36
ENDBRANCH  27  30
ENDBRANCH   8  27
ENDBRANCH   5   8
ENDBRANCH   3   5
BRANCH   3  40
ATOM     40  O18 G52 d   1     -14.064  17.725 -19.104  0.00  0.00    -0.392 OA
ATOM     41  H17 G52 d   1     -14.023  17.880 -20.041  0.00  0.00     0.210 HD
ENDBRANCH   3  40
ENDBRANCH   1   3
BRANCH   1  42
ATOM     42  N20 G52 d   1     -11.343  18.037 -18.050  0.00  0.00    -0.329 N 
ATOM     43  C21 G52 d   1     -10.609  18.137 -16.944  0.00  0.00     0.361 C 
ATOM     44  O22 G52 d   1     -10.542  19.124 -16.207  0.00  0.00    -0.238 OA
ATOM     45  H19 G52 d   1     -11.364  17.137 -18.486  0.00  0.00     0.165 HD
BRANCH  43  46
ATOM     46  O23 G52 d   1      -9.955  16.989 -16.692  0.00  0.00    -0.296 OA
BRANCH  46  47
ATOM     47  C24 G52 d   1      -8.989  16.988 -15.638  0.00  0.00     0.078 C 
ATOM     48  C25 G52 d   1      -9.246  15.729 -14.799  0.00  0.00     0.048 C 
ATOM     49  O26 G52 d   1      -8.585  14.631 -15.458  0.00  0.00    -0.358 OA
ATOM     50  H21 G52 d   1     -10.327  15.534 -14.735  0.00  0.00     0.078 H 
ATOM     51  H22 G52 d   1      -8.837  15.861 -13.787  0.00  0.00     0.078 H 
ATOM     52  C27 G52 d   1      -7.652  15.160 -16.385  0.00  0.00     0.140 C 
ATOM     53  O28 G52 d   1      -8.080  14.892 -17.767  0.00  0.00    -0.331 OA
ATOM     54  C31 G52 d   1      -7.590  16.660 -16.226  0.00  0.00     0.030 C 
ATOM     55  H23 G52 d   1      -6.662  14.716 -16.205  0.00  0.00     0.129 H 
ATOM     56  C29 G52 d   1      -7.827  16.011 -18.564  0.00  0.00     0.138 C 
ATOM     57  C30 G52 d   1      -7.371  17.162 -17.664  0.00  0.00     0.006 C 
ATOM     58  O41 G52 d   1      -6.780  15.769 -19.499  0.00  0.00    -0.361 OA
ATOM     59  H24 G52 d   1      -8.745  16.289 -19.102  0.00  0.00     0.129 H 
ATOM     60  C43 G52 d   1      -5.883  17.289 -18.045  0.00  0.00    -0.037 C 
ATOM     61  H25 G52 d   1      -7.918  18.100 -17.843  0.00  0.00     0.048 H 
ATOM     62  C42 G52 d   1      -5.563  15.982 -18.766  0.00  0.00     0.023 C 
ATOM     63  H39 G52 d   1      -5.259  17.400 -17.146  0.00  0.00     0.036 H 
ATOM     64  H40 G52 d   1      -5.724  18.150 -18.711  0.00  0.00     0.036 H 
ATOM     65  H37 G52 d   1      -4.700  16.093 -19.439  0.00  0.00     0.074 H 
ATOM     66  H38 G52 d   1      -5.371  15.165 -18.055  0.00  0.00     0.074 H 
ATOM     67  H26 G52 d   1      -6.785  17.001 -15.559  0.00  0.00     0.052 H 
ATOM     68  H20 G52 d   1      -9.010  17.922 -15.057  0.00  0.00     0.088 H 
ENDBRANCH  46  47
ENDBRANCH  43  46
ENDBRANCH   1  42
BRANCH   1  69
ATOM     69  C32 G52 d   1     -11.773  19.195 -20.188  0.00  0.00    -0.020 C 
ATOM     70  H27 G52 d   1     -12.366  20.004 -20.640  0.00  0.00     0.043 H 
ATOM     71  H28 G52 d   1     -12.007  18.244 -20.689  0.00  0.00     0.043 H 
BRANCH  69  72
ATOM     72  C38 G52 d   1     -10.286  19.503 -20.356  0.00  0.00    -0.056 A 
ATOM     73  C33 G52 d   1      -9.428  18.500 -20.773  0.00  0.00    -0.077 A 
ATOM     74  C34 G52 d   1      -8.061  18.724 -20.795  0.00  0.00    -0.082 A 
ATOM     75  H29 G52 d   1      -9.825  17.540 -21.082  0.00  0.00     0.084 H 
ATOM     76  C35 G52 d   1      -7.569  20.006 -20.483  0.00  0.00    -0.083 A 
ATOM     77  H30 G52 d   1      -7.378  17.922 -21.049  0.00  0.00     0.083 H 
ATOM     78  C36 G52 d   1      -8.438  21.005 -20.114  0.00  0.00    -0.082 A 
ATOM     79  H31 G52 d   1      -6.505  20.205 -20.534  0.00  0.00     0.083 H 
ATOM     80  C37 G52 d   1      -9.793  20.763 -20.042  0.00  0.00    -0.077 A 
ATOM     81  H32 G52 d   1      -8.055  21.991 -19.878  0.00  0.00     0.083 H 
ATOM     82  H33 G52 d   1     -10.472  21.553 -19.741  0.00  0.00     0.084 H 
ENDBRANCH  69  72
ENDBRANCH   1  69
TORSDOF 17
