REMARK  17 active torsions:
REMARK  status: ('A' for Active; 'I' for Inactive)
REMARK    1  A    between atoms: C2_1  and  O39_38 
REMARK    2  A    between atoms: S8_7  and  C5_4 
REMARK    3  A    between atoms: N11_10  and  S8_7 
REMARK    4  A    between atoms: N11_10  and  C12_11 
REMARK    5  A    between atoms: C16_15  and  N11_10 
REMARK    6  A    between atoms: C12_11  and  C13_12 
REMARK    7  A    between atoms: C13_12  and  C14_13 
REMARK    8  A    between atoms: C13_12  and  C15_14 
REMARK    9  A    between atoms: C17_16  and  C16_15 
REMARK   10  A    between atoms: C17_16  and  O18_17 
REMARK   11  A    between atoms: C19_18  and  C17_16 
REMARK   12  A    between atoms: C19_18  and  N20_19 
REMARK   13  A    between atoms: C32_31  and  C19_18 
REMARK       I    between atoms: N20_19  and  C21_20 
REMARK   14  A    between atoms: C21_20  and  O23_22 
REMARK   15  A    between atoms: O23_22  and  C24_23 
REMARK   16  A    between atoms: C38_37  and  C32_31 
REMARK   17  A    between atoms: O39_38  and  C40_39 
ROOT
ATOM      1  C19 G52 d   1     -12.101 -19.234  18.610  0.00  0.00     0.044 C 
ATOM      2  H18 G52 d   1     -11.833 -20.204  18.166  0.00  0.00     0.077 H 
ENDROOT
BRANCH   1   3
ATOM      3  C17 G52 d   1     -13.589 -19.000  18.381  0.00  0.00     0.067 C 
ATOM      4  H16 G52 d   1     -13.727 -18.854  17.299  0.00  0.00     0.088 H 
BRANCH   3   5
ATOM      5  C16 G52 d   1     -14.421 -20.208  18.782  0.00  0.00     0.019 C 
ATOM      6  H14 G52 d   1     -14.090 -20.575  19.765  0.00  0.00     0.061 H 
ATOM      7  H15 G52 d   1     -15.482 -19.924  18.835  0.00  0.00     0.061 H 
BRANCH   5   8
ATOM      8  N11 G52 d   1     -14.243 -21.257  17.780  0.00  0.00    -0.204 NA
BRANCH   8   9
ATOM      9  S8  G52 d   1     -13.654 -22.655  18.415  0.00  0.00     0.243 S 
ATOM     10  O9  G52 d   1     -12.698 -22.268  19.503  0.00  0.00    -0.206 OA
ATOM     11  O10 G52 d   1     -13.005 -23.382  17.317  0.00  0.00    -0.206 OA
BRANCH   9  12
ATOM     12  C5  G52 d   1     -14.984 -23.592  19.064  0.00  0.00     0.074 C 
ATOM     13  C4  G52 d   1     -15.357 -23.422  20.375  0.00  0.00    -0.058 C 
ATOM     14  C3  G52 d   1     -16.429 -24.148  20.869  0.00  0.00    -0.049 C 
ATOM     15  H2  G52 d   1     -14.820 -22.730  21.014  0.00  0.00     0.086 H 
ATOM     16  C2  G52 d   1     -17.188 -24.992  20.057  0.00  0.00     0.068 C 
ATOM     17  H1  G52 d   1     -16.686 -24.058  21.918  0.00  0.00     0.087 H 
ATOM     18  C7  G52 d   1     -16.749 -25.236  18.767  0.00  0.00    -0.049 C 
ATOM     19  C6  G52 d   1     -15.674 -24.496  18.273  0.00  0.00    -0.058 C 
ATOM     20  H4  G52 d   1     -17.231 -25.988  18.152  0.00  0.00     0.087 H 
ATOM     21  H3  G52 d   1     -15.370 -24.632  17.241  0.00  0.00     0.086 H 
BRANCH  16  22
ATOM     22  O39 G52 d   1     -18.219 -25.627  20.654  0.00  0.00    -0.356 OA
BRANCH  22  23
ATOM     23  C40 G52 d   1     -19.044 -26.376  19.769  0.00  0.00     0.010 C 
ATOM     24  H34 G52 d   1     -19.853 -26.856  20.340  0.00  0.00     0.066 H 
ATOM     25  H35 G52 d   1     -18.440 -27.148  19.269  0.00  0.00     0.066 H 
ATOM     26  H36 G52 d   1     -19.477 -25.703  19.014  0.00  0.00     0.066 H 
ENDBRANCH  22  23
ENDBRANCH  16  22
ENDBRANCH   9  12
ENDBRANCH   8   9
BRANCH   8  27
ATOM     27  C12 G52 d   1     -15.347 -21.412  16.859  0.00  0.00    -0.004 C 
ATOM     28  H5  G52 d   1     -16.285 -21.242  17.408  0.00  0.00     0.058 H 
ATOM     29  H6  G52 d   1     -15.332 -22.440  16.468  0.00  0.00     0.058 H 
BRANCH  27  30
ATOM     30  C13 G52 d   1     -15.296 -20.440  15.673  0.00  0.00    -0.049 C 
ATOM     31  H7  G52 d   1     -15.454 -19.417  16.046  0.00  0.00     0.040 H 
BRANCH  30  32
ATOM     32  C14 G52 d   1     -13.967 -20.507  14.916  0.00  0.00    -0.072 C 
ATOM     33  H8  G52 d   1     -13.985 -19.793  14.080  0.00  0.00     0.028 H 
ATOM     34  H9  G52 d   1     -13.818 -21.525  14.526  0.00  0.00     0.028 H 
ATOM     35  H10 G52 d   1     -13.143 -20.252  15.598  0.00  0.00     0.028 H 
ENDBRANCH  30  32
BRANCH  30  36
ATOM     36  C15 G52 d   1     -16.398 -20.807  14.651  0.00  0.00    -0.072 C 
ATOM     37  H11 G52 d   1     -17.381 -20.775  15.144  0.00  0.00     0.028 H 
ATOM     38  H12 G52 d   1     -16.216 -21.820  14.263  0.00  0.00     0.028 H 
ATOM     39  H13 G52 d   1     -16.381 -20.087  13.819  0.00  0.00     0.028 H 
ENDBRANCH  30  36
ENDBRANCH  27  30
ENDBRANCH   8  27
ENDBRANCH   5   8
ENDBRANCH   3   5
BRANCH   3  40
ATOM     40  O18 G52 d   1     -14.064 -17.815  19.029  0.00  0.00    -0.392 OA
ATOM     41  H17 G52 d   1     -14.008 -17.926  19.971  0.00  0.00     0.210 HD
ENDBRANCH   3  40
ENDBRANCH   1   3
BRANCH   1  42
ATOM     42  N20 G52 d   1     -11.319 -18.192  17.962  0.00  0.00    -0.329 N 
ATOM     43  C21 G52 d   1     -10.523 -18.275  16.897  0.00  0.00     0.361 C 
ATOM     44  O22 G52 d   1     -10.333 -19.282  16.198  0.00  0.00    -0.238 OA
ATOM     45  H19 G52 d   1     -11.389 -17.284  18.375  0.00  0.00     0.165 HD
BRANCH  43  46
ATOM     46  O23 G52 d   1      -9.890 -17.106  16.615  0.00  0.00    -0.296 OA
BRANCH  46  47
ATOM     47  C24 G52 d   1      -8.932 -17.146  15.556  0.00  0.00     0.078 C 
ATOM     48  C25 G52 d   1      -9.164 -15.892  14.710  0.00  0.00     0.048 C 
ATOM     49  O26 G52 d   1      -8.505 -14.825  15.392  0.00  0.00    -0.358 OA
ATOM     50  H21 G52 d   1     -10.241 -15.683  14.625  0.00  0.00     0.078 H 
ATOM     51  H22 G52 d   1      -8.736 -16.025  13.706  0.00  0.00     0.078 H 
ATOM     52  C27 G52 d   1      -7.451 -15.340  16.208  0.00  0.00     0.140 C 
ATOM     53  O28 G52 d   1      -7.743 -15.008  17.570  0.00  0.00    -0.331 OA
ATOM     54  C31 G52 d   1      -7.523 -16.853  16.101  0.00  0.00     0.030 C 
ATOM     55  H23 G52 d   1      -6.470 -14.952  15.897  0.00  0.00     0.129 H 
ATOM     56  C29 G52 d   1      -7.716 -16.147  18.404  0.00  0.00     0.138 C 
ATOM     57  C30 G52 d   1      -7.300 -17.329  17.529  0.00  0.00     0.006 C 
ATOM     58  O41 G52 d   1      -6.703 -16.038  19.407  0.00  0.00    -0.361 OA
ATOM     59  H24 G52 d   1      -8.702 -16.310  18.864  0.00  0.00     0.129 H 
ATOM     60  C43 G52 d   1      -5.801 -17.443  17.857  0.00  0.00    -0.037 C 
ATOM     61  H25 G52 d   1      -7.850 -18.258  17.742  0.00  0.00     0.048 H 
ATOM     62  C42 G52 d   1      -5.481 -16.223  18.700  0.00  0.00     0.023 C 
ATOM     63  H39 G52 d   1      -5.203 -17.441  16.933  0.00  0.00     0.036 H 
ATOM     64  H40 G52 d   1      -5.599 -18.365  18.422  0.00  0.00     0.036 H 
ATOM     65  H37 G52 d   1      -4.645 -16.418  19.387  0.00  0.00     0.074 H 
ATOM     66  H38 G52 d   1      -5.244 -15.351  18.072  0.00  0.00     0.074 H 
ATOM     67  H26 G52 d   1      -6.756 -17.266  15.429  0.00  0.00     0.052 H 
ATOM     68  H20 G52 d   1      -8.989 -18.085  14.987  0.00  0.00     0.088 H 
ENDBRANCH  46  47
ENDBRANCH  43  46
ENDBRANCH   1  42
BRANCH   1  69
ATOM     69  C32 G52 d   1     -11.753 -19.270  20.101  0.00  0.00    -0.020 C 
ATOM     70  H27 G52 d   1     -12.340 -20.061  20.590  0.00  0.00     0.043 H 
ATOM     71  H28 G52 d   1     -12.000 -18.298  20.553  0.00  0.00     0.043 H 
BRANCH  69  72
ATOM     72  C38 G52 d   1     -10.270 -19.552  20.299  0.00  0.00    -0.056 C 
ATOM     73  C33 G52 d   1      -9.443 -18.522  20.739  0.00  0.00    -0.077 C 
ATOM     74  C34 G52 d   1      -8.087 -18.765  20.814  0.00  0.00    -0.082 C 
ATOM     75  H29 G52 d   1      -9.853 -17.557  21.015  0.00  0.00     0.084 H 
ATOM     76  C35 G52 d   1      -7.578 -19.999  20.438  0.00  0.00    -0.083 C 
ATOM     77  H30 G52 d   1      -7.418 -17.989  21.168  0.00  0.00     0.083 H 
ATOM     78  C36 G52 d   1      -8.425 -21.054  20.125  0.00  0.00    -0.082 C 
ATOM     79  H31 G52 d   1      -6.505 -20.142  20.388  0.00  0.00     0.083 H 
ATOM     80  C37 G52 d   1      -9.781 -20.816  20.013  0.00  0.00    -0.077 C 
ATOM     81  H32 G52 d   1      -8.027 -22.051  19.971  0.00  0.00     0.083 H 
ATOM     82  H33 G52 d   1     -10.454 -21.608  19.705  0.00  0.00     0.084 H 
ENDBRANCH  69  72
ENDBRANCH   1  69
TORSDOF 17
