REMARK  7 active torsions:
REMARK  status: ('A' for Active; 'I' for Inactive)
REMARK    1  A    between atoms: N3_10  and  C8_11 
REMARK    2  A    between atoms: C5_16  and  O1_17 
REMARK    3  A    between atoms: O1_17  and  C3_18 
REMARK    4  A    between atoms: C4_23  and  N5_24 
REMARK    5  A    between atoms: C20_29  and  C23_30 
REMARK    6  A    between atoms: C23_30  and  C24_31 
REMARK    7  A    between atoms: C23_30  and  O2_32 
ROOT
ATOM      1  C3  15H d   1      13.109  88.228  38.394  0.00  0.00     0.216 A 
ATOM      2  N2  15H d   1      13.958  87.182  38.363  0.00  0.00    -0.232 NA
ATOM      3  C2  15H d   1      13.774  86.180  37.519  0.00  0.00     0.022 A 
ATOM      4  C1  15H d   1      12.691  86.203  36.645  0.00  0.00     0.021 A 
ATOM      5  N1  15H d   1      11.848  87.222  36.662  0.00  0.00    -0.238 NA
ATOM      6  C4  15H d   1      12.020  88.245  37.516  0.00  0.00     0.179 A 
ATOM      7  H10 15H d   1      14.464  85.344  37.508  0.00  0.00     0.117 H 
ATOM      8  H11 15H d   1      12.538  85.385  35.950  0.00  0.00     0.117 H 
ENDROOT
BRANCH   1   9
ATOM      9  O1  15H d   1      13.314  89.257  39.270  0.00  0.00    -0.289 OA
BRANCH   9  10
ATOM     10  C5  15H d   1      13.845  88.870  40.467  0.00  0.00     0.078 A 
ATOM     11  C10 15H d   1      13.013  88.390  41.477  0.00  0.00    -0.048 A 
ATOM     12  C9  15H d   1      13.555  87.997  42.700  0.00  0.00    -0.054 A 
ATOM     13  H7  15H d   1      11.944  88.322  41.312  0.00  0.00     0.087 H 
ATOM     14  C8  15H d   1      14.929  88.084  42.927  0.00  0.00     0.034 A 
ATOM     15  H6  15H d   1      12.904  87.621  43.481  0.00  0.00     0.087 H 
ATOM     16  C7  15H d   1      15.759  88.567  41.911  0.00  0.00    -0.054 A 
ATOM     17  C6  15H d   1      15.221  88.962  40.687  0.00  0.00    -0.048 A 
ATOM     18  H8  15H d   1      16.828  88.635  42.076  0.00  0.00     0.087 H 
ATOM     19  H9  15H d   1      15.871  89.341  39.906  0.00  0.00     0.087 H 
BRANCH  14  20
ATOM     20  N3  15H d   1      15.392  87.686  44.121  0.00  0.00    -0.335 N 
ATOM     21  C11 15H d   1      16.601  87.929  44.640  0.00  0.00     0.172 A 
ATOM     22  N4  15H d   1      17.753  88.095  43.975  0.00  0.00    -0.223 NA
ATOM     23  S1  15H d   1      16.904  88.045  46.285  0.00  0.00    -0.050 SA
ATOM     24  C13 15H d   1      18.841  88.317  44.749  0.00  0.00     0.076 A 
ATOM     25  C17 15H d   1      20.162  88.532  44.350  0.00  0.00    -0.054 A 
ATOM     26  C12 15H d   1      18.554  88.325  46.128  0.00  0.00     0.037 A 
ATOM     27  C16 15H d   1      21.171  88.746  45.290  0.00  0.00    -0.081 A 
ATOM     28  H1  15H d   1      20.407  88.533  43.294  0.00  0.00     0.087 H 
ATOM     29  C15 15H d   1      20.870  88.752  46.652  0.00  0.00    -0.082 A 
ATOM     30  H2  15H d   1      22.191  88.908  44.961  0.00  0.00     0.083 H 
ATOM     31  C14 15H d   1      19.559  88.540  47.072  0.00  0.00    -0.064 A 
ATOM     32  H3  15H d   1      21.654  88.921  47.381  0.00  0.00     0.083 H 
ATOM     33  H4  15H d   1      19.320  88.542  48.129  0.00  0.00     0.085 H 
ATOM     34  H5  15H d   1      14.746  87.133  44.702  0.00  0.00     0.168 HD
ENDBRANCH  14  20
ENDBRANCH   9  10
ENDBRANCH   1   9
BRANCH   6  35
ATOM     35  N5  15H d   1      11.096  89.305  37.483  0.00  0.00    -0.362 N 
ATOM     36  C22 15H d   1      10.167  89.536  38.639  0.00  0.00    -0.003 C 
ATOM     37  C21 15H d   1       9.698  91.003  38.752  0.00  0.00    -0.044 C 
ATOM     38  H12 15H d   1      10.688  89.262  39.568  0.00  0.00     0.064 H 
ATOM     39  H13 15H d   1       9.283  88.894  38.512  0.00  0.00     0.064 H 
ATOM     40  C20 15H d   1       9.371  91.605  37.371  0.00  0.00    -0.027 C 
ATOM     41  H14 15H d   1      10.496  91.597  39.220  0.00  0.00     0.036 H 
ATOM     42  H15 15H d   1       8.796  91.041  39.380  0.00  0.00     0.036 H 
ATOM     43  C19 15H d   1      10.636  91.563  36.508  0.00  0.00    -0.044 C 
ATOM     44  H20 15H d   1       8.621  90.952  36.900  0.00  0.00     0.044 H 
ATOM     45  C18 15H d   1      11.035  90.112  36.228  0.00  0.00    -0.003 C 
ATOM     46  H18 15H d   1      10.443  92.078  35.555  0.00  0.00     0.036 H 
ATOM     47  H19 15H d   1      11.455  92.070  37.039  0.00  0.00     0.036 H 
ATOM     48  H16 15H d   1      10.294  89.663  35.551  0.00  0.00     0.064 H 
ATOM     49  H17 15H d   1      12.025  90.101  35.748  0.00  0.00     0.064 H 
BRANCH  40  50
ATOM     50  C23 15H d   1       8.755  93.021  37.421  0.00  0.00     0.035 C 
ATOM     51  H21 15H d   1       8.950  93.500  36.450  0.00  0.00     0.082 H 
BRANCH  50  52
ATOM     52  C24 15H d   1       9.374  93.921  38.500  0.00  0.00    -0.052 C 
ATOM     53  H22 15H d   1       8.889  94.908  38.477  0.00  0.00     0.030 H 
ATOM     54  H23 15H d   1      10.451  94.037  38.307  0.00  0.00     0.030 H 
ATOM     55  H24 15H d   1       9.226  93.463  39.489  0.00  0.00     0.030 H 
ENDBRANCH  50  52
BRANCH  50  56
ATOM     56  O2  15H d   1       7.333  92.918  37.585  0.00  0.00    -0.396 OA
ATOM     57  H25 15H d   1       6.944  93.782  37.519  0.00  0.00     0.210 HD
ENDBRANCH  50  56
ENDBRANCH  40  50
ENDBRANCH   6  35
TORSDOF 7
