REMARK  11 active torsions:
REMARK  status: ('A' for Active; 'I' for Inactive)
REMARK    1  A    between atoms: C8_11  and  S_1 
REMARK    2  A    between atoms: S_1  and  N1_15 
REMARK    3  A    between atoms: C2_5  and  C10_13 
REMARK    4  A    between atoms: N1_15  and  CA_16 
REMARK    5  A    between atoms: CA_16  and  C_17 
REMARK    6  A    between atoms: CA_16  and  CB_19 
REMARK       I    between atoms: C_17  and  N2_26 
REMARK    7  A    between atoms: CB_19  and  CG_20 
REMARK    8  A    between atoms: CG_20  and  CD_21 
REMARK    9  A    between atoms: CD_21  and  NE_22 
REMARK       I    between atoms: NE_22  and  CZ_23 
REMARK       I    between atoms: CZ_23  and  NH1_24 
REMARK   10  A    between atoms: C11_27  and  C61_32 
REMARK   11  A    between atoms: C31_29  and  C71_35 
ROOT
ATOM      1  CA  15U d   1       5.221  14.265  -0.031  0.00  0.00     0.097 C 
ATOM      2  H14 15U d   1       4.803  15.203   0.363  0.00  0.00     0.088 H 
ENDROOT
BRANCH   1   3
ATOM      3  N1  15U d   1       4.146  13.289  -0.092  0.00  0.00    -0.301 N 
ATOM      4  H13 15U d   1       4.355  12.325  -0.258  0.00  0.00     0.173 HD
BRANCH   3   5
ATOM      5  S   15U d   1       2.627  13.756   0.106  0.00  0.00     0.261 S 
ATOM      6  O1  15U d   1       1.796  12.587   0.188  0.00  0.00    -0.200 OA
ATOM      7  O2  15U d   1       2.519  14.499   1.336  0.00  0.00    -0.200 OA
BRANCH   5   8
ATOM      8  C8  15U d   1       2.227  14.690  -1.137  0.00  0.00     0.106 A 
ATOM      9  C7  15U d   1       1.709  15.964  -0.914  0.00  0.00    -0.058 A 
ATOM     10  C6  15U d   1       1.357  16.810  -1.970  0.00  0.00    -0.081 A 
ATOM     11  H8  15U d   1       1.575  16.308   0.105  0.00  0.00     0.086 H 
ATOM     12  C5  15U d   1       1.504  16.435  -3.308  0.00  0.00    -0.075 A 
ATOM     13  H7  15U d   1       0.956  17.791  -1.743  0.00  0.00     0.083 H 
ATOM     14  C4  15U d   1       2.018  15.182  -3.641  0.00  0.00    -0.030 A 
ATOM     15  H6  15U d   1       1.216  17.124  -4.094  0.00  0.00     0.084 H 
ATOM     16  C3  15U d   1       2.180  14.779  -5.095  0.00  0.00    -0.034 C 
ATOM     17  C9  15U d   1       2.410  14.244  -2.548  0.00  0.00     0.058 A 
ATOM     18  C2  15U d   1       3.206  13.656  -5.211  0.00  0.00    -0.038 C 
ATOM     19  H4  15U d   1       1.213  14.431  -5.487  0.00  0.00     0.040 H 
ATOM     20  H5  15U d   1       2.522  15.647  -5.678  0.00  0.00     0.040 H 
ATOM     21  C1  15U d   1       2.859  12.535  -4.232  0.00  0.00    -0.004 C 
ATOM     22  H3  15U d   1       4.190  14.062  -4.933  0.00  0.00     0.042 H 
ATOM     23  N   15U d   1       2.910  13.024  -2.861  0.00  0.00    -0.388 N 
ATOM     24  H1  15U d   1       3.581  11.714  -4.351  0.00  0.00     0.064 H 
ATOM     25  H2  15U d   1       1.845  12.166  -4.448  0.00  0.00     0.064 H 
ATOM     26  H12 15U d   1       3.329  12.438  -2.124  0.00  0.00     0.159 HD
BRANCH  18  27
ATOM     27  C10 15U d   1       3.304  13.130  -6.640  0.00  0.00    -0.071 C 
ATOM     28  H9  15U d   1       4.051  12.324  -6.684  0.00  0.00     0.028 H 
ATOM     29  H10 15U d   1       3.606  13.947  -7.312  0.00  0.00     0.028 H 
ATOM     30  H11 15U d   1       2.325  12.740  -6.955  0.00  0.00     0.028 H 
ENDBRANCH  18  27
ENDBRANCH   5   8
ENDBRANCH   3   5
ENDBRANCH   1   3
BRANCH   1  31
ATOM     31  C   15U d   1       5.782  14.569  -1.402  0.00  0.00     0.244 C 
ATOM     32  O   15U d   1       5.719  13.709  -2.264  0.00  0.00    -0.271 OA
ATOM     33  N2  15U d   1       6.333  15.765  -1.651  0.00  0.00    -0.336 N 
ATOM     34  C11 15U d   1       6.421  16.796  -0.597  0.00  0.00     0.099 C 
ATOM     35  C51 15U d   1       6.918  16.153  -2.946  0.00  0.00    -0.001 C 
ATOM     36  C21 15U d   1       5.855  18.129  -1.110  0.00  0.00    -0.033 C 
ATOM     37  H26 15U d   1       5.783  16.473   0.239  0.00  0.00     0.089 H 
ATOM     38  C31 15U d   1       6.396  18.520  -2.484  0.00  0.00    -0.054 C 
ATOM     39  H27 15U d   1       6.117  18.920  -0.392  0.00  0.00     0.037 H 
ATOM     40  H28 15U d   1       4.760  18.042  -1.176  0.00  0.00     0.037 H 
ATOM     41  C41 15U d   1       6.145  17.369  -3.452  0.00  0.00    -0.047 C 
ATOM     42  H29 15U d   1       7.483  18.661  -2.395  0.00  0.00     0.039 H 
ATOM     43  H30 15U d   1       6.496  17.643  -4.458  0.00  0.00     0.035 H 
ATOM     44  H31 15U d   1       5.070  17.140  -3.489  0.00  0.00     0.035 H 
ATOM     45  H32 15U d   1       6.826  15.324  -3.663  0.00  0.00     0.064 H 
ATOM     46  H33 15U d   1       7.980  16.410  -2.817  0.00  0.00     0.064 H 
BRANCH  34  47
ATOM     47  C61 15U d   1       7.828  16.905  -0.060  0.00  0.00     0.197 C 
ATOM     48  O11 15U d   1       8.602  15.936  -0.216  0.00  0.00    -0.646 OA
ATOM     49  O21 15U d   1       8.178  17.951   0.530  0.00  0.00    -0.646 OA
ENDBRANCH  34  47
BRANCH  38  50
ATOM     50  C71 15U d   1       5.805  19.833  -2.986  0.00  0.00    -0.073 C 
ATOM     51  H34 15U d   1       6.011  20.630  -2.257  0.00  0.00     0.028 H 
ATOM     52  H35 15U d   1       4.718  19.722  -3.111  0.00  0.00     0.028 H 
ATOM     53  H36 15U d   1       6.260  20.094  -3.953  0.00  0.00     0.028 H 
ENDBRANCH  38  50
ENDBRANCH   1  31
BRANCH   1  54
ATOM     54  CB  15U d   1       6.286  13.781   0.959  0.00  0.00    -0.036 C 
ATOM     55  H15 15U d   1       5.780  13.418   1.865  0.00  0.00     0.036 H 
ATOM     56  H16 15U d   1       6.934  14.632   1.217  0.00  0.00     0.036 H 
BRANCH  54  57
ATOM     57  CG  15U d   1       7.159  12.658   0.411  0.00  0.00    -0.048 C 
ATOM     58  H17 15U d   1       7.449  12.897  -0.623  0.00  0.00     0.035 H 
ATOM     59  H18 15U d   1       6.589  11.717   0.424  0.00  0.00     0.035 H 
BRANCH  57  60
ATOM     60  CD  15U d   1       8.411  12.495   1.256  0.00  0.00     0.009 C 
ATOM     61  H19 15U d   1       8.256  12.985   2.228  0.00  0.00     0.064 H 
ATOM     62  H20 15U d   1       9.259  12.967   0.738  0.00  0.00     0.064 H 
BRANCH  60  63
ATOM     63  NE  15U d   1       8.707  11.093   1.473  0.00  0.00    -0.227 N 
ATOM     64  CZ  15U d   1       9.512  10.378   0.684  0.00  0.00     0.665 C 
ATOM     65  NH1 15U d   1       9.637   9.072   0.924  0.00  0.00    -0.235 N 
ATOM     66  NH2 15U d   1      10.149  10.912  -0.274  0.00  0.00    -0.235 N 
ATOM     67  H22 15U d   1      10.251   8.496   0.331  0.00  0.00     0.174 HD
ATOM     68  H23 15U d   1       9.119   8.639   1.702  0.00  0.00     0.174 HD
ATOM     69  H24 15U d   1      10.052  11.921  -0.458  0.00  0.00     0.174 HD
ATOM     70  H25 15U d   1      10.764  10.337  -0.868  0.00  0.00     0.174 HD
ATOM     71  H21 15U d   1       8.273  10.623   2.280  0.00  0.00     0.177 HD
ENDBRANCH  60  63
ENDBRANCH  57  60
ENDBRANCH  54  57
ENDBRANCH   1  54
TORSDOF 11
