REMARK  4 active torsions:
REMARK  status: ('A' for Active; 'I' for Inactive)
REMARK    1  A    between atoms: C7_6  and  C5_3 
REMARK    2  A    between atoms: C11_5  and  N5_20 
REMARK       I    between atoms: N6_22  and  C7_6 
REMARK    3  A    between atoms: C8_7  and  C12_10 
REMARK    4  A    between atoms: C10_9  and  N6_22 
ROOT
ATOM      1  C8  15V d   1      54.742   9.402   6.075  0.00  0.00     0.055 A 
ATOM      2  C9  15V d   1      55.954  10.002   6.443  0.00  0.00    -0.013 A 
ATOM      3  C10 15V d   1      56.797   9.750   5.361  0.00  0.00     0.134 A 
ATOM      4  N5  15V d   1      56.120   9.095   4.447  0.00  0.00    -0.217 N 
ATOM      5  N4  15V d   1      54.818   8.849   4.858  0.00  0.00    -0.171 NA
ATOM      6  H4  15V d   1      56.184  10.540   7.361  0.00  0.00     0.092 H 
ENDROOT
BRANCH   3   7
ATOM      7  N6  15V d   1      58.096  10.134   5.178  0.00  0.00    -0.307 N 
ATOM      8  C7  15V d   1      58.853  10.910   5.985  0.00  0.00     0.262 C 
ATOM      9  O1  15V d   1      58.475  11.425   7.030  0.00  0.00    -0.267 OA
ATOM     10  H12 15V d   1      58.540   9.800   4.346  0.00  0.00     0.170 HD
BRANCH   8  11
ATOM     11  C5  15V d   1      60.243  11.262   5.578  0.00  0.00     0.099 A 
ATOM     12  C6  15V d   1      61.173  12.093   6.186  0.00  0.00     0.041 A 
ATOM     13  N3  15V d   1      62.285  12.145   5.414  0.00  0.00    -0.178 NA
ATOM     14  H3  15V d   1      61.032  12.618   7.130  0.00  0.00     0.119 H 
ATOM     15  N2  15V d   1      61.964  11.365   4.295  0.00  0.00    -0.226 N 
ATOM     16  C4  15V d   1      62.769  11.147   3.248  0.00  0.00     0.007 A 
ATOM     17  C3  15V d   1      60.756  10.830   4.355  0.00  0.00     0.167 A 
ATOM     18  C1  15V d   1      62.304  10.332   2.216  0.00  0.00    -0.049 A 
ATOM     19  H1  15V d   1      63.756  11.592   3.203  0.00  0.00     0.115 H 
ATOM     20  C2  15V d   1      61.012   9.778   2.308  0.00  0.00     0.006 A 
ATOM     21  H14 15V d   1      62.929  10.127   1.354  0.00  0.00     0.087 H 
ATOM     22  N1  15V d   1      60.241  10.036   3.384  0.00  0.00    -0.240 NA
ATOM     23  H13 15V d   1      60.637   9.144   1.513  0.00  0.00     0.114 H 
ENDBRANCH   8  11
ENDBRANCH   3   7
BRANCH   4  24
ATOM     24  C11 15V d   1      56.531   8.689   3.251  0.00  0.00     0.062 A 
ATOM     25  C13 15V d   1      57.075   9.582   2.337  0.00  0.00    -0.055 A 
ATOM     26  C14 15V d   1      57.491   9.196   1.075  0.00  0.00    -0.079 A 
ATOM     27  H8  15V d   1      57.178  10.622   2.623  0.00  0.00     0.087 H 
ATOM     28  C15 15V d   1      57.368   7.872   0.690  0.00  0.00    -0.062 A 
ATOM     29  H2  15V d   1      57.911   9.926   0.392  0.00  0.00     0.083 H 
ATOM     30  C16 15V d   1      56.806   6.947   1.560  0.00  0.00     0.036 A 
ATOM     31  H10 15V d   1      57.710   7.558  -0.289  0.00  0.00     0.086 H 
ATOM     32 CL1  15V d   1      56.633   5.233   1.029  0.00  0.00    -0.084 Cl
ATOM     33  C17 15V d   1      56.394   7.361   2.826  0.00  0.00    -0.034 A 
ATOM     34  H11 15V d   1      55.955   6.635   3.501  0.00  0.00     0.089 H 
ENDBRANCH   4  24
BRANCH   1  35
ATOM     35  C12 15V d   1      53.565   9.462   7.027  0.00  0.00    -0.034 C 
ATOM     36  H5  15V d   1      52.704   8.944   6.579  0.00  0.00     0.035 H 
ATOM     37  H6  15V d   1      53.302  10.513   7.219  0.00  0.00     0.035 H 
ATOM     38  H7  15V d   1      53.834   8.973   7.975  0.00  0.00     0.035 H 
ENDBRANCH   1  35
TORSDOF 4
