REMARK  21 active torsions:
REMARK  status: ('A' for Active; 'I' for Inactive)
REMARK    1  A    between atoms: C35_2  and  C34_4 
REMARK    2  A    between atoms: C34_4  and  N38_5 
REMARK    3  A    between atoms: C34_4  and  C33_6 
REMARK    4  A    between atoms: C33_6  and  C32_7 
REMARK    5  A    between atoms: C32_7  and  C30_8 
REMARK       I    between atoms: C30_8  and  N29_10 
REMARK    6  A    between atoms: N29_10  and  C21_11 
REMARK    7  A    between atoms: C21_11  and  C22_12 
REMARK    8  A    between atoms: C21_11  and  C20_19 
REMARK       I    between atoms: C22_12  and  N23_14 
REMARK    9  A    between atoms: N23_14  and  C24_15 
REMARK   10  A    between atoms: C24_15  and  C25_16 
REMARK   11  A    between atoms: C20_19  and  S13_20 
REMARK   12  A    between atoms: S13_20  and  C12_21 
REMARK   13  A    between atoms: C12_21  and  C11_22 
REMARK   14  A    between atoms: C11_22  and  N7_23 
REMARK   15  A    between atoms: N7_23  and  C8_24 
REMARK   16  A    between atoms: N7_23  and  C1_27 
REMARK   17  A    between atoms: C8_24  and  C9_25 
REMARK   18  A    between atoms: C4_30  and  C14_33 
REMARK   19  A    between atoms: C14_33  and  C15_34 
REMARK   20  A    between atoms: C15_34  and  C16_35 
REMARK   21  A    between atoms: C16_35  and  C17_36 
ROOT
ATOM      1  C12 LZ6 d   1      18.302 -10.145  22.853  0.00  0.00    -0.008 C 
ATOM      2  H16 LZ6 d   1      17.686 -11.049  22.734  0.00  0.00     0.051 H 
ATOM      3  H17 LZ6 d   1      17.651  -9.259  22.877  0.00  0.00     0.051 H 
ENDROOT
BRANCH   1   4
ATOM      4  S13 LZ6 d   1      19.443 -10.009  21.432  0.00  0.00    -0.165 SA
BRANCH   4   5
ATOM      5  C20 LZ6 d   1      20.078 -11.724  21.492  0.00  0.00     0.004 C 
ATOM      6  H14 LZ6 d   1      20.197 -12.012  22.547  0.00  0.00     0.052 H 
ATOM      7  H15 LZ6 d   1      19.340 -12.383  21.012  0.00  0.00     0.052 H 
BRANCH   5   8
ATOM      8  C21 LZ6 d   1      21.422 -11.913  20.787  0.00  0.00     0.097 C 
ATOM      9  H10 LZ6 d   1      22.183 -11.285  21.274  0.00  0.00     0.088 H 
BRANCH   8  10
ATOM     10  N29 LZ6 d   1      21.305 -11.522  19.375  0.00  0.00    -0.347 N 
ATOM     11  C30 LZ6 d   1      21.916 -10.433  18.919  0.00  0.00     0.218 C 
ATOM     12  O31 LZ6 d   1      22.601  -9.694  19.624  0.00  0.00    -0.274 OA
ATOM     13  H9  LZ6 d   1      20.760 -12.081  18.750  0.00  0.00     0.163 HD
BRANCH  11  14
ATOM     14  C32 LZ6 d   1      21.718 -10.142  17.429  0.00  0.00     0.012 C 
ATOM     15  H7  LZ6 d   1      22.049 -11.013  16.844  0.00  0.00     0.047 H 
ATOM     16  H8  LZ6 d   1      20.651  -9.955  17.236  0.00  0.00     0.047 H 
BRANCH  14  17
ATOM     17  C33 LZ6 d   1      22.527  -8.915  17.004  0.00  0.00    -0.021 C 
ATOM     18  H5  LZ6 d   1      22.152  -8.034  17.546  0.00  0.00     0.037 H 
ATOM     19  H6  LZ6 d   1      23.585  -9.079  17.258  0.00  0.00     0.037 H 
BRANCH  17  20
ATOM     20  C34 LZ6 d   1      22.409  -8.662  15.500  0.00  0.00     0.183 C 
ATOM     21  H1  LZ6 d   1      22.748  -9.554  14.954  0.00  0.00     0.101 H 
BRANCH  20  22
ATOM     22  C35 LZ6 d   1      20.951  -8.369  15.136  0.00  0.00     0.204 C 
ATOM     23  O37 LZ6 d   1      20.243  -9.346  14.809  0.00  0.00    -0.646 OA
ATOM     24  O36 LZ6 d   1      20.578  -7.178  15.200  0.00  0.00    -0.646 OA
ENDBRANCH  20  22
BRANCH  20  25
ATOM     25  N38 LZ6 d   1      23.248  -7.514  15.127  0.00  0.00    -0.065 N 
ATOM     26  H2  LZ6 d   1      24.208  -7.707  15.367  0.00  0.00     0.275 HD
ATOM     27  H3  LZ6 d   1      22.936  -6.694  15.624  0.00  0.00     0.275 HD
ATOM     28  H4  LZ6 d   1      23.175  -7.353  14.135  0.00  0.00     0.275 HD
ENDBRANCH  20  25
ENDBRANCH  17  20
ENDBRANCH  14  17
ENDBRANCH  11  14
ENDBRANCH   8  10
BRANCH   8  29
ATOM     29  C22 LZ6 d   1      21.832 -13.383  20.893  0.00  0.00     0.241 C 
ATOM     30  O28 LZ6 d   1      21.207 -14.255  20.288  0.00  0.00    -0.271 OA
ATOM     31  N23 LZ6 d   1      22.873 -13.617  21.685  0.00  0.00    -0.349 N 
ATOM     32  H11 LZ6 d   1      23.310 -12.846  22.148  0.00  0.00     0.163 HD
BRANCH  31  33
ATOM     33  C24 LZ6 d   1      23.404 -14.971  21.903  0.00  0.00     0.075 C 
ATOM     34  H12 LZ6 d   1      22.797 -15.696  21.341  0.00  0.00     0.080 H 
ATOM     35  H13 LZ6 d   1      23.362 -15.211  22.976  0.00  0.00     0.080 H 
BRANCH  33  36
ATOM     36  C25 LZ6 d   1      24.855 -15.043  21.423  0.00  0.00     0.191 C 
ATOM     37  O27 LZ6 d   1      25.475 -16.104  21.654  0.00  0.00    -0.647 OA
ATOM     38  O26 LZ6 d   1      25.308 -14.037  20.835  0.00  0.00    -0.647 OA
ENDBRANCH  33  36
ENDBRANCH  31  33
ENDBRANCH   8  29
ENDBRANCH   5   8
ENDBRANCH   4   5
ENDBRANCH   1   4
BRANCH   1  39
ATOM     39  C11 LZ6 d   1      19.072 -10.235  24.172  0.00  0.00     0.003 C 
ATOM     40  H18 LZ6 d   1      19.815 -11.044  24.116  0.00  0.00     0.065 H 
ATOM     41  H19 LZ6 d   1      18.374 -10.435  24.999  0.00  0.00     0.065 H 
BRANCH  39  42
ATOM     42  N7  LZ6 d   1      19.749  -8.951  24.391  0.00  0.00    -0.379 N 
BRANCH  42  43
ATOM     43  C8  LZ6 d   1      21.163  -8.772  24.024  0.00  0.00     0.007 C 
ATOM     44  H20 LZ6 d   1      21.407  -7.699  24.030  0.00  0.00     0.066 H 
ATOM     45  H21 LZ6 d   1      21.331  -9.180  23.016  0.00  0.00     0.066 H 
BRANCH  43  46
ATOM     46  C9  LZ6 d   1      22.066  -9.501  25.021  0.00  0.00     0.017 C 
ATOM     47 CL10 LZ6 d   1      21.845 -11.015  24.982  0.00  0.00    -0.129 Cl
ATOM     48  H22 LZ6 d   1      21.847  -9.135  26.035  0.00  0.00     0.059 H 
ATOM     49  H23 LZ6 d   1      23.116  -9.287  24.773  0.00  0.00     0.059 H 
ENDBRANCH  43  46
ENDBRANCH  42  43
BRANCH  42  50
ATOM     50  C1  LZ6 d   1      19.039  -7.945  24.894  0.00  0.00     0.030 A 
ATOM     51  C6  LZ6 d   1      17.698  -8.161  25.185  0.00  0.00    -0.057 A 
ATOM     52  C5  LZ6 d   1      16.915  -7.125  25.679  0.00  0.00    -0.075 A 
ATOM     53  H24 LZ6 d   1      17.261  -9.140  25.026  0.00  0.00     0.086 H 
ATOM     54  C4  LZ6 d   1      17.479  -5.871  25.881  0.00  0.00    -0.058 A 
ATOM     55  H25 LZ6 d   1      15.869  -7.294  25.906  0.00  0.00     0.084 H 
ATOM     56  C3  LZ6 d   1      18.823  -5.654  25.595  0.00  0.00    -0.075 A 
ATOM     57  C2  LZ6 d   1      19.606  -6.692  25.100  0.00  0.00    -0.057 A 
ATOM     58  H26 LZ6 d   1      19.260  -4.676  25.758  0.00  0.00     0.084 H 
ATOM     59  H27 LZ6 d   1      20.653  -6.525  24.876  0.00  0.00     0.086 H 
BRANCH  54  60
ATOM     60  C14 LZ6 d   1      16.588  -4.740  26.394  0.00  0.00    -0.041 C 
ATOM     61  H28 LZ6 d   1      15.564  -5.123  26.517  0.00  0.00     0.040 H 
ATOM     62  H29 LZ6 d   1      16.588  -3.925  25.655  0.00  0.00     0.040 H 
BRANCH  60  63
ATOM     63  C15 LZ6 d   1      17.072  -4.187  27.737  0.00  0.00    -0.052 C 
ATOM     64  H30 LZ6 d   1      18.001  -3.618  27.582  0.00  0.00     0.034 H 
ATOM     65  H31 LZ6 d   1      17.265  -5.023  28.425  0.00  0.00     0.034 H 
BRANCH  63  66
ATOM     66  C16 LZ6 d   1      16.012  -3.266  28.346  0.00  0.00     0.016 C 
ATOM     67  H32 LZ6 d   1      16.416  -2.821  29.268  0.00  0.00     0.049 H 
ATOM     68  H33 LZ6 d   1      15.120  -3.863  28.587  0.00  0.00     0.049 H 
BRANCH  66  69
ATOM     69  C17 LZ6 d   1      15.609  -2.141  27.392  0.00  0.00     0.172 C 
ATOM     70  O18 LZ6 d   1      15.187  -2.471  26.262  0.00  0.00    -0.648 OA
ATOM     71  O19 LZ6 d   1      15.712  -0.969  27.817  0.00  0.00    -0.648 OA
ENDBRANCH  66  69
ENDBRANCH  63  66
ENDBRANCH  60  63
ENDBRANCH  54  60
ENDBRANCH  42  50
ENDBRANCH  39  42
ENDBRANCH   1  39
TORSDOF 21
