REMARK  16 active torsions:
REMARK  status: ('A' for Active; 'I' for Inactive)
REMARK    1  A    between atoms: C2_2  and  N1_1 
REMARK    2  A    between atoms: S8_8  and  C5_5 
REMARK    3  A    between atoms: N11_11  and  S8_8 
REMARK    4  A    between atoms: N11_11  and  C12_12 
REMARK    5  A    between atoms: C16_16  and  N11_11 
REMARK    6  A    between atoms: C12_12  and  C13_13 
REMARK    7  A    between atoms: C13_13  and  C14_14 
REMARK    8  A    between atoms: C13_13  and  C15_15 
REMARK    9  A    between atoms: C17_17  and  C16_16 
REMARK   10  A    between atoms: C17_17  and  O18_18 
REMARK   11  A    between atoms: C19_19  and  C17_17 
REMARK   12  A    between atoms: C19_19  and  N20_20 
REMARK   13  A    between atoms: C32_32  and  C19_19 
REMARK       I    between atoms: N20_20  and  C21_21 
REMARK   14  A    between atoms: C21_21  and  O23_23 
REMARK   15  A    between atoms: O23_23  and  C24_24 
REMARK   16  A    between atoms: C38_38  and  C32_32 
ROOT
ATOM      1  C19 017 d   1       8.444 -17.082  -0.126  0.00  0.00     0.044 C 
ATOM      2  H20 017 d   1       8.192 -16.044   0.138  0.00  0.00     0.077 H 
ENDROOT
BRANCH   1   3
ATOM      3  C17 017 d   1       9.848 -17.452   0.337  0.00  0.00     0.067 C 
ATOM      4  H18 017 d   1      10.572 -16.876  -0.258  0.00  0.00     0.088 H 
BRANCH   3   5
ATOM      5  C16 017 d   1      10.026 -17.080   1.803  0.00  0.00     0.019 C 
ATOM      6  H16 017 d   1       9.212 -17.517   2.401  0.00  0.00     0.061 H 
ATOM      7  H17 017 d   1      10.992 -17.457   2.169  0.00  0.00     0.061 H 
BRANCH   5   8
ATOM      8  N11 017 d   1       9.990 -15.610   1.907  0.00  0.00    -0.204 NA
BRANCH   8   9
ATOM      9  S8  017 d   1       8.829 -15.114   2.927  0.00  0.00     0.243 S 
ATOM     10  O9  017 d   1       7.647 -15.891   2.703  0.00  0.00    -0.206 OA
ATOM     11  O10 017 d   1       8.550 -13.760   2.611  0.00  0.00    -0.206 OA
BRANCH   9  12
ATOM     12  C5  017 d   1       9.185 -15.241   4.482  0.00  0.00     0.074 A 
ATOM     13  C4  017 d   1       9.847 -14.231   5.181  0.00  0.00    -0.059 A 
ATOM     14  C3  017 d   1      10.124 -14.382   6.537  0.00  0.00    -0.056 A 
ATOM     15  H4  017 d   1      10.147 -13.325   4.666  0.00  0.00     0.086 H 
ATOM     16  C2  017 d   1       9.727 -15.541   7.202  0.00  0.00     0.025 A 
ATOM     17  H3  017 d   1      10.647 -13.600   7.075  0.00  0.00     0.086 H 
ATOM     18  C7  017 d   1       9.055 -16.536   6.511  0.00  0.00    -0.056 A 
ATOM     19  C6  017 d   1       8.782 -16.382   5.161  0.00  0.00    -0.059 A 
ATOM     20  H6  017 d   1       8.742 -17.436   7.027  0.00  0.00     0.086 H 
ATOM     21  H5  017 d   1       8.248 -17.161   4.630  0.00  0.00     0.086 H 
BRANCH  16  22
ATOM     22  N1  017 d   1       9.980 -15.709   8.523  0.00  0.00    -0.399 N 
ATOM     23  H1  017 d   1      10.479 -14.977   9.049  0.00  0.00     0.156 HD
ATOM     24  H2  017 d   1       9.674 -16.568   9.001  0.00  0.00     0.156 HD
ENDBRANCH  16  22
ENDBRANCH   9  12
ENDBRANCH   8   9
BRANCH   8  25
ATOM     25  C12 017 d   1      11.304 -15.076   2.300  0.00  0.00    -0.004 C 
ATOM     26  H7  017 d   1      11.957 -15.918   2.572  0.00  0.00     0.058 H 
ATOM     27  H8  017 d   1      11.168 -14.420   3.173  0.00  0.00     0.058 H 
BRANCH  25  28
ATOM     28  C13 017 d   1      11.984 -14.273   1.189  0.00  0.00    -0.049 C 
ATOM     29  H9  017 d   1      12.901 -13.847   1.621  0.00  0.00     0.040 H 
BRANCH  28  30
ATOM     30  C14 017 d   1      12.400 -15.156   0.028  0.00  0.00    -0.072 C 
ATOM     31  H10 017 d   1      12.883 -14.541  -0.746  0.00  0.00     0.028 H 
ATOM     32  H11 017 d   1      11.512 -15.647  -0.396  0.00  0.00     0.028 H 
ATOM     33  H12 017 d   1      13.107 -15.920   0.383  0.00  0.00     0.028 H 
ENDBRANCH  28  30
BRANCH  28  34
ATOM     34  C15 017 d   1      11.140 -13.105   0.691  0.00  0.00    -0.072 C 
ATOM     35  H13 017 d   1      10.847 -12.475   1.544  0.00  0.00     0.028 H 
ATOM     36  H14 017 d   1      10.238 -13.490   0.193  0.00  0.00     0.028 H 
ATOM     37  H15 017 d   1      11.726 -12.507  -0.022  0.00  0.00     0.028 H 
ENDBRANCH  28  34
ENDBRANCH  25  28
ENDBRANCH   8  25
ENDBRANCH   5   8
ENDBRANCH   3   5
BRANCH   3  38
ATOM     38  O18 017 d   1      10.107 -18.840   0.130  0.00  0.00    -0.392 OA
ATOM     39  H19 017 d   1       9.503 -19.355   0.652  0.00  0.00     0.210 HD
ENDBRANCH   3  38
ENDBRANCH   1   3
BRANCH   1  40
ATOM     40  N20 017 d   1       8.460 -17.308  -1.553  0.00  0.00    -0.329 N 
ATOM     41  C21 017 d   1       8.364 -16.327  -2.442  0.00  0.00     0.361 C 
ATOM     42  O22 017 d   1       8.262 -15.149  -2.157  0.00  0.00    -0.238 OA
ATOM     43  H21 017 d   1       8.547 -18.247  -1.886  0.00  0.00     0.165 HD
BRANCH  41  44
ATOM     44  O23 017 d   1       8.406 -16.745  -3.828  0.00  0.00    -0.296 OA
BRANCH  44  45
ATOM     45  C24 017 d   1       7.977 -15.839  -4.824  0.00  0.00     0.078 C 
ATOM     46  C25 017 d   1       8.953 -16.084  -5.956  0.00  0.00     0.048 C 
ATOM     47  O26 017 d   1       8.451 -17.259  -6.599  0.00  0.00    -0.358 OA
ATOM     48  H23 017 d   1       9.968 -16.255  -5.567  0.00  0.00     0.078 H 
ATOM     49  H24 017 d   1       8.966 -15.233  -6.652  0.00  0.00     0.078 H 
ATOM     50  C27 017 d   1       7.031 -17.353  -6.418  0.00  0.00     0.137 C 
ATOM     51  O28 017 d   1       6.659 -18.631  -5.890  0.00  0.00    -0.361 OA
ATOM     52  C31 017 d   1       6.656 -16.317  -5.383  0.00  0.00     0.023 C 
ATOM     53  H25 017 d   1       6.512 -17.169  -7.370  0.00  0.00     0.129 H 
ATOM     54  C29 017 d   1       5.978 -18.519  -4.642  0.00  0.00     0.023 C 
ATOM     55  C30 017 d   1       5.764 -17.035  -4.395  0.00  0.00    -0.035 C 
ATOM     56  H26 017 d   1       6.588 -18.953  -3.837  0.00  0.00     0.074 H 
ATOM     57  H27 017 d   1       5.010 -19.039  -4.690  0.00  0.00     0.074 H 
ATOM     58  H28 017 d   1       6.047 -16.774  -3.365  0.00  0.00     0.037 H 
ATOM     59  H29 017 d   1       4.711 -16.767  -4.565  0.00  0.00     0.037 H 
ATOM     60  H30 017 d   1       6.111 -15.472  -5.829  0.00  0.00     0.051 H 
ATOM     61  H22 017 d   1       7.944 -14.797  -4.474  0.00  0.00     0.088 H 
ENDBRANCH  44  45
ENDBRANCH  41  44
ENDBRANCH   1  40
BRANCH   1  62
ATOM     62  C32 017 d   1       7.414 -18.061   0.418  0.00  0.00    -0.020 C 
ATOM     63  H31 017 d   1       7.295 -17.908   1.501  0.00  0.00     0.043 H 
ATOM     64  H32 017 d   1       7.749 -19.091   0.228  0.00  0.00     0.043 H 
BRANCH  62  65
ATOM     65  C38 017 d   1       6.098 -17.823  -0.272  0.00  0.00    -0.056 A 
ATOM     66  C33 017 d   1       5.428 -16.624  -0.067  0.00  0.00    -0.077 A 
ATOM     67  C34 017 d   1       4.211 -16.395  -0.696  0.00  0.00    -0.082 A 
ATOM     68  H33 017 d   1       5.854 -15.868   0.583  0.00  0.00     0.084 H 
ATOM     69  C35 017 d   1       3.663 -17.356  -1.534  0.00  0.00    -0.083 A 
ATOM     70  H34 017 d   1       3.687 -15.461  -0.531  0.00  0.00     0.083 H 
ATOM     71  C36 017 d   1       4.337 -18.558  -1.731  0.00  0.00    -0.082 A 
ATOM     72  H35 017 d   1       2.717 -17.172  -2.031  0.00  0.00     0.083 H 
ATOM     73  C37 017 d   1       5.554 -18.797  -1.104  0.00  0.00    -0.077 A 
ATOM     74  H36 017 d   1       3.909 -19.314  -2.379  0.00  0.00     0.083 H 
ATOM     75  H37 017 d   1       6.075 -19.734  -1.262  0.00  0.00     0.084 H 
ENDBRANCH  62  65
ENDBRANCH   1  62
TORSDOF 16
