REMARK  26 active torsions:
REMARK  status: ('A' for Active; 'I' for Inactive)
REMARK    1  A    between atoms: C2_2  and  O2_3 
REMARK    2  A    between atoms: C3_4  and  O3_5 
REMARK    3  A    between atoms: O4_7  and  C4_6 
REMARK    4  A    between atoms: C1_12  and  O4_7 
REMARK    5  A    between atoms: C5_8  and  C6_10 
REMARK    6  A    between atoms: C6_10  and  O6_11 
REMARK    7  A    between atoms: C2_13  and  N2_20 
REMARK    8  A    between atoms: C3_14  and  O3_21 
REMARK    9  A    between atoms: O4_22  and  C4_15 
REMARK   10  A    between atoms: C5_16  and  C6_17 
REMARK   11  A    between atoms: C6_17  and  O6_24 
REMARK   12  A    between atoms: C7_18  and  C8_19 
REMARK       I    between atoms: N2_20  and  C7_18 
REMARK   13  A    between atoms: C1_26  and  O4_22 
REMARK   14  A    between atoms: C2_27  and  N2_34 
REMARK   15  A    between atoms: C3_28  and  O3_35 
REMARK   16  A    between atoms: O4_36  and  C4_29 
REMARK   17  A    between atoms: C5_30  and  C6_31 
REMARK   18  A    between atoms: C6_31  and  O6_38 
REMARK   19  A    between atoms: C7_32  and  C8_33 
REMARK       I    between atoms: N2_34  and  C7_32 
REMARK   20  A    between atoms: C1_40  and  O4_36 
REMARK   21  A    between atoms: N2_48  and  C2_41 
REMARK   22  A    between atoms: C3_42  and  O3_49 
REMARK   23  A    between atoms: C4_43  and  O4_50 
REMARK   24  A    between atoms: C5_44  and  C6_45 
REMARK   25  A    between atoms: C6_45  and  O6_52 
REMARK   26  A    between atoms: C7_46  and  C8_47 
REMARK       I    between atoms: C7_46  and  N2_48 
ROOT
ATOM      1  H27 NOJ d   1      24.814   4.778 -12.252  0.00  0.00     0.132 H 
ATOM      2  H28 NOJ d   1      27.355   3.151 -11.815  0.00  0.00     0.084 H 
ATOM      3  H29 NOJ d   1      26.369   4.143 -14.511  0.00  0.00     0.090 H 
ATOM      4  H30 NOJ d   1      26.313   1.274 -13.462  0.00  0.00     0.091 H 
ATOM      5  H31 NOJ d   1      24.055   3.276 -13.940  0.00  0.00     0.090 H 
ATOM      6  C1  NAG d   1      25.367   3.933 -11.815  0.00  0.00     0.154 C 
ATOM      7  C2  NAG d   1      26.768   3.861 -12.417  0.00  0.00     0.087 C 
ATOM      8  C3  NAG d   1      26.752   3.350 -13.852  0.00  0.00     0.087 C 
ATOM      9  C4  NAG d   1      25.857   2.119 -14.000  0.00  0.00     0.095 C 
ATOM     10  C5  NAG d   1      24.477   2.409 -13.411  0.00  0.00     0.089 C 
ATOM     11  O5  NAG d   1      24.632   2.744 -12.048  0.00  0.00    -0.349 OA
ENDROOT
BRANCH   6  12
ATOM     12  O4  NAG d   1      25.579   4.158 -10.413  0.00  0.00    -0.348 OA
BRANCH  12  13
ATOM     13  C4  NAG d   1      24.443   4.631  -9.737  0.00  0.00     0.095 C 
ATOM     14  C3  NAG d   1      23.982   3.495  -8.809  0.00  0.00     0.087 C 
ATOM     15  C2  NAG d   1      23.092   4.031  -7.710  0.00  0.00     0.087 C 
ATOM     16  H16 NOJ d   1      24.875   3.037  -8.358  0.00  0.00     0.090 H 
ATOM     17  C1  NAG d   1      23.738   5.251  -7.062  0.00  0.00     0.154 C 
ATOM     18  H15 NOJ d   1      22.131   4.325  -8.157  0.00  0.00     0.084 H 
ATOM     19  O5  NAG d   1      23.933   6.283  -8.008  0.00  0.00    -0.349 OA
ATOM     20  H14 NOJ d   1      24.712   4.910  -6.681  0.00  0.00     0.132 H 
ATOM     21  C5  NAG d   1      24.878   5.908  -8.987  0.00  0.00     0.089 C 
ATOM     22  H18 NOJ d   1      25.821   5.671  -8.473  0.00  0.00     0.090 H 
ATOM     23  H17 NOJ d   1      23.638   4.877 -10.445  0.00  0.00     0.091 H 
BRANCH  14  24
ATOM     24  O3  NAG d   1      23.257   2.497  -9.497  0.00  0.00    -0.391 OA
ATOM     25  H25 NOJ d   1      23.806   2.119 -10.174  0.00  0.00     0.210 HD
ENDBRANCH  14  24
BRANCH  15  26
ATOM     26  N2  NAG d   1      22.841   3.051  -6.668  0.00  0.00    -0.349 N 
ATOM     27  C7  NAG d   1      21.613   2.661  -6.316  0.00  0.00     0.214 C 
ATOM     28  O7  NAG d   1      20.576   3.045  -6.857  0.00  0.00    -0.274 OA
ATOM     29  H24 NOJ d   1      23.624   2.650  -6.192  0.00  0.00     0.163 HD
BRANCH  27  30
ATOM     30  C8  NAG d   1      21.558   1.687  -5.185  0.00  0.00    -0.003 C 
ATOM     31  H21 NOJ d   1      20.510   1.430  -4.973  0.00  0.00     0.040 H 
ATOM     32  H22 NOJ d   1      22.013   2.138  -4.291  0.00  0.00     0.040 H 
ATOM     33  H23 NOJ d   1      22.111   0.776  -5.458  0.00  0.00     0.040 H 
ENDBRANCH  27  30
ENDBRANCH  15  26
BRANCH  17  34
ATOM     34  O4  NOJ d   1      23.083   5.939  -6.011  0.00  0.00    -0.349 OA
BRANCH  34  35
ATOM     35  C4  NOJ d   1      23.693   6.645  -4.926  0.00  0.00     0.098 C 
ATOM     36  C3  NOJ d   1      23.746   8.151  -5.160  0.00  0.00     0.089 C 
ATOM     37  C2  NOJ d   1      24.403   8.857  -3.974  0.00  0.00     0.086 C 
ATOM     38  H5  NOJ d   1      22.726   8.540  -5.294  0.00  0.00     0.091 H 
ATOM     39  C1  NOJ d   1      23.616   8.630  -2.692  0.00  0.00     0.108 C 
ATOM     40  H3  NOJ d   1      25.419   8.455  -3.850  0.00  0.00     0.089 H 
ATOM     41  N5  NOJ d   1      23.294   7.217  -2.567  0.00  0.00    -0.064 N 
ATOM     42  H1  NOJ d   1      22.686   9.217  -2.723  0.00  0.00     0.079 H 
ATOM     43  H2  NOJ d   1      24.221   8.946  -1.829  0.00  0.00     0.079 H 
ATOM     44  C5  NOJ d   1      22.863   6.387  -3.690  0.00  0.00     0.149 C 
ATOM     45  H9  NOJ d   1      22.555   7.162  -1.884  0.00  0.00     0.277 HD
ATOM     46  H10 NOJ d   1      24.123   6.777  -2.201  0.00  0.00     0.277 HD
ATOM     47  H8  NOJ d   1      21.814   6.627  -3.917  0.00  0.00     0.091 H 
ATOM     48  H7  NOJ d   1      24.716   6.268  -4.779  0.00  0.00     0.090 H 
BRANCH  36  49
ATOM     49  O3  NOJ d   1      24.505   8.382  -6.334  0.00  0.00    -0.390 OA
ATOM     50  H6  NOJ d   1      24.093   7.941  -7.068  0.00  0.00     0.210 HD
ENDBRANCH  36  49
BRANCH  37  51
ATOM     51  O2  NOJ d   1      24.480  10.267  -4.184  0.00  0.00    -0.391 OA
ATOM     52  H4  NOJ d   1      23.603  10.622  -4.264  0.00  0.00     0.210 HD
ENDBRANCH  37  51
BRANCH  44  53
ATOM     53  C6  NOJ d   1      22.962   4.915  -3.313  0.00  0.00     0.046 C 
ATOM     54  H11 NOJ d   1      22.739   4.285  -4.187  0.00  0.00     0.077 H 
ATOM     55  H12 NOJ d   1      22.254   4.684  -2.504  0.00  0.00     0.077 H 
BRANCH  53  56
ATOM     56  O6  NOJ d   1      24.299   4.687  -2.874  0.00  0.00    -0.399 OA
ATOM     57  H13 NOJ d   1      24.483   5.240  -2.124  0.00  0.00     0.209 HD
ENDBRANCH  53  56
ENDBRANCH  44  53
ENDBRANCH  34  35
ENDBRANCH  17  34
BRANCH  21  58
ATOM     58  C6  NAG d   1      25.144   7.108  -9.907  0.00  0.00     0.043 C 
ATOM     59  H19 NOJ d   1      25.950   6.848 -10.610  0.00  0.00     0.078 H 
ATOM     60  H20 NOJ d   1      25.455   7.967  -9.294  0.00  0.00     0.078 H 
BRANCH  58  61
ATOM     61  O6  NAG d   1      23.987   7.462 -10.643  0.00  0.00    -0.398 OA
ATOM     62  H26 NOJ d   1      23.288   7.692 -10.042  0.00  0.00     0.209 HD
ENDBRANCH  58  61
ENDBRANCH  21  58
ENDBRANCH  12  13
ENDBRANCH   6  12
BRANCH   7  63
ATOM     63  N2  NAG d   1      27.425   5.162 -12.350  0.00  0.00    -0.349 N 
ATOM     64  C7  NAG d   1      28.385   5.447 -11.466  0.00  0.00     0.214 C 
ATOM     65  O7  NAG d   1      28.801   4.642 -10.631  0.00  0.00    -0.274 OA
ATOM     66  H37 NOJ d   1      27.144   5.872 -12.995  0.00  0.00     0.163 HD
BRANCH  64  67
ATOM     67  C8  NAG d   1      28.963   6.833 -11.524  0.00  0.00    -0.003 C 
ATOM     68  H34 NOJ d   1      29.738   6.940 -10.751  0.00  0.00     0.040 H 
ATOM     69  H35 NOJ d   1      28.166   7.570 -11.349  0.00  0.00     0.040 H 
ATOM     70  H36 NOJ d   1      29.409   7.003 -12.515  0.00  0.00     0.040 H 
ENDBRANCH  64  67
ENDBRANCH   7  63
BRANCH   8  71
ATOM     71  O3  NAG d   1      28.077   3.038 -14.219  0.00  0.00    -0.391 OA
ATOM     72  H38 NOJ d   1      28.094   2.748 -15.124  0.00  0.00     0.210 HD
ENDBRANCH   8  71
BRANCH  10  73
ATOM     73  C6  NAG d   1      23.497   1.246 -13.570  0.00  0.00     0.043 C 
ATOM     74  H32 NOJ d   1      23.401   1.000 -14.638  0.00  0.00     0.078 H 
ATOM     75  H33 NOJ d   1      22.516   1.546 -13.173  0.00  0.00     0.078 H 
BRANCH  73  76
ATOM     76  O6  NAG d   1      23.947   0.103 -12.872  0.00  0.00    -0.398 OA
ATOM     77  H39 NOJ d   1      23.322  -0.603 -12.987  0.00  0.00     0.209 HD
ENDBRANCH  73  76
ENDBRANCH  10  73
BRANCH   9  78
ATOM     78  O4  NAG d   1      25.717   1.783 -15.361  0.00  0.00    -0.348 OA
BRANCH  78  79
ATOM     79  C1  NAG d   1      26.210   0.459 -15.619  0.00  0.00     0.154 C 
ATOM     80  C2  NAG d   1      25.590  -0.072 -16.914  0.00  0.00     0.087 C 
ATOM     81  C3  NAG d   1      26.181  -1.431 -17.276  0.00  0.00     0.086 C 
ATOM     82  H41 NOJ d   1      25.842   0.630 -17.722  0.00  0.00     0.084 H 
ATOM     83  C4  NAG d   1      27.705  -1.354 -17.263  0.00  0.00     0.089 C 
ATOM     84  H42 NOJ d   1      25.852  -2.175 -16.535  0.00  0.00     0.090 H 
ATOM     85  C5  NAG d   1      28.174  -0.834 -15.906  0.00  0.00     0.089 C 
ATOM     86  H43 NOJ d   1      28.038  -0.658 -18.048  0.00  0.00     0.091 H 
ATOM     87  O5  NAG d   1      27.623   0.455 -15.698  0.00  0.00    -0.349 OA
ATOM     88  H44 NOJ d   1      27.800  -1.511 -15.124  0.00  0.00     0.090 H 
ATOM     89  H40 NOJ d   1      25.907  -0.197 -14.790  0.00  0.00     0.132 H 
BRANCH  80  90
ATOM     90  N2  NAG d   1      24.140  -0.129 -16.814  0.00  0.00    -0.349 N 
ATOM     91  C7  NAG d   1      23.354   0.666 -17.539  0.00  0.00     0.214 C 
ATOM     92  O7  NAG d   1      23.780   1.497 -18.348  0.00  0.00    -0.274 OA
ATOM     93  H50 NOJ d   1      23.721  -0.783 -16.184  0.00  0.00     0.163 HD
BRANCH  91  94
ATOM     94  C8  NAG d   1      21.877   0.508 -17.341  0.00  0.00    -0.003 C 
ATOM     95  H47 NOJ d   1      21.342   1.216 -17.992  0.00  0.00     0.040 H 
ATOM     96  H48 NOJ d   1      21.624   0.713 -16.290  0.00  0.00     0.040 H 
ATOM     97  H49 NOJ d   1      21.581  -0.520 -17.596  0.00  0.00     0.040 H 
ENDBRANCH  91  94
ENDBRANCH  80  90
BRANCH  81  98
ATOM     98  O3  NAG d   1      25.732  -1.823 -18.552  0.00  0.00    -0.391 OA
ATOM     99  H51 NOJ d   1      24.783  -1.869 -18.552  0.00  0.00     0.210 HD
ENDBRANCH  81  98
BRANCH  83 100
ATOM    100  O4  NAG d   1      28.251  -2.626 -17.520  0.00  0.00    -0.390 OA
ATOM    101  H52 NOJ d   1      27.949  -2.934 -18.367  0.00  0.00     0.210 HD
ENDBRANCH  83 100
BRANCH  85 102
ATOM    102  C6  NAG d   1      29.695  -0.784 -15.807  0.00  0.00     0.043 C 
ATOM    103  H45 NOJ d   1      30.124  -1.659 -16.317  0.00  0.00     0.078 H 
ATOM    104  H46 NOJ d   1      29.994  -0.793 -14.748  0.00  0.00     0.078 H 
BRANCH 102 105
ATOM    105  O6  NAG d   1      30.169   0.395 -16.418  0.00  0.00    -0.398 OA
ATOM    106  H53 NOJ d   1      29.798   1.150 -15.977  0.00  0.00     0.209 HD
ENDBRANCH 102 105
ENDBRANCH  85 102
ENDBRANCH  78  79
ENDBRANCH   9  78
TORSDOF 26
