REMARK  19 active torsions:
REMARK  status: ('A' for Active; 'I' for Inactive)
REMARK    1  A    between atoms: C2_2  and  O2_3 
REMARK    2  A    between atoms: C3_4  and  O3_5 
REMARK    3  A    between atoms: O4_7  and  C4_6 
REMARK    4  A    between atoms: C1_12  and  O4_7 
REMARK    5  A    between atoms: C5_8  and  C6_10 
REMARK    6  A    between atoms: C6_10  and  O6_11 
REMARK    7  A    between atoms: C2_13  and  N2_20 
REMARK    8  A    between atoms: C3_14  and  O3_21 
REMARK    9  A    between atoms: O4_22  and  C4_15 
REMARK   10  A    between atoms: C5_16  and  C6_17 
REMARK   11  A    between atoms: C6_17  and  O6_24 
REMARK   12  A    between atoms: C7_18  and  C8_19 
REMARK       I    between atoms: N2_20  and  C7_18 
REMARK   13  A    between atoms: C1_26  and  O4_22 
REMARK   14  A    between atoms: N2_34  and  C2_27 
REMARK   15  A    between atoms: C3_28  and  O3_35 
REMARK   16  A    between atoms: C4_29  and  O4_36 
REMARK   17  A    between atoms: C5_30  and  C6_31 
REMARK   18  A    between atoms: C6_31  and  O6_38 
REMARK   19  A    between atoms: C7_32  and  C8_33 
REMARK       I    between atoms: C7_32  and  N2_34 
ROOT
ATOM      1  H14 NOJ d   1     -25.247  -4.625  -7.110  0.00  0.00     0.132 H 
ATOM      2  H15 NOJ d   1     -22.556  -4.245  -8.550  0.00  0.00     0.084 H 
ATOM      3  H16 NOJ d   1     -25.123  -2.605  -8.671  0.00  0.00     0.090 H 
ATOM      4  H17 NOJ d   1     -24.095  -4.379 -10.926  0.00  0.00     0.091 H 
ATOM      5  H18 NOJ d   1     -26.463  -4.864  -9.065  0.00  0.00     0.090 H 
ATOM      6  C1  NAG d   1     -24.334  -5.007  -7.589  0.00  0.00     0.154 C 
ATOM      7  C2  NAG d   1     -23.487  -3.863  -8.104  0.00  0.00     0.087 C 
ATOM      8  C3  NAG d   1     -24.288  -3.116  -9.173  0.00  0.00     0.087 C 
ATOM      9  C4  NAG d   1     -24.897  -4.029 -10.260  0.00  0.00     0.095 C 
ATOM     10  C5  NAG d   1     -25.574  -5.230  -9.600  0.00  0.00     0.089 C 
ATOM     11  O5  NAG d   1     -24.695  -5.838  -8.674  0.00  0.00    -0.349 OA
ENDROOT
BRANCH   9  12
ATOM     12  O4  NAG d   1     -25.868  -3.331 -11.022  0.00  0.00    -0.348 OA
BRANCH  12  13
ATOM     13  C1  NAG d   1     -25.558  -3.253 -12.425  0.00  0.00     0.154 C 
ATOM     14  C2  NAG d   1     -26.857  -3.000 -13.212  0.00  0.00     0.087 C 
ATOM     15  C3  NAG d   1     -26.572  -2.669 -14.682  0.00  0.00     0.086 C 
ATOM     16  H28 NOJ d   1     -27.358  -2.133 -12.757  0.00  0.00     0.084 H 
ATOM     17  C4  NAG d   1     -25.478  -1.615 -14.830  0.00  0.00     0.089 C 
ATOM     18  H29 NOJ d   1     -26.233  -3.590 -15.179  0.00  0.00     0.090 H 
ATOM     19  C5  NAG d   1     -24.253  -1.996 -13.998  0.00  0.00     0.089 C 
ATOM     20  H30 NOJ d   1     -25.865  -0.652 -14.465  0.00  0.00     0.091 H 
ATOM     21  O5  NAG d   1     -24.636  -2.213 -12.655  0.00  0.00    -0.349 OA
ATOM     22  H31 NOJ d   1     -23.799  -2.908 -14.412  0.00  0.00     0.090 H 
ATOM     23  H27 NOJ d   1     -25.115  -4.205 -12.753  0.00  0.00     0.132 H 
BRANCH  14  24
ATOM     24  N2  NAG d   1     -27.767  -4.135 -13.143  0.00  0.00    -0.349 N 
ATOM     25  C7  NAG d   1     -28.848  -4.169 -12.359  0.00  0.00     0.214 C 
ATOM     26  O7  NAG d   1     -29.179  -3.254 -11.604  0.00  0.00    -0.274 OA
ATOM     27  H37 NOJ d   1     -27.572  -4.933 -13.714  0.00  0.00     0.163 HD
BRANCH  25  28
ATOM     28  C8  NAG d   1     -29.682  -5.416 -12.418  0.00  0.00    -0.003 C 
ATOM     29  H34 NOJ d   1     -30.536  -5.319 -11.731  0.00  0.00     0.040 H 
ATOM     30  H35 NOJ d   1     -29.070  -6.281 -12.122  0.00  0.00     0.040 H 
ATOM     31  H36 NOJ d   1     -30.051  -5.562 -13.444  0.00  0.00     0.040 H 
ENDBRANCH  25  28
ENDBRANCH  14  24
BRANCH  15  32
ATOM     32  O3  NAG d   1     -27.748  -2.216 -15.326  0.00  0.00    -0.391 OA
ATOM     33  H38 NOJ d   1     -28.033  -1.403 -14.927  0.00  0.00     0.210 HD
ENDBRANCH  15  32
BRANCH  17  34
ATOM     34  O4  NAG d   1     -25.120  -1.473 -16.190  0.00  0.00    -0.390 OA
ATOM     35  H39 NOJ d   1     -25.889  -1.236 -16.696  0.00  0.00     0.210 HD
ENDBRANCH  17  34
BRANCH  19  36
ATOM     36  C6  NAG d   1     -23.240  -0.867 -14.003  0.00  0.00     0.043 C 
ATOM     37  H32 NOJ d   1     -23.012  -0.575 -15.039  0.00  0.00     0.078 H 
ATOM     38  H33 NOJ d   1     -22.316  -1.193 -13.502  0.00  0.00     0.078 H 
BRANCH  36  39
ATOM     39  O6  NAG d   1     -23.801   0.231 -13.308  0.00  0.00    -0.398 OA
ATOM     40  H40 NOJ d   1     -23.180   0.950 -13.300  0.00  0.00     0.209 HD
ENDBRANCH  36  39
ENDBRANCH  19  36
ENDBRANCH  12  13
ENDBRANCH   9  12
BRANCH   8  41
ATOM     41  O3  NAG d   1     -23.456  -2.148  -9.742  0.00  0.00    -0.391 OA
ATOM     42  H25 NOJ d   1     -23.960  -1.613 -10.343  0.00  0.00     0.210 HD
ENDBRANCH   8  41
BRANCH  10  43
ATOM     43  C6  NAG d   1     -26.016  -6.305 -10.590  0.00  0.00     0.043 C 
ATOM     44  H19 NOJ d   1     -25.183  -6.558 -11.262  0.00  0.00     0.078 H 
ATOM     45  H20 NOJ d   1     -26.867  -5.938 -11.183  0.00  0.00     0.078 H 
BRANCH  43  46
ATOM     46  O6  NAG d   1     -26.401  -7.446  -9.858  0.00  0.00    -0.398 OA
ATOM     47  H26 NOJ d   1     -25.663  -7.756  -9.346  0.00  0.00     0.209 HD
ENDBRANCH  43  46
ENDBRANCH  10  43
BRANCH   7  48
ATOM     48  N2  NAG d   1     -23.170  -3.029  -6.957  0.00  0.00    -0.349 N 
ATOM     49  C7  NAG d   1     -21.941  -2.821  -6.484  0.00  0.00     0.214 C 
ATOM     50  O7  NAG d   1     -20.916  -3.291  -6.978  0.00  0.00    -0.274 OA
ATOM     51  H24 NOJ d   1     -23.929  -2.578  -6.488  0.00  0.00     0.163 HD
BRANCH  49  52
ATOM     52  C8  NAG d   1     -21.841  -1.954  -5.268  0.00  0.00    -0.003 C 
ATOM     53  H21 NOJ d   1     -20.786  -1.856  -4.973  0.00  0.00     0.040 H 
ATOM     54  H22 NOJ d   1     -22.411  -2.410  -4.445  0.00  0.00     0.040 H 
ATOM     55  H23 NOJ d   1     -22.253  -0.959  -5.492  0.00  0.00     0.040 H 
ENDBRANCH  49  52
ENDBRANCH   7  48
BRANCH   6  56
ATOM     56  O4  NOJ d   1     -23.526  -5.680  -6.620  0.00  0.00    -0.349 OA
BRANCH  56  57
ATOM     57  C4  NOJ d   1     -24.176  -6.397  -5.569  0.00  0.00     0.098 C 
ATOM     58  C3  NOJ d   1     -24.517  -7.806  -6.074  0.00  0.00     0.089 C 
ATOM     59  C2  NOJ d   1     -24.882  -8.759  -4.946  0.00  0.00     0.086 C 
ATOM     60  H5  NOJ d   1     -23.636  -8.205  -6.599  0.00  0.00     0.091 H 
ATOM     61  C1  NOJ d   1     -23.784  -8.789  -3.884  0.00  0.00     0.108 C 
ATOM     62  H3  NOJ d   1     -25.822  -8.429  -4.479  0.00  0.00     0.089 H 
ATOM     63  N5  NOJ d   1     -23.483  -7.447  -3.416  0.00  0.00    -0.064 N 
ATOM     64  H1  NOJ d   1     -22.875  -9.232  -4.317  0.00  0.00     0.079 H 
ATOM     65  H2  NOJ d   1     -24.121  -9.400  -3.034  0.00  0.00     0.079 H 
ATOM     66  C5  NOJ d   1     -23.231  -6.364  -4.357  0.00  0.00     0.149 C 
ATOM     67  H9  NOJ d   1     -22.660  -7.522  -2.839  0.00  0.00     0.277 HD
ATOM     68  H10 NOJ d   1     -24.265  -7.159  -2.850  0.00  0.00     0.277 HD
ATOM     69  H8  NOJ d   1     -22.209  -6.490  -4.744  0.00  0.00     0.091 H 
ATOM     70  H7  NOJ d   1     -25.114  -5.891  -5.297  0.00  0.00     0.090 H 
BRANCH  58  71
ATOM     71  O3  NOJ d   1     -25.623  -7.752  -6.988  0.00  0.00    -0.390 OA
ATOM     72  H6  NOJ d   1     -25.414  -7.160  -7.702  0.00  0.00     0.210 HD
ENDBRANCH  58  71
BRANCH  59  73
ATOM     73  O2  NOJ d   1     -25.060 -10.066  -5.507  0.00  0.00    -0.391 OA
ATOM     74  H4  NOJ d   1     -24.247 -10.351  -5.906  0.00  0.00     0.210 HD
ENDBRANCH  59  73
BRANCH  66  75
ATOM     75  C6  NOJ d   1     -23.283  -5.028  -3.608  0.00  0.00     0.046 C 
ATOM     76  H11 NOJ d   1     -23.183  -4.208  -4.334  0.00  0.00     0.077 H 
ATOM     77  H12 NOJ d   1     -22.449  -4.988  -2.892  0.00  0.00     0.077 H 
BRANCH  75  78
ATOM     78  O6  NOJ d   1     -24.518  -4.868  -2.893  0.00  0.00    -0.399 OA
ATOM     79  H13 NOJ d   1     -24.515  -4.032  -2.442  0.00  0.00     0.209 HD
ENDBRANCH  75  78
ENDBRANCH  66  75
ENDBRANCH  56  57
ENDBRANCH   6  56
TORSDOF 19
