REMARK  6 active torsions:
REMARK  status: ('A' for Active; 'I' for Inactive)
REMARK    1  A    between atoms: C5_3  and  S7_4 
REMARK    2  A    between atoms: S7_4  and  N23_6 
REMARK    3  A    between atoms: C2_14  and  S14_15 
REMARK    4  A    between atoms: S14_15  and  C15_16 
REMARK    5  A    between atoms: C19_18  and  C21_19 
REMARK    6  A    between atoms: C17_21  and  C22_23 
ROOT
ATOM      1  F13 V50 d   1      -2.858   1.546  16.530  0.00  0.00    -0.201 F 
ATOM      2  C4  V50 d   1      -3.570   2.473  15.934  0.00  0.00     0.182 A 
ATOM      3  C5  V50 d   1      -4.969   2.280  15.945  0.00  0.00     0.162 A 
ATOM      4  C6  V50 d   1      -5.676   3.280  15.278  0.00  0.00     0.182 A 
ATOM      5  F11 V50 d   1      -6.992   3.162  15.322  0.00  0.00    -0.201 F 
ATOM      6  C1  V50 d   1      -5.067   4.374  14.600  0.00  0.00     0.176 A 
ATOM      7  F10 V50 d   1      -5.839   5.277  13.968  0.00  0.00    -0.201 F 
ATOM      8  C3  V50 d   1      -2.905   3.554  15.260  0.00  0.00     0.176 A 
ATOM      9  F12 V50 d   1      -1.520   3.721  15.191  0.00  0.00    -0.201 F 
ATOM     10  C2  V50 d   1      -3.654   4.539  14.620  0.00  0.00     0.092 A 
ENDROOT
BRANCH  10  11
ATOM     11  S14 V50 d   1      -2.701   5.794  13.764  0.00  0.00    -0.044 SA
BRANCH  11  12
ATOM     12  C15 V50 d   1      -2.093   7.517  13.780  0.00  0.00     0.194 A 
ATOM     13  N20 V50 d   1      -2.513   8.184  12.661  0.00  0.00    -0.228 NA
ATOM     14  C19 V50 d   1      -2.142   9.490  12.478  0.00  0.00     0.035 A 
ATOM     15  C18 V50 d   1      -1.333  10.202  13.324  0.00  0.00    -0.036 A 
ATOM     16  C17 V50 d   1      -0.896   9.435  14.388  0.00  0.00     0.035 A 
ATOM     17  H6  V50 d   1      -1.067  11.243  13.177  0.00  0.00     0.089 H 
ATOM     18  N16 V50 d   1      -1.223   8.116  14.655  0.00  0.00    -0.228 NA
BRANCH  14  19
ATOM     19  C21 V50 d   1      -2.693  10.202  11.267  0.00  0.00    -0.035 C 
ATOM     20  H3  V50 d   1      -2.316  11.235  11.246  0.00  0.00     0.035 H 
ATOM     21  H4  V50 d   1      -3.792  10.214  11.317  0.00  0.00     0.035 H 
ATOM     22  H5  V50 d   1      -2.373   9.676  10.355  0.00  0.00     0.035 H 
ENDBRANCH  14  19
BRANCH  16  23
ATOM     23  C22 V50 d   1       0.028  10.198  15.315  0.00  0.00    -0.035 C 
ATOM     24  H7  V50 d   1       0.343   9.542  16.140  0.00  0.00     0.035 H 
ATOM     25  H8  V50 d   1      -0.502  11.071  15.723  0.00  0.00     0.035 H 
ATOM     26  H9  V50 d   1       0.913  10.534  14.755  0.00  0.00     0.035 H 
ENDBRANCH  16  23
ENDBRANCH  11  12
ENDBRANCH  10  11
BRANCH   3  27
ATOM     27  S7  V50 d   1      -5.833   0.975  16.828  0.00  0.00     0.263 S 
ATOM     28  O9  V50 d   1      -5.266   0.713  18.108  0.00  0.00    -0.201 OA
ATOM     29  O8  V50 d   1      -7.259   0.794  16.486  0.00  0.00    -0.201 OA
BRANCH  27  30
ATOM     30  N23 V50 d   1      -5.371  -0.326  16.004  0.00  0.00    -0.324 N 
ATOM     31  H1  V50 d   1      -5.702  -1.231  16.271  0.00  0.00     0.169 HD
ATOM     32  H2  V50 d   1      -4.752  -0.230  15.224  0.00  0.00     0.169 HD
ENDBRANCH  27  30
ENDBRANCH   3  27
TORSDOF 6
