REMARK  6 active torsions:
REMARK  status: ('A' for Active; 'I' for Inactive)
REMARK    1  A    between atoms: C5_3  and  S7_4 
REMARK    2  A    between atoms: S7_4  and  N23_6 
REMARK    3  A    between atoms: C2_14  and  S14_15 
REMARK    4  A    between atoms: S14_15  and  C15_16 
REMARK    5  A    between atoms: C19_18  and  C21_19 
REMARK    6  A    between atoms: C17_21  and  C22_23 
ROOT
ATOM      1  F13 V50 d   1       0.782  -6.843  15.181  0.00  0.00    -0.201 F 
ATOM      2  C4  V50 d   1       0.736  -7.694  16.201  0.00  0.00     0.182 A 
ATOM      3  C5  V50 d   1       1.049  -9.067  15.964  0.00  0.00     0.162 A 
ATOM      4  C6  V50 d   1       0.920  -9.949  17.064  0.00  0.00     0.182 A 
ATOM      5  F11 V50 d   1       1.178 -11.203  16.909  0.00  0.00    -0.201 F 
ATOM      6  C1  V50 d   1       0.456  -9.415  18.285  0.00  0.00     0.176 A 
ATOM      7  F10 V50 d   1       0.259 -10.365  19.243  0.00  0.00    -0.201 F 
ATOM      8  C3  V50 d   1       0.355  -7.207  17.430  0.00  0.00     0.176 A 
ATOM      9  F12 V50 d   1       0.172  -5.925  17.672  0.00  0.00    -0.201 F 
ATOM     10  C2  V50 d   1       0.214  -8.101  18.494  0.00  0.00     0.092 A 
ENDROOT
BRANCH  10  11
ATOM     11  S14 V50 d   1      -0.320  -7.488  20.074  0.00  0.00    -0.044 SA
BRANCH  11  12
ATOM     12  C15 V50 d   1       0.851  -8.104  21.289  0.00  0.00     0.194 A 
ATOM     13  N20 V50 d   1       1.844  -8.843  20.912  0.00  0.00    -0.228 NA
ATOM     14  C19 V50 d   1       2.660  -9.330  21.924  0.00  0.00     0.035 A 
ATOM     15  C18 V50 d   1       2.430  -9.032  23.268  0.00  0.00    -0.036 A 
ATOM     16  C17 V50 d   1       1.373  -8.212  23.470  0.00  0.00     0.035 A 
ATOM     17  H6  V50 d   1       3.041  -9.421  24.074  0.00  0.00     0.089 H 
ATOM     18  N16 V50 d   1       0.515  -7.692  22.554  0.00  0.00    -0.228 NA
BRANCH  14  19
ATOM     19  C21 V50 d   1       3.761 -10.278  21.479  0.00  0.00    -0.035 C 
ATOM     20  H3  V50 d   1       4.343 -10.601  22.355  0.00  0.00     0.035 H 
ATOM     21  H4  V50 d   1       4.423  -9.763  20.768  0.00  0.00     0.035 H 
ATOM     22  H5  V50 d   1       3.313 -11.157  20.992  0.00  0.00     0.035 H 
ENDBRANCH  14  19
BRANCH  16  23
ATOM     23  C22 V50 d   1       0.999  -7.637  24.834  0.00  0.00    -0.035 C 
ATOM     24  H7  V50 d   1       0.105  -7.004  24.732  0.00  0.00     0.035 H 
ATOM     25  H8  V50 d   1       1.834  -7.034  25.219  0.00  0.00     0.035 H 
ATOM     26  H9  V50 d   1       0.788  -8.459  25.533  0.00  0.00     0.035 H 
ENDBRANCH  16  23
ENDBRANCH  11  12
ENDBRANCH  10  11
BRANCH   3  27
ATOM     27  S7  V50 d   1       1.753  -9.460  14.274  0.00  0.00     0.263 S 
ATOM     28  O9  V50 d   1       2.227 -10.780  14.361  0.00  0.00    -0.201 OA
ATOM     29  O8  V50 d   1       2.756  -8.428  14.057  0.00  0.00    -0.201 OA
BRANCH  27  30
ATOM     30  N23 V50 d   1       0.564  -9.325  13.200  0.00  0.00    -0.324 N 
ATOM     31  H1  V50 d   1       0.743  -9.498  12.231  0.00  0.00     0.169 HD
ATOM     32  H2  V50 d   1      -0.355  -9.069  13.501  0.00  0.00     0.169 HD
ENDBRANCH  27  30
ENDBRANCH   3  27
TORSDOF 6
