REMARK  8 active torsions:
REMARK  status: ('A' for Active; 'I' for Inactive)
REMARK    1  A    between atoms: CAQ_2  and  CAW_4 
REMARK    2  A    between atoms: CAV_12  and  CAN_13 
REMARK    3  A    between atoms: CAN_13  and  CAL_14 
REMARK    4  A    between atoms: CAL_14  and  CAM_15 
REMARK    5  A    between atoms: CAM_15  and  OAO_16 
REMARK    6  A    between atoms: OAO_16  and  CAT_17 
REMARK    7  A    between atoms: CAR_19  and  CAA_20 
REMARK    8  A    between atoms: CAS_23  and  CAB_24 
ROOT
ATOM      1  CAL 19G d   1      37.770  -9.421  22.108  0.00  0.00    -0.041 C 
ATOM      2  H7  19G d   1      38.777  -9.510  21.675  0.00  0.00     0.036 H 
ATOM      3  H8  19G d   1      37.064 -10.028  21.523  0.00  0.00     0.036 H 
ENDROOT
BRANCH   1   4
ATOM      4  CAN 19G d   1      37.351  -7.992  21.963  0.00  0.00    -0.037 C 
ATOM      5  H5  19G d   1      37.881  -7.404  22.727  0.00  0.00     0.040 H 
ATOM      6  H6  19G d   1      37.654  -7.650  20.962  0.00  0.00     0.040 H 
BRANCH   4   7
ATOM      7  CAV 19G d   1      35.887  -7.731  22.115  0.00  0.00    -0.022 A 
ATOM      8  CAW 19G d   1      34.950  -7.927  21.070  0.00  0.00     0.089 A 
ATOM      9  S   19G d   1      33.438  -7.523  21.705  0.00  0.00    -0.082 SA
ATOM     10  CAX 19G d   1      33.897  -7.098  23.283  0.00  0.00     0.016 A 
ATOM     11  CAH 19G d   1      33.206  -6.651  24.407  0.00  0.00    -0.066 A 
ATOM     12  CAY 19G d   1      35.293  -7.272  23.340  0.00  0.00    -0.011 A 
ATOM     13  CAF 19G d   1      33.875  -6.391  25.595  0.00  0.00    -0.082 A 
ATOM     14  H1  19G d   1      32.133  -6.505  24.353  0.00  0.00     0.085 H 
ATOM     15  CAG 19G d   1      35.264  -6.568  25.647  0.00  0.00    -0.082 A 
ATOM     16  H2  19G d   1      33.331  -6.056  26.470  0.00  0.00     0.083 H 
ATOM     17  CAI 19G d   1      35.968  -6.997  24.529  0.00  0.00    -0.071 A 
ATOM     18  H3  19G d   1      35.795  -6.368  26.570  0.00  0.00     0.083 H 
ATOM     19  H4  19G d   1      37.044  -7.118  24.581  0.00  0.00     0.084 H 
BRANCH   8  20
ATOM     20  CAQ 19G d   1      35.151  -8.370  19.666  0.00  0.00     0.217 C 
ATOM     21  OAC 19G d   1      34.299  -7.975  18.834  0.00  0.00    -0.643 OA
ATOM     22  OAD 19G d   1      36.110  -9.096  19.299  0.00  0.00    -0.643 OA
ENDBRANCH   8  20
ENDBRANCH   4   7
ENDBRANCH   1   4
BRANCH   1  23
ATOM     23  CAM 19G d   1      37.826 -10.010  23.483  0.00  0.00     0.026 C 
ATOM     24  H9  19G d   1      38.142 -11.061  23.413  0.00  0.00     0.075 H 
ATOM     25  H10 19G d   1      36.827  -9.957  23.939  0.00  0.00     0.075 H 
BRANCH  23  26
ATOM     26  OAO 19G d   1      38.723  -9.318  24.274  0.00  0.00    -0.351 OA
BRANCH  26  27
ATOM     27  CAT 19G d   1      38.947  -9.621  25.590  0.00  0.00     0.069 A 
ATOM     28  CAJ 19G d   1      38.049 -10.392  26.295  0.00  0.00    -0.043 A 
ATOM     29  CAR 19G d   1      38.318 -10.680  27.632  0.00  0.00    -0.037 A 
ATOM     30  H11 19G d   1      37.150 -10.768  25.819  0.00  0.00     0.088 H 
ATOM     31  CAU 19G d   1      39.470 -10.202  28.259  0.00  0.00     0.046 A 
ATOM     32 CL   19G d   1      39.808 -10.563  29.927  0.00  0.00    -0.083 Cl
ATOM     33  CAS 19G d   1      40.363  -9.428  27.535  0.00  0.00    -0.037 A 
ATOM     34  CAK 19G d   1      40.102  -9.143  26.195  0.00  0.00    -0.043 A 
ATOM     35  H18 19G d   1      40.803  -8.546  25.623  0.00  0.00     0.088 H 
BRANCH  29  36
ATOM     36  CAA 19G d   1      37.348 -11.503  28.420  0.00  0.00    -0.050 C 
ATOM     37  H12 19G d   1      36.505 -11.793  27.776  0.00  0.00     0.033 H 
ATOM     38  H13 19G d   1      36.974 -10.914  29.270  0.00  0.00     0.033 H 
ATOM     39  H14 19G d   1      37.852 -12.406  28.793  0.00  0.00     0.033 H 
ENDBRANCH  29  36
BRANCH  33  40
ATOM     40  CAB 19G d   1      41.597  -8.910  28.209  0.00  0.00    -0.050 C 
ATOM     41  H15 19G d   1      42.187  -8.320  27.492  0.00  0.00     0.033 H 
ATOM     42  H16 19G d   1      42.200  -9.756  28.571  0.00  0.00     0.033 H 
ATOM     43  H17 19G d   1      41.311  -8.274  29.059  0.00  0.00     0.033 H 
ENDBRANCH  33  40
ENDBRANCH  26  27
ENDBRANCH  23  26
ENDBRANCH   1  23
TORSDOF 8
