REMARK  9 active torsions:
REMARK  status: ('A' for Active; 'I' for Inactive)
REMARK    1  A    between atoms: C4_2  and  C3_3 
REMARK       I    between atoms: C4_2  and  N5_8 
REMARK    2  A    between atoms: C3_3  and  C2_4 
REMARK    3  A    between atoms: C3_3  and  N7_7 
REMARK    4  A    between atoms: C2_4  and  C1_5 
REMARK    5  A    between atoms: C2_4  and  O6_6 
REMARK    6  A    between atoms: N5_8  and  S9_9 
REMARK    7  A    between atoms: S9_9  and  C12_12 
REMARK    8  A    between atoms: C16_16  and  C18_18 
REMARK    9  A    between atoms: C27_24  and  N28_25 
ROOT
ATOM      1  C12 409 d   1     -14.459 -37.320  17.702  0.00  0.00     0.080 A 
ATOM      2  C13 409 d   1     -14.393 -36.783  18.993  0.00  0.00    -0.060 A 
ATOM      3  C14 409 d   1     -15.559 -36.530  19.751  0.00  0.00    -0.081 A 
ATOM      4  C15 409 d   1     -16.798 -36.819  19.168  0.00  0.00    -0.072 A 
ATOM      5  C16 409 d   1     -16.876 -37.415  17.907  0.00  0.00    -0.024 A 
ATOM      6  C17 409 d   1     -15.707 -37.614  17.166  0.00  0.00    -0.050 A 
ATOM      7  H11 409 d   1     -13.424 -36.556  19.422  0.00  0.00     0.085 H 
ATOM      8  H12 409 d   1     -15.495 -36.124  20.754  0.00  0.00     0.083 H 
ATOM      9  H13 409 d   1     -17.710 -36.577  19.702  0.00  0.00     0.084 H 
ATOM     10  H14 409 d   1     -15.775 -38.004  16.157  0.00  0.00     0.087 H 
ENDROOT
BRANCH   1  11
ATOM     11  S9  409 d   1     -13.092 -37.608  16.846  0.00  0.00     0.265 S 
ATOM     12  O10 409 d   1     -12.657 -38.906  17.229  0.00  0.00    -0.200 OA
ATOM     13  O11 409 d   1     -13.375 -37.523  15.467  0.00  0.00    -0.200 OA
BRANCH  11  14
ATOM     14  N5  409 d   1     -11.893 -36.605  17.237  0.00  0.00    -0.248 N 
ATOM     15  C4  409 d   1     -11.949 -35.316  16.914  0.00  0.00     0.264 C 
ATOM     16  O8  409 d   1     -12.889 -34.871  16.270  0.00  0.00    -0.270 OA
ATOM     17  H10 409 d   1     -11.096 -36.956  17.729  0.00  0.00     0.182 HD
BRANCH  15  18
ATOM     18  C3  409 d   1     -10.804 -34.443  17.356  0.00  0.00     0.200 C 
ATOM     19  H1  409 d   1      -9.916 -35.072  17.517  0.00  0.00     0.103 H 
BRANCH  18  20
ATOM     20  C2  409 d   1     -11.148 -33.705  18.662  0.00  0.00     0.068 C 
ATOM     21  H2  409 d   1     -12.146 -33.256  18.553  0.00  0.00     0.086 H 
BRANCH  20  22
ATOM     22  C1  409 d   1     -11.189 -34.661  19.877  0.00  0.00    -0.050 C 
ATOM     23  H3  409 d   1     -11.438 -34.091  20.784  0.00  0.00     0.031 H 
ATOM     24  H4  409 d   1     -10.206 -35.138  20.002  0.00  0.00     0.031 H 
ATOM     25  H5  409 d   1     -11.953 -35.434  19.709  0.00  0.00     0.031 H 
ENDBRANCH  20  22
BRANCH  20  26
ATOM     26  O6  409 d   1     -10.184 -32.641  18.861  0.00  0.00    -0.393 OA
ATOM     27  H6  409 d   1     -10.422 -32.140  19.633  0.00  0.00     0.210 HD
ENDBRANCH  20  26
ENDBRANCH  18  20
BRANCH  18  28
ATOM     28  N7  409 d   1     -10.516 -33.452  16.336  0.00  0.00    -0.064 N 
ATOM     29  H7  409 d   1     -10.288 -33.917  15.471  0.00  0.00     0.275 HD
ATOM     30  H8  409 d   1      -9.736 -32.885  16.629  0.00  0.00     0.275 HD
ATOM     31  H9  409 d   1     -11.325 -32.866  16.199  0.00  0.00     0.275 HD
ENDBRANCH  18  28
ENDBRANCH  15  18
ENDBRANCH  11  14
ENDBRANCH   1  11
BRANCH   5  32
ATOM     32  C18 409 d   1     -18.220 -37.653  17.285  0.00  0.00    -0.024 A 
ATOM     33  C19 409 d   1     -18.277 -37.915  15.912  0.00  0.00    -0.071 A 
ATOM     34  C20 409 d   1     -19.478 -38.073  15.246  0.00  0.00    -0.066 A 
ATOM     35  H15 409 d   1     -17.352 -37.997  15.354  0.00  0.00     0.084 H 
ATOM     36  C21 409 d   1     -20.679 -37.983  15.974  0.00  0.00     0.038 A 
ATOM     37  H16 409 d   1     -19.494 -38.263  14.179  0.00  0.00     0.085 H 
ATOM     38  C22 409 d   1     -20.647 -37.698  17.410  0.00  0.00     0.073 A 
ATOM     39  C27 409 d   1     -22.009 -38.113  15.330  0.00  0.00     0.135 A 
ATOM     40  C23 409 d   1     -19.404 -37.541  18.030  0.00  0.00    -0.043 A 
ATOM     41  N24 409 d   1     -21.830 -37.614  18.077  0.00  0.00    -0.241 NA
ATOM     42  H17 409 d   1     -19.354 -37.331  19.092  0.00  0.00     0.088 H 
ATOM     43  C25 409 d   1     -23.012 -37.767  17.429  0.00  0.00     0.089 A 
ATOM     44  N26 409 d   1     -23.102 -37.999  16.100  0.00  0.00    -0.224 NA
ATOM     45  H20 409 d   1     -23.928 -37.700  18.004  0.00  0.00     0.146 H 
BRANCH  39  46
ATOM     46  N28 409 d   1     -22.116 -38.342  14.014  0.00  0.00    -0.383 N 
ATOM     47  H18 409 d   1     -23.046 -38.430  13.581  0.00  0.00     0.157 HD
ATOM     48  H19 409 d   1     -21.268 -38.430  13.436  0.00  0.00     0.157 HD
ENDBRANCH  39  46
ENDBRANCH   5  32
TORSDOF 9
