REMARK  10 active torsions:
REMARK  status: ('A' for Active; 'I' for Inactive)
REMARK    1  A    between atoms: C1_1  and  C2_2 
REMARK    2  A    between atoms: C2_2  and  C3_3 
REMARK    3  A    between atoms: C2_2  and  O6_6 
REMARK    4  A    between atoms: C3_3  and  C4_4 
REMARK    5  A    between atoms: C3_3  and  N7_7 
REMARK       I    between atoms: C4_4  and  N5_5 
REMARK    6  A    between atoms: N5_5  and  S9_9 
REMARK    7  A    between atoms: S9_9  and  C12_12 
REMARK    8  A    between atoms: C16_16  and  C18_18 
REMARK    9  A    between atoms: C25_25  and  C29_29 
REMARK   10  A    between atoms: C27_27  and  N28_28 
ROOT
ATOM      1  C12 X16 d   1     -14.409 -37.304  17.765  0.00  0.00     0.080 A 
ATOM      2  C13 X16 d   1     -14.369 -36.766  19.053  0.00  0.00    -0.060 A 
ATOM      3  C14 X16 d   1     -15.521 -36.525  19.809  0.00  0.00    -0.081 A 
ATOM      4  C15 X16 d   1     -16.746 -36.838  19.249  0.00  0.00    -0.072 A 
ATOM      5  C16 X16 d   1     -16.822 -37.440  18.003  0.00  0.00    -0.024 A 
ATOM      6  C17 X16 d   1     -15.661 -37.632  17.261  0.00  0.00    -0.050 A 
ATOM      7  H11 X16 d   1     -13.405 -36.525  19.485  0.00  0.00     0.085 H 
ATOM      8  H12 X16 d   1     -15.455 -36.105  20.806  0.00  0.00     0.083 H 
ATOM      9  H13 X16 d   1     -17.657 -36.610  19.791  0.00  0.00     0.084 H 
ATOM     10  H14 X16 d   1     -15.736 -38.049  16.263  0.00  0.00     0.087 H 
ENDROOT
BRANCH   1  11
ATOM     11  S9  X16 d   1     -13.060 -37.591  16.906  0.00  0.00     0.265 S 
ATOM     12  O10 X16 d   1     -12.602 -38.829  17.293  0.00  0.00    -0.200 OA
ATOM     13  O11 X16 d   1     -13.294 -37.481  15.571  0.00  0.00    -0.200 OA
BRANCH  11  14
ATOM     14  N5  X16 d   1     -11.900 -36.585  17.331  0.00  0.00    -0.248 N 
ATOM     15  C4  X16 d   1     -11.958 -35.304  17.002  0.00  0.00     0.264 C 
ATOM     16  O8  X16 d   1     -12.872 -34.839  16.377  0.00  0.00    -0.270 OA
ATOM     17  H6  X16 d   1     -11.118 -36.926  17.853  0.00  0.00     0.182 HD
BRANCH  15  18
ATOM     18  C3  X16 d   1     -10.810 -34.418  17.408  0.00  0.00     0.200 C 
ATOM     19  H5  X16 d   1      -9.890 -35.000  17.564  0.00  0.00     0.103 H 
BRANCH  18  20
ATOM     20  C2  X16 d   1     -11.204 -33.683  18.692  0.00  0.00     0.068 C 
ATOM     21  H4  X16 d   1     -12.197 -33.246  18.511  0.00  0.00     0.086 H 
BRANCH  20  22
ATOM     22  C1  X16 d   1     -11.308 -34.616  19.901  0.00  0.00    -0.050 C 
ATOM     23  H1  X16 d   1     -11.593 -34.034  20.790  0.00  0.00     0.031 H 
ATOM     24  H2  X16 d   1     -10.336 -35.100  20.076  0.00  0.00     0.031 H 
ATOM     25  H3  X16 d   1     -12.070 -35.385  19.706  0.00  0.00     0.031 H 
ENDBRANCH  20  22
BRANCH  20  26
ATOM     26  O6  X16 d   1     -10.333 -32.633  19.065  0.00  0.00    -0.393 OA
ATOM     27  H7  X16 d   1     -10.647 -32.232  19.867  0.00  0.00     0.210 HD
ENDBRANCH  20  26
ENDBRANCH  18  20
BRANCH  18  28
ATOM     28  N7  X16 d   1     -10.649 -33.478  16.340  0.00  0.00    -0.064 N 
ATOM     29  H8  X16 d   1     -10.390 -33.968  15.498  0.00  0.00     0.275 HD
ATOM     30  H9  X16 d   1      -9.927 -32.817  16.580  0.00  0.00     0.275 HD
ATOM     31  H10 X16 d   1     -11.517 -32.988  16.190  0.00  0.00     0.275 HD
ENDBRANCH  18  28
ENDBRANCH  15  18
ENDBRANCH  11  14
ENDBRANCH   1  11
BRANCH   5  32
ATOM     32  C18 X16 d   1     -18.167 -37.725  17.401  0.00  0.00    -0.024 A 
ATOM     33  C19 X16 d   1     -19.294 -37.805  18.200  0.00  0.00    -0.071 A 
ATOM     34  C20 X16 d   1     -20.562 -37.996  17.677  0.00  0.00    -0.066 A 
ATOM     35  H15 X16 d   1     -19.180 -37.715  19.274  0.00  0.00     0.084 H 
ATOM     36  C21 X16 d   1     -20.700 -38.102  16.304  0.00  0.00     0.038 A 
ATOM     37  H16 X16 d   1     -21.426 -38.061  18.328  0.00  0.00     0.085 H 
ATOM     38  C22 X16 d   1     -19.525 -38.026  15.432  0.00  0.00     0.073 A 
ATOM     39  C27 X16 d   1     -22.009 -38.292  15.618  0.00  0.00     0.136 A 
ATOM     40  C23 X16 d   1     -18.292 -37.823  16.026  0.00  0.00    -0.043 A 
ATOM     41  N24 X16 d   1     -19.706 -38.125  14.095  0.00  0.00    -0.233 NA
ATOM     42  H17 X16 d   1     -17.408 -37.739  15.404  0.00  0.00     0.088 H 
ATOM     43  C25 X16 d   1     -20.921 -38.300  13.548  0.00  0.00     0.125 A 
ATOM     44  N26 X16 d   1     -22.039 -38.373  14.292  0.00  0.00    -0.216 NA
BRANCH  43  45
ATOM     45  C29 X16 d   1     -21.007 -38.417  12.056  0.00  0.00    -0.019 C 
ATOM     46  H20 X16 d   1     -19.999 -38.334  11.623  0.00  0.00     0.037 H 
ATOM     47  H21 X16 d   1     -21.643 -37.611  11.661  0.00  0.00     0.037 H 
ATOM     48  H22 X16 d   1     -21.442 -39.392  11.789  0.00  0.00     0.037 H 
ENDBRANCH  43  45
BRANCH  39  49
ATOM     49  N28 X16 d   1     -23.098 -38.354  16.328  0.00  0.00    -0.383 N 
ATOM     50  H18 X16 d   1     -24.008 -38.485  15.864  0.00  0.00     0.157 HD
ATOM     51  H19 X16 d   1     -23.049 -38.272  17.354  0.00  0.00     0.157 HD
ENDBRANCH  39  49
ENDBRANCH   5  32
TORSDOF 10
