REMARK  9 active torsions:
REMARK  status: ('A' for Active; 'I' for Inactive)
REMARK    1  A    between atoms: C27_5  and  N28_6 
REMARK    2  A    between atoms: C18_12  and  C16_13 
REMARK    3  A    between atoms: C12_18  and  S9_19 
REMARK    4  A    between atoms: S9_19  and  N5_22 
REMARK       I    between atoms: N5_22  and  C4_23 
REMARK    5  A    between atoms: C4_23  and  C3_25 
REMARK    6  A    between atoms: C3_25  and  N7_26 
REMARK    7  A    between atoms: C3_25  and  C2_27 
REMARK    8  A    between atoms: C2_27  and  C1_28 
REMARK    9  A    between atoms: C2_27  and  O6_29 
ROOT
ATOM      1  C16 1B3 d   1      16.735 -37.440 -17.768  0.00  0.00    -0.024 A 
ATOM      2  C17 1B3 d   1      15.568 -37.650 -17.058  0.00  0.00    -0.050 A 
ATOM      3  C15 1B3 d   1      16.691 -36.810 -19.028  0.00  0.00    -0.072 A 
ATOM      4  C14 1B3 d   1      15.457 -36.522 -19.641  0.00  0.00    -0.081 A 
ATOM      5  C13 1B3 d   1      14.283 -36.781 -18.908  0.00  0.00    -0.060 A 
ATOM      6  C12 1B3 d   1      14.333 -37.340 -17.624  0.00  0.00     0.080 A 
ATOM      7  H6  1B3 d   1      15.614 -38.058 -16.055  0.00  0.00     0.087 H 
ATOM      8  H7  1B3 d   1      17.615 -36.545 -19.529  0.00  0.00     0.084 H 
ATOM      9  H8  1B3 d   1      15.412 -36.114 -20.644  0.00  0.00     0.083 H 
ATOM     10  H9  1B3 d   1      13.320 -36.543 -19.346  0.00  0.00     0.085 H 
ENDROOT
BRANCH   6  11
ATOM     11  S9  1B3 d   1      12.953 -37.646 -16.810  0.00  0.00     0.265 S 
ATOM     12  O10 1B3 d   1      12.483 -38.962 -17.196  0.00  0.00    -0.200 OA
ATOM     13  O11 1B3 d   1      13.184 -37.591 -15.418  0.00  0.00    -0.200 OA
BRANCH  11  14
ATOM     14  N5  1B3 d   1      11.810 -36.640 -17.234  0.00  0.00    -0.248 N 
ATOM     15  C4  1B3 d   1      11.877 -35.343 -16.908  0.00  0.00     0.264 C 
ATOM     16  O8  1B3 d   1      12.819 -34.881 -16.264  0.00  0.00    -0.270 OA
ATOM     17  H10 1B3 d   1      11.025 -36.977 -17.754  0.00  0.00     0.182 HD
BRANCH  15  18
ATOM     18  C3  1B3 d   1      10.727 -34.495 -17.355  0.00  0.00     0.200 C 
ATOM     19  H11 1B3 d   1       9.856 -35.139 -17.549  0.00  0.00     0.103 H 
BRANCH  18  20
ATOM     20  N7  1B3 d   1      10.393 -33.492 -16.339  0.00  0.00    -0.064 N 
ATOM     21  H12 1B3 d   1      10.139 -33.955 -15.480  0.00  0.00     0.275 HD
ATOM     22  H13 1B3 d   1       9.619 -32.933 -16.661  0.00  0.00     0.275 HD
ATOM     23  H14 1B3 d   1      11.192 -32.899 -16.177  0.00  0.00     0.275 HD
ENDBRANCH  18  20
BRANCH  18  24
ATOM     24  C2  1B3 d   1      11.099 -33.718 -18.620  0.00  0.00     0.068 C 
ATOM     25  H15 1B3 d   1      12.119 -33.319 -18.515  0.00  0.00     0.086 H 
BRANCH  24  26
ATOM     26  C1  1B3 d   1      11.057 -34.664 -19.844  0.00  0.00    -0.050 C 
ATOM     27  H16 1B3 d   1      11.325 -34.102 -20.751  0.00  0.00     0.031 H 
ATOM     28  H17 1B3 d   1      10.043 -35.076 -19.954  0.00  0.00     0.031 H 
ATOM     29  H18 1B3 d   1      11.773 -35.486 -19.697  0.00  0.00     0.031 H 
ENDBRANCH  24  26
BRANCH  24  30
ATOM     30  O6  1B3 d   1      10.181 -32.622 -18.776  0.00  0.00    -0.393 OA
ATOM     31  H19 1B3 d   1      10.412 -32.124 -19.552  0.00  0.00     0.210 HD
ENDBRANCH  24  30
ENDBRANCH  18  24
ENDBRANCH  15  18
ENDBRANCH  11  14
ENDBRANCH   6  11
BRANCH   1  32
ATOM     32  C18 1B3 d   1      18.082 -37.682 -17.146  0.00  0.00    -0.024 A 
ATOM     33  C23 1B3 d   1      19.234 -37.605 -17.936  0.00  0.00    -0.043 A 
ATOM     34  C22 1B3 d   1      20.483 -37.756 -17.305  0.00  0.00     0.074 A 
ATOM     35  H3  1B3 d   1      19.167 -37.434 -19.004  0.00  0.00     0.088 H 
ATOM     36  N24 1B3 d   1      21.635 -37.681 -17.982  0.00  0.00    -0.218 NA
ATOM     37  C21 1B3 d   1      20.557 -37.967 -15.858  0.00  0.00     0.038 A 
ATOM     38  C25 1B3 d   1      22.806 -37.839 -17.324  0.00  0.00     0.225 A 
ATOM     39 CL2  1B3 d   1      24.248 -37.729 -18.323  0.00  0.00    -0.041 Cl
ATOM     40  N26 1B3 d   1      22.951 -38.034 -15.992  0.00  0.00    -0.200 NA
ATOM     41  C27 1B3 d   1      21.897 -38.098 -15.209  0.00  0.00     0.137 A 
ATOM     42  C20 1B3 d   1      19.382 -38.026 -15.108  0.00  0.00    -0.066 A 
ATOM     43  C19 1B3 d   1      18.152 -37.900 -15.756  0.00  0.00    -0.071 A 
ATOM     44  H4  1B3 d   1      19.424 -38.168 -14.034  0.00  0.00     0.085 H 
ATOM     45  H5  1B3 d   1      17.236 -37.971 -15.180  0.00  0.00     0.084 H 
BRANCH  41  46
ATOM     46  N28 1B3 d   1      22.041 -38.285 -13.883  0.00  0.00    -0.383 N 
ATOM     47  H1  1B3 d   1      21.210 -38.334 -13.277  0.00  0.00     0.157 HD
ATOM     48  H2  1B3 d   1      22.982 -38.379 -13.475  0.00  0.00     0.157 HD
ENDBRANCH  41  46
ENDBRANCH   1  32
TORSDOF 9
