REMARK  6 active torsions:
REMARK  status: ('A' for Active; 'I' for Inactive)
REMARK    1  A    between atoms: C20_10  and  S19_11 
REMARK    2  A    between atoms: S19_11  and  C10_12 
REMARK    3  A    between atoms: C8_16  and  N13_17 
REMARK    4  A    between atoms: C16_19  and  N18_20 
REMARK    5  A    between atoms: C5_26  and  C6_28 
REMARK    6  A    between atoms: C6_28  and  C7_29 
ROOT
ATOM      1  C10 19X d   1       9.965   1.911 -10.526  0.00  0.00     0.197 A 
ATOM      2  N11 19X d   1      11.187   2.185 -10.026  0.00  0.00    -0.204 NA
ATOM      3  C2  19X d   1      11.335   2.663  -8.791  0.00  0.00     0.146 A 
ATOM      4  N9  19X d   1       8.818   2.022  -9.844  0.00  0.00    -0.204 NA
ATOM      5  C8  19X d   1       8.781   2.443  -8.569  0.00  0.00     0.144 A 
ATOM      6  C3  19X d   1      10.102   2.792  -7.982  0.00  0.00     0.080 A 
ATOM      7  C4  19X d   1      10.717   3.317  -6.777  0.00  0.00     0.074 A 
ATOM      8 CL1  19X d   1       9.836   3.924  -5.339  0.00  0.00    -0.081 Cl
ATOM      9  C5  19X d   1      12.169   3.481  -6.874  0.00  0.00     0.033 A 
ATOM     10  N1  19X d   1      12.437   3.066  -8.114  0.00  0.00    -0.342 N 
ATOM     11  H17 19X d   1      13.386   3.053  -8.515  0.00  0.00     0.167 HD
ENDROOT
BRANCH   1  12
ATOM     12  S19 19X d   1       9.935   1.479 -12.175  0.00  0.00    -0.050 SA
BRANCH  12  13
ATOM     13  C20 19X d   1       8.467   0.725 -12.578  0.00  0.00     0.009 A 
ATOM     14  C21 19X d   1       7.998   0.898 -13.891  0.00  0.00    -0.051 A 
ATOM     15  C22 19X d   1       6.842   0.225 -14.208  0.00  0.00     0.041 A 
ATOM     16  H1  19X d   1       8.515   1.523 -14.610  0.00  0.00     0.087 H 
ATOM     17  C28 19X d   1       5.995   0.129 -15.405  0.00  0.00     0.252 A 
ATOM     18  C23 19X d   1       6.097  -0.613 -13.265  0.00  0.00    -0.025 A 
ATOM     19  O29 19X d   1       6.345   0.769 -16.474  0.00  0.00    -0.268 OA
ATOM     20  N27 19X d   1       4.892  -0.661 -15.249  0.00  0.00    -0.353 N 
ATOM     21  C26 19X d   1       4.881  -1.176 -13.854  0.00  0.00     0.020 A 
ATOM     22  H2  19X d   1       4.209  -0.859 -15.952  0.00  0.00     0.163 HD
ATOM     23  H3  19X d   1       4.912  -2.276 -13.842  0.00  0.00     0.071 H 
ATOM     24  H4  19X d   1       3.987  -0.829 -13.315  0.00  0.00     0.071 H 
ATOM     25  C24 19X d   1       6.580  -0.757 -11.976  0.00  0.00    -0.073 A 
ATOM     26  C25 19X d   1       7.789  -0.101 -11.670  0.00  0.00    -0.066 A 
ATOM     27  H5  19X d   1       6.052  -1.347 -11.236  0.00  0.00     0.084 H 
ATOM     28  H6  19X d   1       8.216  -0.242 -10.684  0.00  0.00     0.085 H 
ENDBRANCH  12  13
ENDBRANCH   1  12
BRANCH   5  29
ATOM     29  N13 19X d   1       7.578   2.326  -7.916  0.00  0.00    -0.363 N 
ATOM     30  C17 19X d   1       7.469   2.202  -6.447  0.00  0.00     0.023 C 
ATOM     31  C16 19X d   1       6.314   1.220  -6.249  0.00  0.00     0.117 C 
ATOM     32  H7  19X d   1       7.239   3.175  -5.987  0.00  0.00     0.067 H 
ATOM     33  H8  19X d   1       8.400   1.804  -6.017  0.00  0.00     0.067 H 
ATOM     34  C15 19X d   1       5.523   1.342  -7.552  0.00  0.00    -0.022 C 
ATOM     35  H9  19X d   1       5.708   1.500  -5.375  0.00  0.00     0.086 H 
ATOM     36  C14 19X d   1       6.390   1.941  -8.653  0.00  0.00    -0.002 C 
ATOM     37  H13 19X d   1       4.651   1.991  -7.386  0.00  0.00     0.038 H 
ATOM     38  H14 19X d   1       5.183   0.343  -7.863  0.00  0.00     0.038 H 
ATOM     39  H15 19X d   1       6.623   1.197  -9.429  0.00  0.00     0.064 H 
ATOM     40  H16 19X d   1       5.905   2.813  -9.115  0.00  0.00     0.064 H 
BRANCH  31  41
ATOM     41  N18 19X d   1       6.773  -0.189  -6.117  0.00  0.00    -0.073 N 
ATOM     42  H10 19X d   1       5.975  -0.792  -5.989  0.00  0.00     0.274 HD
ATOM     43  H11 19X d   1       7.386  -0.270  -5.321  0.00  0.00     0.274 HD
ATOM     44  H12 19X d   1       7.269  -0.461  -6.952  0.00  0.00     0.274 HD
ENDBRANCH  31  41
ENDBRANCH   5  29
BRANCH   9  45
ATOM     45  C6  19X d   1      13.105   3.935  -5.760  0.00  0.00    -0.028 C 
ATOM     46  H18 19X d   1      13.664   3.064  -5.387  0.00  0.00     0.041 H 
ATOM     47  H19 19X d   1      12.506   4.364  -4.943  0.00  0.00     0.041 H 
BRANCH  45  48
ATOM     48  C7  19X d   1      14.090   4.979  -6.247  0.00  0.00    -0.071 C 
ATOM     49  H20 19X d   1      14.746   5.280  -5.417  0.00  0.00     0.028 H 
ATOM     50  H21 19X d   1      13.541   5.857  -6.617  0.00  0.00     0.028 H 
ATOM     51  H22 19X d   1      14.699   4.558  -7.061  0.00  0.00     0.028 H 
ENDBRANCH  45  48
ENDBRANCH   9  45
TORSDOF 6
