REMARK  6 active torsions:
REMARK  status: ('A' for Active; 'I' for Inactive)
REMARK    1  A    between atoms: C20_10  and  S19_12 
REMARK    2  A    between atoms: S19_12  and  C10_13 
REMARK    3  A    between atoms: C8_15  and  N13_16 
REMARK    4  A    between atoms: C16_19  and  N18_20 
REMARK    5  A    between atoms: C5_26  and  C6_29 
REMARK    6  A    between atoms: C6_29  and  C7_30 
ROOT
ATOM      1  C10 CJC d   1      10.225   1.840 -10.340  0.00  0.00     0.197 A 
ATOM      2  N9  CJC d   1       9.058   1.926  -9.666  0.00  0.00    -0.204 NA
ATOM      3  C8  CJC d   1       9.008   2.390  -8.396  0.00  0.00     0.144 A 
ATOM      4  C3  CJC d   1      10.333   2.768  -7.795  0.00  0.00     0.080 A 
ATOM      5  C2  CJC d   1      11.574   2.654  -8.596  0.00  0.00     0.146 A 
ATOM      6  N11 CJC d   1      11.422   2.162  -9.827  0.00  0.00    -0.204 NA
ATOM      7  N1  CJC d   1      12.683   3.083  -7.921  0.00  0.00    -0.342 N 
ATOM      8  C5  CJC d   1      12.381   3.489  -6.662  0.00  0.00     0.033 A 
ATOM      9  C4  CJC d   1      10.930   3.295  -6.572  0.00  0.00     0.074 A 
ATOM     10 CL1  CJC d   1       9.995   3.834  -5.137  0.00  0.00    -0.081 Cl
ATOM     11  H15 CJC d   1      13.633   3.096  -8.320  0.00  0.00     0.167 HD
ENDROOT
BRANCH   1  12
ATOM     12  S19 CJC d   1      10.215   1.342 -11.948  0.00  0.00    -0.049 SA
BRANCH  12  13
ATOM     13  C20 CJC d   1       8.706   0.697 -12.400  0.00  0.00     0.028 A 
ATOM     14  C25 CJC d   1       8.214   1.005 -13.673  0.00  0.00     0.021 A 
ATOM     15  N24 CJC d   1       7.036   0.547 -14.127  0.00  0.00    -0.238 NA
ATOM     16  H3  CJC d   1       8.809   1.640 -14.320  0.00  0.00     0.117 H 
ATOM     17  C23 CJC d   1       6.267  -0.252 -13.344  0.00  0.00     0.176 A 
ATOM     18  C22 CJC d   1       6.743  -0.610 -11.971  0.00  0.00     0.084 A 
ATOM     19  N26 CJC d   1       5.069  -0.730 -13.777  0.00  0.00    -0.234 NA
ATOM     20  N29 CJC d   1       5.975  -1.407 -11.208  0.00  0.00    -0.319 N 
ATOM     21  C21 CJC d   1       7.966  -0.119 -11.535  0.00  0.00    -0.035 A 
ATOM     22  C28 CJC d   1       4.787  -1.858 -11.679  0.00  0.00     0.263 A 
ATOM     23  H2  CJC d   1       6.281  -1.667 -10.292  0.00  0.00     0.169 HD
ATOM     24  O47 CJC d   1       4.069  -2.592 -10.957  0.00  0.00    -0.267 OA
ATOM     25  C27 CJC d   1       4.338  -1.518 -12.965  0.00  0.00     0.070 A 
ATOM     26  H1  CJC d   1       3.379  -1.899 -13.313  0.00  0.00     0.123 H 
ATOM     27  H4  CJC d   1       8.340  -0.362 -10.547  0.00  0.00     0.089 H 
ENDBRANCH  12  13
ENDBRANCH   1  12
BRANCH   3  28
ATOM     28  N13 CJC d   1       7.751   2.337  -7.780  0.00  0.00    -0.363 N 
ATOM     29  C14 CJC d   1       6.547   2.109  -8.569  0.00  0.00    -0.002 C 
ATOM     30  C15 CJC d   1       5.737   1.220  -7.614  0.00  0.00    -0.022 C 
ATOM     31  H5  CJC d   1       6.774   1.589  -9.511  0.00  0.00     0.064 H 
ATOM     32  H6  CJC d   1       6.022   3.051  -8.787  0.00  0.00     0.064 H 
ATOM     33  C16 CJC d   1       6.458   1.153  -6.262  0.00  0.00     0.117 C 
ATOM     34  H7  CJC d   1       5.651   0.208  -8.036  0.00  0.00     0.038 H 
ATOM     35  H8  CJC d   1       4.733   1.647  -7.476  0.00  0.00     0.038 H 
ATOM     36  C17 CJC d   1       7.566   2.219  -6.339  0.00  0.00     0.023 C 
ATOM     37  H9  CJC d   1       5.761   1.386  -5.444  0.00  0.00     0.086 H 
ATOM     38  H13 CJC d   1       7.240   3.171  -5.896  0.00  0.00     0.067 H 
ATOM     39  H14 CJC d   1       8.486   1.879  -5.841  0.00  0.00     0.067 H 
BRANCH  33  40
ATOM     40  N18 CJC d   1       7.030  -0.189  -6.045  0.00  0.00    -0.073 N 
ATOM     41  H10 CJC d   1       7.499  -0.214  -5.153  0.00  0.00     0.274 HD
ATOM     42  H11 CJC d   1       7.691  -0.395  -6.778  0.00  0.00     0.274 HD
ATOM     43  H12 CJC d   1       6.291  -0.875  -6.056  0.00  0.00     0.274 HD
ENDBRANCH  33  40
ENDBRANCH   3  28
BRANCH   8  44
ATOM     44  C6  CJC d   1      13.273   3.999  -5.547  0.00  0.00    -0.028 C 
ATOM     45  H16 CJC d   1      13.837   3.162  -5.109  0.00  0.00     0.041 H 
ATOM     46  H17 CJC d   1      12.660   4.475  -4.768  0.00  0.00     0.041 H 
BRANCH  44  47
ATOM     47  C7  CJC d   1      14.236   5.016  -6.137  0.00  0.00    -0.071 C 
ATOM     48  H18 CJC d   1      14.895   5.400  -5.344  0.00  0.00     0.028 H 
ATOM     49  H19 CJC d   1      13.667   5.848  -6.576  0.00  0.00     0.028 H 
ATOM     50  H20 CJC d   1      14.844   4.535  -6.918  0.00  0.00     0.028 H 
ENDBRANCH  44  47
ENDBRANCH   8  44
TORSDOF 6
