REMARK  5 active torsions:
REMARK  status: ('A' for Active; 'I' for Inactive)
REMARK       I    between atoms: C02_2  and  N03_3 
REMARK       I    between atoms: C02_2  and  N28_28 
REMARK    1  A    between atoms: N03_3  and  C04_4 
REMARK    2  A    between atoms: C04_4  and  C05_5 
REMARK    3  A    between atoms: C13_13  and  N14_14 
REMARK       I    between atoms: N14_14  and  C15_15 
REMARK    4  A    between atoms: C15_15  and  C17_17 
REMARK       I    between atoms: C17_17  and  N19_19 
REMARK    5  A    between atoms: N19_19  and  C20_20 
ROOT
ATOM      1  C05 1C1 d   1      -2.508 -13.552 -12.531  0.00  0.00    -0.011 A 
ATOM      2  C06 1C1 d   1      -3.222 -13.097 -13.763  0.00  0.00    -0.034 A 
ATOM      3  C07 1C1 d   1      -4.083 -14.277 -14.170  0.00  0.00    -0.049 A 
ATOM      4  C08 1C1 d   1      -4.971 -14.414 -15.367  0.00  0.00    -0.076 A 
ATOM      5  C09 1C1 d   1      -5.685 -15.625 -15.513  0.00  0.00    -0.082 A 
ATOM      6  C10 1C1 d   1      -5.594 -16.680 -14.597  0.00  0.00    -0.082 A 
ATOM      7  C11 1C1 d   1      -4.751 -16.572 -13.454  0.00  0.00    -0.074 A 
ATOM      8  C12 1C1 d   1      -3.969 -15.300 -13.270  0.00  0.00    -0.029 A 
ATOM      9  C13 1C1 d   1      -3.027 -14.877 -12.163  0.00  0.00     0.044 A 
ATOM     10  H6  1C1 d   1      -2.717 -12.855 -11.706  0.00  0.00     0.046 H 
ATOM     11  H7  1C1 d   1      -2.503 -12.849 -14.558  0.00  0.00     0.040 H 
ATOM     12  H8  1C1 d   1      -3.847 -12.218 -13.546  0.00  0.00     0.040 H 
ATOM     13  H9  1C1 d   1      -5.063 -13.615 -16.094  0.00  0.00     0.084 H 
ATOM     14  H10 1C1 d   1      -6.333 -15.742 -16.374  0.00  0.00     0.083 H 
ATOM     15  H11 1C1 d   1      -6.169 -17.585 -14.759  0.00  0.00     0.083 H 
ATOM     16  H12 1C1 d   1      -4.675 -17.382 -12.738  0.00  0.00     0.084 H 
ATOM     17  H13 1C1 d   1      -2.213 -15.602 -12.016  0.00  0.00     0.081 H 
ENDROOT
BRANCH   9  18
ATOM     18  N14 1C1 d   1      -3.844 -14.736 -10.962  0.00  0.00    -0.344 N 
ATOM     19  C15 1C1 d   1      -3.423 -15.306  -9.690  0.00  0.00     0.310 C 
ATOM     20  O16 1C1 d   1      -2.240 -15.529  -9.503  0.00  0.00    -0.262 OA
ATOM     21  H14 1C1 d   1      -4.710 -14.238 -11.014  0.00  0.00     0.163 HD
BRANCH  19  22
ATOM     22  C17 1C1 d   1      -4.404 -15.210  -8.558  0.00  0.00     0.314 C 
ATOM     23  O18 1C1 d   1      -5.494 -14.672  -8.798  0.00  0.00    -0.262 OA
ATOM     24  N19 1C1 d   1      -3.941 -15.504  -7.204  0.00  0.00    -0.319 N 
ATOM     25  H15 1C1 d   1      -3.169 -16.131  -7.098  0.00  0.00     0.169 HD
BRANCH  24  26
ATOM     26  C20 1C1 d   1      -4.528 -14.947  -6.009  0.00  0.00     0.038 A 
ATOM     27  C21 1C1 d   1      -5.844 -14.814  -5.938  0.00  0.00    -0.018 A 
ATOM     28  C22 1C1 d   1      -6.538 -14.591  -4.764  0.00  0.00     0.140 A 
ATOM     29  H16 1C1 d   1      -6.412 -14.884  -6.859  0.00  0.00     0.091 H 
ATOM     30  F23 1C1 d   1      -7.858 -14.448  -4.650  0.00  0.00    -0.204 F 
ATOM     31  C24 1C1 d   1      -5.698 -14.520  -3.588  0.00  0.00     0.072 A 
ATOM     32 CL1  1C1 d   1      -6.553 -14.221  -2.119  0.00  0.00    -0.081 Cl
ATOM     33  C26 1C1 d   1      -4.297 -14.655  -3.681  0.00  0.00    -0.057 A 
ATOM     34  C27 1C1 d   1      -3.747 -14.868  -4.932  0.00  0.00    -0.055 A 
ATOM     35  H17 1C1 d   1      -3.670 -14.594  -2.799  0.00  0.00     0.086 H 
ATOM     36  H18 1C1 d   1      -2.673 -14.971  -5.037  0.00  0.00     0.087 H 
ENDBRANCH  24  26
ENDBRANCH  19  22
ENDBRANCH   9  18
BRANCH   1  37
ATOM     37  C04 1C1 d   1      -1.011 -13.535 -12.807  0.00  0.00     0.015 C 
ATOM     38  H4  1C1 d   1      -0.779 -14.311 -13.552  0.00  0.00     0.065 H 
ATOM     39  H5  1C1 d   1      -0.735 -12.548 -13.207  0.00  0.00     0.065 H 
BRANCH  37  40
ATOM     40  N03 1C1 d   1      -0.225 -13.791 -11.597  0.00  0.00    -0.227 N 
ATOM     41  C02 1C1 d   1       0.600 -15.000 -11.522  0.00  0.00     0.665 C 
ATOM     42  N01 1C1 d   1       1.274 -15.243 -10.449  0.00  0.00    -0.235 N 
ATOM     43  N28 1C1 d   1       0.648 -15.838 -12.558  0.00  0.00    -0.235 N 
ATOM     44  H1  1C1 d   1       1.857 -16.090 -10.387  0.00  0.00     0.174 HD
ATOM     45  H2  1C1 d   1       1.230 -14.590  -9.654  0.00  0.00     0.174 HD
ATOM     46  H19 1C1 d   1       1.228 -16.688 -12.506  0.00  0.00     0.174 HD
ATOM     47  H20 1C1 d   1       0.106 -15.635 -13.410  0.00  0.00     0.174 HD
ATOM     48  H3  1C1 d   1      -0.252 -13.129 -10.808  0.00  0.00     0.177 HD
ENDBRANCH  37  40
ENDBRANCH   1  37
TORSDOF 5
