REMARK  2 active torsions:
REMARK  status: ('A' for Active; 'I' for Inactive)
REMARK    1  A    between atoms: N13_12  and  C14_13 
REMARK       I    between atoms: N19_17  and  C21_19 
REMARK    2  A    between atoms: C21_19  and  C23_21 
ROOT
ATOM      1  C23 C5I d   1      16.185   9.572   1.295  0.00  0.00     0.088 C 
ATOM      2  C24 C5I d   1      17.276  10.305   0.632  0.00  0.00     0.068 C 
ATOM      3  N25 C5I d   1      18.118  10.868   0.125  0.00  0.00    -0.197 NA
ATOM      4  H14 C5I d   1      16.593   9.043   2.168  0.00  0.00     0.069 H 
ATOM      5  H15 C5I d   1      15.424  10.293   1.627  0.00  0.00     0.069 H 
ENDROOT
BRANCH   1   6
ATOM      6  C21 C5I d   1      15.532   8.562   0.373  0.00  0.00     0.232 C 
ATOM      7  N19 C5I d   1      14.663   7.637   0.880  0.00  0.00    -0.349 N 
ATOM      8  C18 C5I d   1      14.401   7.516   2.337  0.00  0.00    -0.002 C 
ATOM      9  C20 C5I d   1      14.051   6.622   0.006  0.00  0.00     0.018 C 
ATOM     10  C17 C5I d   1      15.009   6.180   2.815  0.00  0.00    -0.048 C 
ATOM     11  H10 C5I d   1      14.871   8.354   2.873  0.00  0.00     0.064 H 
ATOM     12  H11 C5I d   1      13.317   7.522   2.524  0.00  0.00     0.064 H 
ATOM     13  C16 C5I d   1      14.393   5.055   1.989  0.00  0.00    -0.041 C 
ATOM     14  H8  C5I d   1      16.099   6.194   2.671  0.00  0.00     0.035 H 
ATOM     15  H9  C5I d   1      14.782   6.027   3.880  0.00  0.00     0.035 H 
ATOM     16  C14 C5I d   1      14.635   5.273   0.465  0.00  0.00     0.052 C 
ATOM     17  H6  C5I d   1      14.847   4.099   2.291  0.00  0.00     0.036 H 
ATOM     18  H7  C5I d   1      13.310   5.023   2.179  0.00  0.00     0.036 H 
ATOM     19  H5  C5I d   1      15.716   5.271   0.259  0.00  0.00     0.078 H 
ATOM     20  H12 C5I d   1      12.957   6.626   0.121  0.00  0.00     0.067 H 
ATOM     21  H13 C5I d   1      14.310   6.814  -1.046  0.00  0.00     0.067 H 
ATOM     22  O22 C5I d   1      15.755   8.608  -0.837  0.00  0.00    -0.272 OA
BRANCH  16  23
ATOM     23  N13 C5I d   1      14.005   4.142  -0.228  0.00  0.00    -0.242 N 
ATOM     24  C7  C5I d   1      14.530   2.875  -0.297  0.00  0.00     0.101 A 
ATOM     25  C6  C5I d   1      15.731   2.250   0.133  0.00  0.00     0.042 A 
ATOM     26  C8  C5I d   1      13.541   2.094  -0.917  0.00  0.00     0.127 A 
ATOM     27  C1  C5I d   1      16.934   2.700   0.826  0.00  0.00    -0.052 A 
ATOM     28  C5  C5I d   1      15.897   0.854  -0.083  0.00  0.00     0.139 A 
ATOM     29  C2  C5I d   1      17.723   1.612   0.992  0.00  0.00    -0.020 A 
ATOM     30  H1  C5I d   1      17.155   3.716   1.148  0.00  0.00     0.087 H 
ATOM     31  N3  C5I d   1      17.123   0.500   0.452  0.00  0.00    -0.350 N 
ATOM     32  H2  C5I d   1      18.695   1.618   1.484  0.00  0.00     0.111 H 
ATOM     33  H3  C5I d   1      17.523  -0.449   0.446  0.00  0.00     0.166 HD
ATOM     34  N10 C5I d   1      14.929   0.156  -0.694  0.00  0.00    -0.240 NA
ATOM     35  C9  C5I d   1      13.795   0.715  -1.102  0.00  0.00     0.036 A 
ATOM     36  H4  C5I d   1      13.047   0.100  -1.588  0.00  0.00     0.118 H 
ATOM     37  N11 C5I d   1      12.491   2.912  -1.191  0.00  0.00    -0.128 NA
ATOM     38  N12 C5I d   1      12.708   4.108  -0.756  0.00  0.00    -0.065 NA
ENDBRANCH  16  23
ENDBRANCH   1   6
TORSDOF 2
