REMARK  6 active torsions:
REMARK  status: ('A' for Active; 'I' for Inactive)
REMARK    1  A    between atoms: C6_4  and  N6_19 
REMARK    2  A    between atoms: C5'_6  and  O5'_5 
REMARK    3  A    between atoms: C4'_7  and  C5'_6 
REMARK    4  A    between atoms: C3'_9  and  O3'_10 
REMARK    5  A    between atoms: C2'_11  and  O2'_12 
REMARK    6  A    between atoms: C1'_13  and  C9_14 
ROOT
ATOM      1  C4' UA2 d   1      19.452  48.307   9.358  0.00  0.00     0.149 C 
ATOM      2  N4' UA2 d   1      20.246  47.122   9.126  0.00  0.00    -0.055 N 
ATOM      3  C3' UA2 d   1      18.030  47.753   9.292  0.00  0.00     0.092 C 
ATOM      4  C2' UA2 d   1      18.112  46.262   9.668  0.00  0.00     0.094 C 
ATOM      5  C1' UA2 d   1      19.581  45.870   9.433  0.00  0.00     0.158 C 
ATOM      6  H5  UA2 d   1      19.617  49.057   8.570  0.00  0.00     0.091 H 
ATOM      7  H6  UA2 d   1      21.075  47.184   9.696  0.00  0.00     0.278 HD
ATOM      8  H7  UA2 d   1      20.508  47.107   8.153  0.00  0.00     0.278 HD
ATOM      9  H8  UA2 d   1      17.398  48.258  10.037  0.00  0.00     0.090 H 
ATOM     10  H10 UA2 d   1      17.854  46.129  10.729  0.00  0.00     0.090 H 
ATOM     11  H12 UA2 d   1      19.692  45.129   8.628  0.00  0.00     0.096 H 
ENDROOT
BRANCH   5  12
ATOM     12  C9  UA2 d   1      20.121  45.375  10.701  0.00  0.00     0.021 A 
ATOM     13  C4  UA2 d   1      19.826  44.075  11.310  0.00  0.00     0.098 A 
ATOM     14  C5  UA2 d   1      20.578  44.151  12.557  0.00  0.00     0.107 A 
ATOM     15  N3  UA2 d   1      19.141  42.990  10.929  0.00  0.00    -0.239 NA
ATOM     16  C6  UA2 d   1      20.495  42.963  13.404  0.00  0.00     0.151 A 
ATOM     17  N7  UA2 d   1      21.181  45.339  12.661  0.00  0.00    -0.360 N 
ATOM     18  N1  UA2 d   1      19.755  41.924  12.959  0.00  0.00    -0.223 NA
ATOM     19  C2  UA2 d   1      19.123  41.930  11.777  0.00  0.00     0.089 A 
ATOM     20  H1  UA2 d   1      18.570  41.045  11.484  0.00  0.00     0.146 H 
ATOM     21  C8  UA2 d   1      20.927  46.102  11.569  0.00  0.00    -0.012 A 
ATOM     22  H14 UA2 d   1      21.759  45.635  13.461  0.00  0.00     0.165 HD
ATOM     23  H13 UA2 d   1      21.293  47.114  11.401  0.00  0.00     0.112 H 
BRANCH  16  24
ATOM     24  N6  UA2 d   1      21.154  42.960  14.579  0.00  0.00    -0.382 N 
ATOM     25  H15 UA2 d   1      21.110  42.134  15.192  0.00  0.00     0.157 HD
ATOM     26  H16 UA2 d   1      21.702  43.784  14.864  0.00  0.00     0.157 HD
ENDBRANCH  16  24
ENDBRANCH   5  12
BRANCH   4  27
ATOM     27  O2' UA2 d   1      17.232  45.480   8.889  0.00  0.00    -0.390 OA
ATOM     28  H11 UA2 d   1      16.340  45.776   9.028  0.00  0.00     0.210 HD
ENDBRANCH   4  27
BRANCH   1  29
ATOM     29  C5' UA2 d   1      19.779  48.924  10.709  0.00  0.00     0.046 C 
ATOM     30  H3  UA2 d   1      19.240  49.877  10.812  0.00  0.00     0.077 H 
ATOM     31  H4  UA2 d   1      19.464  48.236  11.508  0.00  0.00     0.077 H 
BRANCH  29  32
ATOM     32  O5' UA2 d   1      21.206  49.166  10.821  0.00  0.00    -0.399 OA
ATOM     33  H2  UA2 d   1      21.480  49.761  10.133  0.00  0.00     0.209 HD
ENDBRANCH  29  32
ENDBRANCH   1  29
BRANCH   3  34
ATOM     34  O3' UA2 d   1      17.501  48.054   7.986  0.00  0.00    -0.391 OA
ATOM     35  H9  UA2 d   1      16.615  47.719   7.920  0.00  0.00     0.210 HD
ENDBRANCH   3  34
TORSDOF 6
