REMARK  6 active torsions:
REMARK  status: ('A' for Active; 'I' for Inactive)
REMARK    1  A    between atoms: C9_8  and  C7_11 
REMARK    2  A    between atoms: C7_11  and  N4'_12 
REMARK    3  A    between atoms: C4'_13  and  C5'_14 
REMARK    4  A    between atoms: C5'_14  and  O5'_15 
REMARK    5  A    between atoms: C3'_16  and  O3'_17 
REMARK    6  A    between atoms: C2'_18  and  O2'_19 
ROOT
ATOM      1  N4' MBY d   1     -23.103 -17.525 -19.879  0.00  0.00    -0.056 N 
ATOM      2  C4' MBY d   1     -23.094 -17.435 -18.405  0.00  0.00     0.151 C 
ATOM      3  C3' MBY d   1     -23.181 -15.906 -18.196  0.00  0.00     0.091 C 
ATOM      4  C2' MBY d   1     -23.664 -15.293 -19.496  0.00  0.00     0.085 C 
ATOM      5  C1' MBY d   1     -24.009 -16.473 -20.383  0.00  0.00     0.110 C 
ATOM      6  H6  MBY d   1     -22.180 -17.265 -20.191  0.00  0.00     0.281 HD
ATOM      7  H7  MBY d   1     -22.145 -17.823 -18.006  0.00  0.00     0.092 H 
ATOM      8  H11 MBY d   1     -23.927 -15.692 -17.416  0.00  0.00     0.090 H 
ATOM      9  H13 MBY d   1     -24.545 -14.660 -19.316  0.00  0.00     0.089 H 
ATOM     10  H15 MBY d   1     -25.063 -16.765 -20.264  0.00  0.00     0.080 H 
ATOM     11  H16 MBY d   1     -23.808 -16.248 -21.441  0.00  0.00     0.080 H 
ENDROOT
BRANCH   1  12
ATOM     12  C7  MBY d   1     -23.296 -18.906 -20.385  0.00  0.00     0.110 C 
ATOM     13  H4  MBY d   1     -22.644 -19.025 -21.263  0.00  0.00     0.083 H 
ATOM     14  H5  MBY d   1     -22.969 -19.592 -19.590  0.00  0.00     0.083 H 
BRANCH  12  15
ATOM     15  C9  MBY d   1     -24.692 -19.335 -20.802  0.00  0.00     0.004 A 
ATOM     16  C4  MBY d   1     -25.273 -18.955 -22.128  0.00  0.00     0.089 A 
ATOM     17  N3  MBY d   1     -24.704 -18.220 -23.099  0.00  0.00    -0.242 NA
ATOM     18  C5  MBY d   1     -26.602 -19.535 -22.260  0.00  0.00     0.102 A 
ATOM     19  C2  MBY d   1     -25.367 -17.990 -24.234  0.00  0.00     0.067 A 
ATOM     20  N1  MBY d   1     -26.605 -18.480 -24.441  0.00  0.00    -0.317 N 
ATOM     21  H2  MBY d   1     -24.896 -17.391 -25.012  0.00  0.00     0.143 H 
ATOM     22  C6  MBY d   1     -27.281 -19.237 -23.534  0.00  0.00     0.265 A 
ATOM     23  H1  MBY d   1     -27.053 -18.276 -25.311  0.00  0.00     0.170 HD
ATOM     24  O6  MBY d   1     -28.429 -19.674 -23.773  0.00  0.00    -0.267 OA
ATOM     25  S7  MBY d   1     -27.045 -20.431 -20.894  0.00  0.00    -0.093 SA
ATOM     26  C8  MBY d   1     -25.567 -20.131 -20.036  0.00  0.00    -0.034 A 
ATOM     27  H3  MBY d   1     -25.345 -20.508 -19.039  0.00  0.00     0.096 H 
ENDBRANCH  12  15
ENDBRANCH   1  12
BRANCH   2  28
ATOM     28  C5' MBY d   1     -24.246 -18.207 -17.724  0.00  0.00     0.046 C 
ATOM     29  H8  MBY d   1     -25.093 -18.248 -18.425  0.00  0.00     0.077 H 
ATOM     30  H9  MBY d   1     -24.544 -17.653 -16.822  0.00  0.00     0.077 H 
BRANCH  28  31
ATOM     31  O5' MBY d   1     -23.915 -19.572 -17.330  0.00  0.00    -0.399 OA
ATOM     32  H10 MBY d   1     -23.192 -19.556 -16.714  0.00  0.00     0.209 HD
ENDBRANCH  28  31
ENDBRANCH   2  28
BRANCH   3  33
ATOM     33  O3' MBY d   1     -21.906 -15.394 -17.740  0.00  0.00    -0.391 OA
ATOM     34  H12 MBY d   1     -21.970 -14.454 -17.615  0.00  0.00     0.210 HD
ENDBRANCH   3  33
BRANCH   4  35
ATOM     35  O2' MBY d   1     -22.646 -14.529 -20.146  0.00  0.00    -0.391 OA
ATOM     36  H14 MBY d   1     -22.366 -13.824 -19.574  0.00  0.00     0.210 HD
ENDBRANCH   4  35
TORSDOF 6
