REMARK  0 active torsions:
REMARK  status: ('A' for Active; 'I' for Inactive)
ROOT
ATOM      1  C1  BNZ d   1       4.052   8.564   0.230  0.00  0.00    -0.083 A 
ATOM      2  C2  BNZ d   1       4.541   9.773   0.726  0.00  0.00    -0.083 A 
ATOM      3  C3  BNZ d   1       3.769  10.610   1.533  0.00  0.00    -0.083 A 
ATOM      4  C4  BNZ d   1       2.462  10.155   1.841  0.00  0.00    -0.083 A 
ATOM      5  C5  BNZ d   1       1.980   8.943   1.364  0.00  0.00    -0.083 A 
ATOM      6  C6  BNZ d   1       2.775   8.138   0.563  0.00  0.00    -0.083 A 
ATOM      7  H1  BNZ d   1       4.673   7.956  -0.418  0.00  0.00     0.083 H 
ATOM      8  H2  BNZ d   1       5.553  10.072   0.477  0.00  0.00     0.083 H 
ATOM      9  H3  BNZ d   1       4.148  11.556   1.904  0.00  0.00     0.083 H 
ATOM     10  H4  BNZ d   1       1.823  10.769   2.465  0.00  0.00     0.083 H 
ATOM     11  H5  BNZ d   1       0.976   8.624   1.620  0.00  0.00     0.083 H 
ATOM     12  H6  BNZ d   1       2.403   7.186   0.201  0.00  0.00     0.083 H 
ENDROOT
TORSDOF 0
