REMARK  1 active torsions:
REMARK  status: ('A' for Active; 'I' for Inactive)
REMARK    1  A    between atoms: C_1  and  C1_2 
ROOT
ATOM      1  C1  MBN d   1       4.114  10.421   0.976  0.00  0.00    -0.062 A 
ATOM      2  C2  MBN d   1       3.698   9.271   0.320  0.00  0.00    -0.077 A 
ATOM      3  C3  MBN d   1       2.581   8.588   0.772  0.00  0.00    -0.083 A 
ATOM      4  C4  MBN d   1       1.861   9.051   1.867  0.00  0.00    -0.083 A 
ATOM      5  C5  MBN d   1       2.277  10.201   2.528  0.00  0.00    -0.083 A 
ATOM      6  C6  MBN d   1       3.399  10.898   2.085  0.00  0.00    -0.077 A 
ATOM      7  H4  MBN d   1       4.245   8.909  -0.543  0.00  0.00     0.084 H 
ATOM      8  H5  MBN d   1       2.265   7.683   0.266  0.00  0.00     0.083 H 
ATOM      9  H6  MBN d   1       0.979   8.518   2.204  0.00  0.00     0.083 H 
ATOM     10  H7  MBN d   1       1.726  10.557   3.391  0.00  0.00     0.083 H 
ATOM     11  H8  MBN d   1       3.717  11.801   2.593  0.00  0.00     0.084 H 
ENDROOT
BRANCH   1  12
ATOM     12  C   MBN d   1       5.324  11.174   0.477  0.00  0.00    -0.051 C 
ATOM     13  H1  MBN d   1       5.748  10.651  -0.393  0.00  0.00     0.033 H 
ATOM     14  H2  MBN d   1       6.078  11.227   1.276  0.00  0.00     0.033 H 
ATOM     15  H3  MBN d   1       5.027  12.192   0.184  0.00  0.00     0.033 H 
ENDBRANCH   1  12
TORSDOF 1
