REMARK  1 active torsions:
REMARK  status: ('A' for Active; 'I' for Inactive)
REMARK    1  A    between atoms: C1_1  and  O1_7 
ROOT
ATOM      1  C1  IPH d   1       4.241  10.951   1.077  0.00  0.00     0.065 A 
ATOM      2  C2  IPH d   1       3.988   9.787   0.354  0.00  0.00    -0.051 A 
ATOM      3  C3  IPH d   1       2.827   9.046   0.619  0.00  0.00    -0.080 A 
ATOM      4  C4  IPH d   1       1.959   9.437   1.615  0.00  0.00    -0.083 A 
ATOM      5  C5  IPH d   1       2.234  10.573   2.346  0.00  0.00    -0.080 A 
ATOM      6  C6  IPH d   1       3.365  11.351   2.086  0.00  0.00    -0.051 A 
ATOM      7  H1  IPH d   1       4.684   9.456  -0.408  0.00  0.00     0.087 H 
ATOM      8  H2  IPH d   1       2.611   8.158   0.035  0.00  0.00     0.083 H 
ATOM      9  H3  IPH d   1       1.067   8.856   1.822  0.00  0.00     0.083 H 
ATOM     10  H4  IPH d   1       1.558  10.869   3.140  0.00  0.00     0.083 H 
ATOM     11  H5  IPH d   1       3.558  12.251   2.659  0.00  0.00     0.087 H 
ENDROOT
BRANCH   1  12
ATOM     12  O1  IPH d   1       5.318  11.698   0.777  0.00  0.00    -0.361 OA
ATOM     13  H6  IPH d   1       5.036  12.563   0.503  0.00  0.00     0.217 HD
ENDBRANCH   1  12
TORSDOF 1
