REMARK  4 active torsions:
REMARK  status: ('A' for Active; 'I' for Inactive)
REMARK    1  A    between atoms: C1_1  and  C4_4 
REMARK    2  A    between atoms: C2_2  and  O6_6 
REMARK    3  A    between atoms: C4_4  and  C13_9 
REMARK    4  A    between atoms: C13_9  and  C14_10 
ROOT
ATOM      1  C1  2LP d   1       4.159   8.857   0.672  0.00  0.00    -0.025 A 
ATOM      2  C2  2LP d   1       3.249   9.322   1.603  0.00  0.00     0.071 A 
ATOM      3  C3  2LP d   1       3.874   7.604   0.156  0.00  0.00    -0.074 A 
ATOM      4  C5  2LP d   1       2.095   8.592   1.962  0.00  0.00    -0.051 A 
ATOM      5  C7  2LP d   1       2.717   6.861   0.472  0.00  0.00    -0.082 A 
ATOM      6  C8  2LP d   1       1.787   7.326   1.385  0.00  0.00    -0.080 A 
ATOM      7  H1  2LP d   1       4.585   7.166  -0.535  0.00  0.00     0.084 H 
ATOM      8  H4  2LP d   1       1.421   9.009   2.701  0.00  0.00     0.087 H 
ATOM      9  H6  2LP d   1       2.553   5.905  -0.011  0.00  0.00     0.083 H 
ATOM     10  H7  2LP d   1       0.893   6.770   1.642  0.00  0.00     0.083 H 
ENDROOT
BRANCH   1  11
ATOM     11  C4  2LP d   1       5.348   9.618   0.290  0.00  0.00    -0.039 C 
ATOM     12  H2  2LP d   1       6.060   8.883  -0.113  0.00  0.00     0.040 H 
ATOM     13  H3  2LP d   1       5.748  10.043   1.223  0.00  0.00     0.040 H 
BRANCH  11  14
ATOM     14  C13 2LP d   1       5.318  10.745  -0.695  0.00  0.00    -0.065 C 
ATOM     15  H8  2LP d   1       6.324  10.808  -1.136  0.00  0.00     0.032 H 
ATOM     16  H9  2LP d   1       5.110  11.661  -0.123  0.00  0.00     0.032 H 
BRANCH  14  17
ATOM     17  C14 2LP d   1       4.343  10.718  -1.841  0.00  0.00    -0.076 C 
ATOM     18  H10 2LP d   1       4.470  11.624  -2.452  0.00  0.00     0.027 H 
ATOM     19  H11 2LP d   1       3.316  10.682  -1.448  0.00  0.00     0.027 H 
ATOM     20  H12 2LP d   1       4.530   9.829  -2.461  0.00  0.00     0.027 H 
ENDBRANCH  14  17
ENDBRANCH  11  14
ENDBRANCH   1  11
BRANCH   2  21
ATOM     21  O6  2LP d   1       3.505  10.548   2.183  0.00  0.00    -0.360 OA
ATOM     22  H5  2LP d   1       4.314  10.900   1.832  0.00  0.00     0.217 HD
ENDBRANCH   2  21
TORSDOF 4
