REMARK  8 active torsions:
REMARK  status: ('A' for Active; 'I' for Inactive)
REMARK    1  A    between atoms: N8_23  and  C5_2 
REMARK    2  A    between atoms: C12_19  and  C13_4 
REMARK    3  A    between atoms: C14_18  and  C15_5 
REMARK    4  A    between atoms: C22_8  and  C23_11 
REMARK       I    between atoms: N21_14  and  C22_8 
REMARK    5  A    between atoms: C18_15  and  N21_14 
REMARK    6  A    between atoms: C12_19  and  C14_18 
REMARK    7  A    between atoms: S9_20  and  C12_19 
REMARK    8  A    between atoms: S9_20  and  N8_23 
ROOT
ATOM      1  C12 1CG d   1     -11.915  40.018  34.182  0.00  0.00     0.130 C 
ATOM      2  H10 1CG d   1     -10.858  39.737  34.062  0.00  0.00     0.080 H 
ENDROOT
BRANCH   1   3
ATOM      3  C13 1CG d   1     -12.555  39.296  35.288  0.00  0.00     0.167 A 
ATOM      4  O30 1CG d   1     -11.863  38.300  35.870  0.00  0.00    -0.292 OA
ATOM      5  C29 1CG d   1     -12.715  37.843  36.877  0.00  0.00     0.106 A 
ATOM      6  C28 1CG d   1     -13.865  38.542  36.897  0.00  0.00     0.093 A 
ATOM      7  C34 1CG d   1     -12.462  36.831  37.759  0.00  0.00    -0.048 A 
ATOM      8  C31 1CG d   1     -14.828  38.258  37.822  0.00  0.00    -0.052 A 
ATOM      9  N27 1CG d   1     -13.752  39.428  35.891  0.00  0.00    -0.224 NA
ATOM     10  C32 1CG d   1     -14.599  37.255  38.728  0.00  0.00    -0.081 A 
ATOM     11  H17 1CG d   1     -15.757  38.816  37.840  0.00  0.00     0.087 H 
ATOM     12  C33 1CG d   1     -13.429  36.547  38.697  0.00  0.00    -0.080 A 
ATOM     13  H16 1CG d   1     -15.350  37.021  39.474  0.00  0.00     0.083 H 
ATOM     14  H15 1CG d   1     -13.262  35.755  39.418  0.00  0.00     0.083 H 
ATOM     15  H14 1CG d   1     -11.534  36.272  37.722  0.00  0.00     0.087 H 
ENDBRANCH   1   3
BRANCH   1  16
ATOM     16  C14 1CG d   1     -12.032  41.525  34.463  0.00  0.00    -0.016 C 
ATOM     17  H8  1CG d   1     -11.886  42.037  33.501  0.00  0.00     0.042 H 
ATOM     18  H9  1CG d   1     -13.057  41.700  34.820  0.00  0.00     0.042 H 
BRANCH  16  19
ATOM     19  C15 1CG d   1     -11.100  42.199  35.462  0.00  0.00    -0.056 A 
ATOM     20  C20 1CG d   1     -10.836  41.754  36.744  0.00  0.00    -0.075 A 
ATOM     21  C19 1CG d   1      -9.968  42.451  37.583  0.00  0.00    -0.057 A 
ATOM     22  H4  1CG d   1     -11.312  40.848  37.103  0.00  0.00     0.084 H 
ATOM     23  C18 1CG d   1      -9.356  43.622  37.176  0.00  0.00     0.035 A 
ATOM     24  H7  1CG d   1      -9.768  42.066  38.577  0.00  0.00     0.086 H 
ATOM     25  C17 1CG d   1      -9.624  44.073  35.908  0.00  0.00    -0.057 A 
ATOM     26  C16 1CG d   1     -10.487  43.375  35.085  0.00  0.00    -0.075 A 
ATOM     27  H3  1CG d   1      -9.156  44.983  35.550  0.00  0.00     0.086 H 
ATOM     28  H6  1CG d   1     -10.692  43.770  34.097  0.00  0.00     0.084 H 
BRANCH  23  29
ATOM     29  N21 1CG d   1      -8.516  44.361  37.928  0.00  0.00    -0.318 N 
ATOM     30  C22 1CG d   1      -8.084  44.172  39.175  0.00  0.00     0.322 C 
ATOM     31  O24 1CG d   1      -8.391  43.255  39.869  0.00  0.00    -0.261 OA
ATOM     32  H5  1CG d   1      -8.161  45.181  37.479  0.00  0.00     0.169 HD
BRANCH  30  33
ATOM     33  C23 1CG d   1      -7.153  45.117  39.743  0.00  0.00     0.270 C 
ATOM     34  O26 1CG d   1      -6.120  44.714  40.208  0.00  0.00    -0.640 OA
ATOM     35  O25 1CG d   1      -7.381  46.398  39.735  0.00  0.00    -0.640 OA
ENDBRANCH  30  33
ENDBRANCH  23  29
ENDBRANCH  16  19
ENDBRANCH   1  16
BRANCH   1  36
ATOM     36  S9  1CG d   1     -12.805  39.550  32.877  0.00  0.00     0.243 S 
ATOM     37  O10 1CG d   1     -13.188  40.658  32.012  0.00  0.00    -0.205 OA
ATOM     38  O11 1CG d   1     -14.057  39.064  33.401  0.00  0.00    -0.205 OA
BRANCH  36  39
ATOM     39  N8  1CG d   1     -11.971  38.424  32.112  0.00  0.00    -0.284 N 
ATOM     40  H11 1CG d   1     -11.079  38.698  31.754  0.00  0.00     0.178 HD
BRANCH  39  41
ATOM     41  C5  1CG d   1     -12.338  37.138  31.894  0.00  0.00     0.042 A 
ATOM     42  C4  1CG d   1     -13.556  36.602  32.297  0.00  0.00    -0.054 A 
ATOM     43  C3  1CG d   1     -13.870  35.263  32.029  0.00  0.00    -0.043 A 
ATOM     44  H1  1CG d   1     -14.269  37.226  32.823  0.00  0.00     0.087 H 
ATOM     45  C2  1CG d   1     -12.985  34.433  31.354  0.00  0.00     0.116 A 
ATOM     46  H12 1CG d   1     -14.825  34.867  32.356  0.00  0.00     0.088 H 
ATOM     47  F7  1CG d   1     -13.286  33.143  31.089  0.00  0.00    -0.206 F 
ATOM     48  C1  1CG d   1     -11.777  34.972  30.948  0.00  0.00    -0.043 A 
ATOM     49  C6  1CG d   1     -11.463  36.304  31.213  0.00  0.00    -0.054 A 
ATOM     50  H13 1CG d   1     -11.065  34.350  30.417  0.00  0.00     0.088 H 
ATOM     51  H2  1CG d   1     -10.510  36.699  30.878  0.00  0.00     0.087 H 
ENDBRANCH  39  41
ENDBRANCH  36  39
ENDBRANCH   1  36
TORSDOF 8
