REMARK  18 active torsions:
REMARK  status: ('A' for Active; 'I' for Inactive)
REMARK    1  A    between atoms: O22_1  and  C21_2 
REMARK    2  A    between atoms: C21_2  and  O23_3 
REMARK    3  A    between atoms: C21_2  and  N20_12 
REMARK    4  A    between atoms: O23_3  and  C24_4 
REMARK    5  A    between atoms: N20_12  and  C19_13 
REMARK    6  A    between atoms: C19_13  and  C32_14 
REMARK    7  A    between atoms: C19_13  and  C17_21 
REMARK    8  A    between atoms: C32_14  and  C38_15 
REMARK    9  A    between atoms: C17_21  and  O18_22 
REMARK   10  A    between atoms: C17_21  and  C16_23 
REMARK   11  A    between atoms: C16_23  and  N11_24 
REMARK   12  A    between atoms: N11_24  and  C12_25 
REMARK   13  A    between atoms: N11_24  and  S8_29 
REMARK   14  A    between atoms: C12_25  and  C13_26 
REMARK   15  A    between atoms: C13_26  and  C15_27 
REMARK   16  A    between atoms: C13_26  and  C14_28 
REMARK   17  A    between atoms: S8_29  and  C5_32 
REMARK   18  A    between atoms: C2_37  and  C1_38 
ROOT
ATOM      1  C19 G07 d   1       8.560  17.305   0.636  0.00  0.00     0.137 C 
ATOM      2  H14 G07 d   1       8.299  16.286   0.314  0.00  0.00     0.089 H 
ENDROOT
BRANCH   1   3
ATOM      3  N20 G07 d   1       8.471  17.425   2.078  0.00  0.00    -0.018 N 
ATOM      4  H12 G07 d   1       9.368  17.769   2.382  0.00  0.00     0.283 HD
ATOM      5  H13 G07 d   1       7.766  18.124   2.254  0.00  0.00     0.283 HD
BRANCH   3   6
ATOM      6  C21 G07 d   1       8.176  16.388   2.894  0.00  0.00     0.290 C 
ATOM      7  H2  G07 d   1       7.076  16.396   2.915  0.00  0.00     0.177 H 
BRANCH   6   8
ATOM      8  O22 G07 d   1       8.401  15.223   2.677  0.00  0.00    -0.350 OA
ATOM      9  H1  G07 d   1       8.106  15.002   1.801  0.00  0.00     0.214 HD
ENDBRANCH   6   8
BRANCH   6  10
ATOM     10  O23 G07 d   1       8.570  16.800   4.142  0.00  0.00    -0.331 OA
BRANCH  10  11
ATOM     11  C24 G07 d   1       8.101  16.130   5.347  0.00  0.00     0.072 C 
ATOM     12  C31 G07 d   1       6.809  16.664   6.003  0.00  0.00     0.023 C 
ATOM     13  C30 G07 d   1       5.735  17.306   5.210  0.00  0.00    -0.035 C 
ATOM     14  C27 G07 d   1       7.329  17.658   6.923  0.00  0.00     0.137 C 
ATOM     15  H4  G07 d   1       6.343  15.832   6.551  0.00  0.00     0.051 H 
ATOM     16  C29 G07 d   1       5.815  18.772   5.641  0.00  0.00     0.023 C 
ATOM     17  H5  G07 d   1       4.753  16.876   5.454  0.00  0.00     0.037 H 
ATOM     18  H6  G07 d   1       5.924  17.201   4.131  0.00  0.00     0.037 H 
ATOM     19  O28 G07 d   1       7.030  18.879   6.408  0.00  0.00    -0.361 OA
ATOM     20  H7  G07 d   1       4.945  19.040   6.259  0.00  0.00     0.074 H 
ATOM     21  H8  G07 d   1       5.856  19.430   4.761  0.00  0.00     0.074 H 
ATOM     22  O26 G07 d   1       8.709  17.459   7.082  0.00  0.00    -0.358 OA
ATOM     23  H9  G07 d   1       6.841  17.551   7.903  0.00  0.00     0.129 H 
ATOM     24  C25 G07 d   1       8.998  16.146   6.637  0.00  0.00     0.047 C 
ATOM     25  H10 G07 d   1      10.064  16.014   6.401  0.00  0.00     0.078 H 
ATOM     26  H11 G07 d   1       8.687  15.384   7.367  0.00  0.00     0.078 H 
ATOM     27  H3  G07 d   1       7.942  15.085   5.043  0.00  0.00     0.087 H 
ENDBRANCH  10  11
ENDBRANCH   6  10
ENDBRANCH   3   6
ENDBRANCH   1   3
BRANCH   1  28
ATOM     28  C32 G07 d   1       7.616  18.302   0.054  0.00  0.00    -0.012 C 
ATOM     29  H15 G07 d   1       7.609  18.215  -1.042  0.00  0.00     0.043 H 
ATOM     30  H16 G07 d   1       7.923  19.319   0.339  0.00  0.00     0.043 H 
BRANCH  28  31
ATOM     31  C38 G07 d   1       6.230  18.005   0.606  0.00  0.00    -0.056 A 
ATOM     32  C37 G07 d   1       5.624  16.791   0.283  0.00  0.00    -0.077 A 
ATOM     33  C36 G07 d   1       4.348  16.494   0.785  0.00  0.00    -0.082 A 
ATOM     34  H17 G07 d   1       6.137  16.079  -0.354  0.00  0.00     0.084 H 
ATOM     35  C35 G07 d   1       3.716  17.407   1.595  0.00  0.00    -0.083 A 
ATOM     36  H18 G07 d   1       3.866  15.555   0.537  0.00  0.00     0.083 H 
ATOM     37  C34 G07 d   1       4.306  18.609   1.934  0.00  0.00    -0.082 A 
ATOM     38  H19 G07 d   1       2.728  17.178   1.978  0.00  0.00     0.083 H 
ATOM     39  C33 G07 d   1       5.568  18.927   1.439  0.00  0.00    -0.077 A 
ATOM     40  H20 G07 d   1       3.787  19.304   2.584  0.00  0.00     0.083 H 
ATOM     41  H21 G07 d   1       6.035  19.872   1.692  0.00  0.00     0.084 H 
ENDBRANCH  28  31
ENDBRANCH   1  28
BRANCH   1  42
ATOM     42  C17 G07 d   1      10.017  17.665   0.180  0.00  0.00     0.075 C 
ATOM     43  H22 G07 d   1      10.690  17.073   0.818  0.00  0.00     0.088 H 
BRANCH  42  44
ATOM     44  O18 G07 d   1      10.264  18.993   0.462  0.00  0.00    -0.392 OA
ATOM     45  H23 G07 d   1       9.639  19.536  -0.004  0.00  0.00     0.210 HD
ENDBRANCH  42  44
BRANCH  42  46
ATOM     46  C16 G07 d   1      10.394  17.293  -1.274  0.00  0.00     0.019 C 
ATOM     47  H24 G07 d   1      11.392  17.679  -1.530  0.00  0.00     0.061 H 
ATOM     48  H25 G07 d   1       9.654  17.691  -1.984  0.00  0.00     0.061 H 
BRANCH  46  49
ATOM     49  N11 G07 d   1      10.385  15.816  -1.280  0.00  0.00    -0.204 NA
BRANCH  49  50
ATOM     50  C12 G07 d   1      11.679  15.302  -1.747  0.00  0.00    -0.004 C 
ATOM     51  H26 G07 d   1      12.226  16.118  -2.242  0.00  0.00     0.058 H 
ATOM     52  H27 G07 d   1      11.498  14.491  -2.468  0.00  0.00     0.058 H 
BRANCH  50  53
ATOM     53  C13 G07 d   1      12.536  14.760  -0.603  0.00  0.00    -0.049 C 
ATOM     54  H28 G07 d   1      13.377  15.440  -0.404  0.00  0.00     0.040 H 
BRANCH  53  55
ATOM     55  C15 G07 d   1      13.038  13.414  -1.016  0.00  0.00    -0.072 C 
ATOM     56  H29 G07 d   1      13.661  12.993  -0.213  0.00  0.00     0.028 H 
ATOM     57  H30 G07 d   1      13.638  13.512  -1.933  0.00  0.00     0.028 H 
ATOM     58  H31 G07 d   1      12.184  12.747  -1.206  0.00  0.00     0.028 H 
ENDBRANCH  53  55
BRANCH  53  59
ATOM     59  C14 G07 d   1      11.703  14.602   0.632  0.00  0.00    -0.072 C 
ATOM     60  H32 G07 d   1      11.326  15.586   0.948  0.00  0.00     0.028 H 
ATOM     61  H33 G07 d   1      12.317  14.169   1.435  0.00  0.00     0.028 H 
ATOM     62  H34 G07 d   1      10.854  13.935   0.419  0.00  0.00     0.028 H 
ENDBRANCH  53  59
ENDBRANCH  50  53
ENDBRANCH  49  50
BRANCH  49  63
ATOM     63  S8  G07 d   1       9.101  15.205  -2.191  0.00  0.00     0.243 S 
ATOM     64  O9  G07 d   1       7.932  16.023  -2.184  0.00  0.00    -0.206 OA
ATOM     65  O10 G07 d   1       8.663  13.935  -1.679  0.00  0.00    -0.206 OA
BRANCH  63  66
ATOM     66  C5  G07 d   1       9.658  15.070  -3.903  0.00  0.00     0.074 A 
ATOM     67  C4  G07 d   1      10.126  13.855  -4.347  0.00  0.00    -0.060 A 
ATOM     68  C3  G07 d   1      10.570  13.718  -5.667  0.00  0.00    -0.065 A 
ATOM     69  H35 G07 d   1      10.151  13.005  -3.675  0.00  0.00     0.085 H 
ATOM     70  C2  G07 d   1      10.508  14.856  -6.476  0.00  0.00     0.040 A 
ATOM     71  H36 G07 d   1      10.944  12.773  -6.044  0.00  0.00     0.085 H 
ATOM     72  C7  G07 d   1      10.031  16.090  -5.999  0.00  0.00    -0.065 A 
ATOM     73  C6  G07 d   1       9.564  16.244  -4.675  0.00  0.00    -0.060 A 
ATOM     74  H38 G07 d   1      10.021  16.945  -6.665  0.00  0.00     0.085 H 
ATOM     75  H37 G07 d   1       9.170  17.178  -4.290  0.00  0.00     0.085 H 
BRANCH  70  76
ATOM     76  C1  G07 d   1      10.965  14.801  -7.776  0.00  0.00     0.209 C 
ATOM     77  O1  G07 d   1      10.870  15.968  -8.208  0.00  0.00    -0.644 OA
ATOM     78  O2  G07 d   1      11.377  13.661  -8.076  0.00  0.00    -0.644 OA
ENDBRANCH  70  76
ENDBRANCH  63  66
ENDBRANCH  49  63
ENDBRANCH  46  49
ENDBRANCH  42  46
ENDBRANCH   1  42
TORSDOF 18
