REMARK  2 active torsions:
REMARK  status: ('A' for Active; 'I' for Inactive)
REMARK    1  A    between atoms: C1_1  and  C12_7 
REMARK    2  A    between atoms: C15_10  and  C21_13 
ROOT
ATOM      1  C12 6P3 d   1      11.495  12.748  44.822  0.00  0.00     0.066 A 
ATOM      2  N13 6P3 d   1      11.328  14.028  45.359  0.00  0.00    -0.259 NA
ATOM      3  C14 6P3 d   1      10.960  14.233  46.650  0.00  0.00     0.019 A 
ATOM      4  C15 6P3 d   1      10.721  13.158  47.533  0.00  0.00     0.058 A 
ATOM      5  C16 6P3 d   1      10.879  11.844  47.014  0.00  0.00    -0.063 A 
ATOM      6  C17 6P3 d   1      11.264  11.637  45.664  0.00  0.00    -0.053 A 
ATOM      7  H6  6P3 d   1      10.847  15.249  47.012  0.00  0.00     0.116 H 
ATOM      8  H7  6P3 d   1      10.703  10.990  47.657  0.00  0.00     0.085 H 
ATOM      9  H8  6P3 d   1      11.380  10.630  45.280  0.00  0.00     0.087 H 
ENDROOT
BRANCH   1  10
ATOM     10  C1  6P3 d   1      11.918  12.649  43.383  0.00  0.00    -0.007 A 
ATOM     11  C2  6P3 d   1      11.602  13.703  42.488  0.00  0.00    -0.071 A 
ATOM     12  C3  6P3 d   1      11.993  13.659  41.124  0.00  0.00    -0.082 A 
ATOM     13  H1  6P3 d   1      11.050  14.561  42.854  0.00  0.00     0.084 H 
ATOM     14  C4  6P3 d   1      12.716  12.550  40.628  0.00  0.00    -0.083 A 
ATOM     15  H2  6P3 d   1      11.737  14.478  40.461  0.00  0.00     0.083 H 
ATOM     16  C5  6P3 d   1      13.038  11.489  41.509  0.00  0.00    -0.082 A 
ATOM     17  H3  6P3 d   1      13.020  12.512  39.588  0.00  0.00     0.083 H 
ATOM     18  C6  6P3 d   1      12.643  11.544  42.867  0.00  0.00    -0.071 A 
ATOM     19  H4  6P3 d   1      13.589  10.631  41.142  0.00  0.00     0.083 H 
ATOM     20  H5  6P3 d   1      12.900  10.724  43.527  0.00  0.00     0.084 H 
ENDBRANCH   1  10
BRANCH   4  21
ATOM     21  C21 6P3 d   1      10.335  13.419  48.933  0.00  0.00     0.210 C 
ATOM     22  O22 6P3 d   1      10.578  14.469  49.448  0.00  0.00    -0.644 OA
ATOM     23  O23 6P3 d   1       9.719  12.414  49.594  0.00  0.00    -0.644 OA
ENDBRANCH   4  21
TORSDOF 2
