REMARK  16 active torsions:
REMARK  status: ('A' for Active; 'I' for Inactive)
REMARK    1  A    between atoms: C21_2  and  O23_3 
REMARK       I    between atoms: C21_2  and  N20_12 
REMARK    2  A    between atoms: O23_3  and  C24_4 
REMARK    3  A    between atoms: N20_12  and  C19_13 
REMARK    4  A    between atoms: C19_13  and  C32_14 
REMARK    5  A    between atoms: C19_13  and  C17_21 
REMARK    6  A    between atoms: C32_14  and  C38_15 
REMARK    7  A    between atoms: C17_21  and  O18_22 
REMARK    8  A    between atoms: C17_21  and  C16_23 
REMARK    9  A    between atoms: C16_23  and  N11_24 
REMARK   10  A    between atoms: N11_24  and  C12_25 
REMARK   11  A    between atoms: N11_24  and  S8_29 
REMARK   12  A    between atoms: C12_25  and  C13_26 
REMARK   13  A    between atoms: C13_26  and  C15_27 
REMARK   14  A    between atoms: C13_26  and  C14_28 
REMARK   15  A    between atoms: S8_29  and  C5_32 
REMARK   16  A    between atoms: C2_37  and  C1_38 
REMARK       I    between atoms: C1_38  and  N1_40 
ROOT
ATOM      1  C17 G08 d   1     -20.115   0.216  -0.109  0.00  0.00     0.067 C 
ATOM      2  H19 G08 d   1     -19.954  -0.718  -0.668  0.00  0.00     0.088 H 
ENDROOT
BRANCH   1   3
ATOM      3  C19 G08 d   1     -19.148   1.243  -0.708  0.00  0.00     0.044 C 
ATOM      4  H11 G08 d   1     -18.108   0.968  -0.479  0.00  0.00     0.077 H 
BRANCH   3   5
ATOM      5  N20 G08 d   1     -19.372   1.232  -2.137  0.00  0.00    -0.329 N 
ATOM      6  C21 G08 d   1     -18.299   1.055  -2.994  0.00  0.00     0.361 C 
ATOM      7  O22 G08 d   1     -17.224   0.575  -2.640  0.00  0.00    -0.238 OA
ATOM      8  H10 G08 d   1     -20.295   1.351  -2.503  0.00  0.00     0.165 HD
BRANCH   6   9
ATOM      9  O23 G08 d   1     -18.602   1.079  -4.350  0.00  0.00    -0.296 OA
BRANCH   9  10
ATOM     10  C24 G08 d   1     -17.644   0.974  -5.327  0.00  0.00     0.078 C 
ATOM     11  C31 G08 d   1     -17.379   2.308  -5.913  0.00  0.00     0.023 C 
ATOM     12  C30 G08 d   1     -17.408   3.563  -5.109  0.00  0.00    -0.035 C 
ATOM     13  C27 G08 d   1     -18.474   2.459  -6.853  0.00  0.00     0.137 C 
ATOM     14  H2  G08 d   1     -16.406   2.265  -6.424  0.00  0.00     0.051 H 
ATOM     15  C29 G08 d   1     -18.956   3.842  -5.114  0.00  0.00     0.023 C 
ATOM     16  H3  G08 d   1     -16.844   4.373  -5.594  0.00  0.00     0.037 H 
ATOM     17  H4  G08 d   1     -17.023   3.406  -4.090  0.00  0.00     0.037 H 
ATOM     18  O28 G08 d   1     -19.276   3.536  -6.477  0.00  0.00    -0.361 OA
ATOM     19  H5  G08 d   1     -19.180   4.891  -4.871  0.00  0.00     0.074 H 
ATOM     20  H6  G08 d   1     -19.489   3.182  -4.414  0.00  0.00     0.074 H 
ATOM     21  O26 G08 d   1     -19.089   1.212  -6.997  0.00  0.00    -0.358 OA
ATOM     22  H7  G08 d   1     -18.051   2.717  -7.835  0.00  0.00     0.129 H 
ATOM     23  C25 G08 d   1     -18.223   0.217  -6.488  0.00  0.00     0.048 C 
ATOM     24  H8  G08 d   1     -18.772  -0.679  -6.163  0.00  0.00     0.078 H 
ATOM     25  H9  G08 d   1     -17.452  -0.070  -7.218  0.00  0.00     0.078 H 
ATOM     26  H1  G08 d   1     -16.730   0.504  -4.934  0.00  0.00     0.088 H 
ENDBRANCH   9  10
ENDBRANCH   6   9
ENDBRANCH   3   5
BRANCH   3  27
ATOM     27  C32 G08 d   1     -19.446   2.633  -0.155  0.00  0.00    -0.020 C 
ATOM     28  H12 G08 d   1     -19.319   2.632   0.938  0.00  0.00     0.043 H 
ATOM     29  H13 G08 d   1     -20.479   2.917  -0.404  0.00  0.00     0.043 H 
BRANCH  27  30
ATOM     30  C38 G08 d   1     -18.473   3.629  -0.785  0.00  0.00    -0.056 A 
ATOM     31  C37 G08 d   1     -18.905   4.621  -1.699  0.00  0.00    -0.077 A 
ATOM     32  C36 G08 d   1     -17.999   5.512  -2.262  0.00  0.00    -0.082 A 
ATOM     33  H14 G08 d   1     -19.954   4.686  -1.962  0.00  0.00     0.084 H 
ATOM     34  C35 G08 d   1     -16.661   5.414  -1.937  0.00  0.00    -0.083 A 
ATOM     35  H15 G08 d   1     -18.340   6.277  -2.950  0.00  0.00     0.083 H 
ATOM     36  C34 G08 d   1     -16.208   4.459  -1.034  0.00  0.00    -0.082 A 
ATOM     37  H16 G08 d   1     -15.951   6.094  -2.394  0.00  0.00     0.083 H 
ATOM     38  C33 G08 d   1     -17.118   3.564  -0.456  0.00  0.00    -0.077 A 
ATOM     39  H17 G08 d   1     -15.156   4.407  -0.778  0.00  0.00     0.083 H 
ATOM     40  H18 G08 d   1     -16.769   2.818   0.249  0.00  0.00     0.084 H 
ENDBRANCH  27  30
ENDBRANCH   3  27
ENDBRANCH   1   3
BRANCH   1  41
ATOM     41  O18 G08 d   1     -21.394   0.642  -0.413  0.00  0.00    -0.392 OA
ATOM     42  H20 G08 d   1     -21.539   1.501  -0.035  0.00  0.00     0.210 HD
ENDBRANCH   1  41
BRANCH   1  43
ATOM     43  C16 G08 d   1     -19.895  -0.169   1.360  0.00  0.00     0.019 C 
ATOM     44  H21 G08 d   1     -20.688  -0.855   1.694  0.00  0.00     0.061 H 
ATOM     45  H22 G08 d   1     -19.899   0.732   1.991  0.00  0.00     0.061 H 
BRANCH  43  46
ATOM     46  N11 G08 d   1     -18.571  -0.842   1.439  0.00  0.00    -0.204 NA
BRANCH  46  47
ATOM     47  C12 G08 d   1     -18.581  -2.298   1.725  0.00  0.00    -0.004 C 
ATOM     48  H23 G08 d   1     -19.348  -2.514   2.483  0.00  0.00     0.058 H 
ATOM     49  H24 G08 d   1     -17.594  -2.600   2.105  0.00  0.00     0.058 H 
BRANCH  47  50
ATOM     50  C13 G08 d   1     -18.896  -3.090   0.445  0.00  0.00    -0.049 C 
ATOM     51  H25 G08 d   1     -19.723  -2.627  -0.114  0.00  0.00     0.040 H 
BRANCH  50  52
ATOM     52  C15 G08 d   1     -19.236  -4.513   0.877  0.00  0.00    -0.072 C 
ATOM     53  H26 G08 d   1     -19.470  -5.120  -0.010  0.00  0.00     0.028 H 
ATOM     54  H27 G08 d   1     -20.107  -4.494   1.548  0.00  0.00     0.028 H 
ATOM     55  H28 G08 d   1     -18.376  -4.951   1.405  0.00  0.00     0.028 H 
ENDBRANCH  50  52
BRANCH  50  56
ATOM     56  C14 G08 d   1     -17.662  -3.183  -0.396  0.00  0.00    -0.072 C 
ATOM     57  H29 G08 d   1     -17.373  -2.177  -0.735  0.00  0.00     0.028 H 
ATOM     58  H30 G08 d   1     -17.861  -3.821  -1.269  0.00  0.00     0.028 H 
ATOM     59  H31 G08 d   1     -16.845  -3.619   0.198  0.00  0.00     0.028 H 
ENDBRANCH  50  56
ENDBRANCH  47  50
ENDBRANCH  46  47
BRANCH  46  60
ATOM     60  S8  G08 d   1     -17.406  -0.059   2.370  0.00  0.00     0.243 S 
ATOM     61  O9  G08 d   1     -17.530   1.379   2.200  0.00  0.00    -0.206 OA
ATOM     62  O10 G08 d   1     -16.132  -0.519   1.903  0.00  0.00    -0.206 OA
BRANCH  60  63
ATOM     63  C5  G08 d   1     -17.590  -0.448   4.107  0.00  0.00     0.074 A 
ATOM     64  C4  G08 d   1     -16.765  -1.460   4.585  0.00  0.00    -0.060 A 
ATOM     65  C3  G08 d   1     -16.846  -1.872   5.909  0.00  0.00    -0.066 A 
ATOM     66  H32 G08 d   1     -16.052  -1.932   3.918  0.00  0.00     0.085 H 
ATOM     67  C2  G08 d   1     -17.804  -1.244   6.688  0.00  0.00     0.031 A 
ATOM     68  H33 G08 d   1     -16.196  -2.642   6.310  0.00  0.00     0.085 H 
ATOM     69  C7  G08 d   1     -18.658  -0.224   6.175  0.00  0.00    -0.066 A 
ATOM     70  C6  G08 d   1     -18.597   0.203   4.824  0.00  0.00    -0.060 A 
ATOM     71  H35 G08 d   1     -19.378   0.240   6.840  0.00  0.00     0.085 H 
ATOM     72  H34 G08 d   1     -19.257   0.949   4.396  0.00  0.00     0.085 H 
BRANCH  67  73
ATOM     73  C1  G08 d   1     -17.874  -1.687   8.128  0.00  0.00     0.249 C 
ATOM     74  O1  G08 d   1     -18.880  -1.464   8.719  0.00  0.00    -0.268 OA
ATOM     75  N1  G08 d   1     -16.806  -2.363   8.809  0.00  0.00    -0.366 N 
ATOM     76  H36 G08 d   1     -16.914  -2.631   9.766  0.00  0.00     0.159 HD
ATOM     77  H37 G08 d   1     -15.954  -2.565   8.326  0.00  0.00     0.159 HD
ENDBRANCH  67  73
ENDBRANCH  60  63
ENDBRANCH  46  60
ENDBRANCH  43  46
ENDBRANCH   1  43
TORSDOF 16
