REMARK  22 active torsions:
REMARK  status: ('A' for Active; 'I' for Inactive)
REMARK    1  A    between atoms: C1_1  and  N47_32 
REMARK    2  A    between atoms: C2_2  and  O42_30 
REMARK    3  A    between atoms: O9_7  and  C4_4 
REMARK    4  A    between atoms: C10_8  and  O9_7 
REMARK    5  A    between atoms: C11_9  and  C10_8 
REMARK    6  A    between atoms: C14_10  and  C11_9 
REMARK    7  A    between atoms: C11_9  and  O71_48 
REMARK    8  A    between atoms: C40_28  and  C14_10 
REMARK    9  A    between atoms: C14_10  and  O75_50 
REMARK   10  A    between atoms: C15_11  and  C16_12 
REMARK   11  A    between atoms: C15_11  and  C40_28 
REMARK   12  A    between atoms: C15_11  and  O77_51 
REMARK   13  A    between atoms: C16_12  and  O17_13 
REMARK   14  A    between atoms: O17_13  and  C20_14 
REMARK   15  A    between atoms: C22_16  and  C29_20 
REMARK   16  A    between atoms: C33_24  and  C39_27 
REMARK   17  A    between atoms: C40_28  and  O74_49 
REMARK   18  A    between atoms: O42_30  and  C43_31 
REMARK       I    between atoms: N47_32  and  C48_33 
REMARK   19  A    between atoms: C48_33  and  C49_34 
REMARK   20  A    between atoms: C49_34  and  S51_36 
REMARK   21  A    between atoms: S51_36  and  C54_37 
REMARK   22  A    between atoms: C57_40  and  C63_43 
ROOT
ATOM      1  C11 1E4 d   1      15.357  14.905  35.406  0.00  0.00     0.083 C 
ATOM      2  H5  1E4 d   1      15.899  14.583  36.307  0.00  0.00     0.090 H 
ENDROOT
BRANCH   1   3
ATOM      3  C10 1E4 d   1      15.302  13.737  34.409  0.00  0.00     0.052 C 
ATOM      4  H3  1E4 d   1      16.139  13.055  34.619  0.00  0.00     0.079 H 
ATOM      5  H4  1E4 d   1      14.350  13.202  34.545  0.00  0.00     0.079 H 
BRANCH   3   6
ATOM      6  O9  1E4 d   1      15.392  14.160  33.081  0.00  0.00    -0.347 OA
BRANCH   6   7
ATOM      7  C4  1E4 d   1      15.137  13.250  32.028  0.00  0.00     0.093 A 
ATOM      8  C3  1E4 d   1      13.930  13.572  31.383  0.00  0.00    -0.015 A 
ATOM      9  C2  1E4 d   1      13.438  12.820  30.282  0.00  0.00     0.097 A 
ATOM     10  H1  1E4 d   1      13.356  14.421  31.737  0.00  0.00     0.092 H 
ATOM     11  C1  1E4 d   1      14.181  11.699  29.813  0.00  0.00     0.070 A 
ATOM     12  C6  1E4 d   1      15.401  11.351  30.446  0.00  0.00    -0.031 A 
ATOM     13  C5  1E4 d   1      15.875  12.117  31.545  0.00  0.00     0.069 A 
ATOM     14  H2  1E4 d   1      15.972  10.501  30.092  0.00  0.00     0.089 H 
ATOM     15 CL4  1E4 d   1      17.380  11.530  32.175  0.00  0.00    -0.081 Cl
BRANCH   9  16
ATOM     16  O42 1E4 d   1      12.226  13.120  29.608  0.00  0.00    -0.354 OA
BRANCH  16  17
ATOM     17  C43 1E4 d   1      11.286  13.933  30.317  0.00  0.00     0.010 C 
ATOM     18  H17 1E4 d   1      10.395  14.093  29.692  0.00  0.00     0.066 H 
ATOM     19  H18 1E4 d   1      11.746  14.903  30.554  0.00  0.00     0.066 H 
ATOM     20  H19 1E4 d   1      10.994  13.428  31.250  0.00  0.00     0.066 H 
ENDBRANCH  16  17
ENDBRANCH   9  16
BRANCH  11  21
ATOM     21  N47 1E4 d   1      13.685  10.969  28.737  0.00  0.00    -0.324 N 
ATOM     22  C48 1E4 d   1      14.454  10.437  27.742  0.00  0.00     0.231 C 
ATOM     23  O50 1E4 d   1      15.348   9.624  27.968  0.00  0.00    -0.272 OA
ATOM     24  H20 1E4 d   1      12.697  10.824  28.689  0.00  0.00     0.169 HD
BRANCH  22  25
ATOM     25  C49 1E4 d   1      13.788  10.478  26.369  0.00  0.00     0.057 C 
ATOM     26  H21 1E4 d   1      14.564  10.351  25.599  0.00  0.00     0.064 H 
ATOM     27  H22 1E4 d   1      13.304  11.458  26.244  0.00  0.00     0.064 H 
BRANCH  25  28
ATOM     28  S51 1E4 d   1      12.540   9.186  26.148  0.00  0.00    -0.101 SA
BRANCH  28  29
ATOM     29  C54 1E4 d   1      11.074  10.087  26.562  0.00  0.00     0.093 A 
ATOM     30  C55 1E4 d   1       9.835   9.419  26.551  0.00  0.00    -0.048 A 
ATOM     31  C56 1E4 d   1       8.677  10.158  26.892  0.00  0.00    -0.062 A 
ATOM     32  H23 1E4 d   1       9.770   8.369  26.289  0.00  0.00     0.087 H 
ATOM     33  C57 1E4 d   1       8.785  11.528  27.231  0.00  0.00     0.058 A 
ATOM     34  H24 1E4 d   1       7.707   9.675  26.893  0.00  0.00     0.085 H 
ATOM     35  C58 1E4 d   1      10.068  12.102  27.209  0.00  0.00     0.020 A 
ATOM     36  N59 1E4 d   1      11.189  11.399  26.883  0.00  0.00    -0.253 NA
ATOM     37  H25 1E4 d   1      10.170  13.151  27.463  0.00  0.00     0.116 H 
BRANCH  33  38
ATOM     38  C63 1E4 d   1       7.610  12.334  27.595  0.00  0.00     0.210 C 
ATOM     39  O64 1E4 d   1       7.745  13.398  28.117  0.00  0.00    -0.644 OA
ATOM     40  O66 1E4 d   1       6.415  11.747  27.487  0.00  0.00    -0.644 OA
ENDBRANCH  33  38
ENDBRANCH  28  29
ENDBRANCH  25  28
ENDBRANCH  22  25
ENDBRANCH  11  21
ENDBRANCH   6   7
ENDBRANCH   3   6
ENDBRANCH   1   3
BRANCH   1  41
ATOM     41  C14 1E4 d   1      13.928  15.334  35.840  0.00  0.00     0.089 C 
ATOM     42  H6  1E4 d   1      13.445  15.740  34.939  0.00  0.00     0.091 H 
BRANCH  41  43
ATOM     43  C40 1E4 d   1      13.835  16.445  36.951  0.00  0.00     0.089 C 
ATOM     44  H16 1E4 d   1      13.395  17.316  36.444  0.00  0.00     0.091 H 
BRANCH  43  45
ATOM     45  C15 1E4 d   1      12.839  16.165  38.128  0.00  0.00     0.083 C 
ATOM     46  H7  1E4 d   1      11.922  15.732  37.702  0.00  0.00     0.090 H 
BRANCH  45  47
ATOM     47  C16 1E4 d   1      13.298  15.252  39.279  0.00  0.00     0.052 C 
ATOM     48  H8  1E4 d   1      13.886  15.831  40.006  0.00  0.00     0.079 H 
ATOM     49  H9  1E4 d   1      13.911  14.428  38.884  0.00  0.00     0.079 H 
BRANCH  47  50
ATOM     50  O17 1E4 d   1      12.110  14.725  39.912  0.00  0.00    -0.348 OA
BRANCH  50  51
ATOM     51  C20 1E4 d   1      12.301  13.696  40.859  0.00  0.00     0.072 A 
ATOM     52  C21 1E4 d   1      11.785  13.871  42.183  0.00  0.00    -0.038 A 
ATOM     53  C22 1E4 d   1      11.957  12.865  43.188  0.00  0.00    -0.002 A 
ATOM     54  H10 1E4 d   1      11.254  14.783  42.430  0.00  0.00     0.089 H 
ATOM     55  C23 1E4 d   1      12.650  11.703  42.826  0.00  0.00    -0.033 A 
ATOM     56  C24 1E4 d   1      13.148  11.539  41.534  0.00  0.00     0.119 A 
ATOM     57  H11 1E4 d   1      12.801  10.920  43.560  0.00  0.00     0.089 H 
ATOM     58  C25 1E4 d   1      12.989  12.511  40.543  0.00  0.00    -0.013 A 
ATOM     59  F30 1E4 d   1      13.809  10.426  41.231  0.00  0.00    -0.206 F 
ATOM     60  H12 1E4 d   1      13.389  12.354  39.548  0.00  0.00     0.092 H 
BRANCH  53  61
ATOM     61  C29 1E4 d   1      11.480  12.990  44.601  0.00  0.00     0.067 A 
ATOM     62  C31 1E4 d   1      11.232  11.916  45.472  0.00  0.00    -0.053 A 
ATOM     63  C32 1E4 d   1      10.810  12.161  46.797  0.00  0.00    -0.063 A 
ATOM     64  H13 1E4 d   1      11.365  10.897  45.126  0.00  0.00     0.087 H 
ATOM     65  C33 1E4 d   1      10.630  13.474  47.271  0.00  0.00     0.058 A 
ATOM     66  H14 1E4 d   1      10.622  11.324  47.460  0.00  0.00     0.085 H 
ATOM     67  C34 1E4 d   1      10.886  14.517  46.366  0.00  0.00     0.019 A 
ATOM     68  N35 1E4 d   1      11.294  14.271  45.092  0.00  0.00    -0.259 NA
ATOM     69  H15 1E4 d   1      10.755  15.543  46.691  0.00  0.00     0.116 H 
BRANCH  65  70
ATOM     70  C39 1E4 d   1      10.196  13.754  48.664  0.00  0.00     0.210 C 
ATOM     71  O65 1E4 d   1      10.467  14.778  49.212  0.00  0.00    -0.644 OA
ATOM     72  O67 1E4 d   1       9.581  12.763  49.309  0.00  0.00    -0.644 OA
ENDBRANCH  65  70
ENDBRANCH  53  61
ENDBRANCH  50  51
ENDBRANCH  47  50
ENDBRANCH  45  47
BRANCH  45  73
ATOM     73  O77 1E4 d   1      12.570  17.430  38.696  0.00  0.00    -0.391 OA
ATOM     74  H29 1E4 d   1      13.381  17.814  39.008  0.00  0.00     0.210 HD
ENDBRANCH  45  73
ENDBRANCH  43  45
BRANCH  43  75
ATOM     75  O74 1E4 d   1      15.138  16.856  37.310  0.00  0.00    -0.390 OA
ATOM     76  H27 1E4 d   1      15.088  17.665  37.806  0.00  0.00     0.210 HD
ENDBRANCH  43  75
ENDBRANCH  41  43
BRANCH  41  77
ATOM     77  O75 1E4 d   1      13.146  14.217  36.295  0.00  0.00    -0.390 OA
ATOM     78  H28 1E4 d   1      13.498  13.899  37.118  0.00  0.00     0.210 HD
ENDBRANCH  41  77
ENDBRANCH   1  41
BRANCH   1  79
ATOM     79  O71 1E4 d   1      16.096  15.951  34.781  0.00  0.00    -0.391 OA
ATOM     80  H26 1E4 d   1      16.187  16.678  35.386  0.00  0.00     0.210 HD
ENDBRANCH   1  79
TORSDOF 22
