REMARK  7 active torsions:
REMARK  status: ('A' for Active; 'I' for Inactive)
REMARK       I    between atoms: C1_1  and  N2_2 
REMARK    1  A    between atoms: C1_1  and  C6_5 
REMARK    2  A    between atoms: N2_2  and  C3_3 
REMARK    3  A    between atoms: C6_5  and  S7_6 
REMARK    4  A    between atoms: S7_6  and  C10_7 
REMARK    5  A    between atoms: C13_10  and  C19_13 
REMARK    6  A    between atoms: C27_20  and  O31_21 
REMARK    7  A    between atoms: O31_21  and  C33_23 
ROOT
ATOM      1  C1  1E7 d   1      14.159   9.901  27.222  0.00  0.00     0.231 C 
ATOM      2  N2  1E7 d   1      13.606  10.858  28.085  0.00  0.00    -0.324 N 
ATOM      3  O4  1E7 d   1      15.074   9.090  27.621  0.00  0.00    -0.272 OA
ATOM      4  H1  1E7 d   1      12.726  11.228  27.788  0.00  0.00     0.169 HD
ENDROOT
BRANCH   1   5
ATOM      5  C6  1E7 d   1      13.638   9.833  25.761  0.00  0.00     0.057 C 
ATOM      6  H2  1E7 d   1      14.428   9.424  25.114  0.00  0.00     0.064 H 
ATOM      7  H3  1E7 d   1      13.376  10.847  25.423  0.00  0.00     0.064 H 
BRANCH   5   8
ATOM      8  S7  1E7 d   1      12.156   8.760  25.652  0.00  0.00    -0.101 SA
BRANCH   8   9
ATOM      9  C10 1E7 d   1      10.802   9.886  26.153  0.00  0.00     0.093 A 
ATOM     10  C11 1E7 d   1       9.435   9.452  26.020  0.00  0.00    -0.048 A 
ATOM     11  C12 1E7 d   1       8.377  10.386  26.438  0.00  0.00    -0.062 A 
ATOM     12  H4  1E7 d   1       9.194   8.472  25.626  0.00  0.00     0.087 H 
ATOM     13  C13 1E7 d   1       8.698  11.702  26.965  0.00  0.00     0.058 A 
ATOM     14  H5  1E7 d   1       7.339  10.087  26.351  0.00  0.00     0.085 H 
ATOM     15  C14 1E7 d   1      10.099  12.024  27.049  0.00  0.00     0.020 A 
ATOM     16  N15 1E7 d   1      11.127  11.122  26.646  0.00  0.00    -0.253 NA
ATOM     17  H6  1E7 d   1      10.385  12.995  27.436  0.00  0.00     0.116 H 
BRANCH  13  18
ATOM     18  C19 1E7 d   1       7.593  12.682  27.410  0.00  0.00     0.210 C 
ATOM     19  O20 1E7 d   1       7.762  14.049  27.172  0.00  0.00    -0.644 OA
ATOM     20  O21 1E7 d   1       6.575  12.283  27.971  0.00  0.00    -0.644 OA
ENDBRANCH  13  18
ENDBRANCH   8   9
ENDBRANCH   5   8
ENDBRANCH   1   5
BRANCH   2  21
ATOM     21  C3  1E7 d   1      14.108  11.411  29.362  0.00  0.00     0.070 A 
ATOM     22  C23 1E7 d   1      15.346  10.978  30.027  0.00  0.00    -0.033 A 
ATOM     23  C24 1E7 d   1      15.812  11.566  31.302  0.00  0.00     0.036 A 
ATOM     24  H7  1E7 d   1      15.940  10.198  29.565  0.00  0.00     0.089 H 
ATOM     25  C25 1E7 d   1      15.045  12.597  31.928  0.00  0.00    -0.059 A 
ATOM     26 CL3  1E7 d   1      17.297  11.011  32.054  0.00  0.00    -0.084 Cl
ATOM     27  C26 1E7 d   1      13.828  13.049  31.316  0.00  0.00    -0.047 A 
ATOM     28  H8  1E7 d   1      15.381  13.036  32.861  0.00  0.00     0.086 H 
ATOM     29  C27 1E7 d   1      13.320  12.493  30.042  0.00  0.00     0.095 A 
ATOM     30  H9  1E7 d   1      13.258  13.829  31.807  0.00  0.00     0.087 H 
BRANCH  29  31
ATOM     31  O31 1E7 d   1      12.103  12.917  29.397  0.00  0.00    -0.354 OA
BRANCH  31  32
ATOM     32  C33 1E7 d   1      11.157  13.727  30.144  0.00  0.00     0.010 C 
ATOM     33  H10 1E7 d   1      10.291  13.960  29.507  0.00  0.00     0.066 H 
ATOM     34  H11 1E7 d   1      11.643  14.662  30.459  0.00  0.00     0.066 H 
ATOM     35  H12 1E7 d   1      10.820  13.172  31.032  0.00  0.00     0.066 H 
ENDBRANCH  31  32
ENDBRANCH  29  31
ENDBRANCH   2  21
TORSDOF 7
