REMARK  10 active torsions:
REMARK  status: ('A' for Active; 'I' for Inactive)
REMARK    1  A    between atoms: CAC_1  and  CBA_2 
REMARK    2  A    between atoms: CAY_4  and  CAA_5 
REMARK    3  A    between atoms: CAZ_6  and  CAB_7 
REMARK    4  A    between atoms: CBE_9  and  CBF_10 
REMARK    5  A    between atoms: CAX_11  and  CAU_12 
REMARK    6  A    between atoms: CAU_12  and  CBC_14 
REMARK    7  A    between atoms: CAW_19  and  OAG_20 
REMARK    8  A    between atoms: NBG_23  and  CBD_24 
REMARK    9  A    between atoms: CBB_29  and  CAR_30 
REMARK   10  A    between atoms: CAR_30  and  CAT_31 
ROOT
ATOM      1  CBF 1DK d   1       2.526  21.244   1.198  0.00  0.00     0.076 A 
ATOM      2  CAX 1DK d   1       3.594  20.507   1.771  0.00  0.00     0.045 A 
ATOM      3  CAW 1DK d   1       3.361  19.156   1.481  0.00  0.00     0.131 A 
ATOM      4  CAV 1DK d   1       2.146  19.054   0.736  0.00  0.00     0.216 A 
ATOM      5  OAF 1DK d   1       1.589  17.905   0.274  0.00  0.00    -0.169 OA
ATOM      6  NBG 1DK d   1       1.623  20.287   0.565  0.00  0.00    -0.309 N 
ATOM      7  H12 1DK d   1       2.927  21.915   0.424  0.00  0.00     0.089 H 
ENDROOT
BRANCH   1   8
ATOM      8  CBE 1DK d   1       1.842  22.086   2.234  0.00  0.00    -0.024 A 
ATOM      9  CBA 1DK d   1       1.876  23.493   2.122  0.00  0.00    -0.053 A 
ATOM     10  CAP 1DK d   1       1.242  24.289   3.070  0.00  0.00    -0.070 A 
ATOM     11  CAY 1DK d   1       0.573  23.688   4.126  0.00  0.00    -0.056 A 
ATOM     12  H4  1DK d   1       1.270  25.369   2.984  0.00  0.00     0.085 H 
ATOM     13  CAZ 1DK d   1       0.533  22.288   4.244  0.00  0.00    -0.056 A 
ATOM     14  CAQ 1DK d   1       1.164  21.489   3.299  0.00  0.00    -0.068 A 
ATOM     15  H11 1DK d   1       1.130  20.409   3.388  0.00  0.00     0.085 H 
BRANCH   9  16
ATOM     16  CAC 1DK d   1       2.603  24.139   0.974  0.00  0.00    -0.051 C 
ATOM     17  H1  1DK d   1       2.520  25.233   1.056  0.00  0.00     0.033 H 
ATOM     18  H2  1DK d   1       2.157  23.808   0.025  0.00  0.00     0.033 H 
ATOM     19  H3  1DK d   1       3.664  23.849   1.002  0.00  0.00     0.033 H 
ENDBRANCH   9  16
BRANCH  11  20
ATOM     20  CAA 1DK d   1      -0.119  24.526   5.169  0.00  0.00    -0.051 C 
ATOM     21  H5  1DK d   1       0.009  25.591   4.927  0.00  0.00     0.033 H 
ATOM     22  H6  1DK d   1       0.320  24.319   6.156  0.00  0.00     0.033 H 
ATOM     23  H7  1DK d   1      -1.191  24.280   5.185  0.00  0.00     0.033 H 
ENDBRANCH  11  20
BRANCH  13  24
ATOM     24  CAB 1DK d   1      -0.177  21.706   5.365  0.00  0.00    -0.051 C 
ATOM     25  H8  1DK d   1      -0.113  20.609   5.310  0.00  0.00     0.033 H 
ATOM     26  H9  1DK d   1      -1.232  22.014   5.330  0.00  0.00     0.033 H 
ATOM     27  H10 1DK d   1       0.276  22.053   6.306  0.00  0.00     0.033 H 
ENDBRANCH  13  24
ENDBRANCH   1   8
BRANCH   2  28
ATOM     28  CAU 1DK d   1       4.727  21.210   2.527  0.00  0.00     0.135 C 
ATOM     29  OAE 1DK d   1       5.271  22.199   1.812  0.00  0.00    -0.190 OA
BRANCH  28  30
ATOM     30  CBC 1DK d   1       5.730  20.428   3.314  0.00  0.00     0.042 A 
ATOM     31  CAK 1DK d   1       5.355  19.224   4.251  0.00  0.00    -0.063 A 
ATOM     32  CAI 1DK d   1       6.786  18.782   4.911  0.00  0.00    -0.075 A 
ATOM     33  H13 1DK d   1       4.373  18.786   4.421  0.00  0.00     0.085 H 
ATOM     34  CAJ 1DK d   1       7.930  19.712   4.416  0.00  0.00    -0.044 A 
ATOM     35  H14 1DK d   1       6.919  17.951   5.602  0.00  0.00     0.084 H 
ATOM     36  SAS 1DK d   1       7.303  20.849   3.357  0.00  0.00    -0.099 SA
ATOM     37  H15 1DK d   1       8.975  19.636   4.712  0.00  0.00     0.095 H 
ENDBRANCH  28  30
ENDBRANCH   2  28
BRANCH   6  38
ATOM     38  CBD 1DK d   1       0.470  20.632  -0.238  0.00  0.00     0.037 A 
ATOM     39  CAO 1DK d   1       0.630  21.463  -1.357  0.00  0.00    -0.056 A 
ATOM     40  CAM 1DK d   1      -0.475  21.811  -2.127  0.00  0.00    -0.074 A 
ATOM     41  H16 1DK d   1       1.614  21.834  -1.621  0.00  0.00     0.086 H 
ATOM     42  CBB 1DK d   1      -1.734  21.328  -1.765  0.00  0.00    -0.048 A 
ATOM     43  H17 1DK d   1      -0.360  22.448  -2.996  0.00  0.00     0.084 H 
ATOM     44  CAL 1DK d   1      -1.885  20.504  -0.656  0.00  0.00    -0.074 A 
ATOM     45  CAN 1DK d   1      -0.782  20.162   0.118  0.00  0.00    -0.056 A 
ATOM     46  H19 1DK d   1      -2.867  20.127  -0.394  0.00  0.00     0.084 H 
ATOM     47  H18 1DK d   1      -0.902  19.533   0.993  0.00  0.00     0.086 H 
BRANCH  42  48
ATOM     48  CAR 1DK d   1      -2.954  21.653  -2.580  0.00  0.00     0.039 C 
ATOM     49  H20 1DK d   1      -2.698  22.445  -3.299  0.00  0.00     0.056 H 
ATOM     50  H21 1DK d   1      -3.744  22.012  -1.905  0.00  0.00     0.056 H 
BRANCH  48  51
ATOM     51  CAT 1DK d   1      -3.476  20.452  -3.345  0.00  0.00     0.176 C 
ATOM     52  OAH 1DK d   1      -4.581  19.940  -3.039  0.00  0.00    -0.648 OA
ATOM     53  OAD 1DK d   1      -2.795  19.949  -4.262  0.00  0.00    -0.648 OA
ENDBRANCH  48  51
ENDBRANCH  42  48
ENDBRANCH   6  38
BRANCH   3  54
ATOM     54  OAG 1DK d   1       4.123  18.142   1.821  0.00  0.00    -0.356 OA
ATOM     55  H22 1DK d   1       3.736  17.335   1.501  0.00  0.00     0.218 HD
ENDBRANCH   3  54
TORSDOF 10
