REMARK  7 active torsions:
REMARK  status: ('A' for Active; 'I' for Inactive)
REMARK    1  A    between atoms: CBE_7  and  CBF_8 
REMARK    2  A    between atoms: NBG_9  and  CBC_10 
REMARK    3  A    between atoms: CAZ_13  and  CAT_14 
REMARK    4  A    between atoms: CAT_14  and  CAU_15 
REMARK    5  A    between atoms: CAW_22  and  OAE_23 
REMARK    6  A    between atoms: CAY_24  and  CAV_25 
REMARK    7  A    between atoms: CAV_25  and  CBD_27 
ROOT
ATOM      1  CBF 12G d   1       3.074  21.231   1.425  0.00  0.00     0.078 A 
ATOM      2  NBG 12G d   1       2.449  20.391   0.587  0.00  0.00    -0.309 N 
ATOM      3  CAX 12G d   1       3.073  19.206   0.547  0.00  0.00     0.216 A 
ATOM      4  OAC 12G d   1       2.684  18.113  -0.192  0.00  0.00    -0.169 OA
ATOM      5  CAW 12G d   1       4.187  19.272   1.371  0.00  0.00     0.133 A 
ATOM      6  CAY 12G d   1       4.199  20.561   1.903  0.00  0.00     0.058 A 
ATOM      7  H5  12G d   1       3.492  21.996   0.754  0.00  0.00     0.089 H 
ENDROOT
BRANCH   2   8
ATOM      8  CBC 12G d   1       1.335  20.742  -0.242  0.00  0.00     0.037 A 
ATOM      9  CAR 12G d   1       0.082  20.228   0.049  0.00  0.00    -0.056 A 
ATOM     10  CAP 12G d   1      -1.001  20.562  -0.751  0.00  0.00    -0.074 A 
ATOM     11  H6  12G d   1      -0.052  19.568   0.898  0.00  0.00     0.086 H 
ATOM     12  CAZ 12G d   1      -0.829  21.411  -1.834  0.00  0.00    -0.048 A 
ATOM     13  H7  12G d   1      -1.983  20.159  -0.529  0.00  0.00     0.084 H 
ATOM     14  CAQ 12G d   1       0.426  21.924  -2.129  0.00  0.00    -0.074 A 
ATOM     15  CAS 12G d   1       1.511  21.588  -1.328  0.00  0.00    -0.056 A 
ATOM     16  H10 12G d   1       0.559  22.583  -2.979  0.00  0.00     0.084 H 
ATOM     17  H11 12G d   1       2.494  21.986  -1.551  0.00  0.00     0.086 H 
BRANCH  12  18
ATOM     18  CAT 12G d   1      -2.004  21.752  -2.687  0.00  0.00     0.039 C 
ATOM     19  H8  12G d   1      -1.704  22.555  -3.376  0.00  0.00     0.056 H 
ATOM     20  H9  12G d   1      -2.809  22.114  -2.030  0.00  0.00     0.056 H 
BRANCH  18  21
ATOM     21  CAU 12G d   1      -2.544  20.621  -3.501  0.00  0.00     0.176 C 
ATOM     22  OAD 12G d   1      -1.815  20.066  -4.372  0.00  0.00    -0.648 OA
ATOM     23  OAA 12G d   1      -3.721  20.213  -3.309  0.00  0.00    -0.648 OA
ENDBRANCH  18  21
ENDBRANCH  12  18
ENDBRANCH   2   8
BRANCH   1  24
ATOM     24  CBE 12G d   1       2.285  22.076   2.373  0.00  0.00    -0.009 A 
ATOM     25  CBB 12G d   1       2.225  23.468   2.301  0.00  0.00     0.042 A 
ATOM     26 CLA  12G d   1       3.062  24.368   1.087  0.00  0.00    -0.084 Cl
ATOM     27  CAM 12G d   1       1.475  24.180   3.228  0.00  0.00    -0.061 A 
ATOM     28  CAI 12G d   1       0.789  23.513   4.227  0.00  0.00    -0.081 A 
ATOM     29  H1  12G d   1       1.427  25.261   3.168  0.00  0.00     0.086 H 
ATOM     30  CAK 12G d   1       0.848  22.130   4.302  0.00  0.00    -0.082 A 
ATOM     31  H2  12G d   1       0.206  24.071   4.950  0.00  0.00     0.083 H 
ATOM     32  CAO 12G d   1       1.598  21.413   3.383  0.00  0.00    -0.073 A 
ATOM     33  H3  12G d   1       0.306  21.608   5.082  0.00  0.00     0.083 H 
ATOM     34  H4  12G d   1       1.649  20.332   3.452  0.00  0.00     0.084 H 
ENDBRANCH   1  24
BRANCH   6  35
ATOM     35  CAV 12G d   1       5.324  21.237   2.616  0.00  0.00     0.195 C 
ATOM     36  OAB 12G d   1       5.339  22.451   2.659  0.00  0.00    -0.287 OA
BRANCH  35  37
ATOM     37  CBD 12G d   1       6.436  20.510   3.289  0.00  0.00     0.036 A 
ATOM     38  CBA 12G d   1       6.175  19.561   4.273  0.00  0.00     0.048 A 
ATOM     39 CL2  12G d   1       4.547  19.170   4.723  0.00  0.00    -0.083 Cl
ATOM     40  CAL 12G d   1       7.232  18.911   4.894  0.00  0.00    -0.061 A 
ATOM     41  CAH 12G d   1       8.535  19.221   4.536  0.00  0.00    -0.081 A 
ATOM     42  H13 12G d   1       7.040  18.164   5.656  0.00  0.00     0.086 H 
ATOM     43  CAJ 12G d   1       8.794  20.179   3.563  0.00  0.00    -0.082 A 
ATOM     44  H14 12G d   1       9.360  18.711   5.020  0.00  0.00     0.083 H 
ATOM     45  CAN 12G d   1       7.745  20.828   2.939  0.00  0.00    -0.068 A 
ATOM     46  H15 12G d   1       9.817  20.417   3.294  0.00  0.00     0.083 H 
ATOM     47  H16 12G d   1       7.941  21.579   2.182  0.00  0.00     0.085 H 
ENDBRANCH  35  37
ENDBRANCH   6  35
BRANCH   5  48
ATOM     48  OAE 12G d   1       5.100  18.270   1.598  0.00  0.00    -0.356 OA
ATOM     49  H12 12G d   1       5.764  18.579   2.203  0.00  0.00     0.218 HD
ENDBRANCH   5  48
TORSDOF 7
