REMARK  7 active torsions:
REMARK  status: ('A' for Active; 'I' for Inactive)
REMARK    1  A    between atoms: CAS_2  and  CBC_4 
REMARK    2  A    between atoms: CAX_6  and  CAA_7 
REMARK    3  A    between atoms: CBB_10  and  NBE_11 
REMARK    4  A    between atoms: CBD_12  and  CBA_13 
REMARK    5  A    between atoms: CAU_21  and  OAF_22 
REMARK    6  A    between atoms: CAW_23  and  CAT_24 
REMARK    7  A    between atoms: CAT_24  and  CAZ_26 
ROOT
ATOM      1  NBE 1DL d   1       1.670  20.283   0.254  0.00  0.00    -0.309 N 
ATOM      2  CBD 1DL d   1       2.587  21.138   0.713  0.00  0.00     0.083 A 
ATOM      3  CAV 1DL d   1       2.016  19.030   0.555  0.00  0.00     0.216 A 
ATOM      4  OAD 1DL d   1       1.273  17.930   0.250  0.00  0.00    -0.169 OA
ATOM      5  CAU 1DL d   1       3.247  19.063   1.208  0.00  0.00     0.133 A 
ATOM      6  CAW 1DL d   1       3.623  20.404   1.284  0.00  0.00     0.059 A 
ATOM      7  H7  1DL d   1       3.004  21.657  -0.163  0.00  0.00     0.090 H 
ENDROOT
BRANCH   1   8
ATOM      8  CBB 1DL d   1       0.516  20.658  -0.515  0.00  0.00     0.038 A 
ATOM      9  CAQ 1DL d   1      -0.740  20.155  -0.197  0.00  0.00    -0.040 A 
ATOM     10  CBC 1DL d   1      -1.869  20.504  -0.926  0.00  0.00     0.048 A 
ATOM     11  H1  1DL d   1      -0.841  19.474   0.640  0.00  0.00     0.088 H 
ATOM     12  CAX 1DL d   1      -1.729  21.394  -2.001  0.00  0.00    -0.045 A 
ATOM     13  CAK 1DL d   1      -0.475  21.895  -2.312  0.00  0.00    -0.074 A 
ATOM     14  CAN 1DL d   1       0.646  21.533  -1.583  0.00  0.00    -0.056 A 
ATOM     15  H5  1DL d   1      -0.369  22.584  -3.142  0.00  0.00     0.084 H 
ATOM     16  H6  1DL d   1       1.619  21.931  -1.846  0.00  0.00     0.086 H 
BRANCH  10  17
ATOM     17  CAS 1DL d   1      -3.160  19.884  -0.473  0.00  0.00     0.210 C 
ATOM     18  OAB 1DL d   1      -3.140  19.097   0.507  0.00  0.00    -0.644 OA
ATOM     19  OAE 1DL d   1      -4.269  20.098  -1.015  0.00  0.00    -0.644 OA
ENDBRANCH  10  17
BRANCH  12  20
ATOM     20  CAA 1DL d   1      -2.867  21.856  -2.861  0.00  0.00    -0.050 C 
ATOM     21  H2  1DL d   1      -2.489  22.547  -3.629  0.00  0.00     0.033 H 
ATOM     22  H3  1DL d   1      -3.612  22.372  -2.237  0.00  0.00     0.033 H 
ATOM     23  H4  1DL d   1      -3.335  20.988  -3.348  0.00  0.00     0.033 H 
ENDBRANCH  12  20
ENDBRANCH   1   8
BRANCH   2  24
ATOM     24  CBA 1DL d   1       2.061  22.196   1.593  0.00  0.00     0.012 A 
ATOM     25  SAR 1DL d   1       1.397  21.832   3.092  0.00  0.00    -0.103 SA
ATOM     26  CAO 1DL d   1       0.994  23.386   3.587  0.00  0.00    -0.028 A 
ATOM     27  CAY 1DL d   1       1.393  24.210   2.531  0.00  0.00     0.018 A 
ATOM     28  H8  1DL d   1       0.525  23.685   4.524  0.00  0.00     0.097 H 
ATOM     29 BRA  1DL d   1       1.152  26.112   2.606  0.00  0.00    -0.051 Br
ATOM     30  CAP 1DL d   1       1.997  23.577   1.406  0.00  0.00    -0.051 A 
ATOM     31  H9  1DL d   1       2.359  24.100   0.522  0.00  0.00     0.087 H 
ENDBRANCH   2  24
BRANCH   6  32
ATOM     32  CAT 1DL d   1       4.860  21.055   1.811  0.00  0.00     0.193 C 
ATOM     33  OAC 1DL d   1       5.151  22.148   1.333  0.00  0.00    -0.287 OA
BRANCH  32  34
ATOM     34  CAZ 1DL d   1       5.737  20.468   2.869  0.00  0.00     0.015 A 
ATOM     35  CAL 1DL d   1       7.086  20.788   2.861  0.00  0.00    -0.069 A 
ATOM     36  CAI 1DL d   1       7.935  20.269   3.833  0.00  0.00    -0.082 A 
ATOM     37  H11 1DL d   1       7.481  21.445   2.094  0.00  0.00     0.085 H 
ATOM     38  CAH 1DL d   1       7.433  19.425   4.816  0.00  0.00    -0.083 A 
ATOM     39  H12 1DL d   1       8.989  20.523   3.824  0.00  0.00     0.083 H 
ATOM     40  CAJ 1DL d   1       6.079  19.107   4.834  0.00  0.00    -0.082 A 
ATOM     41  H13 1DL d   1       8.096  19.015   5.569  0.00  0.00     0.083 H 
ATOM     42  CAM 1DL d   1       5.229  19.628   3.861  0.00  0.00    -0.069 A 
ATOM     43  H14 1DL d   1       5.685  18.454   5.605  0.00  0.00     0.083 H 
ATOM     44  H15 1DL d   1       4.174  19.381   3.874  0.00  0.00     0.085 H 
ENDBRANCH  32  34
ENDBRANCH   6  32
BRANCH   5  45
ATOM     45  OAF 1DL d   1       3.952  17.977   1.663  0.00  0.00    -0.356 OA
ATOM     46  H10 1DL d   1       4.758  18.272   2.070  0.00  0.00     0.218 HD
ENDBRANCH   5  45
TORSDOF 7
