REMARK  6 active torsions:
REMARK  status: ('A' for Active; 'I' for Inactive)
REMARK    1  A    between atoms: CAS_2  and  CBC_4 
REMARK    2  A    between atoms: CBB_10  and  NBE_11 
REMARK    3  A    between atoms: CBD_12  and  CBA_13 
REMARK    4  A    between atoms: CAU_21  and  OAE_22 
REMARK    5  A    between atoms: CAW_23  and  CAT_24 
REMARK    6  A    between atoms: CAT_24  and  CAZ_26 
ROOT
ATOM      1  NBE 11Y d   1       1.789  20.273   0.271  0.00  0.00    -0.309 N 
ATOM      2  CBD 11Y d   1       2.683  21.146   0.756  0.00  0.00     0.083 A 
ATOM      3  CAV 11Y d   1       2.111  19.018   0.589  0.00  0.00     0.216 A 
ATOM      4  OAC 11Y d   1       1.364  17.903   0.271  0.00  0.00    -0.169 OA
ATOM      5  CAU 11Y d   1       3.326  19.066   1.275  0.00  0.00     0.133 A 
ATOM      6  CAW 11Y d   1       3.703  20.412   1.347  0.00  0.00     0.059 A 
ATOM      7  H4  11Y d   1       3.116  21.670  -0.109  0.00  0.00     0.090 H 
ENDROOT
BRANCH   1   8
ATOM      8  CBB 11Y d   1       0.625  20.678  -0.452  0.00  0.00     0.038 A 
ATOM      9  CAQ 11Y d   1      -0.633  20.262  -0.044  0.00  0.00    -0.039 A 
ATOM     10  CBC 11Y d   1      -1.779  20.657  -0.726  0.00  0.00     0.064 A 
ATOM     11  H1  11Y d   1      -0.725  19.617   0.822  0.00  0.00     0.088 H 
ATOM     12  CAY 11Y d   1      -1.655  21.497  -1.840  0.00  0.00     0.051 A 
ATOM     13 CLA  11Y d   1      -3.009  22.054  -2.763  0.00  0.00    -0.083 Cl
ATOM     14  CAM 11Y d   1      -0.391  21.914  -2.240  0.00  0.00    -0.059 A 
ATOM     15  CAN 11Y d   1       0.746  21.510  -1.555  0.00  0.00    -0.055 A 
ATOM     16  H2  11Y d   1      -0.292  22.565  -3.101  0.00  0.00     0.086 H 
ATOM     17  H3  11Y d   1       1.725  21.843  -1.881  0.00  0.00     0.087 H 
BRANCH  10  18
ATOM     18  CAS 11Y d   1      -3.087  20.136  -0.203  0.00  0.00     0.211 C 
ATOM     19  OAA 11Y d   1      -3.092  19.398   0.820  0.00  0.00    -0.644 OA
ATOM     20  OAD 11Y d   1      -4.191  20.437  -0.722  0.00  0.00    -0.644 OA
ENDBRANCH  10  18
ENDBRANCH   1   8
BRANCH   2  21
ATOM     21  CBA 11Y d   1       2.136  22.214   1.639  0.00  0.00     0.012 A 
ATOM     22  SAR 11Y d   1       1.428  21.861   3.118  0.00  0.00    -0.103 SA
ATOM     23  CAO 11Y d   1       1.027  23.418   3.610  0.00  0.00    -0.028 A 
ATOM     24  CAX 11Y d   1       1.470  24.257   2.581  0.00  0.00     0.018 A 
ATOM     25  H5  11Y d   1       0.529  23.711   4.533  0.00  0.00     0.097 H 
ATOM     26 BRA  11Y d   1       1.251  26.175   2.669  0.00  0.00    -0.051 Br
ATOM     27  CAP 11Y d   1       2.093  23.604   1.470  0.00  0.00    -0.051 A 
ATOM     28  H6  11Y d   1       2.486  24.125   0.598  0.00  0.00     0.087 H 
ENDBRANCH   2  21
BRANCH   6  29
ATOM     29  CAT 11Y d   1       4.952  21.053   1.859  0.00  0.00     0.193 C 
ATOM     30  OAB 11Y d   1       5.236  22.162   1.426  0.00  0.00    -0.287 OA
BRANCH  29  31
ATOM     31  CAZ 11Y d   1       5.859  20.441   2.870  0.00  0.00     0.015 A 
ATOM     32  CAK 11Y d   1       7.227  20.626   2.730  0.00  0.00    -0.069 A 
ATOM     33  CAI 11Y d   1       8.111  20.092   3.652  0.00  0.00    -0.082 A 
ATOM     34  H8  11Y d   1       7.608  21.195   1.889  0.00  0.00     0.085 H 
ATOM     35  CAH 11Y d   1       7.616  19.372   4.728  0.00  0.00    -0.083 A 
ATOM     36  H9  11Y d   1       9.179  20.235   3.534  0.00  0.00     0.083 H 
ATOM     37  CAJ 11Y d   1       6.248  19.190   4.880  0.00  0.00    -0.082 A 
ATOM     38  H10 11Y d   1       8.300  18.949   5.454  0.00  0.00     0.083 H 
ATOM     39  CAL 11Y d   1       5.363  19.730   3.953  0.00  0.00    -0.069 A 
ATOM     40  H11 11Y d   1       5.869  18.625   5.724  0.00  0.00     0.083 H 
ATOM     41  H12 11Y d   1       4.294  19.596   4.076  0.00  0.00     0.085 H 
ENDBRANCH  29  31
ENDBRANCH   6  29
BRANCH   5  42
ATOM     42  OAE 11Y d   1       4.033  17.992   1.766  0.00  0.00    -0.356 OA
ATOM     43  H7  11Y d   1       4.263  17.411   1.050  0.00  0.00     0.218 HD
ENDBRANCH   5  42
TORSDOF 6
