REMARK  7 active torsions:
REMARK  status: ('A' for Active; 'I' for Inactive)
REMARK    1  A    between atoms: CAS_2  and  CAP_4 
REMARK    2  A    between atoms: CAP_4  and  CAZ_5 
REMARK    3  A    between atoms: CBB_10  and  NBE_11 
REMARK    4  A    between atoms: CBD_12  and  CBC_13 
REMARK    5  A    between atoms: CAU_21  and  OAE_22 
REMARK    6  A    between atoms: CAW_23  and  CAT_24 
REMARK    7  A    between atoms: CAT_24  and  CBA_26 
ROOT
ATOM      1  NBE 1D5 d   1       1.621  20.013   0.331  0.00  0.00    -0.309 N 
ATOM      2  CBD 1D5 d   1       2.555  20.907   0.678  0.00  0.00     0.083 A 
ATOM      3  CAV 1D5 d   1       1.999  18.777   0.654  0.00  0.00     0.216 A 
ATOM      4  OAC 1D5 d   1       1.236  17.649   0.466  0.00  0.00    -0.169 OA
ATOM      5  CAU 1D5 d   1       3.288  18.861   1.189  0.00  0.00     0.133 A 
ATOM      6  CAW 1D5 d   1       3.656  20.219   1.167  0.00  0.00     0.059 A 
ATOM      7  H7  1D5 d   1       2.878  21.409  -0.246  0.00  0.00     0.090 H 
ENDROOT
BRANCH   1   8
ATOM      8  CBB 1D5 d   1       0.440  20.364  -0.401  0.00  0.00     0.037 A 
ATOM      9  CAM 1D5 d   1       0.540  21.219  -1.491  0.00  0.00    -0.056 A 
ATOM     10  CAJ 1D5 d   1      -0.599  21.574  -2.199  0.00  0.00    -0.074 A 
ATOM     11  H4  1D5 d   1       1.507  21.608  -1.788  0.00  0.00     0.086 H 
ATOM     12  CAZ 1D5 d   1      -1.838  21.077  -1.815  0.00  0.00    -0.048 A 
ATOM     13  H3  1D5 d   1      -0.522  22.239  -3.052  0.00  0.00     0.084 H 
ATOM     14  CAI 1D5 d   1      -1.941  20.223  -0.726  0.00  0.00    -0.074 A 
ATOM     15  CAL 1D5 d   1      -0.801  19.873  -0.015  0.00  0.00    -0.056 A 
ATOM     16  H5  1D5 d   1      -2.908  19.831  -0.432  0.00  0.00     0.084 H 
ATOM     17  H6  1D5 d   1      -0.879  19.215   0.843  0.00  0.00     0.086 H 
BRANCH  12  18
ATOM     18  CAP 1D5 d   1      -3.063  21.452  -2.577  0.00  0.00     0.039 C 
ATOM     19  H1  1D5 d   1      -3.832  21.749  -1.849  0.00  0.00     0.056 H 
ATOM     20  H2  1D5 d   1      -2.810  22.312  -3.215  0.00  0.00     0.056 H 
BRANCH  18  21
ATOM     21  CAS 1D5 d   1      -3.649  20.395  -3.451  0.00  0.00     0.176 C 
ATOM     22  OAA 1D5 d   1      -4.761  19.890  -3.152  0.00  0.00    -0.648 OA
ATOM     23  OAD 1D5 d   1      -3.033  19.998  -4.476  0.00  0.00    -0.648 OA
ENDBRANCH  18  21
ENDBRANCH  12  18
ENDBRANCH   1   8
BRANCH   2  24
ATOM     24  CBC 1D5 d   1       2.057  21.980   1.565  0.00  0.00     0.012 A 
ATOM     25  SAQ 1D5 d   1       1.447  21.671   3.095  0.00  0.00    -0.103 SA
ATOM     26  CAN 1D5 d   1       1.043  23.233   3.557  0.00  0.00    -0.028 A 
ATOM     27  CAX 1D5 d   1       1.406  24.031   2.461  0.00  0.00     0.018 A 
ATOM     28  H8  1D5 d   1       0.598  23.555   4.497  0.00  0.00     0.097 H 
ATOM     29 BRA  1D5 d   1       1.171  25.946   2.481  0.00  0.00    -0.051 Br
ATOM     30  CAO 1D5 d   1       1.970  23.353   1.344  0.00  0.00    -0.051 A 
ATOM     31  H9  1D5 d   1       2.294  23.847   0.429  0.00  0.00     0.087 H 
ENDBRANCH   2  24
BRANCH   6  32
ATOM     32  CAT 1D5 d   1       4.854  20.931   1.732  0.00  0.00     0.200 C 
ATOM     33  OAB 1D5 d   1       5.109  22.070   1.361  0.00  0.00    -0.286 OA
BRANCH  32  34
ATOM     34  CBA 1D5 d   1       5.773  20.340   2.741  0.00  0.00     0.057 A 
ATOM     35  SAR 1D5 d   1       7.347  20.876   3.023  0.00  0.00    -0.074 SA
ATOM     36  CAY 1D5 d   1       7.761  19.795   4.247  0.00  0.00     0.075 A 
ATOM     37 CLA  1D5 d   1       9.284  19.726   5.056  0.00  0.00    -0.076 Cl
ATOM     38  CAH 1D5 d   1       6.641  18.973   4.481  0.00  0.00    -0.054 A 
ATOM     39  CAK 1D5 d   1       5.528  19.285   3.641  0.00  0.00    -0.060 A 
ATOM     40  H11 1D5 d   1       6.625  18.180   5.227  0.00  0.00     0.086 H 
ATOM     41  H12 1D5 d   1       4.578  18.756   3.692  0.00  0.00     0.085 H 
ENDBRANCH  32  34
ENDBRANCH   6  32
BRANCH   5  42
ATOM     42  OAE 1D5 d   1       4.048  17.799   1.620  0.00  0.00    -0.356 OA
ATOM     43  H10 1D5 d   1       4.884  18.118   1.939  0.00  0.00     0.218 HD
ENDBRANCH   5  42
TORSDOF 7
