REMARK  8 active torsions:
REMARK  status: ('A' for Active; 'I' for Inactive)
REMARK    1  A    between atoms: CAA_1  and  CBA_2 
REMARK    2  A    between atoms: CBD_7  and  CAW_8 
REMARK    3  A    between atoms: CAW_8  and  CAZ_10 
REMARK    4  A    between atoms: CAY_11  and  OAF_12 
REMARK    5  A    between atoms: NBJ_15  and  CBF_16 
REMARK    6  A    between atoms: CBB_19  and  CAS_20 
REMARK    7  A    between atoms: CAS_20  and  CAV_21 
REMARK    8  A    between atoms: CBI_26  and  CBE_27 
ROOT
ATOM      1  CAZ 1D6 d   1       3.446  20.647   1.365  0.00  0.00     0.058 A 
ATOM      2  CAY 1D6 d   1       3.189  19.284   1.175  0.00  0.00     0.133 A 
ATOM      3  CAX 1D6 d   1       1.984  19.210   0.505  0.00  0.00     0.216 A 
ATOM      4  OAD 1D6 d   1       1.364  18.033   0.120  0.00  0.00    -0.169 OA
ATOM      5  NBJ 1D6 d   1       1.537  20.458   0.302  0.00  0.00    -0.309 N 
ATOM      6  CBI 1D6 d   1       2.374  21.363   0.837  0.00  0.00     0.077 A 
ATOM      7  H15 1D6 d   1       2.765  21.963   0.002  0.00  0.00     0.089 H 
ENDROOT
BRANCH   1   8
ATOM      8  CAW 1D6 d   1       4.697  21.320   1.897  0.00  0.00     0.193 C 
ATOM      9  OAC 1D6 d   1       4.909  22.474   1.513  0.00  0.00    -0.287 OA
BRANCH   8  10
ATOM     10  CBD 1D6 d   1       5.645  20.673   2.865  0.00  0.00     0.015 A 
ATOM     11  CAO 1D6 d   1       6.990  21.004   2.797  0.00  0.00    -0.064 A 
ATOM     12  CBA 1D6 d   1       7.893  20.445   3.674  0.00  0.00    -0.061 A 
ATOM     13  H4  1D6 d   1       7.333  21.708   2.048  0.00  0.00     0.085 H 
ATOM     14  CAI 1D6 d   1       7.452  19.558   4.637  0.00  0.00    -0.077 A 
ATOM     15  CAH 1D6 d   1       6.100  19.230   4.716  0.00  0.00    -0.082 A 
ATOM     16  H5  1D6 d   1       8.158  19.117   5.331  0.00  0.00     0.084 H 
ATOM     17  CAJ 1D6 d   1       5.201  19.802   3.835  0.00  0.00    -0.069 A 
ATOM     18  H6  1D6 d   1       5.754  18.528   5.466  0.00  0.00     0.083 H 
ATOM     19  H7  1D6 d   1       4.146  19.565   3.908  0.00  0.00     0.085 H 
BRANCH  12  20
ATOM     20  CAA 1D6 d   1       9.349  20.818   3.564  0.00  0.00    -0.051 C 
ATOM     21  H1  1D6 d   1       9.483  21.532   2.738  0.00  0.00     0.033 H 
ATOM     22  H2  1D6 d   1       9.945  19.915   3.369  0.00  0.00     0.033 H 
ATOM     23  H3  1D6 d   1       9.681  21.280   4.505  0.00  0.00     0.033 H 
ENDBRANCH  12  20
ENDBRANCH   8  10
ENDBRANCH   1   8
BRANCH   2  24
ATOM     24  OAF 1D6 d   1       3.985  18.171   1.577  0.00  0.00    -0.356 OA
ATOM     25  H8  1D6 d   1       4.839  18.228   1.164  0.00  0.00     0.218 HD
ENDBRANCH   2  24
BRANCH   6  26
ATOM     26  CBE 1D6 d   1       1.772  22.357   1.788  0.00  0.00    -0.026 A 
ATOM     27  CAQ 1D6 d   1       1.168  21.811   2.925  0.00  0.00    -0.039 A 
ATOM     28  CBG 1D6 d   1       0.599  22.646   3.858  0.00  0.00     0.107 A 
ATOM     29  H16 1D6 d   1       1.148  20.737   3.070  0.00  0.00     0.088 H 
ATOM     30  OAT 1D6 d   1      -0.056  22.437   5.040  0.00  0.00    -0.323 OA
ATOM     31  CBH 1D6 d   1       0.636  24.036   3.663  0.00  0.00     0.126 A 
ATOM     32  CAR 1D6 d   1      -0.395  23.622   5.552  0.00  0.00     0.115 A 
ATOM     33  OAU 1D6 d   1       0.004  24.594   4.742  0.00  0.00    -0.321 OA
ATOM     34  H17 1D6 d   1       0.085  23.746   6.534  0.00  0.00     0.118 H 
ATOM     35  H18 1D6 d   1      -1.488  23.670   5.669  0.00  0.00     0.118 H 
ATOM     36  CBC 1D6 d   1       1.241  24.585   2.546  0.00  0.00     0.070 A 
ATOM     37 CLA  1D6 d   1       1.261  26.299   2.368  0.00  0.00    -0.081 Cl
ATOM     38  CAP 1D6 d   1       1.820  23.730   1.587  0.00  0.00    -0.051 A 
ATOM     39  H19 1D6 d   1       2.297  24.139   0.704  0.00  0.00     0.087 H 
ENDBRANCH   6  26
BRANCH   5  40
ATOM     40  CBF 1D6 d   1       0.341  20.786  -0.493  0.00  0.00     0.037 A 
ATOM     41  CAM 1D6 d   1       0.416  21.745  -1.514  0.00  0.00    -0.056 A 
ATOM     42  CAK 1D6 d   1      -0.727  22.044  -2.262  0.00  0.00    -0.074 A 
ATOM     43  H9  1D6 d   1       1.352  22.250  -1.721  0.00  0.00     0.086 H 
ATOM     44  CBB 1D6 d   1      -1.933  21.375  -1.975  0.00  0.00    -0.048 A 
ATOM     45  H10 1D6 d   1      -0.685  22.783  -3.054  0.00  0.00     0.084 H 
ATOM     46  CAL 1D6 d   1      -2.009  20.422  -0.978  0.00  0.00    -0.074 A 
ATOM     47  CAN 1D6 d   1      -0.864  20.129  -0.215  0.00  0.00    -0.056 A 
ATOM     48  H13 1D6 d   1      -2.942  19.905  -0.785  0.00  0.00     0.084 H 
ATOM     49  H14 1D6 d   1      -0.914  19.398   0.584  0.00  0.00     0.086 H 
BRANCH  44  50
ATOM     50  CAS 1D6 d   1      -3.174  21.661  -2.762  0.00  0.00     0.039 C 
ATOM     51  H11 1D6 d   1      -2.926  22.383  -3.554  0.00  0.00     0.056 H 
ATOM     52  H12 1D6 d   1      -3.922  22.100  -2.086  0.00  0.00     0.056 H 
BRANCH  50  53
ATOM     53  CAV 1D6 d   1      -3.755  20.466  -3.387  0.00  0.00     0.176 C 
ATOM     54  OAE 1D6 d   1      -4.827  19.995  -2.949  0.00  0.00    -0.648 OA
ATOM     55  OAB 1D6 d   1      -3.158  19.912  -4.347  0.00  0.00    -0.648 OA
ENDBRANCH  50  53
ENDBRANCH  44  50
ENDBRANCH   5  40
TORSDOF 8
