REMARK  7 active torsions:
REMARK  status: ('A' for Active; 'I' for Inactive)
REMARK    1  A    between atoms: CBL_2  and  CBH_5 
REMARK    2  A    between atoms: CBD_10  and  CAX_11 
REMARK    3  A    between atoms: CAX_11  and  CBA_13 
REMARK    4  A    between atoms: CAY_14  and  OAE_15 
REMARK    5  A    between atoms: NBK_18  and  CBF_19 
REMARK    6  A    between atoms: CBC_21  and  CAW_22 
REMARK    7  A    between atoms: CBJ_28  and  CBE_29 
ROOT
ATOM      1  CBA 1D8 d   1       3.191  20.541   1.195  0.00  0.00     0.058 A 
ATOM      2  CAY 1D8 d   1       2.900  19.192   0.966  0.00  0.00     0.133 A 
ATOM      3  CAZ 1D8 d   1       1.715  19.176   0.254  0.00  0.00     0.216 A 
ATOM      4  OAC 1D8 d   1       1.108  18.014  -0.192  0.00  0.00    -0.169 OA
ATOM      5  NBK 1D8 d   1       1.300  20.429   0.063  0.00  0.00    -0.309 N 
ATOM      6  CBJ 1D8 d   1       2.138  21.289   0.671  0.00  0.00     0.077 A 
ATOM      7  H10 1D8 d   1       2.562  21.910  -0.132  0.00  0.00     0.089 H 
ENDROOT
BRANCH   1   8
ATOM      8  CAX 1D8 d   1       4.402  21.135   1.825  0.00  0.00     0.193 C 
ATOM      9  OAB 1D8 d   1       4.715  22.280   1.519  0.00  0.00    -0.287 OA
BRANCH   8  10
ATOM     10  CBD 1D8 d   1       5.228  20.424   2.833  0.00  0.00     0.015 A 
ATOM     11  CAR 1D8 d   1       6.608  20.618   2.864  0.00  0.00    -0.054 A 
ATOM     12  CBH 1D8 d   1       7.381  19.950   3.814  0.00  0.00     0.048 A 
ATOM     13  H1  1D8 d   1       7.079  21.286   2.152  0.00  0.00     0.086 H 
ATOM     14  CAO 1D8 d   1       6.771  19.091   4.717  0.00  0.00    -0.068 A 
ATOM     15  CAK 1D8 d   1       5.398  18.911   4.693  0.00  0.00    -0.081 A 
ATOM     16  H2  1D8 d   1       7.372  18.558   5.445  0.00  0.00     0.084 H 
ATOM     17  CAM 1D8 d   1       4.623  19.567   3.749  0.00  0.00    -0.069 A 
ATOM     18  H3  1D8 d   1       4.927  18.254   5.416  0.00  0.00     0.083 H 
ATOM     19  H4  1D8 d   1       3.550  19.413   3.724  0.00  0.00     0.085 H 
BRANCH  12  20
ATOM     20  CBL 1D8 d   1       8.861  20.129   3.855  0.00  0.00     0.417 C 
ATOM     21  FAF 1D8 d   1       9.325  20.119   5.100  0.00  0.00    -0.166 F 
ATOM     22  FAG 1D8 d   1       9.451  19.155   3.191  0.00  0.00    -0.166 F 
ATOM     23  FAH 1D8 d   1       9.182  21.247   3.249  0.00  0.00    -0.166 F 
ENDBRANCH  12  20
ENDBRANCH   8  10
ENDBRANCH   1   8
BRANCH   2  24
ATOM     24  OAE 1D8 d   1       3.604  18.045   1.306  0.00  0.00    -0.356 OA
ATOM     25  H5  1D8 d   1       4.462  18.069   0.898  0.00  0.00     0.218 HD
ENDBRANCH   2  24
BRANCH   6  26
ATOM     26  CBE 1D8 d   1       1.565  22.267   1.634  0.00  0.00    -0.026 A 
ATOM     27  CAS 1D8 d   1       0.908  21.690   2.708  0.00  0.00    -0.039 A 
ATOM     28  CBG 1D8 d   1       0.338  22.479   3.699  0.00  0.00     0.107 A 
ATOM     29  H11 1D8 d   1       0.838  20.610   2.776  0.00  0.00     0.088 H 
ATOM     30  OAU 1D8 d   1      -0.373  22.186   4.851  0.00  0.00    -0.323 OA
ATOM     31  CBI 1D8 d   1       0.428  23.815   3.589  0.00  0.00     0.126 A 
ATOM     32  CAT 1D8 d   1      -0.484  23.360   5.583  0.00  0.00     0.115 C 
ATOM     33  OAV 1D8 d   1      -0.204  24.373   4.677  0.00  0.00    -0.321 OA
ATOM     34  H12 1D8 d   1       0.240  23.370   6.411  0.00  0.00     0.118 H 
ATOM     35  H13 1D8 d   1      -1.502  23.471   5.985  0.00  0.00     0.118 H 
ATOM     36  CBB 1D8 d   1       1.107  24.369   2.509  0.00  0.00     0.070 A 
ATOM     37 CLA  1D8 d   1       1.189  26.058   2.433  0.00  0.00    -0.081 Cl
ATOM     38  CAP 1D8 d   1       1.687  23.633   1.508  0.00  0.00    -0.051 A 
ATOM     39  H14 1D8 d   1       2.205  24.094   0.675  0.00  0.00     0.087 H 
ENDBRANCH   6  26
BRANCH   5  40
ATOM     40  CBF 1D8 d   1       0.181  20.768  -0.761  0.00  0.00     0.038 A 
ATOM     41  CAQ 1D8 d   1      -1.039  20.132  -0.552  0.00  0.00    -0.040 A 
ATOM     42  CBC 1D8 d   1      -2.133  20.436  -1.344  0.00  0.00     0.043 A 
ATOM     43  H6  1D8 d   1      -1.133  19.394   0.236  0.00  0.00     0.088 H 
ATOM     44  CAL 1D8 d   1      -2.005  21.382  -2.349  0.00  0.00    -0.066 A 
ATOM     45  CAJ 1D8 d   1      -0.789  22.019  -2.564  0.00  0.00    -0.080 A 
ATOM     46  H7  1D8 d   1      -2.859  21.626  -2.971  0.00  0.00     0.085 H 
ATOM     47  CAN 1D8 d   1       0.305  21.714  -1.773  0.00  0.00    -0.057 A 
ATOM     48  H8  1D8 d   1      -0.697  22.756  -3.353  0.00  0.00     0.083 H 
ATOM     49  H9  1D8 d   1       1.254  22.210  -1.941  0.00  0.00     0.086 H 
BRANCH  42  50
ATOM     50  CAW 1D8 d   1      -3.433  19.749  -1.101  0.00  0.00     0.209 C 
ATOM     51  OAD 1D8 d   1      -3.529  18.892  -0.182  0.00  0.00    -0.644 OA
ATOM     52  OAA 1D8 d   1      -4.432  20.011  -1.814  0.00  0.00    -0.644 OA
ENDBRANCH  42  50
ENDBRANCH   5  40
TORSDOF 7
