REMARK  8 active torsions:
REMARK  status: ('A' for Active; 'I' for Inactive)
REMARK    1  A    between atoms: CBL_2  and  CBH_5 
REMARK    2  A    between atoms: CBE_10  and  CBI_11 
REMARK    3  A    between atoms: NBJ_12  and  CBF_13 
REMARK    4  A    between atoms: CBC_15  and  CAX_16 
REMARK    5  A    between atoms: CAZ_24  and  OAE_25 
REMARK    6  A    between atoms: CBB_26  and  CAY_27 
REMARK    7  A    between atoms: CAY_27  and  CBD_29 
REMARK    8  A    between atoms: CBG_31  and  CBK_32 
ROOT
ATOM      1  CBI 1D9 d   1       2.006  21.551   0.695  0.00  0.00     0.073 A 
ATOM      2  NBJ 1D9 d   1       1.201  20.745  -0.040  0.00  0.00    -0.310 N 
ATOM      3  CBA 1D9 d   1       1.712  19.508  -0.041  0.00  0.00     0.216 A 
ATOM      4  OAC 1D9 d   1       1.156  18.421  -0.674  0.00  0.00    -0.169 OA
ATOM      5  CAZ 1D9 d   1       2.888  19.503   0.686  0.00  0.00     0.128 A 
ATOM      6  CBB 1D9 d   1       3.107  20.805   1.140  0.00  0.00     0.031 A 
ATOM      7  H5  1D9 d   1       2.451  22.173  -0.096  0.00  0.00     0.088 H 
ENDROOT
BRANCH   6   8
ATOM      8  CAY 1D9 d   1       4.475  21.365   1.368  0.00  0.00     0.195 C 
ATOM      9  OAB 1D9 d   1       4.396  22.721   1.567  0.00  0.00    -0.214 OA
BRANCH   8  10
ATOM     10  CBD 1D9 d   1       5.170  20.751   2.541  0.00  0.00    -0.012 A 
ATOM     11  CAV 1D9 d   1       6.550  20.891   2.632  0.00  0.00    -0.059 A 
ATOM     12  CBG 1D9 d   1       7.254  20.353   3.696  0.00  0.00     0.048 A 
ATOM     13  H11 1D9 d   1       7.084  21.430   1.857  0.00  0.00     0.085 H 
ATOM     14  CAS 1D9 d   1       6.568  19.663   4.686  0.00  0.00    -0.068 A 
ATOM     15  CAM 1D9 d   1       5.188  19.515   4.610  0.00  0.00    -0.082 A 
ATOM     16  H12 1D9 d   1       7.111  19.238   5.522  0.00  0.00     0.084 H 
ATOM     17  CAP 1D9 d   1       4.485  20.060   3.538  0.00  0.00    -0.073 A 
ATOM     18  H13 1D9 d   1       4.658  18.975   5.386  0.00  0.00     0.083 H 
ATOM     19  H14 1D9 d   1       3.409  19.947   3.480  0.00  0.00     0.084 H 
BRANCH  12  20
ATOM     20  CBK 1D9 d   1       8.735  20.524   3.748  0.00  0.00     0.417 C 
ATOM     21  FAG 1D9 d   1       9.043  21.724   3.267  0.00  0.00    -0.166 F 
ATOM     22  FAH 1D9 d   1       9.176  20.410   4.998  0.00  0.00    -0.166 F 
ATOM     23  FAF 1D9 d   1       9.303  19.589   2.996  0.00  0.00    -0.166 F 
ENDBRANCH  12  20
ENDBRANCH   8  10
ENDBRANCH   6   8
BRANCH   1  24
ATOM     24  CBE 1D9 d   1       1.508  22.633   1.601  0.00  0.00    -0.030 A 
ATOM     25  CAW 1D9 d   1       0.851  22.271   2.764  0.00  0.00    -0.060 A 
ATOM     26  CBH 1D9 d   1       0.394  23.235   3.645  0.00  0.00     0.048 A 
ATOM     27  H1  1D9 d   1       0.693  21.222   2.987  0.00  0.00     0.085 H 
ATOM     28  CAT 1D9 d   1       0.607  24.578   3.362  0.00  0.00    -0.068 A 
ATOM     29  CAN 1D9 d   1       1.278  24.954   2.205  0.00  0.00    -0.082 A 
ATOM     30  H2  1D9 d   1       0.248  25.337   4.048  0.00  0.00     0.084 H 
ATOM     31  CAQ 1D9 d   1       1.735  23.978   1.329  0.00  0.00    -0.074 A 
ATOM     32  H3  1D9 d   1       1.444  26.003   1.987  0.00  0.00     0.083 H 
ATOM     33  H4  1D9 d   1       2.270  24.265   0.431  0.00  0.00     0.084 H 
BRANCH  26  34
ATOM     34  CBL 1D9 d   1      -0.336  22.811   4.880  0.00  0.00     0.417 C 
ATOM     35  FAI 1D9 d   1      -0.323  21.485   4.972  0.00  0.00    -0.166 F 
ATOM     36  FAJ 1D9 d   1       0.212  23.321   5.979  0.00  0.00    -0.166 F 
ATOM     37  FAK 1D9 d   1      -1.591  23.223   4.779  0.00  0.00    -0.166 F 
ENDBRANCH  26  34
ENDBRANCH   1  24
BRANCH   5  38
ATOM     38  OAE 1D9 d   1       3.711  18.419   0.898  0.00  0.00    -0.356 OA
ATOM     39  H10 1D9 d   1       4.452  18.685   1.430  0.00  0.00     0.218 HD
ENDBRANCH   5  38
BRANCH   2  40
ATOM     40  CBF 1D9 d   1       0.191  21.108  -1.007  0.00  0.00     0.038 A 
ATOM     41  CAU 1D9 d   1      -1.053  20.494  -0.944  0.00  0.00    -0.040 A 
ATOM     42  CBC 1D9 d   1      -2.045  20.793  -1.870  0.00  0.00     0.043 A 
ATOM     43  H6  1D9 d   1      -1.253  19.771  -0.161  0.00  0.00     0.088 H 
ATOM     44  CAO 1D9 d   1      -1.788  21.716  -2.876  0.00  0.00    -0.066 A 
ATOM     45  CAL 1D9 d   1      -0.545  22.329  -2.947  0.00  0.00    -0.080 A 
ATOM     46  H7  1D9 d   1      -2.555  21.956  -3.603  0.00  0.00     0.085 H 
ATOM     47  CAR 1D9 d   1       0.445  22.024  -2.019  0.00  0.00    -0.057 A 
ATOM     48  H8  1D9 d   1      -0.344  23.050  -3.731  0.00  0.00     0.083 H 
ATOM     49  H9  1D9 d   1       1.416  22.502  -2.086  0.00  0.00     0.086 H 
BRANCH  42  50
ATOM     50  CAX 1D9 d   1      -3.374  20.119  -1.771  0.00  0.00     0.209 C 
ATOM     51  OAD 1D9 d   1      -4.285  20.373  -2.605  0.00  0.00    -0.644 OA
ATOM     52  OAA 1D9 d   1      -3.585  19.288  -0.848  0.00  0.00    -0.644 OA
ENDBRANCH  42  50
ENDBRANCH   2  40
TORSDOF 8
