REMARK  6 active torsions:
REMARK  status: ('A' for Active; 'I' for Inactive)
REMARK    1  A    between atoms: CBB_10  and  CBG_11 
REMARK    2  A    between atoms: CAX_12  and  CAU_13 
REMARK    3  A    between atoms: CAU_13  and  CBE_15 
REMARK    4  A    between atoms: CAV_21  and  OAE_22 
REMARK    5  A    between atoms: NBH_25  and  CBC_26 
REMARK    6  A    between atoms: CBA_31  and  CAT_32 
ROOT
ATOM      1  CBG 1DE d   1       2.238  21.308   0.699  0.00  0.00     0.077 A 
ATOM      2  CAX 1DE d   1       3.276  20.568   1.245  0.00  0.00     0.059 A 
ATOM      3  CAV 1DE d   1       3.002  19.217   0.994  0.00  0.00     0.133 A 
ATOM      4  CAW 1DE d   1       1.827  19.184   0.263  0.00  0.00     0.216 A 
ATOM      5  OAC 1DE d   1       1.182  18.067  -0.218  0.00  0.00    -0.169 OA
ATOM      6  NBH 1DE d   1       1.425  20.444   0.076  0.00  0.00    -0.309 N 
ATOM      7  H5  1DE d   1       2.679  21.918  -0.103  0.00  0.00     0.089 H 
ENDROOT
BRANCH   1   8
ATOM      8  CBB 1DE d   1       1.666  22.310   1.640  0.00  0.00    -0.026 A 
ATOM      9  CAO 1DE d   1       1.008  21.802   2.748  0.00  0.00    -0.039 A 
ATOM     10  CBD 1DE d   1       0.438  22.664   3.702  0.00  0.00     0.107 A 
ATOM     11  H1  1DE d   1       0.932  20.729   2.881  0.00  0.00     0.088 H 
ATOM     12  OAQ 1DE d   1      -0.256  22.435   4.879  0.00  0.00    -0.323 OA
ATOM     13  CBF 1DE d   1       0.560  24.013   3.536  0.00  0.00     0.126 A 
ATOM     14  CAP 1DE d   1      -0.595  23.673   5.421  0.00  0.00     0.115 A 
ATOM     15  OAR 1DE d   1      -0.059  24.666   4.592  0.00  0.00    -0.321 OA
ATOM     16  H2  1DE d   1      -0.176  23.765   6.434  0.00  0.00     0.118 H 
ATOM     17  H3  1DE d   1      -1.689  23.774   5.466  0.00  0.00     0.118 H 
ATOM     18  CAZ 1DE d   1       1.232  24.520   2.426  0.00  0.00     0.070 A 
ATOM     19 CL2  1DE d   1       1.309  26.243   2.328  0.00  0.00    -0.081 Cl
ATOM     20  CAM 1DE d   1       1.797  23.686   1.467  0.00  0.00    -0.051 A 
ATOM     21  H4  1DE d   1       2.323  24.094   0.612  0.00  0.00     0.087 H 
ENDBRANCH   1   8
BRANCH   2  22
ATOM     22  CAU 1DE d   1       4.519  21.205   1.758  0.00  0.00     0.200 C 
ATOM     23  OAB 1DE d   1       4.848  22.301   1.326  0.00  0.00    -0.286 OA
BRANCH  22  24
ATOM     24  CBE 1DE d   1       5.411  20.563   2.754  0.00  0.00     0.057 A 
ATOM     25  CAL 1DE d   1       5.169  19.467   3.601  0.00  0.00    -0.060 A 
ATOM     26  CAK 1DE d   1       6.288  19.126   4.429  0.00  0.00    -0.054 A 
ATOM     27  H6  1DE d   1       4.222  18.929   3.626  0.00  0.00     0.085 H 
ATOM     28  CAY 1DE d   1       7.391  19.970   4.225  0.00  0.00     0.075 A 
ATOM     29  H7  1DE d   1       6.283  18.301   5.140  0.00  0.00     0.086 H 
ATOM     30 CL1  1DE d   1       8.922  19.929   4.996  0.00  0.00    -0.076 Cl
ATOM     31  SAS 1DE d   1       6.969  21.100   3.059  0.00  0.00    -0.074 SA
ENDBRANCH  22  24
ENDBRANCH   2  22
BRANCH   6  32
ATOM     32  CBC 1DE d   1       0.333  20.807  -0.760  0.00  0.00     0.038 A 
ATOM     33  CAN 1DE d   1      -0.906  20.257  -0.483  0.00  0.00    -0.040 A 
ATOM     34  CBA 1DE d   1      -1.997  20.573  -1.264  0.00  0.00     0.043 A 
ATOM     35  H9  1DE d   1      -1.019  19.575   0.352  0.00  0.00     0.088 H 
ATOM     36  CAI 1DE d   1      -1.836  21.451  -2.324  0.00  0.00    -0.066 A 
ATOM     37  CAH 1DE d   1      -0.590  22.006  -2.603  0.00  0.00    -0.080 A 
ATOM     38  H12 1DE d   1      -2.689  21.708  -2.942  0.00  0.00     0.085 H 
ATOM     39  CAJ 1DE d   1       0.504  21.689  -1.821  0.00  0.00    -0.057 A 
ATOM     40  H11 1DE d   1      -0.478  22.689  -3.437  0.00  0.00     0.083 H 
ATOM     41  H10 1DE d   1       1.476  22.119  -2.031  0.00  0.00     0.086 H 
BRANCH  34  42
ATOM     42  CAT 1DE d   1      -3.326  19.969  -0.949  0.00  0.00     0.209 C 
ATOM     43  OAD 1DE d   1      -4.329  20.248  -1.653  0.00  0.00    -0.644 OA
ATOM     44  OAA 1DE d   1      -3.451  19.175   0.019  0.00  0.00    -0.644 OA
ENDBRANCH  34  42
ENDBRANCH   6  32
BRANCH   3  45
ATOM     45  OAE 1DE d   1       3.743  18.129   1.379  0.00  0.00    -0.356 OA
ATOM     46  H8  1DE d   1       3.321  17.335   1.072  0.00  0.00     0.218 HD
ENDBRANCH   3  45
TORSDOF 6
