REMARK  11 active torsions:
REMARK  status: ('A' for Active; 'I' for Inactive)
REMARK    1  A    between atoms: PG_1  and  N3B_5 
REMARK    2  A    between atoms: N3B_5  and  PB_6 
REMARK    3  A    between atoms: PB_6  and  O3A_9 
REMARK    4  A    between atoms: O3A_9  and  PA_10 
REMARK    5  A    between atoms: PA_10  and  O5'_13 
REMARK    6  A    between atoms: O5'_13  and  C5'_14 
REMARK    7  A    between atoms: C5'_14  and  C4'_15 
REMARK    8  A    between atoms: C3'_17  and  O3'_18 
REMARK    9  A    between atoms: C2'_19  and  O2'_20 
REMARK   10  A    between atoms: C1'_21  and  N9_22 
REMARK   11  A    between atoms: C2_29  and  N2_30 
ROOT
ATOM      1  C4' GNP d   1      26.823   2.609 -50.569  0.00  0.00     0.089 C 
ATOM      2  O4' GNP d   1      28.115   2.039 -50.252  0.00  0.00    -0.353 OA
ATOM      3  C3' GNP d   1      27.035   3.415 -51.852  0.00  0.00     0.091 C 
ATOM      4  C2' GNP d   1      28.379   2.898 -52.371  0.00  0.00     0.105 C 
ATOM      5  C1' GNP d   1      29.113   2.653 -51.063  0.00  0.00     0.139 C 
ATOM      6  H4  GNP d   1      26.533   3.313 -49.775  0.00  0.00     0.090 H 
ATOM      7  H5  GNP d   1      26.230   3.247 -52.583  0.00  0.00     0.091 H 
ATOM      8  H7  GNP d   1      28.264   1.979 -52.965  0.00  0.00     0.093 H 
ATOM      9  H9  GNP d   1      29.478   3.604 -50.648  0.00  0.00     0.122 H 
ENDROOT
BRANCH   1  10
ATOM     10  C5' GNP d   1      25.761   1.515 -50.601  0.00  0.00     0.058 C 
ATOM     11  H2  GNP d   1      25.842   0.911 -49.685  0.00  0.00     0.079 H 
ATOM     12  H3  GNP d   1      24.767   1.983 -50.645  0.00  0.00     0.079 H 
BRANCH  10  13
ATOM     13  O5' GNP d   1      25.922   0.667 -51.728  0.00  0.00    -0.287 OA
BRANCH  13  14
ATOM     14  PA  GNP d   1      25.065  -0.656 -51.865  0.00  0.00     0.417 P 
ATOM     15  O1A GNP d   1      25.766  -1.542 -52.835  0.00  0.00    -0.624 OA
ATOM     16  O2A GNP d   1      23.707  -0.193 -52.275  0.00  0.00    -0.624 OA
BRANCH  14  17
ATOM     17  O3A GNP d   1      25.033  -1.376 -50.495  0.00  0.00    -0.186 OA
BRANCH  17  18
ATOM     18  PB  GNP d   1      24.030  -2.489 -50.074  0.00  0.00     0.379 P 
ATOM     19  O1B GNP d   1      23.507  -3.137 -51.293  0.00  0.00    -0.629 OA
ATOM     20  O2B GNP d   1      24.748  -3.364 -49.112  0.00  0.00    -0.629 OA
BRANCH  18  21
ATOM     21  N3B GNP d   1      22.805  -1.756 -49.355  0.00  0.00    -0.218 N 
ATOM     22  H1  GNP d   1      22.939  -0.807 -49.071  0.00  0.00     0.179 HD
BRANCH  21  23
ATOM     23  PG  GNP d   1      21.379  -2.422 -49.053  0.00  0.00     0.381 P 
ATOM     24  O1G GNP d   1      20.921  -3.077 -50.338  0.00  0.00    -0.622 OA
ATOM     25  O2G GNP d   1      20.487  -1.336 -48.502  0.00  0.00    -0.622 OA
ATOM     26  O3G GNP d   1      21.591  -3.399 -47.921  0.00  0.00    -0.622 OA
ENDBRANCH  21  23
ENDBRANCH  18  21
ENDBRANCH  17  18
ENDBRANCH  14  17
ENDBRANCH  13  14
ENDBRANCH  10  13
ENDBRANCH   1  10
BRANCH   3  27
ATOM     27  O3' GNP d   1      27.114   4.815 -51.503  0.00  0.00    -0.390 OA
ATOM     28  H6  GNP d   1      27.842   4.951 -50.909  0.00  0.00     0.210 HD
ENDBRANCH   3  27
BRANCH   5  29
ATOM     29  N9  GNP d   1      30.194   1.670 -51.088  0.00  0.00    -0.295 N 
ATOM     30  C8  GNP d   1      30.352   0.634 -51.980  0.00  0.00     0.071 A 
ATOM     31  N7  GNP d   1      31.391  -0.109 -51.715  0.00  0.00    -0.234 NA
ATOM     32  H10 GNP d   1      29.681   0.454 -52.818  0.00  0.00     0.144 H 
ATOM     33  C5  GNP d   1      31.957   0.449 -50.581  0.00  0.00     0.171 A 
ATOM     34  C6  GNP d   1      33.098   0.048 -49.843  0.00  0.00     0.292 A 
ATOM     35  C4  GNP d   1      31.223   1.543 -50.174  0.00  0.00     0.161 A 
ATOM     36  O6  GNP d   1      33.869  -0.912 -50.050  0.00  0.00    -0.265 OA
ATOM     37  N1  GNP d   1      33.316   0.891 -48.753  0.00  0.00    -0.154 N 
ATOM     38  C2  GNP d   1      32.523   1.968 -48.415  0.00  0.00     0.680 A 
ATOM     39  H11 GNP d   1      34.108   0.700 -48.172  0.00  0.00     0.187 HD
ATOM     40  N3  GNP d   1      31.451   2.345 -49.106  0.00  0.00    -0.174 N 
ATOM     41  H14 GNP d   1      30.862   3.153 -48.858  0.00  0.00     0.186 HD
BRANCH  38  42
ATOM     42  N2  GNP d   1      32.898   2.664 -47.318  0.00  0.00    -0.234 N 
ATOM     43  H12 GNP d   1      32.348   3.479 -47.012  0.00  0.00     0.174 HD
ATOM     44  H13 GNP d   1      33.734   2.379 -46.788  0.00  0.00     0.174 HD
ENDBRANCH  38  42
ENDBRANCH   5  29
BRANCH   4  45
ATOM     45  O2' GNP d   1      29.061   3.883 -53.122  0.00  0.00    -0.388 OA
ATOM     46  H8  GNP d   1      29.223   4.642 -52.574  0.00  0.00     0.210 HD
ENDBRANCH   4  45
TORSDOF 11
