REMARK  9 active torsions:
REMARK  status: ('A' for Active; 'I' for Inactive)
REMARK    1  A    between atoms: PB_1  and  O3A_5 
REMARK    2  A    between atoms: O3A_5  and  PA_6 
REMARK    3  A    between atoms: PA_6  and  O5'_9 
REMARK    4  A    between atoms: O5'_9  and  C5'_10 
REMARK    5  A    between atoms: C5'_10  and  C4'_11 
REMARK    6  A    between atoms: C3'_13  and  O3'_14 
REMARK    7  A    between atoms: C2'_15  and  O2'_16 
REMARK    8  A    between atoms: C1'_17  and  N9_18 
REMARK    9  A    between atoms: C2_25  and  N2_26 
ROOT
ATOM      1  C4' GDP d   1     -22.816   1.435  41.637  0.00  0.00     0.089 C 
ATOM      2  O4' GDP d   1     -21.541   0.866  41.913  0.00  0.00    -0.353 OA
ATOM      3  C3' GDP d   1     -22.660   2.140  40.295  0.00  0.00     0.091 C 
ATOM      4  C2' GDP d   1     -21.305   1.701  39.762  0.00  0.00     0.105 C 
ATOM      5  C1' GDP d   1     -20.558   1.481  41.053  0.00  0.00     0.139 C 
ATOM      6  H3  GDP d   1     -23.081   2.178  42.404  0.00  0.00     0.090 H 
ATOM      7  H4  GDP d   1     -23.475   1.878  39.604  0.00  0.00     0.091 H 
ATOM      8  H6  GDP d   1     -21.381   0.786  39.157  0.00  0.00     0.093 H 
ATOM      9  H8  GDP d   1     -20.172   2.431  41.452  0.00  0.00     0.122 H 
ENDROOT
BRANCH   5  10
ATOM     10  N9  GDP d   1     -19.494   0.490  40.954  0.00  0.00    -0.295 N 
ATOM     11  C8  GDP d   1     -19.363  -0.508  40.054  0.00  0.00     0.071 A 
ATOM     12  N7  GDP d   1     -18.268  -1.243  40.369  0.00  0.00    -0.234 NA
ATOM     13  H9  GDP d   1     -20.029  -0.693  39.212  0.00  0.00     0.144 H 
ATOM     14  C5  GDP d   1     -17.720  -0.715  41.492  0.00  0.00     0.171 A 
ATOM     15  C6  GDP d   1     -16.571  -1.009  42.365  0.00  0.00     0.292 A 
ATOM     16  C4  GDP d   1     -18.548   0.412  41.885  0.00  0.00     0.161 A 
ATOM     17  O6  GDP d   1     -15.845  -1.985  42.089  0.00  0.00    -0.265 OA
ATOM     18  N1  GDP d   1     -16.353  -0.219  43.444  0.00  0.00    -0.154 N 
ATOM     19  C2  GDP d   1     -17.153   0.824  43.738  0.00  0.00     0.680 A 
ATOM     20  H10 GDP d   1     -15.575  -0.416  44.040  0.00  0.00     0.187 HD
ATOM     21  N3  GDP d   1     -18.237   1.147  42.988  0.00  0.00    -0.174 N 
ATOM     22  H13 GDP d   1     -18.825   1.950  43.254  0.00  0.00     0.186 HD
BRANCH  19  23
ATOM     23  N2  GDP d   1     -16.886   1.565  44.830  0.00  0.00    -0.234 N 
ATOM     24  H11 GDP d   1     -17.488   2.366  45.069  0.00  0.00     0.174 HD
ATOM     25  H12 GDP d   1     -16.080   1.331  45.427  0.00  0.00     0.174 HD
ENDBRANCH  19  23
ENDBRANCH   5  10
BRANCH   4  26
ATOM     26  O2' GDP d   1     -20.653   2.726  39.023  0.00  0.00    -0.388 OA
ATOM     27  H7  GDP d   1     -20.517   3.481  39.583  0.00  0.00     0.210 HD
ENDBRANCH   4  26
BRANCH   1  28
ATOM     28  C5' GDP d   1     -23.849   0.314  41.671  0.00  0.00     0.058 C 
ATOM     29  H1  GDP d   1     -23.685  -0.304  42.566  0.00  0.00     0.079 H 
ATOM     30  H2  GDP d   1     -24.858   0.751  41.707  0.00  0.00     0.079 H 
BRANCH  28  31
ATOM     31  O5' GDP d   1     -23.730  -0.503  40.505  0.00  0.00    -0.287 OA
BRANCH  31  32
ATOM     32  PA  GDP d   1     -24.734  -1.737  40.259  0.00  0.00     0.418 P 
ATOM     33  O1A GDP d   1     -24.071  -2.758  39.364  0.00  0.00    -0.624 OA
ATOM     34  O2A GDP d   1     -26.068  -1.311  39.701  0.00  0.00    -0.624 OA
BRANCH  32  35
ATOM     35  O3A GDP d   1     -24.837  -2.332  41.755  0.00  0.00    -0.173 OA
BRANCH  35  36
ATOM     36  PB  GDP d   1     -25.684  -3.638  42.184  0.00  0.00     0.431 P 
ATOM     37  O1B GDP d   1     -26.141  -4.438  40.964  0.00  0.00    -0.616 OA
ATOM     38  O2B GDP d   1     -24.774  -4.441  43.066  0.00  0.00    -0.616 OA
ATOM     39  O3B GDP d   1     -26.846  -3.127  42.960  0.00  0.00    -0.616 OA
ENDBRANCH  35  36
ENDBRANCH  32  35
ENDBRANCH  31  32
ENDBRANCH  28  31
ENDBRANCH   1  28
BRANCH   3  40
ATOM     40  O3' GDP d   1     -22.605   3.561  40.516  0.00  0.00    -0.390 OA
ATOM     41  H5  GDP d   1     -22.508   4.006  39.683  0.00  0.00     0.210 HD
ENDBRANCH   3  40
TORSDOF 9
