REMARK  18 active torsions:
REMARK  status: ('A' for Active; 'I' for Inactive)
REMARK    1  A    between atoms: C2_2  and  C1_1 
REMARK    2  A    between atoms: C1_1  and  C3_3 
REMARK    3  A    between atoms: C2_2  and  C4_4 
REMARK    4  A    between atoms: N2_15  and  C2_2 
REMARK    5  A    between atoms: C3_3  and  N1_7 
REMARK    6  A    between atoms: C4_4  and  S1_5 
REMARK    7  A    between atoms: S1_5  and  C5_6 
REMARK    8  A    between atoms: N1_7  and  C6_8 
REMARK    9  A    between atoms: N1_7  and  C7_9 
REMARK   10  A    between atoms: C17_20  and  N2_15 
REMARK   11  A    between atoms: S2_22  and  C14_17 
REMARK   12  A    between atoms: C16_19  and  N7_57 
REMARK   13  A    between atoms: N6_53  and  S2_22 
REMARK   14  A    between atoms: C21_27  and  C25_31 
REMARK   15  A    between atoms: C31_37  and  C22_28 
REMARK   16  A    between atoms: N3_38  and  C31_37 
REMARK   17  A    between atoms: C36_44  and  N4_41 
REMARK   18  A    between atoms: C42_52  and  N6_53 
ROOT
ATOM      1  C36 1E9 d   1      10.659  24.412   8.479  0.00  0.00     0.031 A 
ATOM      2  C37 1E9 d   1      11.515  25.491   8.132  0.00  0.00    -0.034 A 
ATOM      3  C38 1E9 d   1      12.618  22.940   8.857  0.00  0.00    -0.066 A 
ATOM      4  C39 1E9 d   1      11.220  23.147   8.822  0.00  0.00    -0.056 A 
ATOM      5  C40 1E9 d   1      13.436  24.029   8.523  0.00  0.00     0.035 A 
ATOM      6  C41 1E9 d   1      12.897  25.259   8.178  0.00  0.00     0.098 A 
ATOM      7  S3  1E9 d   1      14.230  26.345   7.828  0.00  0.00     0.286 S 
ATOM      8  N5  1E9 d   1      15.407  25.222   8.149  0.00  0.00    -0.140 NA
ATOM      9  C42 1E9 d   1      14.907  24.079   8.492  0.00  0.00     0.162 A 
ATOM     10  O3  1E9 d   1      14.253  26.629   6.379  0.00  0.00    -0.198 OA
ATOM     11  O4  1E9 d   1      14.260  27.469   8.775  0.00  0.00    -0.198 OA
ATOM     12  H43 1E9 d   1      11.115  26.456   7.843  0.00  0.00     0.089 H 
ATOM     13  H44 1E9 d   1      13.040  21.980   9.131  0.00  0.00     0.085 H 
ATOM     14  H45 1E9 d   1      10.558  22.323   9.062  0.00  0.00     0.086 H 
ENDROOT
BRANCH   9  15
ATOM     15  N6  1E9 d   1      15.624  22.935   8.812  0.00  0.00    -0.263 N 
ATOM     16  H46 1E9 d   1      15.150  22.054   8.803  0.00  0.00     0.180 HD
BRANCH  15  17
ATOM     17  S2  1E9 d   1      17.272  22.968   9.219  0.00  0.00     0.264 S 
ATOM     18  O1  1E9 d   1      17.520  21.618   9.748  0.00  0.00    -0.200 OA
ATOM     19  O2  1E9 d   1      17.956  23.494   8.019  0.00  0.00    -0.200 OA
BRANCH  17  20
ATOM     20  C14 1E9 d   1      17.440  24.138  10.548  0.00  0.00     0.082 A 
ATOM     21  C13 1E9 d   1      17.796  25.468  10.284  0.00  0.00    -0.058 A 
ATOM     22  C18 1E9 d   1      17.907  26.355  11.362  0.00  0.00    -0.054 A 
ATOM     23  H21 1E9 d   1      17.981  25.802   9.269  0.00  0.00     0.086 H 
ATOM     24  C17 1E9 d   1      17.661  25.939  12.697  0.00  0.00     0.061 A 
ATOM     25  H23 1E9 d   1      18.188  27.385  11.172  0.00  0.00     0.087 H 
ATOM     26  C16 1E9 d   1      17.284  24.586  12.942  0.00  0.00     0.130 A 
ATOM     27  C15 1E9 d   1      17.188  23.693  11.853  0.00  0.00    -0.026 A 
ATOM     28  H22 1E9 d   1      16.918  22.658  12.027  0.00  0.00     0.089 H 
BRANCH  24  29
ATOM     29  N2  1E9 d   1      17.773  26.850  13.691  0.00  0.00    -0.383 N 
ATOM     30  H20 1E9 d   1      17.602  26.517  14.651  0.00  0.00     0.160 HD
BRANCH  29  31
ATOM     31  C2  1E9 d   1      18.114  28.264  13.531  0.00  0.00     0.019 C 
ATOM     32  H3  1E9 d   1      18.979  28.318  12.853  0.00  0.00     0.073 H 
BRANCH  31  33
ATOM     33  C1  1E9 d   1      18.528  28.919  14.866  0.00  0.00    -0.023 C 
ATOM     34  H1  1E9 d   1      17.731  28.727  15.599  0.00  0.00     0.038 H 
ATOM     35  H2  1E9 d   1      18.618  30.002  14.698  0.00  0.00     0.038 H 
BRANCH  33  36
ATOM     36  C3  1E9 d   1      19.855  28.421  15.468  0.00  0.00     0.085 C 
ATOM     37  H4  1E9 d   1      20.685  28.706  14.804  0.00  0.00     0.076 H 
ATOM     38  H5  1E9 d   1      19.822  27.326  15.564  0.00  0.00     0.076 H 
BRANCH  36  39
ATOM     39  N1  1E9 d   1      20.067  29.016  16.791  0.00  0.00    -0.079 N 
ATOM     40  H8  1E9 d   1      19.332  28.703  17.405  0.00  0.00     0.278 HD
BRANCH  39  41
ATOM     41  C6  1E9 d   1      21.351  28.569  17.321  0.00  0.00     0.066 C 
ATOM     42  H9  1E9 d   1      21.513  29.014  18.314  0.00  0.00     0.068 H 
ATOM     43  H10 1E9 d   1      22.157  28.884  16.642  0.00  0.00     0.068 H 
ATOM     44  H11 1E9 d   1      21.351  27.472  17.406  0.00  0.00     0.068 H 
ENDBRANCH  39  41
BRANCH  39  45
ATOM     45  C7  1E9 d   1      20.037  30.479  16.739  0.00  0.00     0.066 C 
ATOM     46  H12 1E9 d   1      19.068  30.812  16.339  0.00  0.00     0.068 H 
ATOM     47  H13 1E9 d   1      20.846  30.839  16.087  0.00  0.00     0.068 H 
ATOM     48  H14 1E9 d   1      20.174  30.885  17.752  0.00  0.00     0.068 H 
ENDBRANCH  39  45
ENDBRANCH  36  39
ENDBRANCH  33  36
ENDBRANCH  31  33
BRANCH  31  49
ATOM     49  C4  1E9 d   1      16.950  29.055  12.875  0.00  0.00     0.000 C 
ATOM     50  H6  1E9 d   1      16.819  28.662  11.856  0.00  0.00     0.052 H 
ATOM     51  H7  1E9 d   1      17.257  30.110  12.824  0.00  0.00     0.052 H 
BRANCH  49  52
ATOM     52  S1  1E9 d   1      15.312  29.001  13.698  0.00  0.00    -0.128 SA
BRANCH  52  53
ATOM     53  C5  1E9 d   1      14.589  27.447  13.311  0.00  0.00     0.000 A 
ATOM     54  C8  1E9 d   1      14.527  26.437  14.288  0.00  0.00    -0.067 A 
ATOM     55  C9  1E9 d   1      13.943  25.198  13.958  0.00  0.00    -0.082 A 
ATOM     56  H15 1E9 d   1      14.923  26.610  15.282  0.00  0.00     0.085 H 
ATOM     57  C10 1E9 d   1      13.417  24.984  12.667  0.00  0.00    -0.083 A 
ATOM     58  H16 1E9 d   1      13.898  24.407  14.698  0.00  0.00     0.083 H 
ATOM     59  C11 1E9 d   1      13.483  26.001  11.693  0.00  0.00    -0.082 A 
ATOM     60  H17 1E9 d   1      12.959  24.032  12.422  0.00  0.00     0.083 H 
ATOM     61  C12 1E9 d   1      14.067  27.241  12.017  0.00  0.00    -0.067 A 
ATOM     62  H18 1E9 d   1      13.086  25.829  10.699  0.00  0.00     0.083 H 
ATOM     63  H19 1E9 d   1      14.115  28.032  11.277  0.00  0.00     0.085 H 
ENDBRANCH  52  53
ENDBRANCH  49  52
ENDBRANCH  31  49
ENDBRANCH  29  31
ENDBRANCH  24  29
BRANCH  26  64
ATOM     64  N7  1E9 d   1      17.020  24.041  14.290  0.00  0.00    -0.113 N 
ATOM     65  O5  1E9 d   1      17.147  24.793  15.251  0.00  0.00    -0.532 OA
ATOM     66  O6  1E9 d   1      16.641  22.883  14.396  0.00  0.00    -0.532 OA
ENDBRANCH  26  64
ENDBRANCH  17  20
ENDBRANCH  15  17
ENDBRANCH   9  15
BRANCH   1  67
ATOM     67  N4  1E9 d   1       9.311  24.547   8.485  0.00  0.00    -0.378 N 
ATOM     68  C33 1E9 d   1       8.430  23.373   8.667  0.00  0.00     0.018 C 
ATOM     69  C32 1E9 d   1       7.002  23.750   9.147  0.00  0.00     0.098 C 
ATOM     70  H37 1E9 d   1       8.348  22.845   7.706  0.00  0.00     0.066 H 
ATOM     71  H38 1E9 d   1       8.886  22.706   9.414  0.00  0.00     0.066 H 
ATOM     72  N3  1E9 d   1       6.434  24.711   8.191  0.00  0.00    -0.064 N 
ATOM     73  H35 1E9 d   1       6.373  22.849   9.187  0.00  0.00     0.078 H 
ATOM     74  H36 1E9 d   1       7.054  24.206  10.147  0.00  0.00     0.078 H 
ATOM     75  C35 1E9 d   1       7.230  25.946   8.285  0.00  0.00     0.098 C 
ATOM     76  H34 1E9 d   1       6.521  24.337   7.259  0.00  0.00     0.280 HD
ATOM     77  C34 1E9 d   1       8.638  25.617   7.736  0.00  0.00     0.018 C 
ATOM     78  H41 1E9 d   1       7.300  26.272   9.333  0.00  0.00     0.078 H 
ATOM     79  H42 1E9 d   1       6.766  26.742   7.684  0.00  0.00     0.078 H 
ATOM     80  H39 1E9 d   1       8.540  25.302   6.687  0.00  0.00     0.066 H 
ATOM     81  H40 1E9 d   1       9.256  26.525   7.790  0.00  0.00     0.066 H 
BRANCH  72  82
ATOM     82  C31 1E9 d   1       5.008  24.953   8.454  0.00  0.00     0.108 C 
ATOM     83  H32 1E9 d   1       4.899  25.492   9.407  0.00  0.00     0.083 H 
ATOM     84  H33 1E9 d   1       4.584  25.559   7.639  0.00  0.00     0.083 H 
BRANCH  82  85
ATOM     85  C22 1E9 d   1       4.263  23.622   8.536  0.00  0.00    -0.021 A 
ATOM     86  C21 1E9 d   1       3.724  23.141   9.769  0.00  0.00    -0.018 A 
ATOM     87  C20 1E9 d   1       3.061  21.889   9.783  0.00  0.00    -0.072 A 
ATOM     88  C19 1E9 d   1       2.955  21.108   8.609  0.00  0.00    -0.082 A 
ATOM     89  H25 1E9 d   1       2.628  21.524  10.708  0.00  0.00     0.084 H 
ATOM     90  C24 1E9 d   1       3.515  21.582   7.400  0.00  0.00    -0.082 A 
ATOM     91  H24 1E9 d   1       2.447  20.151   8.636  0.00  0.00     0.083 H 
ATOM     92  C23 1E9 d   1       4.167  22.832   7.362  0.00  0.00    -0.074 A 
ATOM     93  H27 1E9 d   1       3.443  20.983   6.500  0.00  0.00     0.083 H 
ATOM     94  H26 1E9 d   1       4.596  23.190   6.433  0.00  0.00     0.084 H 
BRANCH  86  95
ATOM     95  C25 1E9 d   1       3.749  23.843  11.071  0.00  0.00    -0.025 A 
ATOM     96  C26 1E9 d   1       3.143  25.114  11.238  0.00  0.00    -0.071 A 
ATOM     97  C27 1E9 d   1       3.139  25.756  12.498  0.00  0.00    -0.061 A 
ATOM     98  H28 1E9 d   1       2.677  25.600  10.389  0.00  0.00     0.084 H 
ATOM     99  C28 1E9 d   1       3.735  25.125  13.607  0.00  0.00     0.034 A 
ATOM    100  H29 1E9 d   1       2.679  26.731  12.610  0.00  0.00     0.086 H 
ATOM    101  C29 1E9 d   1       4.347  23.861  13.460  0.00  0.00    -0.061 A 
ATOM    102 CL1  1E9 d   1       3.725  25.900  15.151  0.00  0.00    -0.084 Cl
ATOM    103  C30 1E9 d   1       4.346  23.219  12.197  0.00  0.00    -0.071 A 
ATOM    104  H30 1E9 d   1       4.817  23.383  14.312  0.00  0.00     0.086 H 
ATOM    105  H31 1E9 d   1       4.805  22.243  12.090  0.00  0.00     0.084 H 
ENDBRANCH  86  95
ENDBRANCH  82  85
ENDBRANCH  72  82
ENDBRANCH   1  67
TORSDOF 18
