REMARK  10 active torsions:
REMARK  status: ('A' for Active; 'I' for Inactive)
REMARK    1  A    between atoms: N2_16  and  O6_1 
REMARK    2  A    between atoms: C5_2  and  C8_7 
REMARK    3  A    between atoms: C4_10  and  C5_2 
REMARK    4  A    between atoms: C3_3  and  C7_6 
REMARK    5  A    between atoms: C2_9  and  C3_3 
REMARK    6  A    between atoms: C3_3  and  C4_10 
REMARK       I    between atoms: C8_7  and  N2_16 
REMARK    7  A    between atoms: C1_8  and  C2_9 
REMARK    8  A    between atoms: C1_8  and  N1_11 
REMARK    9  A    between atoms: C1_8  and  C6_12 
REMARK   10  A    between atoms: N2_16  and  C9_17 
ROOT
ATOM      1  C3  3ZA d   1      21.795  14.657  22.963  0.00  0.00     0.033 C 
ATOM      2  H4  3ZA d   1      21.721  13.659  22.507  0.00  0.00     0.056 H 
ENDROOT
BRANCH   1   3
ATOM      3  C7  3ZA d   1      23.098  15.305  22.447  0.00  0.00     0.177 C 
ATOM      4  O3  3ZA d   1      23.415  15.041  21.253  0.00  0.00    -0.648 OA
ATOM      5  O4  3ZA d   1      23.775  16.029  23.214  0.00  0.00    -0.648 OA
ENDBRANCH   1   3
BRANCH   1   6
ATOM      6  C2  3ZA d   1      21.758  14.442  24.496  0.00  0.00    -0.016 C 
ATOM      7  H6  3ZA d   1      20.773  14.037  24.773  0.00  0.00     0.038 H 
ATOM      8  H7  3ZA d   1      21.908  15.412  24.993  0.00  0.00     0.038 H 
BRANCH   6   9
ATOM      9  C1  3ZA d   1      22.843  13.470  24.973  0.00  0.00     0.183 C 
ATOM     10  H5  3ZA d   1      23.755  13.678  24.394  0.00  0.00     0.101 H 
BRANCH   9  11
ATOM     11  N1  3ZA d   1      22.456  12.046  24.735  0.00  0.00    -0.065 N 
ATOM     12  H10 3ZA d   1      23.192  11.439  25.061  0.00  0.00     0.275 HD
ATOM     13  H11 3ZA d   1      22.310  11.898  23.749  0.00  0.00     0.275 HD
ATOM     14  H12 3ZA d   1      21.605  11.841  25.235  0.00  0.00     0.275 HD
ENDBRANCH   9  11
BRANCH   9  15
ATOM     15  C6  3ZA d   1      23.169  13.665  26.465  0.00  0.00     0.204 C 
ATOM     16  O2  3ZA d   1      23.079  12.644  27.209  0.00  0.00    -0.646 OA
ATOM     17  O1  3ZA d   1      23.509  14.797  26.843  0.00  0.00    -0.646 OA
ENDBRANCH   9  15
ENDBRANCH   6   9
ENDBRANCH   1   6
BRANCH   1  18
ATOM     18  C4  3ZA d   1      20.606  15.502  22.441  0.00  0.00    -0.044 C 
ATOM     19  H8  3ZA d   1      20.499  16.374  23.103  0.00  0.00     0.035 H 
ATOM     20  H9  3ZA d   1      20.857  15.841  21.425  0.00  0.00     0.035 H 
BRANCH  18  21
ATOM     21  C5  3ZA d   1      19.251  14.798  22.376  0.00  0.00     0.012 C 
ATOM     22  H2  3ZA d   1      18.972  14.492  23.395  0.00  0.00     0.047 H 
ATOM     23  H3  3ZA d   1      18.509  15.513  21.991  0.00  0.00     0.047 H 
BRANCH  21  24
ATOM     24  C8  3ZA d   1      19.231  13.557  21.480  0.00  0.00     0.242 C 
ATOM     25  O5  3ZA d   1      19.391  13.551  20.248  0.00  0.00    -0.271 OA
ATOM     26  N2  3ZA d   1      19.009  12.350  22.094  0.00  0.00    -0.233 N 
BRANCH  26  27
ATOM     27  O6  3ZA d   1      19.451  12.141  23.422  0.00  0.00    -0.285 OA
ATOM     28  H1  3ZA d   1      19.034  12.772  23.997  0.00  0.00     0.245 HD
ENDBRANCH  26  27
BRANCH  26  29
ATOM     29  C9  3ZA d   1      19.166  11.118  21.333  0.00  0.00     0.009 C 
ATOM     30  H13 3ZA d   1      18.823  11.279  20.300  0.00  0.00     0.060 H 
ATOM     31  H14 3ZA d   1      18.568  10.321  21.798  0.00  0.00     0.060 H 
ATOM     32  H15 3ZA d   1      20.226  10.824  21.326  0.00  0.00     0.060 H 
ENDBRANCH  26  29
ENDBRANCH  21  24
ENDBRANCH  18  21
ENDBRANCH   1  18
TORSDOF 10
