REMARK  3 active torsions:
REMARK  status: ('A' for Active; 'I' for Inactive)
REMARK    1  A    between atoms: N11_12  and  C4_1 
REMARK    2  A    between atoms: N12_13  and  C13_6 
REMARK    3  A    between atoms: N11_12  and  N12_13 
ROOT
ATOM      1  N11 12R d   1     -32.532 -10.055  13.212  0.00  0.00    -0.283 N 
ATOM      2  H5  12R d   1     -32.398 -11.000  13.600  0.00  0.00     0.188 HD
ENDROOT
BRANCH   1   3
ATOM      3  C4  12R d   1     -31.716  -9.043  13.716  0.00  0.00     0.159 A 
ATOM      4  C5  12R d   1     -31.908  -7.674  13.321  0.00  0.00     0.078 A 
ATOM      5  C6  12R d   1     -30.998  -6.757  13.883  0.00  0.00     0.185 A 
ATOM      6  C10 12R d   1     -32.729  -6.886  12.479  0.00  0.00     0.013 A 
ATOM      7  N1  12R d   1     -30.007  -7.100  14.731  0.00  0.00    -0.220 NA
ATOM      8  N7  12R d   1     -31.329  -5.519  13.357  0.00  0.00    -0.154 NA
ATOM      9  C2  12R d   1     -29.940  -8.404  15.006  0.00  0.00     0.091 A 
ATOM     10  N3  12R d   1     -30.728  -9.391  14.564  0.00  0.00    -0.222 NA
ATOM     11  H3  12R d   1     -29.142  -8.703  15.676  0.00  0.00     0.146 H 
ATOM     12  N9  12R d   1     -32.388  -5.613  12.497  0.00  0.00    -0.286 N 
ATOM     13  H4  12R d   1     -32.829  -4.846  11.971  0.00  0.00     0.188 HD
ATOM     14  H2  12R d   1     -33.549  -7.286  11.884  0.00  0.00     0.115 H 
ENDBRANCH   1   3
BRANCH   1  15
ATOM     15  N12 12R d   1     -33.524  -9.905  12.220  0.00  0.00    -0.299 N 
ATOM     16  H6  12R d   1     -33.274  -9.839  11.223  0.00  0.00     0.187 HD
BRANCH  15  17
ATOM     17  C13 12R d   1     -34.870  -9.848  12.639  0.00  0.00     0.048 A 
ATOM     18  C14 12R d   1     -35.883  -9.919  11.685  0.00  0.00    -0.056 A 
ATOM     19  C15 12R d   1     -37.207  -9.753  12.067  0.00  0.00    -0.081 A 
ATOM     20  H1  12R d   1     -35.637 -10.104  10.646  0.00  0.00     0.087 H 
ATOM     21  C16 12R d   1     -37.529  -9.524  13.391  0.00  0.00    -0.083 A 
ATOM     22  H7  12R d   1     -37.993  -9.803  11.322  0.00  0.00     0.083 H 
ATOM     23  C17 12R d   1     -36.529  -9.485  14.347  0.00  0.00    -0.081 A 
ATOM     24  H8  12R d   1     -38.563  -9.375  13.680  0.00  0.00     0.083 H 
ATOM     25  C18 12R d   1     -35.200  -9.648  13.978  0.00  0.00    -0.056 A 
ATOM     26  H9  12R d   1     -36.784  -9.326  15.389  0.00  0.00     0.083 H 
ATOM     27  H10 12R d   1     -34.420  -9.620  14.731  0.00  0.00     0.087 H 
ENDBRANCH  15  17
ENDBRANCH   1  15
TORSDOF 3
