REMARK  9 active torsions:
REMARK  status: ('A' for Active; 'I' for Inactive)
REMARK    1  A    between atoms: N1_1  and  C11_11 
REMARK    2  A    between atoms: C5_5  and  C8_8 
REMARK    3  A    between atoms: C8_8  and  C9_9 
REMARK    4  A    between atoms: C8_8  and  C10_10 
REMARK    5  A    between atoms: C11_11  and  C12_12 
REMARK    6  A    between atoms: C15_15  and  C18_18 
REMARK    7  A    between atoms: C18_18  and  C19_19 
REMARK    8  A    between atoms: C18_18  and  C20_20 
REMARK    9  A    between atoms: C18_18  and  C21_21 
ROOT
ATOM      1  C12 1EP d   1     -17.426  -9.337 -61.212  0.00  0.00    -0.040 A 
ATOM      2  C13 1EP d   1     -17.017  -8.149 -60.622  0.00  0.00    -0.075 A 
ATOM      3  C14 1EP d   1     -16.914  -6.984 -61.364  0.00  0.00    -0.076 A 
ATOM      4  C15 1EP d   1     -17.223  -6.967 -62.723  0.00  0.00    -0.051 A 
ATOM      5  C16 1EP d   1     -17.619  -8.165 -63.311  0.00  0.00    -0.076 A 
ATOM      6  C17 1EP d   1     -17.720  -9.329 -62.569  0.00  0.00    -0.075 A 
ATOM      7  H12 1EP d   1     -16.775  -8.133 -59.566  0.00  0.00     0.084 H 
ATOM      8  H13 1EP d   1     -16.588  -6.071 -60.880  0.00  0.00     0.084 H 
ATOM      9  H14 1EP d   1     -17.852  -8.187 -64.369  0.00  0.00     0.084 H 
ATOM     10  H15 1EP d   1     -18.033 -10.247 -63.054  0.00  0.00     0.084 H 
ENDROOT
BRANCH   1  11
ATOM     11  C11 1EP d   1     -17.555 -10.603 -60.397  0.00  0.00     0.031 C 
ATOM     12  H10 1EP d   1     -16.631 -11.189 -60.513  0.00  0.00     0.072 H 
ATOM     13  H11 1EP d   1     -17.683 -10.327 -59.340  0.00  0.00     0.072 H 
BRANCH  11  14
ATOM     14  N1  1EP d   1     -18.695 -11.441 -60.803  0.00  0.00    -0.264 N 
ATOM     15  C2  1EP d   1     -20.027 -11.113 -60.591  0.00  0.00     0.326 A 
ATOM     16  O3  1EP d   1     -20.444 -10.105 -60.048  0.00  0.00    -0.247 OA
ATOM     17  N4  1EP d   1     -20.771 -12.116 -61.099  0.00  0.00    -0.329 N 
ATOM     18  C5  1EP d   1     -19.980 -13.189 -61.679  0.00  0.00     0.094 A 
ATOM     19  H1  1EP d   1     -21.771 -12.121 -61.079  0.00  0.00     0.165 HD
ATOM     20  C6  1EP d   1     -18.565 -12.652 -61.456  0.00  0.00     0.251 A 
ATOM     21  H2  1EP d   1     -20.125 -14.129 -61.126  0.00  0.00     0.088 H 
ATOM     22  O7  1EP d   1     -17.507 -13.170 -61.762  0.00  0.00    -0.271 OA
BRANCH  18  23
ATOM     23  C8  1EP d   1     -20.346 -13.435 -63.157  0.00  0.00    -0.033 C 
ATOM     24  H3  1EP d   1     -21.444 -13.406 -63.217  0.00  0.00     0.042 H 
BRANCH  23  25
ATOM     25  C9  1EP d   1     -19.916 -14.816 -63.625  0.00  0.00    -0.071 C 
ATOM     26  H4  1EP d   1     -20.195 -14.949 -64.681  0.00  0.00     0.028 H 
ATOM     27  H5  1EP d   1     -20.416 -15.582 -63.014  0.00  0.00     0.028 H 
ATOM     28  H6  1EP d   1     -18.826 -14.916 -63.519  0.00  0.00     0.028 H 
ENDBRANCH  23  25
BRANCH  23  29
ATOM     29  C10 1EP d   1     -19.827 -12.337 -64.093  0.00  0.00    -0.071 C 
ATOM     30  H7  1EP d   1     -20.157 -11.355 -63.724  0.00  0.00     0.028 H 
ATOM     31  H8  1EP d   1     -20.224 -12.500 -65.106  0.00  0.00     0.028 H 
ATOM     32  H9  1EP d   1     -18.728 -12.368 -64.121  0.00  0.00     0.028 H 
ENDBRANCH  23  29
ENDBRANCH  18  23
ENDBRANCH  11  14
ENDBRANCH   1  11
BRANCH   4  33
ATOM     33  C18 1EP d   1     -17.155  -5.663 -63.537  0.00  0.00    -0.024 C 
BRANCH  33  34
ATOM     34  C19 1EP d   1     -15.718  -5.124 -63.557  0.00  0.00    -0.066 C 
ATOM     35  H16 1EP d   1     -15.684  -4.193 -64.141  0.00  0.00     0.028 H 
ATOM     36  H17 1EP d   1     -15.053  -5.870 -64.017  0.00  0.00     0.028 H 
ATOM     37  H18 1EP d   1     -15.387  -4.923 -62.527  0.00  0.00     0.028 H 
ENDBRANCH  33  34
BRANCH  33  38
ATOM     38  C20 1EP d   1     -17.572  -5.865 -65.006  0.00  0.00    -0.066 C 
ATOM     39  H19 1EP d   1     -18.601  -6.253 -65.045  0.00  0.00     0.028 H 
ATOM     40  H20 1EP d   1     -16.891  -6.584 -65.485  0.00  0.00     0.028 H 
ATOM     41  H21 1EP d   1     -17.522  -4.903 -65.537  0.00  0.00     0.028 H 
ENDBRANCH  33  38
BRANCH  33  42
ATOM     42  C21 1EP d   1     -18.093  -4.597 -62.936  0.00  0.00    -0.066 C 
ATOM     43  H22 1EP d   1     -17.825  -4.425 -61.883  0.00  0.00     0.028 H 
ATOM     44  H23 1EP d   1     -19.134  -4.948 -62.997  0.00  0.00     0.028 H 
ATOM     45  H24 1EP d   1     -17.989  -3.658 -63.499  0.00  0.00     0.028 H 
ENDBRANCH  33  42
ENDBRANCH   4  33
TORSDOF 9
