REMARK  5 active torsions:
REMARK  status: ('A' for Active; 'I' for Inactive)
REMARK    1  A    between atoms: C9_7  and  C8_8 
REMARK    2  A    between atoms: C4_13  and  C1_14 
REMARK    3  A    between atoms: C1_14  and  C3_15 
REMARK    4  A    between atoms: C1_14  and  C2_16 
REMARK    5  A    between atoms: C1_14  and  C_17 
ROOT
ATOM      1  C8  1ER d   1      -9.651   8.813  10.228  0.00  0.00    -0.041 A 
ATOM      2  C7  1ER d   1      -9.577   8.645   8.845  0.00  0.00    -0.076 A 
ATOM      3  C6  1ER d   1      -8.497   9.147   8.135  0.00  0.00    -0.082 A 
ATOM      4  C5  1ER d   1      -7.485   9.829   8.796  0.00  0.00    -0.076 A 
ATOM      5  C14 1ER d   1      -8.633   9.511  10.878  0.00  0.00    -0.069 A 
ATOM      6  C4  1ER d   1      -7.540  10.028  10.175  0.00  0.00    -0.050 A 
ATOM      7  H5  1ER d   1     -10.368   8.119   8.323  0.00  0.00     0.084 H 
ATOM      8  H6  1ER d   1      -8.443   9.007   7.061  0.00  0.00     0.083 H 
ATOM      9  H7  1ER d   1      -6.641  10.212   8.233  0.00  0.00     0.084 H 
ATOM     10  H8  1ER d   1      -8.690   9.656  11.951  0.00  0.00     0.085 H 
ENDROOT
BRANCH   6  11
ATOM     11  C1  1ER d   1      -6.406  10.763  10.908  0.00  0.00    -0.024 C 
BRANCH  11  12
ATOM     12  C3  1ER d   1      -6.903  11.418  12.204  0.00  0.00    -0.066 C 
ATOM     13  H9  1ER d   1      -6.066  11.933  12.699  0.00  0.00     0.028 H 
ATOM     14  H10 1ER d   1      -7.306  10.645  12.874  0.00  0.00     0.028 H 
ATOM     15  H11 1ER d   1      -7.693  12.146  11.967  0.00  0.00     0.028 H 
ENDBRANCH  11  12
BRANCH  11  16
ATOM     16  C2  1ER d   1      -5.812  11.886  10.041  0.00  0.00    -0.066 C 
ATOM     17  H12 1ER d   1      -5.441  11.462   9.096  0.00  0.00     0.028 H 
ATOM     18  H13 1ER d   1      -4.981  12.365  10.580  0.00  0.00     0.028 H 
ATOM     19  H14 1ER d   1      -6.590  12.634   9.827  0.00  0.00     0.028 H 
ENDBRANCH  11  16
BRANCH  11  20
ATOM     20  C   1ER d   1      -5.288   9.769  11.281  0.00  0.00    -0.066 C 
ATOM     21  H15 1ER d   1      -5.706   8.963  11.902  0.00  0.00     0.028 H 
ATOM     22  H16 1ER d   1      -4.503  10.295  11.844  0.00  0.00     0.028 H 
ATOM     23  H17 1ER d   1      -4.858   9.340  10.364  0.00  0.00     0.028 H 
ENDBRANCH  11  20
ENDBRANCH   6  11
BRANCH   1  24
ATOM     24  C9  1ER d   1     -10.794   8.262  11.007  0.00  0.00     0.067 A 
ATOM     25  C13 1ER d   1     -11.232   6.876  10.752  0.00  0.00     0.255 A 
ATOM     26  O   1ER d   1     -10.733   6.085   9.946  0.00  0.00    -0.270 OA
ATOM     27  N   1ER d   1     -12.329   6.477  11.513  0.00  0.00    -0.226 NA
ATOM     28  C12 1ER d   1     -12.965   7.255  12.433  0.00  0.00     0.005 A 
ATOM     29  C11 1ER d   1     -12.553   8.525  12.669  0.00  0.00    -0.068 A 
ATOM     30  H1  1ER d   1     -13.813   6.853  12.985  0.00  0.00     0.114 H 
ATOM     31  C10 1ER d   1     -11.454   9.031  11.939  0.00  0.00    -0.085 A 
ATOM     32  H2  1ER d   1     -13.060   9.144  13.408  0.00  0.00     0.085 H 
ATOM     33  H3  1ER d   1     -11.121  10.053  12.118  0.00  0.00     0.078 H 
ATOM     34  H4  1ER d   1     -10.101   7.910  11.785  0.00  0.00     0.068 H 
ENDBRANCH   1  24
TORSDOF 5
