REMARK  4 active torsions:
REMARK  status: ('A' for Active; 'I' for Inactive)
REMARK    1  A    between atoms: O4_1  and  C4_2 
REMARK    2  A    between atoms: C3_3  and  O3_4 
REMARK    3  A    between atoms: C5_8  and  C6_9 
REMARK    4  A    between atoms: C6_9  and  O6_10 
ROOT
ATOM      1  C4  IFM d   1      20.710 -17.718  24.944  0.00  0.00     0.069 C 
ATOM      2  C3  IFM d   1      21.648 -18.731  25.566  0.00  0.00     0.084 C 
ATOM      3  C2  IFM d   1      22.065 -19.800  24.471  0.00  0.00     0.107 C 
ATOM      4  N   IFM d   1      20.858 -20.498  23.902  0.00  0.00    -0.072 N 
ATOM      5  C1  IFM d   1      19.893 -19.477  23.307  0.00  0.00     0.089 C 
ATOM      6  C5  IFM d   1      19.464 -18.574  24.422  0.00  0.00     0.017 C 
ATOM      7  H2  IFM d   1      21.191 -17.191  24.107  0.00  0.00     0.087 H 
ATOM      8  H3  IFM d   1      21.151 -19.221  26.416  0.00  0.00     0.089 H 
ATOM      9  H5  IFM d   1      22.727 -20.547  24.933  0.00  0.00     0.079 H 
ATOM     10  H6  IFM d   1      22.601 -19.289  23.657  0.00  0.00     0.079 H 
ATOM     11  H7  IFM d   1      20.392 -21.009  24.635  0.00  0.00     0.277 HD
ATOM     12  H8  IFM d   1      21.152 -21.138  23.181  0.00  0.00     0.277 HD
ATOM     13  H9  IFM d   1      19.019 -19.989  22.879  0.00  0.00     0.076 H 
ATOM     14  H10 IFM d   1      20.397 -18.894  22.522  0.00  0.00     0.076 H 
ATOM     15  H11 IFM d   1      19.019 -19.148  25.248  0.00  0.00     0.049 H 
ENDROOT
BRANCH   6  16
ATOM     16  C6  IFM d   1      18.414 -17.587  23.775  0.00  0.00     0.024 C 
ATOM     17  H12 IFM d   1      18.137 -16.832  24.525  0.00  0.00     0.074 H 
ATOM     18  H13 IFM d   1      17.523 -18.164  23.489  0.00  0.00     0.074 H 
BRANCH  16  19
ATOM     19  O6  IFM d   1      18.932 -16.883  22.563  0.00  0.00    -0.400 OA
ATOM     20  H14 IFM d   1      19.698 -16.372  22.798  0.00  0.00     0.209 HD
ENDBRANCH  16  19
ENDBRANCH   6  16
BRANCH   1  21
ATOM     21  O4  IFM d   1      20.337 -16.779  25.957  0.00  0.00    -0.392 OA
ATOM     22  H1  IFM d   1      19.747 -16.133  25.587  0.00  0.00     0.210 HD
ENDBRANCH   1  21
BRANCH   2  23
ATOM     23  O3  IFM d   1      22.862 -18.116  25.992  0.00  0.00    -0.391 OA
ATOM     24  H4  IFM d   1      23.430 -18.773  26.377  0.00  0.00     0.210 HD
ENDBRANCH   2  23
TORSDOF 4
