REMARK  5 active torsions:
REMARK  status: ('A' for Active; 'I' for Inactive)
REMARK    1  A    between atoms: C2_2  and  O2_3 
REMARK    2  A    between atoms: C3_4  and  O3_5 
REMARK    3  A    between atoms: C4_6  and  O4_7 
REMARK    4  A    between atoms: C5_8  and  C6_10 
REMARK    5  A    between atoms: C6_10  and  O6_11 
ROOT
ATOM      1  C1  NOJ d   1     -20.887 -20.358 -23.440  0.00  0.00     0.108 C 
ATOM      2  C2  NOJ d   1     -22.033 -19.777 -24.258  0.00  0.00     0.086 C 
ATOM      3  C3  NOJ d   1     -21.551 -18.871 -25.387  0.00  0.00     0.088 C 
ATOM      4  C4  NOJ d   1     -20.555 -17.849 -24.834  0.00  0.00     0.092 C 
ATOM      5  C5  NOJ d   1     -19.358 -18.573 -24.243  0.00  0.00     0.149 C 
ATOM      6  N5  NOJ d   1     -19.889 -19.323 -23.088  0.00  0.00    -0.064 N 
ATOM      7  H1  NOJ d   1     -20.392 -21.145 -24.028  0.00  0.00     0.079 H 
ATOM      8  H2  NOJ d   1     -21.293 -20.792 -22.514  0.00  0.00     0.079 H 
ATOM      9  H3  NOJ d   1     -22.674 -19.191 -23.583  0.00  0.00     0.089 H 
ATOM     10  H5  NOJ d   1     -21.071 -19.468 -26.176  0.00  0.00     0.091 H 
ATOM     11  H7  NOJ d   1     -21.050 -17.283 -24.031  0.00  0.00     0.090 H 
ATOM     12  H9  NOJ d   1     -18.903 -19.241 -24.989  0.00  0.00     0.091 H 
ATOM     13  H10 NOJ d   1     -19.117 -19.774 -22.623  0.00  0.00     0.277 HD
ATOM     14  H11 NOJ d   1     -20.324 -18.667 -22.458  0.00  0.00     0.277 HD
ENDROOT
BRANCH   5  15
ATOM     15  C6  NOJ d   1     -18.332 -17.624 -23.696  0.00  0.00     0.046 C 
ATOM     16  H12 NOJ d   1     -17.954 -16.986 -24.508  0.00  0.00     0.077 H 
ATOM     17  H13 NOJ d   1     -17.499 -18.196 -23.262  0.00  0.00     0.077 H 
BRANCH  15  18
ATOM     18  O6  NOJ d   1     -18.920 -16.811 -22.692  0.00  0.00    -0.399 OA
ATOM     19  H14 NOJ d   1     -19.639 -16.316 -23.067  0.00  0.00     0.209 HD
ENDBRANCH  15  18
ENDBRANCH   5  15
BRANCH   4  20
ATOM     20  O4  NOJ d   1     -20.151 -16.930 -25.834  0.00  0.00    -0.391 OA
ATOM     21  H8  NOJ d   1     -19.535 -16.310 -25.462  0.00  0.00     0.210 HD
ENDBRANCH   4  20
BRANCH   3  22
ATOM     22  O3  NOJ d   1     -22.705 -18.192 -25.910  0.00  0.00    -0.390 OA
ATOM     23  H6  NOJ d   1     -23.326 -18.832 -26.237  0.00  0.00     0.210 HD
ENDBRANCH   3  22
BRANCH   2  24
ATOM     24  O2  NOJ d   1     -22.808 -20.831 -24.851  0.00  0.00    -0.391 OA
ATOM     25  H4  NOJ d   1     -22.252 -21.349 -25.421  0.00  0.00     0.210 HD
ENDBRANCH   2  24
TORSDOF 5
