REMARK  4 active torsions:
REMARK  status: ('A' for Active; 'I' for Inactive)
REMARK    1  A    between atoms: C2_2  and  O2_7 
REMARK    2  A    between atoms: C3_3  and  O3_8 
REMARK    3  A    between atoms: C4_4  and  O4_9 
REMARK    4  A    between atoms: C6_6  and  O6_10 
ROOT
ATOM      1  C1  CTS d   1      20.958 -20.216  23.360  0.00  0.00     0.110 C 
ATOM      2  C2  CTS d   1      22.103 -19.686  24.213  0.00  0.00     0.086 C 
ATOM      3  C3  CTS d   1      21.633 -18.770  25.324  0.00  0.00     0.088 C 
ATOM      4  C4  CTS d   1      20.729 -17.674  24.762  0.00  0.00     0.092 C 
ATOM      5  C5  CTS d   1      19.583 -18.422  24.043  0.00  0.00     0.155 C 
ATOM      6  C6  CTS d   1      18.603 -17.536  23.348  0.00  0.00     0.067 C 
ATOM      7  N   CTS d   1      20.190 -19.087  22.877  0.00  0.00    -0.059 N 
ATOM      8  C7  CTS d   1      17.938 -18.531  22.387  0.00  0.00    -0.016 C 
ATOM      9  C8  CTS d   1      19.050 -19.543  22.051  0.00  0.00     0.086 C 
ATOM     10  H1  CTS d   1      20.315 -20.871  23.966  0.00  0.00     0.080 H 
ATOM     11  H2  CTS d   1      21.361 -20.784  22.508  0.00  0.00     0.080 H 
ATOM     12  H3  CTS d   1      22.812 -19.150  23.565  0.00  0.00     0.089 H 
ATOM     13  H4  CTS d   1      21.056 -19.349  26.061  0.00  0.00     0.091 H 
ATOM     14  H5  CTS d   1      21.291 -17.073  24.032  0.00  0.00     0.090 H 
ATOM     15  H6  CTS d   1      19.084 -19.117  24.734  0.00  0.00     0.092 H 
ATOM     16  H7  CTS d   1      17.885 -17.065  24.035  0.00  0.00     0.086 H 
ATOM     17  H12 CTS d   1      20.781 -18.456  22.358  0.00  0.00     0.280 HD
ATOM     18  H13 CTS d   1      17.590 -18.020  21.477  0.00  0.00     0.039 H 
ATOM     19  H14 CTS d   1      17.089 -19.033  22.873  0.00  0.00     0.039 H 
ATOM     20  H15 CTS d   1      18.749 -20.565  22.326  0.00  0.00     0.076 H 
ATOM     21  H16 CTS d   1      19.302 -19.510  20.981  0.00  0.00     0.076 H 
ENDROOT
BRANCH   2  22
ATOM     22  O2  CTS d   1      22.746 -20.762  24.861  0.00  0.00    -0.391 OA
ATOM     23  H8  CTS d   1      22.128 -21.200  25.435  0.00  0.00     0.210 HD
ENDBRANCH   2  22
BRANCH   3  24
ATOM     24  O3  CTS d   1      22.791 -18.269  25.940  0.00  0.00    -0.390 OA
ATOM     25  H9  CTS d   1      23.312 -18.992  26.269  0.00  0.00     0.210 HD
ENDBRANCH   3  24
BRANCH   4  26
ATOM     26  O4  CTS d   1      20.242 -16.798  25.781  0.00  0.00    -0.391 OA
ATOM     27  H10 CTS d   1      19.664 -16.152  25.392  0.00  0.00     0.210 HD
ENDBRANCH   4  26
BRANCH   6  28
ATOM     28  O6  CTS d   1      19.337 -16.546  22.598  0.00  0.00    -0.393 OA
ATOM     29  H11 CTS d   1      19.874 -16.035  23.192  0.00  0.00     0.210 HD
ENDBRANCH   6  28
TORSDOF 4
