REMARK  4 active torsions:
REMARK  status: ('A' for Active; 'I' for Inactive)
REMARK    1  A    between atoms: NAM_13  and  CAP_16 
REMARK    2  A    between atoms: CAQ_17  and  NAM_13 
REMARK    3  A    between atoms: CAR_18  and  CAN_14 
REMARK    4  A    between atoms: CAO_15  and  CAS_19 
ROOT
ATOM      1  NAM 17C d   1       7.489   1.879  29.117  0.00  0.00    -0.354 N 
ATOM      2  H   17C d   1       6.910   2.485  28.519  0.00  0.00     0.166 HD
ENDROOT
BRANCH   1   3
ATOM      3  CAP 17C d   1       8.677   1.467  28.566  0.00  0.00     0.049 A 
ATOM      4  CAI 17C d   1       9.501   0.519  29.180  0.00  0.00    -0.056 A 
ATOM      5  CAE 17C d   1      10.705   0.115  28.614  0.00  0.00    -0.081 A 
ATOM      6  H   17C d   1       9.192   0.086  30.125  0.00  0.00     0.086 H 
ATOM      7  CAG 17C d   1      11.101   0.647  27.395  0.00  0.00    -0.082 A 
ATOM      8  H   17C d   1      11.330  -0.611  29.122  0.00  0.00     0.083 H 
ATOM      9  CAK 17C d   1      10.290   1.577  26.755  0.00  0.00    -0.064 A 
ATOM     10  H   17C d   1      12.038   0.339  26.944  0.00  0.00     0.083 H 
ATOM     11  CAR 17C d   1       9.089   1.984  27.332  0.00  0.00     0.067 A 
ATOM     12  H   17C d   1      10.594   1.989  25.800  0.00  0.00     0.085 H 
BRANCH  11  13
ATOM     13  CAN 17C d   1       8.279   2.990  26.569  0.00  0.00     0.211 C 
ATOM     14  OAA 17C d   1       7.374   3.646  27.131  0.00  0.00    -0.644 OA
ATOM     15  OAC 17C d   1       8.527   3.156  25.352  0.00  0.00    -0.644 OA
ENDBRANCH  11  13
ENDBRANCH   1   3
BRANCH   1  16
ATOM     16  CAQ 17C d   1       6.965   1.596  30.354  0.00  0.00     0.049 A 
ATOM     17  CAJ 17C d   1       7.746   1.406  31.493  0.00  0.00    -0.056 A 
ATOM     18  CAF 17C d   1       7.158   1.121  32.718  0.00  0.00    -0.081 A 
ATOM     19  H   17C d   1       8.825   1.482  31.421  0.00  0.00     0.086 H 
ATOM     20  CAH 17C d   1       5.774   1.036  32.827  0.00  0.00    -0.082 A 
ATOM     21  H   17C d   1       7.779   0.964  33.592  0.00  0.00     0.083 H 
ATOM     22  CAL 17C d   1       4.977   1.243  31.702  0.00  0.00    -0.064 A 
ATOM     23  H   17C d   1       5.317   0.810  33.783  0.00  0.00     0.083 H 
ATOM     24  CAS 17C d   1       5.579   1.523  30.479  0.00  0.00     0.067 A 
ATOM     25  H   17C d   1       3.897   1.186  31.779  0.00  0.00     0.085 H 
BRANCH  24  26
ATOM     26  CAO 17C d   1       4.703   1.745  29.285  0.00  0.00     0.211 C 
ATOM     27  OAB 17C d   1       3.583   1.173  29.205  0.00  0.00    -0.644 OA
ATOM     28  OAD 17C d   1       5.117   2.524  28.398  0.00  0.00    -0.644 OA
ENDBRANCH  24  26
ENDBRANCH   1  16
TORSDOF 4
