REMARK  5 active torsions:
REMARK  status: ('A' for Active; 'I' for Inactive)
REMARK    1  A    between atoms: N_1  and  CA_2 
REMARK    2  A    between atoms: CA_2  and  C_3 
REMARK    3  A    between atoms: CA_2  and  CB_5 
REMARK    4  A    between atoms: CB_5  and  CG_6 
REMARK    5  A    between atoms: CG_6  and  CD_7 
ROOT
ATOM      1  CA  GLU d   1       3.377  50.566  -7.690  0.00  0.00     0.183 C 
ATOM      2  H4  GLU d   1       4.089  51.097  -7.041  0.00  0.00     0.101 H 
ENDROOT
BRANCH   1   3
ATOM      3  N   GLU d   1       3.667  49.132  -7.602  0.00  0.00    -0.065 N 
ATOM      4  H1  GLU d   1       4.604  48.958  -7.931  0.00  0.00     0.275 HD
ATOM      5  H2  GLU d   1       3.010  48.621  -8.171  0.00  0.00     0.275 HD
ATOM      6  H3  GLU d   1       3.587  48.831  -6.643  0.00  0.00     0.275 HD
ENDBRANCH   1   3
BRANCH   1   7
ATOM      7  C   GLU d   1       1.961  50.849  -7.195  0.00  0.00     0.204 C 
ATOM      8  O   GLU d   1       1.166  49.886  -7.041  0.00  0.00    -0.646 OA
ATOM      9  OXT GLU d   1       1.640  52.034  -6.943  0.00  0.00    -0.646 OA
ENDBRANCH   1   7
BRANCH   1  10
ATOM     10  CB  GLU d   1       3.530  51.111  -9.113  0.00  0.00    -0.020 C 
ATOM     11  H5  GLU d   1       3.325  52.191  -9.082  0.00  0.00     0.037 H 
ATOM     12  H6  GLU d   1       2.780  50.613  -9.745  0.00  0.00     0.037 H 
BRANCH  10  13
ATOM     13  CG  GLU d   1       4.901  50.914  -9.770  0.00  0.00     0.018 C 
ATOM     14  H7  GLU d   1       4.806  51.172 -10.835  0.00  0.00     0.049 H 
ATOM     15  H8  GLU d   1       5.173  49.853  -9.673  0.00  0.00     0.049 H 
BRANCH  13  16
ATOM     16  CD  GLU d   1       6.041  51.747  -9.185  0.00  0.00     0.172 C 
ATOM     17  OE1 GLU d   1       5.773  52.601  -8.342  0.00  0.00    -0.648 OA
ATOM     18  OE2 GLU d   1       7.201  51.580  -9.646  0.00  0.00    -0.648 OA
ENDBRANCH  13  16
ENDBRANCH  10  13
ENDBRANCH   1  10
TORSDOF 5
