REMARK  4 active torsions:
REMARK  status: ('A' for Active; 'I' for Inactive)
REMARK    1  A    between atoms: N_1  and  CA_2 
REMARK    2  A    between atoms: CA_2  and  C_3 
REMARK    3  A    between atoms: CA_2  and  CB_5 
REMARK    4  A    between atoms: CB_5  and  CG_6 
ROOT
ATOM      1  CA  ASP d   1       2.947  50.723  -7.964  0.00  0.00     0.191 C 
ATOM      2  H4  ASP d   1       3.592  51.380  -7.362  0.00  0.00     0.102 H 
ENDROOT
BRANCH   1   3
ATOM      3  N   ASP d   1       3.421  49.324  -7.798  0.00  0.00    -0.065 N 
ATOM      4  H1  ASP d   1       4.372  49.251  -8.123  0.00  0.00     0.275 HD
ATOM      5  H2  ASP d   1       2.834  48.705  -8.335  0.00  0.00     0.275 HD
ATOM      6  H3  ASP d   1       3.378  49.068  -6.824  0.00  0.00     0.275 HD
ENDBRANCH   1   3
BRANCH   1   7
ATOM      7  C   ASP d   1       1.524  50.859  -7.485  0.00  0.00     0.205 C 
ATOM      8  O   ASP d   1       0.788  49.851  -7.281  0.00  0.00    -0.646 OA
ATOM      9  OXT ASP d   1       1.072  51.998  -7.304  0.00  0.00    -0.646 OA
ENDBRANCH   1   7
BRANCH   1  10
ATOM     10  CB  ASP d   1       3.011  51.181  -9.434  0.00  0.00     0.051 C 
ATOM     11  H5  ASP d   1       2.341  52.044  -9.563  0.00  0.00     0.053 H 
ATOM     12  H6  ASP d   1       2.671  50.354 -10.075  0.00  0.00     0.053 H 
BRANCH  10  13
ATOM     13  CG  ASP d   1       4.401  51.583  -9.863  0.00  0.00     0.175 C 
ATOM     14  OD1 ASP d   1       4.738  51.393 -11.075  0.00  0.00    -0.648 OA
ATOM     15  OD2 ASP d   1       5.162  52.103  -9.008  0.00  0.00    -0.648 OA
ENDBRANCH  10  13
ENDBRANCH   1  10
TORSDOF 4
