REMARK  4 active torsions:
REMARK  status: ('A' for Active; 'I' for Inactive)
REMARK    1  A    between atoms: N_1  and  CA_2 
REMARK    2  A    between atoms: CA_2  and  C_3 
REMARK    3  A    between atoms: CA_2  and  CB_5 
REMARK    4  A    between atoms: CB_5  and  OG_6 
ROOT
ATOM      1  CA  SER d   1      -3.544  21.028  -7.939  0.00  0.00     0.202 C 
ATOM      2  H4  SER d   1      -4.160  20.462  -7.225  0.00  0.00     0.104 H 
ENDROOT
BRANCH   1   3
ATOM      3  N   SER d   1      -3.931  22.484  -7.826  0.00  0.00    -0.063 N 
ATOM      4  H1  SER d   1      -4.901  22.594  -8.078  0.00  0.00     0.275 HD
ATOM      5  H2  SER d   1      -3.358  23.033  -8.447  0.00  0.00     0.275 HD
ATOM      6  H3  SER d   1      -3.793  22.796  -6.877  0.00  0.00     0.275 HD
ENDBRANCH   1   3
BRANCH   1   7
ATOM      7  C   SER d   1      -2.098  20.831  -7.568  0.00  0.00     0.206 C 
ATOM      8  O   SER d   1      -1.307  21.822  -7.479  0.00  0.00    -0.646 OA
ATOM      9  OXT SER d   1      -1.717  19.664  -7.357  0.00  0.00    -0.646 OA
ENDBRANCH   1   7
BRANCH   1  10
ATOM     10  CB  SER d   1      -3.810  20.463  -9.340  0.00  0.00     0.053 C 
ATOM     11  H5  SER d   1      -3.285  19.502  -9.446  0.00  0.00     0.077 H 
ATOM     12  H6  SER d   1      -3.432  21.172 -10.091  0.00  0.00     0.077 H 
BRANCH  10  13
ATOM     13  OG  SER d   1      -5.194  20.259  -9.552  0.00  0.00    -0.398 OA
ATOM     14  H7  SER d   1      -5.652  21.087  -9.465  0.00  0.00     0.209 HD
ENDBRANCH  10  13
ENDBRANCH   1  10
TORSDOF 4
