REMARK  3 active torsions:
REMARK  status: ('A' for Active; 'I' for Inactive)
REMARK    1  A    between atoms: N_1  and  CA_2 
REMARK    2  A    between atoms: CA_2  and  C_3 
REMARK    3  A    between atoms: CA_2  and  CB_5 
ROOT
ATOM      1  CA  ALA d   1       3.340  50.522  -7.663  0.00  0.00     0.179 C 
ATOM      2  H4  ALA d   1       4.043  51.091  -7.037  0.00  0.00     0.100 H 
ENDROOT
BRANCH   1   3
ATOM      3  N   ALA d   1       3.678  49.099  -7.562  0.00  0.00    -0.066 N 
ATOM      4  H1  ALA d   1       4.615  48.951  -7.902  0.00  0.00     0.275 HD
ATOM      5  H2  ALA d   1       3.031  48.560  -8.116  0.00  0.00     0.275 HD
ATOM      6  H3  ALA d   1       3.620  48.807  -6.599  0.00  0.00     0.275 HD
ENDBRANCH   1   3
BRANCH   1   7
ATOM      7  C   ALA d   1       1.946  50.785  -7.165  0.00  0.00     0.204 C 
ATOM      8  O   ALA d   1       1.172  49.813  -6.974  0.00  0.00    -0.646 OA
ATOM      9  OXT ALA d   1       1.549  51.938  -6.944  0.00  0.00    -0.646 OA
ENDBRANCH   1   7
BRANCH   1  10
ATOM     10  CB  ALA d   1       3.488  50.989  -9.099  0.00  0.00    -0.040 C 
ATOM     11  H5  ALA d   1       3.233  52.057  -9.165  0.00  0.00     0.030 H 
ATOM     12  H6  ALA d   1       2.812  50.410  -9.745  0.00  0.00     0.030 H 
ATOM     13  H7  ALA d   1       4.527  50.839  -9.428  0.00  0.00     0.030 H 
ENDBRANCH   1  10
TORSDOF 3
