REMARK  6 active torsions:
REMARK  status: ('A' for Active; 'I' for Inactive)
REMARK    1  A    between atoms: N_1  and  CA_2 
REMARK    2  A    between atoms: CA_2  and  C_3 
REMARK    3  A    between atoms: CA_2  and  CB_5 
REMARK    4  A    between atoms: CB_5  and  CG_6 
REMARK    5  A    between atoms: CG_6  and  SD_7 
REMARK    6  A    between atoms: SD_7  and  CE_8 
ROOT
ATOM      1  CB  MET d   1       3.590  51.380  -8.746  0.00  0.00    -0.021 C 
ATOM      2  H5  MET d   1       2.994  52.303  -8.793  0.00  0.00     0.037 H 
ATOM      3  H6  MET d   1       3.349  50.743  -9.610  0.00  0.00     0.037 H 
ENDROOT
BRANCH   1   4
ATOM      4  CA  MET d   1       3.230  50.625  -7.461  0.00  0.00     0.183 C 
ATOM      5  H4  MET d   1       3.837  51.043  -6.644  0.00  0.00     0.101 H 
BRANCH   4   6
ATOM      6  N   MET d   1       3.526  49.179  -7.545  0.00  0.00    -0.065 N 
ATOM      7  H1  MET d   1       4.501  49.048  -7.765  0.00  0.00     0.275 HD
ATOM      8  H2  MET d   1       2.960  48.761  -8.267  0.00  0.00     0.275 HD
ATOM      9  H3  MET d   1       3.319  48.742  -6.661  0.00  0.00     0.275 HD
ENDBRANCH   4   6
BRANCH   4  10
ATOM     10  C   MET d   1       1.778  50.849  -7.133  0.00  0.00     0.204 C 
ATOM     11  O   MET d   1       0.970  49.879  -7.042  0.00  0.00    -0.646 OA
ATOM     12  OXT MET d   1       1.334  51.990  -6.957  0.00  0.00    -0.646 OA
ENDBRANCH   4  10
ENDBRANCH   1   4
BRANCH   1  13
ATOM     13  CG  MET d   1       5.049  51.742  -8.804  0.00  0.00    -0.021 C 
ATOM     14  H7  MET d   1       5.298  52.131  -9.803  0.00  0.00     0.049 H 
ATOM     15  H8  MET d   1       5.663  50.854  -8.593  0.00  0.00     0.049 H 
BRANCH  13  16
ATOM     16  SD  MET d   1       5.367  53.040  -7.529  0.00  0.00    -0.173 SA
BRANCH  16  17
ATOM     17  CE  MET d   1       7.155  52.921  -7.376  0.00  0.00    -0.035 C 
ATOM     18  H9  MET d   1       7.509  53.651  -6.633  0.00  0.00     0.041 H 
ATOM     19  H10 MET d   1       7.621  53.133  -8.349  0.00  0.00     0.041 H 
ATOM     20  H11 MET d   1       7.429  51.906  -7.052  0.00  0.00     0.041 H 
ENDBRANCH  16  17
ENDBRANCH  13  16
ENDBRANCH   1  13
TORSDOF 6
