REMARK  4 active torsions:
REMARK  status: ('A' for Active; 'I' for Inactive)
REMARK    1  A    between atoms: N_1  and  CA_2 
REMARK    2  A    between atoms: CA_2  and  C_3 
REMARK    3  A    between atoms: CA_2  and  CB_5 
REMARK    4  A    between atoms: CB_5  and  CG_6 
ROOT
ATOM      1  CB  PHE d   1       2.838  51.206  -9.320  0.00  0.00    -0.005 C 
ATOM      2  H5  PHE d   1       2.425  52.224  -9.363  0.00  0.00     0.044 H 
ATOM      3  H6  PHE d   1       2.169  50.516  -9.855  0.00  0.00     0.044 H 
ENDROOT
BRANCH   1   4
ATOM      4  CA  PHE d   1       2.912  50.775  -7.862  0.00  0.00     0.186 C 
ATOM      5  H4  PHE d   1       3.609  51.432  -7.321  0.00  0.00     0.101 H 
BRANCH   4   6
ATOM      6  N   PHE d   1       3.381  49.359  -7.733  0.00  0.00    -0.065 N 
ATOM      7  H1  PHE d   1       4.306  49.275  -8.124  0.00  0.00     0.275 HD
ATOM      8  H2  PHE d   1       2.750  48.749  -8.229  0.00  0.00     0.275 HD
ATOM      9  H3  PHE d   1       3.402  49.099  -6.759  0.00  0.00     0.275 HD
ENDBRANCH   4   6
BRANCH   4  10
ATOM     10  C   PHE d   1       1.541  50.911  -7.286  0.00  0.00     0.204 C 
ATOM     11  O   PHE d   1       0.850  49.890  -7.101  0.00  0.00    -0.646 OA
ATOM     12  OXT PHE d   1       1.139  52.064  -7.046  0.00  0.00    -0.646 OA
ENDBRANCH   4  10
ENDBRANCH   1   4
BRANCH   1  13
ATOM     13  CG  PHE d   1       4.167  51.204 -10.004  0.00  0.00    -0.056 A 
ATOM     14  CD1 PHE d   1       5.111  52.184  -9.709  0.00  0.00    -0.077 A 
ATOM     15  CE1 PHE d   1       6.369  52.171 -10.344  0.00  0.00    -0.082 A 
ATOM     16  H7  PHE d   1       4.878  52.959  -8.989  0.00  0.00     0.084 H 
ATOM     17  CZ  PHE d   1       6.692  51.147 -11.269  0.00  0.00    -0.083 A 
ATOM     18  H9  PHE d   1       7.093  52.947 -10.124  0.00  0.00     0.083 H 
ATOM     19  CE2 PHE d   1       5.728  50.178 -11.585  0.00  0.00    -0.082 A 
ATOM     20  H11 PHE d   1       7.674  51.113 -11.727  0.00  0.00     0.083 H 
ATOM     21  CD2 PHE d   1       4.482  50.211 -10.935  0.00  0.00    -0.077 A 
ATOM     22  H10 PHE d   1       5.942  49.412 -12.322  0.00  0.00     0.083 H 
ATOM     23  H8  PHE d   1       3.747  49.447 -11.162  0.00  0.00     0.084 H 
ENDBRANCH   1  13
TORSDOF 4
