REMARK  4 active torsions:
REMARK  status: ('A' for Active; 'I' for Inactive)
REMARK    1  A    between atoms: C1_1  and  C2_4 
REMARK    2  A    between atoms: C2_4  and  O2_5 
REMARK    3  A    between atoms: C2_4  and  C3_6 
REMARK    4  A    between atoms: C3_6  and  C4_7 
ROOT
ATOM      1  C2  LMR d   1      96.720 -21.092  51.992  0.00  0.00     0.128 C 
ATOM      2  H1  LMR d   1      96.613 -22.109  51.586  0.00  0.00     0.100 H 
ENDROOT
BRANCH   1   3
ATOM      3  C1  LMR d   1      95.661 -20.891  53.038  0.00  0.00     0.203 C 
ATOM      4  O1A LMR d   1      94.690 -20.108  52.865  0.00  0.00    -0.646 OA
ATOM      5  O1B LMR d   1      95.755 -21.513  54.116  0.00  0.00    -0.646 OA
ENDBRANCH   1   3
BRANCH   1   6
ATOM      6  O2  LMR d   1      96.573 -20.178  50.928  0.00  0.00    -0.384 OA
ATOM      7  H2  LMR d   1      96.643 -19.291  51.262  0.00  0.00     0.210 HD
ENDBRANCH   1   6
BRANCH   1   8
ATOM      8  C3  LMR d   1      98.111 -20.969  52.621  0.00  0.00     0.049 C 
ATOM      9  H3  LMR d   1      98.865 -20.988  51.821  0.00  0.00     0.053 H 
ATOM     10  H4  LMR d   1      98.272 -21.822  53.297  0.00  0.00     0.053 H 
BRANCH   8  11
ATOM     11  C4  LMR d   1      98.267 -19.688  53.407  0.00  0.00     0.175 C 
ATOM     12  O4A LMR d   1      99.317 -19.457  54.061  0.00  0.00    -0.648 OA
ATOM     13  O4B LMR d   1      97.348 -18.843  53.424  0.00  0.00    -0.648 OA
ENDBRANCH   8  11
ENDBRANCH   1   8
TORSDOF 4
