REMARK  4 active torsions:
REMARK  status: ('A' for Active; 'I' for Inactive)
REMARK    1  A    between atoms: C1_1  and  C2_4 
REMARK    2  A    between atoms: C2_4  and  O2_5 
REMARK    3  A    between atoms: C2_4  and  C3_6 
REMARK    4  A    between atoms: C3_6  and  C4_7 
ROOT
ATOM      1  C2  LMR d   1      97.100 -21.058  52.111  0.00  0.00     0.128 C 
ATOM      2  H1  LMR d   1      97.758 -21.905  51.868  0.00  0.00     0.100 H 
ENDROOT
BRANCH   1   3
ATOM      3  C1  LMR d   1      95.703 -21.542  52.272  0.00  0.00     0.203 C 
ATOM      4  O1A LMR d   1      95.443 -22.745  52.002  0.00  0.00    -0.646 OA
ATOM      5  O1B LMR d   1      94.808 -20.738  52.653  0.00  0.00    -0.646 OA
ENDBRANCH   1   3
BRANCH   1   6
ATOM      6  O2  LMR d   1      97.141 -20.126  51.046  0.00  0.00    -0.384 OA
ATOM      7  H2  LMR d   1      98.031 -19.811  50.936  0.00  0.00     0.210 HD
ENDBRANCH   1   6
BRANCH   1   8
ATOM      8  C3  LMR d   1      97.554 -20.441  53.435  0.00  0.00     0.049 C 
ATOM      9  H3  LMR d   1      97.282 -21.116  54.260  0.00  0.00     0.053 H 
ATOM     10  H4  LMR d   1      97.051 -19.472  53.573  0.00  0.00     0.053 H 
BRANCH   8  11
ATOM     11  C4  LMR d   1      99.052 -20.228  53.441  0.00  0.00     0.175 C 
ATOM     12  O4A LMR d   1      99.626 -19.510  54.290  0.00  0.00    -0.648 OA
ATOM     13  O4B LMR d   1      99.760 -20.786  52.587  0.00  0.00    -0.648 OA
ENDBRANCH   8  11
ENDBRANCH   1   8
TORSDOF 4
