REMARK  8 active torsions:
REMARK  status: ('A' for Active; 'I' for Inactive)
REMARK    1  A    between atoms: C1_1  and  C10_7 
REMARK    2  A    between atoms: C10_7  and  N11_8 
REMARK    3  A    between atoms: C14_11  and  C32_21 
REMARK    4  A    between atoms: C34_22  and  C41_27 
REMARK    5  A    between atoms: C36_24  and  O59_38 
REMARK    6  A    between atoms: C37_25  and  O54_36 
REMARK    7  A    between atoms: C44_30  and  C51_33 
REMARK    8  A    between atoms: O54_36  and  C55_37 
ROOT
ATOM      1  C1  1GE d   1       9.449  34.227  28.598  0.00  0.00     0.008 A 
ATOM      2  C2  1GE d   1       9.813  33.870  27.280  0.00  0.00    -0.067 A 
ATOM      3  C3  1GE d   1       9.248  34.545  26.190  0.00  0.00    -0.056 A 
ATOM      4  C4  1GE d   1       8.318  35.590  26.391  0.00  0.00     0.035 A 
ATOM      5  C5  1GE d   1       7.946  35.953  27.713  0.00  0.00    -0.022 A 
ATOM      6  C6  1GE d   1       8.535  35.281  28.797  0.00  0.00    -0.060 A 
ATOM      7  N13 1GE d   1       7.736  36.177  25.293  0.00  0.00    -0.380 N 
ATOM      8  C14 1GE d   1       6.915  37.382  25.400  0.00  0.00     0.041 C 
ATOM      9  C15 1GE d   1       6.101  37.507  26.718  0.00  0.00    -0.015 C 
ATOM     10  C16 1GE d   1       6.851  36.986  27.928  0.00  0.00     0.005 C 
ATOM     11  C17 1GE d   1       5.310  38.749  27.059  0.00  0.00    -0.034 C 
ATOM     12  C18 1GE d   1       6.380  39.319  27.945  0.00  0.00    -0.051 A 
ATOM     13  C19 1GE d   1       7.253  38.341  28.464  0.00  0.00    -0.043 A 
ATOM     14  C24 1GE d   1       6.560  40.685  28.254  0.00  0.00    -0.076 A 
ATOM     15  C25 1GE d   1       7.624  41.046  29.105  0.00  0.00    -0.082 A 
ATOM     16  C26 1GE d   1       8.496  40.072  29.636  0.00  0.00    -0.082 A 
ATOM     17  C27 1GE d   1       8.317  38.709  29.316  0.00  0.00    -0.076 A 
ATOM     18  H1  1GE d   1      10.529  33.074  27.112  0.00  0.00     0.085 H 
ATOM     19  H2  1GE d   1       9.527  34.263  25.181  0.00  0.00     0.087 H 
ATOM     20  H3  1GE d   1       8.281  35.580  29.808  0.00  0.00     0.086 H 
ATOM     21  H8  1GE d   1       7.883  35.755  24.365  0.00  0.00     0.160 HD
ATOM     22  H9  1GE d   1       7.604  38.238  25.351  0.00  0.00     0.080 H 
ATOM     23  H10 1GE d   1       5.305  36.764  26.561  0.00  0.00     0.045 H 
ATOM     24  H11 1GE d   1       6.140  36.514  28.622  0.00  0.00     0.055 H 
ATOM     25  H12 1GE d   1       4.374  38.532  27.595  0.00  0.00     0.040 H 
ATOM     26  H13 1GE d   1       5.093  39.378  26.183  0.00  0.00     0.040 H 
ATOM     27  H14 1GE d   1       5.896  41.438  27.846  0.00  0.00     0.084 H 
ATOM     28  H15 1GE d   1       7.775  42.090  29.356  0.00  0.00     0.083 H 
ATOM     29  H16 1GE d   1       9.306  40.371  30.292  0.00  0.00     0.083 H 
ATOM     30  H17 1GE d   1       8.986  37.957  29.718  0.00  0.00     0.084 H 
ENDROOT
BRANCH   8  31
ATOM     31  C32 1GE d   1       5.919  37.504  24.252  0.00  0.00    -0.021 A 
ATOM     32  C34 1GE d   1       5.787  38.735  23.542  0.00  0.00    -0.015 A 
ATOM     33  C35 1GE d   1       4.764  38.810  22.589  0.00  0.00    -0.037 A 
ATOM     34  C36 1GE d   1       3.937  37.712  22.286  0.00  0.00     0.099 A 
ATOM     35  H18 1GE d   1       4.603  39.746  22.066  0.00  0.00     0.089 H 
ATOM     36  C37 1GE d   1       4.085  36.462  22.930  0.00  0.00     0.101 A 
ATOM     37  C38 1GE d   1       5.088  36.393  23.935  0.00  0.00    -0.039 A 
ATOM     38  H19 1GE d   1       5.224  35.464  24.477  0.00  0.00     0.088 H 
BRANCH  32  39
ATOM     39  C41 1GE d   1       6.697  39.905  23.667  0.00  0.00    -0.025 A 
ATOM     40  C42 1GE d   1       6.276  41.167  24.124  0.00  0.00    -0.071 A 
ATOM     41  C43 1GE d   1       7.178  42.267  24.180  0.00  0.00    -0.066 A 
ATOM     42  H20 1GE d   1       5.248  41.304  24.439  0.00  0.00     0.084 H 
ATOM     43  C44 1GE d   1       8.534  42.131  23.780  0.00  0.00     0.040 A 
ATOM     44  H21 1GE d   1       6.823  43.228  24.535  0.00  0.00     0.085 H 
ATOM     45  C45 1GE d   1       8.953  40.860  23.333  0.00  0.00    -0.066 A 
ATOM     46  C46 1GE d   1       8.042  39.771  23.285  0.00  0.00    -0.071 A 
ATOM     47  H22 1GE d   1       9.981  40.713  23.023  0.00  0.00     0.085 H 
ATOM     48  H23 1GE d   1       8.396  38.806  22.942  0.00  0.00     0.084 H 
BRANCH  43  49
ATOM     49  C51 1GE d   1       9.480  43.250  23.841  0.00  0.00     0.209 C 
ATOM     50  O52 1GE d   1       9.062  44.298  24.589  0.00  0.00    -0.644 OA
ATOM     51  O53 1GE d   1      10.535  43.199  23.277  0.00  0.00    -0.644 OA
ENDBRANCH  43  49
ENDBRANCH  32  39
BRANCH  34  52
ATOM     52  O59 1GE d   1       2.975  37.864  21.309  0.00  0.00    -0.358 OA
ATOM     53  H27 1GE d   1       3.001  38.753  20.976  0.00  0.00     0.217 HD
ENDBRANCH  34  52
BRANCH  36  54
ATOM     54  O54 1GE d   1       3.267  35.426  22.501  0.00  0.00    -0.353 OA
BRANCH  54  55
ATOM     55  C55 1GE d   1       3.397  34.184  23.171  0.00  0.00     0.010 C 
ATOM     56  H24 1GE d   1       2.696  33.457  22.735  0.00  0.00     0.066 H 
ATOM     57  H25 1GE d   1       3.169  34.318  24.239  0.00  0.00     0.066 H 
ATOM     58  H26 1GE d   1       4.427  33.813  23.059  0.00  0.00     0.066 H 
ENDBRANCH  54  55
ENDBRANCH  36  54
ENDBRANCH   8  31
BRANCH   1  59
ATOM     59  C10 1GE d   1       9.968  33.493  29.761  0.00  0.00     0.102 C 
ATOM     60  N12 1GE d   1       9.882  34.084  30.984  0.00  0.00    -0.385 N 
ATOM     61  H6  1GE d   1       9.467  35.022  31.075  0.00  0.00     0.157 HD
ATOM     62  H7  1GE d   1      10.232  33.593  31.819  0.00  0.00     0.157 HD
BRANCH  59  63
ATOM     63  N11 1GE d   1      10.508  32.276  29.651  0.00  0.00    -0.385 N 
ATOM     64  H4  1GE d   1      10.861  31.792  30.489  0.00  0.00     0.157 HD
ATOM     65  H5  1GE d   1      10.571  31.822  28.729  0.00  0.00     0.157 HD
ENDBRANCH  59  63
ENDBRANCH   1  59
TORSDOF 8
