REMARK  10 active torsions:
REMARK  status: ('A' for Active; 'I' for Inactive)
REMARK    1  A    between atoms: C1_1  and  C11_8 
REMARK    2  A    between atoms: C14_11  and  C4_4 
REMARK    3  A    between atoms: C11_8  and  N12_9 
REMARK    4  A    between atoms: N15_12  and  C14_11 
REMARK       I    between atoms: C18_13  and  N15_12 
REMARK    5  A    between atoms: C20_15  and  C18_13 
REMARK    6  A    between atoms: C22_17  and  C28_20 
REMARK    7  A    between atoms: C22_17  and  C29_21 
REMARK    8  A    between atoms: C28_20  and  C30_22 
REMARK    9  A    between atoms: C29_21  and  C36_23 
REMARK   10  A    between atoms: N48_29  and  C49_30 
ROOT
ATOM      1 CL4  1GG d   1       0.024  37.331  24.796  0.00  0.00    -0.060 Cl
ATOM      2  C20 1GG d   1       5.039  36.796  24.515  0.00  0.00     0.098 C 
ATOM      3  C21 1GG d   1       4.436  37.152  23.139  0.00  0.00    -0.025 C 
ATOM      4  C22 1GG d   1       2.891  37.138  23.287  0.00  0.00     0.007 C 
ATOM      5  C23 1GG d   1       2.695  37.007  24.792  0.00  0.00     0.065 A 
ATOM      6  N24 1GG d   1       3.885  36.812  25.405  0.00  0.00    -0.297 N 
ATOM      7  C42 1GG d   1       1.543  37.061  25.579  0.00  0.00     0.152 A 
ATOM      8  N43 1GG d   1       1.547  36.925  26.906  0.00  0.00    -0.212 NA
ATOM      9  C44 1GG d   1       2.716  36.725  27.540  0.00  0.00     0.194 A 
ATOM     10  C45 1GG d   1       3.988  36.657  26.791  0.00  0.00     0.294 A 
ATOM     11  O46 1GG d   1       5.080  36.475  27.313  0.00  0.00    -0.264 OA
ATOM     12  N48 1GG d   1       2.810  36.506  28.879  0.00  0.00    -0.366 N 
ATOM     13  H12 1GG d   1       5.288  35.729  24.416  0.00  0.00     0.088 H 
ATOM     14  H13 1GG d   1       4.748  36.410  22.389  0.00  0.00     0.038 H 
ATOM     15  H14 1GG d   1       4.774  38.152  22.828  0.00  0.00     0.038 H 
ATOM     16  H25 1GG d   1       3.707  36.148  29.237  0.00  0.00     0.161 HD
ENDROOT
BRANCH   2  17
ATOM     17  C18 1GG d   1       6.349  37.337  25.000  0.00  0.00     0.241 C 
ATOM     18  N15 1GG d   1       7.359  36.455  24.893  0.00  0.00    -0.355 N 
ATOM     19  H11 1GG d   1       7.183  35.537  24.537  0.00  0.00     0.162 HD
ATOM     20  O19 1GG d   1       6.415  38.481  25.441  0.00  0.00    -0.271 OA
BRANCH  18  21
ATOM     21  C14 1GG d   1       8.702  36.829  25.292  0.00  0.00     0.019 C 
ATOM     22  H9  1GG d   1       9.407  36.589  24.482  0.00  0.00     0.071 H 
ATOM     23  H10 1GG d   1       8.737  37.908  25.501  0.00  0.00     0.071 H 
BRANCH  21  24
ATOM     24  C4  1GG d   1       9.076  36.071  26.520  0.00  0.00    -0.040 A 
ATOM     25  C3  1GG d   1       8.601  36.481  27.775  0.00  0.00    -0.074 A 
ATOM     26  C2  1GG d   1       8.856  35.689  28.906  0.00  0.00    -0.069 A 
ATOM     27  H2  1GG d   1       8.040  37.404  27.871  0.00  0.00     0.084 H 
ATOM     28  C1  1GG d   1       9.607  34.496  28.799  0.00  0.00     0.007 A 
ATOM     29  H1  1GG d   1       8.473  35.996  29.872  0.00  0.00     0.085 H 
ATOM     30  C6  1GG d   1      10.110  34.109  27.542  0.00  0.00    -0.069 A 
ATOM     31  C5  1GG d   1       9.852  34.894  26.410  0.00  0.00    -0.074 A 
ATOM     32  H4  1GG d   1      10.697  33.203  27.450  0.00  0.00     0.085 H 
ATOM     33  H3  1GG d   1      10.249  34.598  25.446  0.00  0.00     0.084 H 
BRANCH  28  34
ATOM     34  C11 1GG d   1       9.905  33.689  29.995  0.00  0.00     0.102 C 
ATOM     35  N13 1GG d   1       9.721  34.263  31.205  0.00  0.00    -0.385 N 
ATOM     36  H7  1GG d   1       9.367  35.228  31.269  0.00  0.00     0.157 HD
ATOM     37  H8  1GG d   1       9.935  33.735  32.063  0.00  0.00     0.157 HD
BRANCH  34  38
ATOM     38  N12 1GG d   1      10.366  32.432  29.911  0.00  0.00    -0.385 N 
ATOM     39  H5  1GG d   1      10.563  31.898  30.769  0.00  0.00     0.157 HD
ATOM     40  H6  1GG d   1      10.523  32.001  28.988  0.00  0.00     0.157 HD
ENDBRANCH  34  38
ENDBRANCH  28  34
ENDBRANCH  21  24
ENDBRANCH  18  21
ENDBRANCH   2  17
BRANCH   4  41
ATOM     41  C28 1GG d   1       2.313  35.938  22.507  0.00  0.00    -0.056 C 
ATOM     42  H15 1GG d   1       2.494  36.113  21.436  0.00  0.00     0.034 H 
ATOM     43  H16 1GG d   1       1.230  35.903  22.695  0.00  0.00     0.034 H 
BRANCH  41  44
ATOM     44  C30 1GG d   1       2.899  34.562  22.866  0.00  0.00    -0.075 C 
ATOM     45  H19 1GG d   1       2.417  33.787  22.253  0.00  0.00     0.027 H 
ATOM     46  H20 1GG d   1       2.718  34.353  23.931  0.00  0.00     0.027 H 
ATOM     47  H21 1GG d   1       3.982  34.562  22.671  0.00  0.00     0.027 H 
ENDBRANCH  41  44
ENDBRANCH   4  41
BRANCH   4  48
ATOM     48  C29 1GG d   1       2.261  38.425  22.685  0.00  0.00    -0.056 C 
ATOM     49  H17 1GG d   1       1.167  38.313  22.717  0.00  0.00     0.034 H 
ATOM     50  H18 1GG d   1       2.591  38.505  21.639  0.00  0.00     0.034 H 
BRANCH  48  51
ATOM     51  C36 1GG d   1       2.622  39.736  23.395  0.00  0.00    -0.075 C 
ATOM     52  H22 1GG d   1       2.125  40.576  22.889  0.00  0.00     0.027 H 
ATOM     53  H23 1GG d   1       3.712  39.882  23.363  0.00  0.00     0.027 H 
ATOM     54  H24 1GG d   1       2.288  39.690  24.442  0.00  0.00     0.027 H 
ENDBRANCH  48  51
ENDBRANCH   4  48
BRANCH  12  55
ATOM     55  C49 1GG d   1       1.769  36.731  29.829  0.00  0.00     0.011 C 
ATOM     56  C50 1GG d   1       1.421  35.951  31.118  0.00  0.00    -0.046 C 
ATOM     57  C51 1GG d   1       1.559  37.314  31.855  0.00  0.00    -0.061 C 
ATOM     58  H27 1GG d   1       2.157  35.188  31.412  0.00  0.00     0.035 H 
ATOM     59  H28 1GG d   1       0.412  35.513  31.137  0.00  0.00     0.035 H 
ATOM     60  C52 1GG d   1       1.320  38.051  30.502  0.00  0.00    -0.046 C 
ATOM     61  H29 1GG d   1       2.551  37.490  32.296  0.00  0.00     0.033 H 
ATOM     62  H30 1GG d   1       0.783  37.498  32.613  0.00  0.00     0.033 H 
ATOM     63  H31 1GG d   1       0.276  38.340  30.308  0.00  0.00     0.035 H 
ATOM     64  H32 1GG d   1       1.979  38.913  30.320  0.00  0.00     0.035 H 
ATOM     65  H26 1GG d   1       0.934  36.492  29.154  0.00  0.00     0.072 H 
ENDBRANCH  12  55
TORSDOF 10
