REMARK  3 active torsions:
REMARK  status: ('A' for Active; 'I' for Inactive)
REMARK    1  A    between atoms: C6_8  and  C11_14 
REMARK    2  A    between atoms: C7_9  and  C10_13 
REMARK    3  A    between atoms: C10_13  and  C12_16 
ROOT
ATOM      1  C1  IKM d   1      -5.760  28.384  -1.655  0.00  0.00     0.097 C 
ATOM      2  C2  IKM d   1      -4.356  28.307   0.420  0.00  0.00    -0.076 C 
ATOM      3  C3  IKM d   1      -4.623  27.870  -0.824  0.00  0.00    -0.080 C 
ATOM      4  C4  IKM d   1      -6.142  30.109   0.119  0.00  0.00     0.144 C 
ATOM      5  C5  IKM d   1      -5.178  29.377   1.076  0.00  0.00     0.084 C 
ATOM      6  O1  IKM d   1      -6.017  28.778   2.073  0.00  0.00    -0.365 OA
ATOM      7  N2  IKM d   1      -6.409  32.016   2.787  0.00  0.00    -0.343 N 
ATOM      8  C6  IKM d   1      -6.493  30.711   3.437  0.00  0.00     0.127 A 
ATOM      9  C7  IKM d   1      -7.054  29.751   2.346  0.00  0.00     0.115 A 
ATOM     10  C8  IKM d   1      -7.210  30.623   1.075  0.00  0.00     0.086 A 
ATOM     11  C9  IKM d   1      -6.795  32.019   1.476  0.00  0.00     0.227 A 
ATOM     12  O2  IKM d   1      -6.804  33.014   0.747  0.00  0.00    -0.273 OA
ATOM     13  N1  IKM d   1      -6.738  29.150  -0.859  0.00  0.00    -0.064 N 
ATOM     14  H1  IKM d   1      -6.274  27.529  -2.118  0.00  0.00     0.081 H 
ATOM     15  H2  IKM d   1      -5.355  29.038  -2.441  0.00  0.00     0.081 H 
ATOM     16  H3  IKM d   1      -3.520  27.872   0.966  0.00  0.00     0.080 H 
ATOM     17  H4  IKM d   1      -3.979  27.102  -1.250  0.00  0.00     0.079 H 
ATOM     18  H5  IKM d   1      -5.641  30.931  -0.414  0.00  0.00     0.090 H 
ATOM     19  H6  IKM d   1      -4.498  30.108   1.537  0.00  0.00     0.093 H 
ATOM     20  H7  IKM d   1      -6.095  32.839   3.261  0.00  0.00     0.163 HD
ATOM     21  H8  IKM d   1      -5.483  30.377   3.718  0.00  0.00     0.094 H 
ATOM     22  H9  IKM d   1      -8.223  30.587   0.647  0.00  0.00     0.062 H 
ATOM     23  H12 IKM d   1      -7.307  28.494  -0.347  0.00  0.00     0.278 HD
ATOM     24  H13 IKM d   1      -7.319  29.673  -1.496  0.00  0.00     0.278 HD
ENDROOT
BRANCH   9  25
ATOM     25  C10 IKM d   1      -8.282  28.948   2.775  0.00  0.00     0.048 C 
ATOM     26  H10 IKM d   1      -9.061  29.668   3.067  0.00  0.00     0.053 H 
ATOM     27  H11 IKM d   1      -7.993  28.346   3.649  0.00  0.00     0.053 H 
BRANCH  25  28
ATOM     28  C12 IKM d   1      -8.894  28.006   1.758  0.00  0.00     0.175 C 
ATOM     29  O4  IKM d   1      -9.924  27.378   2.115  0.00  0.00    -0.648 OA
ATOM     30  O5  IKM d   1      -8.324  27.937   0.639  0.00  0.00    -0.648 OA
ENDBRANCH  25  28
ENDBRANCH   9  25
BRANCH   8  31
ATOM     31  C11 IKM d   1      -7.344  30.775   4.736  0.00  0.00     0.199 C 
ATOM     32  O3  IKM d   1      -7.193  29.833   5.566  0.00  0.00    -0.646 OA
ATOM     33  O6  IKM d   1      -8.120  31.759   4.829  0.00  0.00    -0.646 OA
ENDBRANCH   8  31
TORSDOF 3
