REMARK  6 active torsions:
REMARK  status: ('A' for Active; 'I' for Inactive)
REMARK    1  A    between atoms: C11_16  and  C13_1 
REMARK    2  A    between atoms: C13_1  and  C14_18 
REMARK    3  A    between atoms: S02_7  and  N1_6 
REMARK    4  A    between atoms: C5_10  and  S02_7 
REMARK    5  A    between atoms: C9_14  and  C8_13 
REMARK    6  A    between atoms: N10_15  and  C9_14 
REMARK       I    between atoms: N10_15  and  C11_16 
ROOT
ATOM      1  C9  1GD d   1      17.595   5.369  13.520  0.00  0.00     0.019 C 
ATOM      2  H   1GD d   1      16.768   6.044  13.255  0.00  0.00     0.071 H 
ATOM      3  H   1GD d   1      17.988   4.895  12.608  0.00  0.00     0.071 H 
ENDROOT
BRANCH   1   4
ATOM      4  C8  1GD d   1      17.015   4.269  14.380  0.00  0.00    -0.040 A 
ATOM      5  C20 1GD d   1      17.856   3.211  14.797  0.00  0.00    -0.074 A 
ATOM      6  C21 1GD d   1      17.304   2.150  15.567  0.00  0.00    -0.060 A 
ATOM      7  H   1GD d   1      18.907   3.209  14.533  0.00  0.00     0.084 H 
ATOM      8  C5  1GD d   1      15.948   2.062  15.924  0.00  0.00     0.079 A 
ATOM      9  H   1GD d   1      17.970   1.361  15.899  0.00  0.00     0.085 H 
ATOM     10  C6  1GD d   1      15.201   3.130  15.479  0.00  0.00    -0.060 A 
ATOM     11  C7  1GD d   1      15.685   4.189  14.730  0.00  0.00    -0.074 A 
ATOM     12  H   1GD d   1      14.148   3.143  15.736  0.00  0.00     0.085 H 
ATOM     13  H   1GD d   1      15.004   4.971  14.413  0.00  0.00     0.084 H 
BRANCH   8  14
ATOM     14  S02 1GD d   1      15.305   0.769  16.870  0.00  0.00     0.256 S 
ATOM     15  O3  1GD d   1      15.807   0.860  18.186  0.00  0.00    -0.201 OA
ATOM     16  O4  1GD d   1      13.879   0.786  16.715  0.00  0.00    -0.201 OA
BRANCH  14  17
ATOM     17  N1  1GD d   1      15.877  -0.604  16.133  0.00  0.00    -0.324 N 
ATOM     18  H   1GD d   1      16.858  -0.799  16.132  0.00  0.00     0.169 HD
ATOM     19  H   1GD d   1      15.241  -1.236  15.690  0.00  0.00     0.169 HD
ENDBRANCH  14  17
ENDBRANCH   8  14
ENDBRANCH   1   4
BRANCH   1  20
ATOM     20  N10 1GD d   1      18.673   6.200  14.077  0.00  0.00    -0.357 N 
ATOM     21  C11 1GD d   1      19.441   6.845  13.077  0.00  0.00     0.222 C 
ATOM     22  O12 1GD d   1      19.195   6.708  11.916  0.00  0.00    -0.273 OA
ATOM     23  H   1GD d   1      18.845   6.299  15.057  0.00  0.00     0.162 HD
BRANCH  21  24
ATOM     24  C13 1GD d   1      20.597   7.790  13.497  0.00  0.00     0.033 C 
ATOM     25  H   1GD d   1      21.460   7.600  12.843  0.00  0.00     0.054 H 
ATOM     26  H   1GD d   1      20.870   7.568  14.539  0.00  0.00     0.054 H 
BRANCH  24  27
ATOM     27  C14 1GD d   1      20.234   9.240  13.398  0.00  0.00    -0.050 A 
ATOM     28  C15 1GD d   1      20.717  10.117  14.389  0.00  0.00    -0.076 A 
ATOM     29  C16 1GD d   1      20.336  11.483  14.277  0.00  0.00    -0.082 A 
ATOM     30  H   1GD d   1      21.349   9.768  15.198  0.00  0.00     0.084 H 
ATOM     31  C17 1GD d   1      19.513  11.957  13.249  0.00  0.00    -0.083 A 
ATOM     32  H   1GD d   1      20.698  12.186  15.019  0.00  0.00     0.083 H 
ATOM     33  C18 1GD d   1      19.063  11.026  12.308  0.00  0.00    -0.082 A 
ATOM     34  H   1GD d   1      19.236  13.003  13.185  0.00  0.00     0.083 H 
ATOM     35  C19 1GD d   1      19.422   9.710  12.400  0.00  0.00    -0.076 A 
ATOM     36  H   1GD d   1      18.422  11.351  11.496  0.00  0.00     0.083 H 
ATOM     37  H   1GD d   1      19.051   9.014  11.657  0.00  0.00     0.084 H 
ENDBRANCH  24  27
ENDBRANCH  21  24
ENDBRANCH   1  20
TORSDOF 6
