REMARK  2 active torsions:
REMARK  status: ('A' for Active; 'I' for Inactive)
REMARK    1  A    between atoms: CAA_1  and  CAM_2 
REMARK    2  A    between atoms: CAO_12  and  CAP_13 
ROOT
ATOM      1  CAM AJ4 d   1       4.168 -12.167 -13.622  0.00  0.00    -0.044 A 
ATOM      2  CAJ AJ4 d   1       3.137 -12.349 -14.570  0.00  0.00    -0.011 A 
ATOM      3  CAQ AJ4 d   1       1.801 -12.348 -14.167  0.00  0.00     0.246 A 
ATOM      4  OAB AJ4 d   1       0.865 -12.526 -14.958  0.00  0.00    -0.268 OA
ATOM      5  NAL AJ4 d   1       1.497 -12.166 -12.802  0.00  0.00    -0.323 N 
ATOM      6  CAR AJ4 d   1       2.503 -11.990 -11.847  0.00  0.00     0.046 A 
ATOM      7  CAK AJ4 d   1       2.149 -11.805 -10.509  0.00  0.00    -0.045 A 
ATOM      8  CAS AJ4 d   1       3.851 -11.983 -12.246  0.00  0.00    -0.003 A 
ATOM      9  CAI AJ4 d   1       4.840 -11.774 -11.239  0.00  0.00    -0.070 A 
ATOM     10  CAH AJ4 d   1       4.470 -11.610  -9.883  0.00  0.00    -0.071 A 
ATOM     11  CAO AJ4 d   1       3.117 -11.613  -9.517  0.00  0.00    -0.021 A 
ATOM     12  H4  AJ4 d   1       3.386 -12.491 -15.621  0.00  0.00     0.092 H 
ATOM     13  H5  AJ4 d   1       0.540 -12.163 -12.511  0.00  0.00     0.169 HD
ATOM     14  H6  AJ4 d   1       1.101 -11.810 -10.233  0.00  0.00     0.088 H 
ATOM     15  H7  AJ4 d   1       5.888 -11.740 -11.516  0.00  0.00     0.085 H 
ATOM     16  H8  AJ4 d   1       5.235 -11.482  -9.126  0.00  0.00     0.084 H 
ENDROOT
BRANCH  11  17
ATOM     17  CAP AJ4 d   1       2.698 -11.482  -8.182  0.00  0.00     0.013 A 
ATOM     18  CAG AJ4 d   1       3.142 -10.399  -7.408  0.00  0.00    -0.069 A 
ATOM     19  CAE AJ4 d   1       2.740 -10.235  -6.088  0.00  0.00    -0.082 A 
ATOM     20  H9  AJ4 d   1       3.815  -9.673  -7.850  0.00  0.00     0.085 H 
ATOM     21  CAD AJ4 d   1       1.895 -11.161  -5.497  0.00  0.00    -0.080 A 
ATOM     22  H10 AJ4 d   1       3.088  -9.381  -5.519  0.00  0.00     0.083 H 
ATOM     23  CAF AJ4 d   1       1.445 -12.270  -6.235  0.00  0.00    -0.045 A 
ATOM     24  H11 AJ4 d   1       1.581 -11.030  -4.468  0.00  0.00     0.083 H 
ATOM     25  CAN AJ4 d   1       1.816 -12.446  -7.581  0.00  0.00     0.127 A 
ATOM     26  H12 AJ4 d   1       0.802 -13.001  -5.759  0.00  0.00     0.088 H 
ATOM     27  FAC AJ4 d   1       1.325 -13.560  -8.232  0.00  0.00    -0.205 F 
ENDBRANCH  11  17
BRANCH   1  28
ATOM     28  CAA AJ4 d   1       5.655 -12.162 -14.095  0.00  0.00    -0.050 C 
ATOM     29  H1  AJ4 d   1       5.694 -12.318 -15.183  0.00  0.00     0.033 H 
ATOM     30  H2  AJ4 d   1       6.204 -12.970 -13.589  0.00  0.00     0.033 H 
ATOM     31  H3  AJ4 d   1       6.116 -11.194 -13.847  0.00  0.00     0.033 H 
ENDBRANCH   1  28
TORSDOF 2
