REMARK  5 active torsions:
REMARK  status: ('A' for Active; 'I' for Inactive)
REMARK    1  A    between atoms: C1_1  and  O1_2 
REMARK    2  A    between atoms: C1_1  and  C7_13 
REMARK    3  A    between atoms: C3_5  and  O2_4 
REMARK    4  A    between atoms: C4_7  and  O3_6 
REMARK    5  A    between atoms: C5_9  and  O4_8 
ROOT
ATOM      1  C1  QIC d   1       2.161  -0.438   0.385  0.00  0.00     0.150 C 
ATOM      2  C2  QIC d   1       3.497   0.045   0.922  0.00  0.00    -0.000 C 
ATOM      3  C3  QIC d   1       3.456   0.236   2.432  0.00  0.00     0.066 C 
ATOM      4  C4  QIC d   1       3.072  -1.051   3.144  0.00  0.00     0.085 C 
ATOM      5  C5  QIC d   1       1.737  -1.568   2.624  0.00  0.00     0.066 C 
ATOM      6  C6  QIC d   1       1.779  -1.741   1.094  0.00  0.00    -0.000 C 
ATOM      7  H2  QIC d   1       3.747   1.005   0.447  0.00  0.00     0.042 H 
ATOM      8  H3  QIC d   1       4.270  -0.698   0.677  0.00  0.00     0.042 H 
ATOM      9  H5  QIC d   1       4.456   0.540   2.774  0.00  0.00     0.087 H 
ATOM     10  H7  QIC d   1       3.842  -1.812   2.950  0.00  0.00     0.090 H 
ATOM     11  H9  QIC d   1       0.956  -0.832   2.864  0.00  0.00     0.087 H 
ATOM     12  H10 QIC d   1       2.521  -2.514   0.843  0.00  0.00     0.042 H 
ATOM     13  H11 QIC d   1       0.786  -2.059   0.744  0.00  0.00     0.042 H 
ENDROOT
BRANCH   1  14
ATOM     14  O1  QIC d   1       1.158   0.574   0.596  0.00  0.00    -0.379 OA
ATOM     15  H1  QIC d   1       1.079   0.751   1.526  0.00  0.00     0.211 HD
ENDBRANCH   1  14
BRANCH   1  16
ATOM     16  C7  QIC d   1       2.297  -0.654  -1.110  0.00  0.00     0.209 C 
ATOM     17  O5  QIC d   1       1.851   0.238  -1.866  0.00  0.00    -0.646 OA
ATOM     18  O6  QIC d   1       2.851  -1.705  -1.547  0.00  0.00    -0.646 OA
ENDBRANCH   1  16
BRANCH   3  19
ATOM     19  O2  QIC d   1       2.519   1.268   2.763  0.00  0.00    -0.393 OA
ATOM     20  H4  QIC d   1       1.655   1.022   2.453  0.00  0.00     0.210 HD
ENDBRANCH   3  19
BRANCH   5  21
ATOM     21  O4  QIC d   1       1.421  -2.799   3.289  0.00  0.00    -0.393 OA
ATOM     22  H8  QIC d   1       2.103  -3.437   3.113  0.00  0.00     0.210 HD
ENDBRANCH   5  21
BRANCH   4  23
ATOM     23  O3  QIC d   1       3.015  -0.798   4.550  0.00  0.00    -0.390 OA
ATOM     24  H6  QIC d   1       2.776  -1.597   5.005  0.00  0.00     0.210 HD
ENDBRANCH   4  23
TORSDOF 5
