REMARK  4 active torsions:
REMARK  status: ('A' for Active; 'I' for Inactive)
REMARK    1  A    between atoms: C1_1  and  C2_2 
REMARK    2  A    between atoms: C2_2  and  O4_3 
REMARK    3  A    between atoms: C2_2  and  C5_4 
REMARK    4  A    between atoms: N6_5  and  C18_16 
ROOT
ATOM      1  C18 1J5 d   1     -14.643 -10.473 -11.071  0.00  0.00     0.019 C 
ATOM      2  C20 1J5 d   1     -13.324 -10.260 -11.841  0.00  0.00    -0.044 C 
ATOM      3  C21 1J5 d   1     -12.268 -11.248 -11.305  0.00  0.00    -0.048 C 
ATOM      4  C22 1J5 d   1     -12.114 -11.058  -9.782  0.00  0.00     0.030 C 
ATOM      5  C24 1J5 d   1     -13.436 -11.277  -9.029  0.00  0.00    -0.048 C 
ATOM      6  C25 1J5 d   1     -14.496 -10.291  -9.554  0.00  0.00    -0.044 C 
ATOM      7  C26 1J5 d   1     -11.120 -11.996  -9.228  0.00  0.00     0.064 C 
ATOM      8  N27 1J5 d   1     -10.386 -12.750  -8.793  0.00  0.00    -0.197 NA
ATOM      9  H10 1J5 d   1     -14.949 -11.516 -11.239  0.00  0.00     0.073 H 
ATOM     10  H11 1J5 d   1     -12.973  -9.228 -11.694  0.00  0.00     0.036 H 
ATOM     11  H12 1J5 d   1     -13.489 -10.441 -12.913  0.00  0.00     0.036 H 
ATOM     12  H13 1J5 d   1     -11.303 -11.057 -11.798  0.00  0.00     0.035 H 
ATOM     13  H14 1J5 d   1     -12.590 -12.279 -11.515  0.00  0.00     0.035 H 
ATOM     14  H15 1J5 d   1     -11.772 -10.028  -9.601  0.00  0.00     0.062 H 
ATOM     15  H16 1J5 d   1     -13.278 -11.107  -7.954  0.00  0.00     0.035 H 
ATOM     16  H17 1J5 d   1     -13.783 -12.308  -9.190  0.00  0.00     0.035 H 
ATOM     17  H18 1J5 d   1     -15.460 -10.491  -9.064  0.00  0.00     0.036 H 
ATOM     18  H19 1J5 d   1     -14.181  -9.260  -9.335  0.00  0.00     0.036 H 
ENDROOT
BRANCH   1  19
ATOM     19  N6  1J5 d   1     -15.709  -9.605 -11.621  0.00  0.00    -0.325 N 
ATOM     20  C5  1J5 d   1     -16.893 -10.072 -12.126  0.00  0.00     0.136 A 
ATOM     21  N9  1J5 d   1     -17.614  -9.080 -12.557  0.00  0.00    -0.229 NA
ATOM     22  C8  1J5 d   1     -16.968  -7.910 -12.345  0.00  0.00     0.104 A 
ATOM     23  C7  1J5 d   1     -15.734  -8.223 -11.736  0.00  0.00     0.081 A 
ATOM     24  C10 1J5 d   1     -17.307  -6.580 -12.607  0.00  0.00     0.035 A 
ATOM     25  C13 1J5 d   1     -14.885  -7.132 -11.430  0.00  0.00     0.041 A 
ATOM     26  C12 1J5 d   1     -15.316  -5.820 -11.737  0.00  0.00     0.139 A 
ATOM     27  C14 1J5 d   1     -13.559  -6.967 -10.810  0.00  0.00    -0.052 A 
ATOM     28  N11 1J5 d   1     -16.496  -5.589 -12.314  0.00  0.00    -0.240 NA
ATOM     29  N16 1J5 d   1     -14.341  -4.948 -11.351  0.00  0.00    -0.350 N 
ATOM     30  C15 1J5 d   1     -13.289  -5.647 -10.801  0.00  0.00    -0.020 A 
ATOM     31  H9  1J5 d   1     -14.384  -3.924 -11.455  0.00  0.00     0.166 HD
ATOM     32  H8  1J5 d   1     -12.374  -5.199 -10.416  0.00  0.00     0.111 H 
ATOM     33  H7  1J5 d   1     -12.918  -7.762 -10.431  0.00  0.00     0.087 H 
ATOM     34  H6  1J5 d   1     -18.265  -6.360 -13.064  0.00  0.00     0.118 H 
BRANCH  20  35
ATOM     35  C2  1J5 d   1     -17.304 -11.529 -12.185  0.00  0.00     0.089 C 
ATOM     36  H4  1J5 d   1     -16.759 -12.081 -11.405  0.00  0.00     0.094 H 
BRANCH  35  37
ATOM     37  C1  1J5 d   1     -18.807 -11.708 -11.952  0.00  0.00    -0.046 C 
ATOM     38  H1  1J5 d   1     -19.076 -11.301 -10.966  0.00  0.00     0.031 H 
ATOM     39  H2  1J5 d   1     -19.059 -12.778 -11.988  0.00  0.00     0.031 H 
ATOM     40  H3  1J5 d   1     -19.366 -11.173 -12.734  0.00  0.00     0.031 H 
ENDBRANCH  35  37
BRANCH  35  41
ATOM     41  O4  1J5 d   1     -16.960 -12.054 -13.455  0.00  0.00    -0.388 OA
ATOM     42  H5  1J5 d   1     -17.444 -11.591 -14.129  0.00  0.00     0.210 HD
ENDBRANCH  35  41
ENDBRANCH  20  35
ENDBRANCH   1  19
TORSDOF 4
