REMARK  4 active torsions:
REMARK  status: ('A' for Active; 'I' for Inactive)
REMARK    1  A    between atoms: C1_1  and  C2_2 
REMARK    2  A    between atoms: C2_2  and  O4_3 
REMARK    3  A    between atoms: C2_2  and  C5_4 
REMARK    4  A    between atoms: N6_5  and  C18_16 
ROOT
ATOM      1  C18 1J5 d   1       7.470  55.905   0.644  0.00  0.00     0.019 C 
ATOM      2  C20 1J5 d   1       7.260  55.984   2.168  0.00  0.00    -0.044 C 
ATOM      3  C21 1J5 d   1       6.830  54.626   2.749  0.00  0.00    -0.048 C 
ATOM      4  C22 1J5 d   1       5.649  54.032   1.943  0.00  0.00     0.030 C 
ATOM      5  C24 1J5 d   1       5.917  53.945   0.429  0.00  0.00    -0.048 C 
ATOM      6  C25 1J5 d   1       6.246  55.347  -0.106  0.00  0.00    -0.044 C 
ATOM      7  C26 1J5 d   1       5.391  52.673   2.454  0.00  0.00     0.064 C 
ATOM      8  N27 1J5 d   1       5.202  51.641   2.892  0.00  0.00    -0.197 NA
ATOM      9  H10 1J5 d   1       8.322  55.236   0.456  0.00  0.00     0.073 H 
ATOM     10  H11 1J5 d   1       6.479  56.728   2.383  0.00  0.00     0.036 H 
ATOM     11  H12 1J5 d   1       8.203  56.294   2.643  0.00  0.00     0.036 H 
ATOM     12  H13 1J5 d   1       6.519  54.763   3.795  0.00  0.00     0.035 H 
ATOM     13  H14 1J5 d   1       7.681  53.930   2.707  0.00  0.00     0.035 H 
ATOM     14  H15 1J5 d   1       4.762  54.662   2.104  0.00  0.00     0.062 H 
ATOM     15  H16 1J5 d   1       5.023  53.557  -0.081  0.00  0.00     0.035 H 
ATOM     16  H17 1J5 d   1       6.767  53.272   0.244  0.00  0.00     0.035 H 
ATOM     17  H18 1J5 d   1       6.470  55.286  -1.181  0.00  0.00     0.036 H 
ATOM     18  H19 1J5 d   1       5.384  56.012   0.052  0.00  0.00     0.036 H 
ENDROOT
BRANCH   1  19
ATOM     19  N6  1J5 d   1       7.787  57.240   0.101  0.00  0.00    -0.325 N 
ATOM     20  C5  1J5 d   1       8.941  57.542  -0.558  0.00  0.00     0.136 A 
ATOM     21  N9  1J5 d   1       8.947  58.784  -0.915  0.00  0.00    -0.229 NA
ATOM     22  C8  1J5 d   1       7.800  59.382  -0.533  0.00  0.00     0.104 A 
ATOM     23  C7  1J5 d   1       7.031  58.405   0.134  0.00  0.00     0.081 A 
ATOM     24  C10 1J5 d   1       7.339  60.689  -0.667  0.00  0.00     0.035 A 
ATOM     25  C13 1J5 d   1       5.773  58.827   0.611  0.00  0.00     0.041 A 
ATOM     26  C12 1J5 d   1       5.387  60.168   0.418  0.00  0.00     0.139 A 
ATOM     27  C14 1J5 d   1       4.670  58.195   1.309  0.00  0.00    -0.052 A 
ATOM     28  N11 1J5 d   1       6.171  61.044  -0.198  0.00  0.00    -0.240 NA
ATOM     29  N16 1J5 d   1       4.157  60.311   0.953  0.00  0.00    -0.350 N 
ATOM     30  C15 1J5 d   1       3.731  59.126   1.486  0.00  0.00    -0.020 A 
ATOM     31  H9  1J5 d   1       3.616  61.188   0.959  0.00  0.00     0.166 HD
ATOM     32  H8  1J5 d   1       2.773  58.967   1.979  0.00  0.00     0.111 H 
ATOM     33  H7  1J5 d   1       4.618  57.155   1.629  0.00  0.00     0.087 H 
ATOM     34  H6  1J5 d   1       7.958  61.424  -1.168  0.00  0.00     0.118 H 
BRANCH  20  35
ATOM     35  C2  1J5 d   1      10.077  56.599  -0.802  0.00  0.00     0.089 C 
ATOM     36  H4  1J5 d   1       9.692  55.626  -1.143  0.00  0.00     0.094 H 
BRANCH  35  37
ATOM     37  C1  1J5 d   1      11.041  57.151  -1.861  0.00  0.00    -0.046 C 
ATOM     38  H1  1J5 d   1      10.513  57.252  -2.820  0.00  0.00     0.031 H 
ATOM     39  H2  1J5 d   1      11.889  56.460  -1.981  0.00  0.00     0.031 H 
ATOM     40  H3  1J5 d   1      11.412  58.136  -1.541  0.00  0.00     0.031 H 
ENDBRANCH  35  37
BRANCH  35  41
ATOM     41  O4  1J5 d   1      10.733  56.452   0.469  0.00  0.00    -0.388 OA
ATOM     42  H5  1J5 d   1      11.463  55.851   0.380  0.00  0.00     0.210 HD
ENDBRANCH  35  41
ENDBRANCH  20  35
ENDBRANCH   1  19
TORSDOF 4
