REMARK  5 active torsions:
REMARK  status: ('A' for Active; 'I' for Inactive)
REMARK    1  A    between atoms: C1_1  and  C2_2 
REMARK    2  A    between atoms: C2_2  and  O4_3 
REMARK    3  A    between atoms: C2_2  and  C5_4 
REMARK    4  A    between atoms: N6_5  and  C18_16 
REMARK    5  A    between atoms: C22_19  and  C26_22 
ROOT
ATOM      1  C26 1J6 d   1       5.325  52.307   2.409  0.00  0.00     0.018 C 
ATOM      2  C27 1J6 d   1       4.150  51.655   1.762  0.00  0.00     0.059 C 
ATOM      3  N28 1J6 d   1       3.254  51.255   1.162  0.00  0.00    -0.197 NA
ATOM      4  H20 1J6 d   1       5.190  52.321   3.501  0.00  0.00     0.055 H 
ATOM      5  H21 1J6 d   1       6.243  51.754   2.160  0.00  0.00     0.055 H 
ENDROOT
BRANCH   1   6
ATOM      6  C22 1J6 d   1       5.422  53.758   1.872  0.00  0.00    -0.042 C 
ATOM      7  C21 1J6 d   1       6.508  54.482   2.683  0.00  0.00    -0.059 C 
ATOM      8  C20 1J6 d   1       6.828  55.888   2.163  0.00  0.00    -0.045 C 
ATOM      9  H13 1J6 d   1       6.166  54.566   3.725  0.00  0.00     0.033 H 
ATOM     10  H14 1J6 d   1       7.428  53.880   2.647  0.00  0.00     0.033 H 
ATOM     11  C18 1J6 d   1       7.160  55.823   0.661  0.00  0.00     0.018 C 
ATOM     12  H11 1J6 d   1       5.957  56.542   2.317  0.00  0.00     0.036 H 
ATOM     13  H12 1J6 d   1       7.692  56.293   2.711  0.00  0.00     0.036 H 
ATOM     14  C25 1J6 d   1       5.997  55.207  -0.127  0.00  0.00    -0.045 C 
ATOM     15  H10 1J6 d   1       8.048  55.188   0.525  0.00  0.00     0.073 H 
ATOM     16  C24 1J6 d   1       5.700  53.781   0.347  0.00  0.00    -0.059 C 
ATOM     17  H18 1J6 d   1       6.260  55.182  -1.195  0.00  0.00     0.036 H 
ATOM     18  H19 1J6 d   1       5.099  55.827   0.015  0.00  0.00     0.036 H 
ATOM     19  H16 1J6 d   1       4.817  53.399  -0.187  0.00  0.00     0.033 H 
ATOM     20  H17 1J6 d   1       6.566  53.140   0.128  0.00  0.00     0.033 H 
ATOM     21  H15 1J6 d   1       4.461  54.264   2.045  0.00  0.00     0.041 H 
BRANCH  11  22
ATOM     22  N6  1J6 d   1       7.464  57.169   0.160  0.00  0.00    -0.325 N 
ATOM     23  C5  1J6 d   1       8.625  57.516  -0.467  0.00  0.00     0.136 A 
ATOM     24  N9  1J6 d   1       8.616  58.779  -0.788  0.00  0.00    -0.229 NA
ATOM     25  C8  1J6 d   1       7.445  59.340  -0.402  0.00  0.00     0.104 A 
ATOM     26  C7  1J6 d   1       6.691  58.323   0.224  0.00  0.00     0.081 A 
ATOM     27  C10 1J6 d   1       6.920  60.633  -0.509  0.00  0.00     0.035 A 
ATOM     28  C13 1J6 d   1       5.424  58.686   0.698  0.00  0.00     0.041 A 
ATOM     29  C12 1J6 d   1       4.974  60.014   0.536  0.00  0.00     0.139 A 
ATOM     30  C14 1J6 d   1       4.338  57.964   1.358  0.00  0.00    -0.052 A 
ATOM     31  N11 1J6 d   1       5.730  60.943  -0.047  0.00  0.00    -0.240 NA
ATOM     32  N16 1J6 d   1       3.735  60.073   1.075  0.00  0.00    -0.350 N 
ATOM     33  C15 1J6 d   1       3.349  58.841   1.550  0.00  0.00    -0.020 A 
ATOM     34  H9  1J6 d   1       3.158  60.925   1.123  0.00  0.00     0.166 HD
ATOM     35  H8  1J6 d   1       2.388  58.616   2.010  0.00  0.00     0.111 H 
ATOM     36  H7  1J6 d   1       4.336  56.912   1.639  0.00  0.00     0.087 H 
ATOM     37  H6  1J6 d   1       7.514  61.403  -0.988  0.00  0.00     0.118 H 
BRANCH  23  38
ATOM     38  C2  1J6 d   1       9.762  56.565  -0.729  0.00  0.00     0.089 C 
ATOM     39  H4  1J6 d   1       9.363  55.650  -1.192  0.00  0.00     0.094 H 
BRANCH  38  40
ATOM     40  C1  1J6 d   1      10.809  57.162  -1.682  0.00  0.00    -0.046 C 
ATOM     41  H1  1J6 d   1      10.334  57.401  -2.645  0.00  0.00     0.031 H 
ATOM     42  H2  1J6 d   1      11.617  56.433  -1.842  0.00  0.00     0.031 H 
ATOM     43  H3  1J6 d   1      11.225  58.080  -1.241  0.00  0.00     0.031 H 
ENDBRANCH  38  40
BRANCH  38  44
ATOM     44  O4  1J6 d   1      10.329  56.235   0.545  0.00  0.00    -0.388 OA
ATOM     45  H5  1J6 d   1       9.655  55.870   1.105  0.00  0.00     0.210 HD
ENDBRANCH  38  44
ENDBRANCH  23  38
ENDBRANCH  11  22
ENDBRANCH   1   6
TORSDOF 5
