REMARK  6 active torsions:
REMARK  status: ('A' for Active; 'I' for Inactive)
REMARK    1  A    between atoms: C1_1  and  C2_2 
REMARK    2  A    between atoms: C2_2  and  O4_3 
REMARK    3  A    between atoms: C2_2  and  C5_4 
REMARK    4  A    between atoms: N6_5  and  C18_16 
REMARK    5  A    between atoms: C22_19  and  C26_22 
REMARK    6  A    between atoms: C26_22  and  C27_23 
ROOT
ATOM      1  C27 15T d   1       4.119  51.824   2.381  0.00  0.00     0.015 C 
ATOM      2  C28 15T d   1       3.799  51.315   1.039  0.00  0.00     0.059 C 
ATOM      3  N29 15T d   1       3.601  51.002  -0.039  0.00  0.00    -0.197 NA
ATOM      4  H22 15T d   1       3.401  52.614   2.647  0.00  0.00     0.054 H 
ATOM      5  H23 15T d   1       4.044  51.000   3.106  0.00  0.00     0.054 H 
ENDROOT
BRANCH   1   6
ATOM      6  C26 15T d   1       5.542  52.403   2.422  0.00  0.00    -0.050 C 
ATOM      7  H20 15T d   1       5.883  52.410   3.468  0.00  0.00     0.034 H 
ATOM      8  H21 15T d   1       6.198  51.752   1.827  0.00  0.00     0.034 H 
BRANCH   6   9
ATOM      9  C22 15T d   1       5.648  53.837   1.867  0.00  0.00    -0.053 C 
ATOM     10  C21 15T d   1       6.802  54.518   2.631  0.00  0.00    -0.060 C 
ATOM     11  C20 15T d   1       7.090  55.939   2.110  0.00  0.00    -0.045 C 
ATOM     12  H13 15T d   1       6.534  54.579   3.696  0.00  0.00     0.033 H 
ATOM     13  H14 15T d   1       7.710  53.908   2.516  0.00  0.00     0.033 H 
ATOM     14  C18 15T d   1       7.353  55.894   0.597  0.00  0.00     0.018 C 
ATOM     15  H11 15T d   1       6.222  56.585   2.311  0.00  0.00     0.036 H 
ATOM     16  H12 15T d   1       7.975  56.344   2.623  0.00  0.00     0.036 H 
ATOM     17  C25 15T d   1       6.165  55.266  -0.152  0.00  0.00    -0.045 C 
ATOM     18  H10 15T d   1       8.231  55.254   0.425  0.00  0.00     0.073 H 
ATOM     19  C24 15T d   1       5.920  53.837   0.351  0.00  0.00    -0.060 C 
ATOM     20  H18 15T d   1       6.387  55.239  -1.229  0.00  0.00     0.036 H 
ATOM     21  H19 15T d   1       5.264  55.872   0.022  0.00  0.00     0.036 H 
ATOM     22  H16 15T d   1       5.050  53.413  -0.173  0.00  0.00     0.033 H 
ATOM     23  H17 15T d   1       6.809  53.223   0.143  0.00  0.00     0.033 H 
ATOM     24  H15 15T d   1       4.708  54.376   2.057  0.00  0.00     0.040 H 
BRANCH  14  25
ATOM     25  N6  15T d   1       7.675  57.244   0.090  0.00  0.00    -0.325 N 
ATOM     26  C5  15T d   1       8.845  57.549  -0.542  0.00  0.00     0.136 A 
ATOM     27  N9  15T d   1       8.866  58.791  -0.872  0.00  0.00    -0.229 NA
ATOM     28  C8  15T d   1       7.724  59.394  -0.485  0.00  0.00     0.104 A 
ATOM     29  C7  15T d   1       6.930  58.418   0.148  0.00  0.00     0.081 A 
ATOM     30  C10 15T d   1       7.264  60.706  -0.608  0.00  0.00     0.035 A 
ATOM     31  C13 15T d   1       5.668  58.847   0.628  0.00  0.00     0.041 A 
ATOM     32  C12 15T d   1       5.282  60.198   0.453  0.00  0.00     0.139 A 
ATOM     33  C14 15T d   1       4.547  58.209   1.305  0.00  0.00    -0.052 A 
ATOM     34  N11 15T d   1       6.089  61.069  -0.147  0.00  0.00    -0.240 NA
ATOM     35  N16 15T d   1       4.040  60.341   0.986  0.00  0.00    -0.350 N 
ATOM     36  C15 15T d   1       3.595  59.141   1.486  0.00  0.00    -0.020 A 
ATOM     37  H9  15T d   1       3.508  61.223   1.012  0.00  0.00     0.166 HD
ATOM     38  H8  15T d   1       2.626  58.972   1.954  0.00  0.00     0.111 H 
ATOM     39  H7  15T d   1       4.490  57.165   1.610  0.00  0.00     0.087 H 
ATOM     40  H6  15T d   1       7.892  61.443  -1.096  0.00  0.00     0.118 H 
BRANCH  26  41
ATOM     41  C2  15T d   1       9.970  56.584  -0.815  0.00  0.00     0.089 C 
ATOM     42  H4  15T d   1       9.556  55.651  -1.225  0.00  0.00     0.094 H 
BRANCH  41  43
ATOM     43  C1  15T d   1      10.936  57.174  -1.844  0.00  0.00    -0.046 C 
ATOM     44  H1  15T d   1      10.396  57.376  -2.781  0.00  0.00     0.031 H 
ATOM     45  H2  15T d   1      11.749  56.458  -2.036  0.00  0.00     0.031 H 
ATOM     46  H3  15T d   1      11.358  58.112  -1.455  0.00  0.00     0.031 H 
ENDBRANCH  41  43
BRANCH  41  47
ATOM     47  O4  15T d   1      10.613  56.293   0.445  0.00  0.00    -0.388 OA
ATOM     48  H5  15T d   1      11.312  55.664   0.305  0.00  0.00     0.210 HD
ENDBRANCH  41  47
ENDBRANCH  26  41
ENDBRANCH  14  25
ENDBRANCH   6   9
ENDBRANCH   1   6
TORSDOF 6
