REMARK  3 active torsions:
REMARK  status: ('A' for Active; 'I' for Inactive)
REMARK    1  A    between atoms: C11_14  and  C10_3 
REMARK    2  A    between atoms: C2_9  and  C1_8 
REMARK    3  A    between atoms: C14_16  and  N15_17 
ROOT
ATOM      1  C4  AJ6 d   1     -12.460   1.853  14.204  0.00  0.00     0.246 A 
ATOM      2  C8  AJ6 d   1     -12.100   2.545  11.947  0.00  0.00     0.046 A 
ATOM      3  C10 AJ6 d   1     -11.777   3.211   9.634  0.00  0.00    -0.022 A 
ATOM      4  C20 AJ6 d   1     -11.901   4.909  11.370  0.00  0.00    -0.070 A 
ATOM      5  C21 AJ6 d   1     -12.088   3.930  12.375  0.00  0.00    -0.003 A 
ATOM      6  C2  AJ6 d   1     -12.283   4.277  13.812  0.00  0.00    -0.044 A 
ATOM      7  C3  AJ6 d   1     -12.458   3.235  14.673  0.00  0.00    -0.011 A 
ATOM      8  O5  AJ6 d   1     -12.653   0.923  15.008  0.00  0.00    -0.268 OA
ATOM      9  N6  AJ6 d   1     -12.292   1.553  12.883  0.00  0.00    -0.323 N 
ATOM     10  C9  AJ6 d   1     -11.929   2.208  10.607  0.00  0.00    -0.045 A 
ATOM     11  C19 AJ6 d   1     -11.729   4.547  10.044  0.00  0.00    -0.071 A 
ATOM     12  H2  AJ6 d   1     -11.892   5.958  11.642  0.00  0.00     0.085 H 
ATOM     13  H6  AJ6 d   1     -12.599   3.438  15.733  0.00  0.00     0.092 H 
ATOM     14  H7  AJ6 d   1     -12.309   0.597  12.590  0.00  0.00     0.169 HD
ATOM     15  H8  AJ6 d   1     -11.913   1.165  10.312  0.00  0.00     0.088 H 
ATOM     16  H13 AJ6 d   1     -11.553   5.320   9.305  0.00  0.00     0.084 H 
ENDROOT
BRANCH   3  17
ATOM     17  C11 AJ6 d   1     -11.582   2.886   8.180  0.00  0.00    -0.004 A 
ATOM     18  C17 AJ6 d   1     -12.525   2.080   7.454  0.00  0.00     0.047 A 
ATOM     19  C16 AJ6 d   1     -12.298   1.858   6.104  0.00  0.00    -0.036 A 
ATOM     20 CL   AJ6 d   1     -13.979   1.408   8.185  0.00  0.00    -0.083 Cl
ATOM     21  C14 AJ6 d   1     -11.164   2.404   5.483  0.00  0.00     0.027 A 
ATOM     22  H12 AJ6 d   1     -12.997   1.262   5.528  0.00  0.00     0.089 H 
ATOM     23  C13 AJ6 d   1     -10.229   3.163   6.177  0.00  0.00    -0.057 A 
ATOM     24  C12 AJ6 d   1     -10.441   3.403   7.519  0.00  0.00    -0.069 A 
ATOM     25  H1  AJ6 d   1      -9.353   3.558   5.675  0.00  0.00     0.086 H 
ATOM     26  H9  AJ6 d   1      -9.724   3.996   8.075  0.00  0.00     0.085 H 
BRANCH  21  27
ATOM     27  N15 AJ6 d   1     -10.963   2.165   4.127  0.00  0.00    -0.399 N 
ATOM     28  H10 AJ6 d   1     -11.645   1.605   3.596  0.00  0.00     0.156 HD
ATOM     29  H11 AJ6 d   1     -10.132   2.548   3.654  0.00  0.00     0.156 HD
ENDBRANCH  21  27
ENDBRANCH   3  17
BRANCH   6  30
ATOM     30  C1  AJ6 d   1     -12.327   5.748  14.347  0.00  0.00    -0.050 C 
ATOM     31  H3  AJ6 d   1     -12.481   5.738  15.436  0.00  0.00     0.033 H 
ATOM     32  H4  AJ6 d   1     -13.155   6.289  13.865  0.00  0.00     0.033 H 
ATOM     33  H5  AJ6 d   1     -11.377   6.251  14.116  0.00  0.00     0.033 H 
ENDBRANCH   6  30
TORSDOF 3
