REMARK  6 active torsions:
REMARK  status: ('A' for Active; 'I' for Inactive)
REMARK    1  A    between atoms: C11_16  and  C10_3 
REMARK    2  A    between atoms: C15_5  and  C14_18 
REMARK       I    between atoms: N17_20  and  C15_5 
REMARK    3  A    between atoms: C2_11  and  C1_10 
REMARK    4  A    between atoms: C18_21  and  N17_20 
REMARK    5  A    between atoms: C19_22  and  C18_21 
REMARK    6  A    between atoms: C19_22  and  N20_23 
ROOT
ATOM      1  C13 AJ7 d   1       5.171  10.159  -6.036  0.00  0.00    -0.067 A 
ATOM      2  C26 AJ7 d   1       7.561  10.526  -6.092  0.00  0.00    -0.046 A 
ATOM      3  C11 AJ7 d   1       6.259  10.602  -8.163  0.00  0.00    -0.004 A 
ATOM      4  C12 AJ7 d   1       5.113  10.313  -7.410  0.00  0.00    -0.070 A 
ATOM      5  C14 AJ7 d   1       6.389  10.231  -5.370  0.00  0.00     0.033 A 
ATOM      6  C27 AJ7 d   1       7.520  10.703  -7.467  0.00  0.00     0.046 A 
ATOM      7 CL   AJ7 d   1       9.028  11.064  -8.248  0.00  0.00    -0.083 Cl
ATOM      8  H1  AJ7 d   1       4.261   9.981  -5.475  0.00  0.00     0.085 H 
ATOM      9  H8  AJ7 d   1       8.505  10.616  -5.568  0.00  0.00     0.087 H 
ATOM     10  H15 AJ7 d   1       4.160  10.208  -7.915  0.00  0.00     0.085 H 
ENDROOT
BRANCH   5  11
ATOM     11  C15 AJ7 d   1       6.430  10.089  -3.887  0.00  0.00     0.251 C 
ATOM     12  O16 AJ7 d   1       7.397  10.540  -3.302  0.00  0.00    -0.268 OA
ATOM     13  N17 AJ7 d   1       5.386   9.621  -3.183  0.00  0.00    -0.355 N 
ATOM     14  H16 AJ7 d   1       4.576   9.303  -3.676  0.00  0.00     0.162 HD
BRANCH  13  15
ATOM     15  C18 AJ7 d   1       5.390   9.559  -1.700  0.00  0.00     0.018 C 
ATOM     16  H17 AJ7 d   1       6.422   9.469  -1.331  0.00  0.00     0.066 H 
ATOM     17  H18 AJ7 d   1       4.802   8.694  -1.359  0.00  0.00     0.066 H 
BRANCH  15  18
ATOM     18  C19 AJ7 d   1       4.754  10.871  -1.174  0.00  0.00     0.098 C 
ATOM     19  H19 AJ7 d   1       3.700  10.882  -1.490  0.00  0.00     0.078 H 
ATOM     20  H20 AJ7 d   1       5.286  11.712  -1.643  0.00  0.00     0.078 H 
BRANCH  18  21
ATOM     21  N20 AJ7 d   1       4.786  11.082   0.305  0.00  0.00    -0.066 N 
ATOM     22  C21 AJ7 d   1       3.605  10.492   1.031  0.00  0.00     0.103 C 
ATOM     23  C22 AJ7 d   1       3.656  10.627   2.576  0.00  0.00     0.042 C 
ATOM     24  H2  AJ7 d   1       2.696  10.998   0.673  0.00  0.00     0.079 H 
ATOM     25  H3  AJ7 d   1       3.551   9.422   0.783  0.00  0.00     0.079 H 
ATOM     26  O23 AJ7 d   1       4.993  10.463   3.110  0.00  0.00    -0.388 OA
ATOM     27  H4  AJ7 d   1       3.005   9.859   3.018  0.00  0.00     0.076 H 
ATOM     28  H5  AJ7 d   1       3.287  11.625   2.854  0.00  0.00     0.076 H 
ATOM     29  C24 AJ7 d   1       6.033  10.020   2.201  0.00  0.00     0.042 C 
ATOM     30  C25 AJ7 d   1       6.121  10.971   0.981  0.00  0.00     0.103 C 
ATOM     31  H6  AJ7 d   1       5.801   9.003   1.852  0.00  0.00     0.076 H 
ATOM     32  H7  AJ7 d   1       6.998  10.016   2.728  0.00  0.00     0.076 H 
ATOM     33  H22 AJ7 d   1       6.857  10.575   0.266  0.00  0.00     0.079 H 
ATOM     34  H23 AJ7 d   1       6.439  11.968   1.321  0.00  0.00     0.079 H 
ATOM     35  H21 AJ7 d   1       4.606  12.071   0.380  0.00  0.00     0.280 HD
ENDBRANCH  18  21
ENDBRANCH  15  18
ENDBRANCH  13  15
ENDBRANCH   5  11
BRANCH   3  36
ATOM     36  C10 AJ7 d   1       6.135  10.875  -9.625  0.00  0.00    -0.022 A 
ATOM     37  C9  AJ7 d   1       6.987  10.320 -10.585  0.00  0.00    -0.045 A 
ATOM     38  C8  AJ7 d   1       6.805  10.641 -11.927  0.00  0.00     0.046 A 
ATOM     39  H14 AJ7 d   1       7.782   9.646 -10.287  0.00  0.00     0.088 H 
ATOM     40  N6  AJ7 d   1       7.640  10.067 -12.885  0.00  0.00    -0.323 N 
ATOM     41  C31 AJ7 d   1       5.824  11.610 -12.340  0.00  0.00    -0.003 A 
ATOM     42  C4  AJ7 d   1       7.570  10.410 -14.180  0.00  0.00     0.246 A 
ATOM     43  H13 AJ7 d   1       8.309   9.381 -12.599  0.00  0.00     0.169 HD
ATOM     44  C3  AJ7 d   1       6.615  11.382 -14.699  0.00  0.00    -0.011 A 
ATOM     45  O5  AJ7 d   1       8.366   9.852 -14.870  0.00  0.00    -0.268 OA
ATOM     46  C2  AJ7 d   1       5.730  11.968 -13.783  0.00  0.00    -0.044 A 
ATOM     47  H12 AJ7 d   1       6.590  11.642 -15.756  0.00  0.00     0.092 H 
ATOM     48  C30 AJ7 d   1       4.990  12.210 -11.328  0.00  0.00    -0.070 A 
ATOM     49  C29 AJ7 d   1       5.179  11.841 -10.014  0.00  0.00    -0.071 A 
ATOM     50  H25 AJ7 d   1       4.231  12.936 -11.595  0.00  0.00     0.085 H 
ATOM     51  H24 AJ7 d   1       4.571  12.310  -9.249  0.00  0.00     0.084 H 
BRANCH  46  52
ATOM     52  C1  AJ7 d   1       4.711  13.030 -14.202  0.00  0.00    -0.050 C 
ATOM     53  H9  AJ7 d   1       4.764  13.180 -15.290  0.00  0.00     0.033 H 
ATOM     54  H10 AJ7 d   1       4.937  13.977 -13.690  0.00  0.00     0.033 H 
ATOM     55  H11 AJ7 d   1       3.700  12.696 -13.927  0.00  0.00     0.033 H 
ENDBRANCH  46  52
ENDBRANCH   3  36
TORSDOF 6
