REMARK  4 active torsions:
REMARK  status: ('A' for Active; 'I' for Inactive)
REMARK    1  A    between atoms: OAD_1  and  CAG_2 
REMARK    2  A    between atoms: CAA_3  and  OAC_4 
REMARK    3  A    between atoms: CAF_5  and  CAB_6 
REMARK    4  A    between atoms: CAE_8  and  CAP_9 
ROOT
ATOM      1  CAG EAT d   1     -15.196  10.963  31.521  0.00  0.00     0.096 C 
ATOM      2  CAA EAT d   1     -15.241   9.485  31.122  0.00  0.00     0.089 C 
ATOM      3  CAF EAT d   1     -16.311   8.967  32.081  0.00  0.00     0.126 C 
ATOM      4  NAH EAT d   1     -17.364   9.975  31.912  0.00  0.00    -0.055 N 
ATOM      5  CAE EAT d   1     -16.647  11.290  31.434  0.00  0.00     0.185 C 
ATOM      6  H2  EAT d   1     -14.826  11.068  32.552  0.00  0.00     0.090 H 
ATOM      7  H3  EAT d   1     -14.273   8.992  31.295  0.00  0.00     0.090 H 
ATOM      8  H5  EAT d   1     -15.947   9.001  33.118  0.00  0.00     0.087 H 
ATOM      9  H9  EAT d   1     -17.837  10.135  32.787  0.00  0.00     0.278 HD
ATOM     10  H10 EAT d   1     -18.031   9.670  31.220  0.00  0.00     0.278 HD
ATOM     11  H11 EAT d   1     -16.916  11.522  30.393  0.00  0.00     0.101 H 
ENDROOT
BRANCH   5  12
ATOM     12  CAP EAT d   1     -17.072  12.484  32.337  0.00  0.00     0.139 A 
ATOM     13  NAQ EAT d   1     -17.701  13.612  31.981  0.00  0.00    -0.341 N 
ATOM     14  CAM EAT d   1     -17.944  14.298  33.121  0.00  0.00     0.062 A 
ATOM     15  H12 EAT d   1     -17.951  13.901  31.024  0.00  0.00     0.167 HD
ATOM     16  CAN EAT d   1     -18.523  15.500  33.373  0.00  0.00    -0.055 A 
ATOM     17  CAL EAT d   1     -17.440  13.590  34.140  0.00  0.00     0.085 A 
ATOM     18  CAI EAT d   1     -18.634  15.998  34.685  0.00  0.00    -0.081 A 
ATOM     19  H13 EAT d   1     -18.907  16.088  32.547  0.00  0.00     0.087 H 
ATOM     20  CAJ EAT d   1     -18.133  15.233  35.731  0.00  0.00    -0.081 A 
ATOM     21  H14 EAT d   1     -19.100  16.958  34.875  0.00  0.00     0.083 H 
ATOM     22  CAK EAT d   1     -17.530  14.014  35.414  0.00  0.00    -0.053 A 
ATOM     23  H15 EAT d   1     -18.208  15.571  36.758  0.00  0.00     0.083 H 
ATOM     24  H16 EAT d   1     -17.127  13.398  36.209  0.00  0.00     0.087 H 
ATOM     25  NAO EAT d   1     -16.918  12.473  33.641  0.00  0.00    -0.231 NA
ENDBRANCH   5  12
BRANCH   1  26
ATOM     26  OAD EAT d   1     -14.398  11.829  30.667  0.00  0.00    -0.390 OA
ATOM     27  H1  EAT d   1     -13.497  11.528  30.666  0.00  0.00     0.210 HD
ENDBRANCH   1  26
BRANCH   2  28
ATOM     28  OAC EAT d   1     -15.613   9.315  29.782  0.00  0.00    -0.391 OA
ATOM     29  H4  EAT d   1     -14.985   9.755  29.222  0.00  0.00     0.210 HD
ENDBRANCH   2  28
BRANCH   3  30
ATOM     30  CAB EAT d   1     -16.655   7.521  31.774  0.00  0.00    -0.047 C 
ATOM     31  H6  EAT d   1     -17.426   7.171  32.476  0.00  0.00     0.030 H 
ATOM     32  H7  EAT d   1     -15.754   6.899  31.879  0.00  0.00     0.030 H 
ATOM     33  H8  EAT d   1     -17.035   7.445  30.744  0.00  0.00     0.030 H 
ENDBRANCH   3  30
TORSDOF 4
