REMARK  7 active torsions:
REMARK  status: ('A' for Active; 'I' for Inactive)
REMARK    1  A    between atoms: C4_1  and  C3_11 
REMARK    2  A    between atoms: N5_12  and  C4_1 
REMARK    3  A    between atoms: C8_3  and  C6_2 
REMARK       I    between atoms: C6_2  and  N5_12 
REMARK    4  A    between atoms: C16_18  and  C17_7 
REMARK    5  A    between atoms: O2_10  and  C1_9 
REMARK    6  A    between atoms: C3_11  and  O2_10 
REMARK    7  A    between atoms: C11_15  and  C12_16 
ROOT
ATOM      1  C8  AJ5 d   1       2.534 -11.587  -5.336  0.00  0.00     0.033 A 
ATOM      2  C10 AJ5 d   1       3.408 -10.677  -7.397  0.00  0.00    -0.070 A 
ATOM      3  C9  AJ5 d   1       3.268 -10.613  -6.017  0.00  0.00    -0.067 A 
ATOM      4  C11 AJ5 d   1       2.812 -11.694  -8.171  0.00  0.00    -0.004 A 
ATOM      5  C25 AJ5 d   1       2.058 -12.707  -7.476  0.00  0.00     0.046 A 
ATOM      6 CL   AJ5 d   1       1.242 -14.072  -8.246  0.00  0.00    -0.083 Cl
ATOM      7  C27 AJ5 d   1       1.942 -12.635  -6.083  0.00  0.00    -0.046 A 
ATOM      8  H3  AJ5 d   1       3.997  -9.917  -7.898  0.00  0.00     0.085 H 
ATOM      9  H15 AJ5 d   1       3.731  -9.803  -5.465  0.00  0.00     0.085 H 
ATOM     10  H19 AJ5 d   1       1.383 -13.403  -5.561  0.00  0.00     0.087 H 
ENDROOT
BRANCH   4  11
ATOM     11  C12 AJ5 d   1       3.063 -11.785  -9.650  0.00  0.00    -0.022 A 
ATOM     12  C13 AJ5 d   1       4.413 -11.828 -10.045  0.00  0.00    -0.071 A 
ATOM     13  C14 AJ5 d   1       4.806 -11.970 -11.362  0.00  0.00    -0.070 A 
ATOM     14  H4  AJ5 d   1       5.179 -11.746  -9.282  0.00  0.00     0.084 H 
ATOM     15  C15 AJ5 d   1       3.808 -12.131 -12.377  0.00  0.00    -0.003 A 
ATOM     16  H16 AJ5 d   1       5.858 -11.960 -11.624  0.00  0.00     0.085 H 
ATOM     17  C16 AJ5 d   1       4.106 -12.339 -13.829  0.00  0.00    -0.044 A 
ATOM     18  C23 AJ5 d   1       2.440 -12.110 -11.958  0.00  0.00     0.046 A 
ATOM     19  C18 AJ5 d   1       3.063 -12.523 -14.735  0.00  0.00    -0.011 A 
ATOM     20  C19 AJ5 d   1       1.726 -12.489 -14.236  0.00  0.00     0.246 A 
ATOM     21  H17 AJ5 d   1       3.262 -12.688 -15.793  0.00  0.00     0.092 H 
ATOM     22  O20 AJ5 d   1       0.746 -12.662 -14.981  0.00  0.00    -0.268 OA
ATOM     23  N21 AJ5 d   1       1.479 -12.278 -12.911  0.00  0.00    -0.323 N 
ATOM     24  H18 AJ5 d   1       0.524 -12.244 -12.617  0.00  0.00     0.169 HD
ATOM     25  C24 AJ5 d   1       2.072 -11.961 -10.623  0.00  0.00    -0.045 A 
ATOM     26  H8  AJ5 d   1       1.026 -11.981 -10.339  0.00  0.00     0.088 H 
BRANCH  17  27
ATOM     27  C17 AJ5 d   1       5.560 -12.417 -14.308  0.00  0.00    -0.050 C 
ATOM     28  H5  AJ5 d   1       5.580 -12.572 -15.397  0.00  0.00     0.033 H 
ATOM     29  H6  AJ5 d   1       6.066 -13.257 -13.809  0.00  0.00     0.033 H 
ATOM     30  H7  AJ5 d   1       6.078 -11.479 -14.062  0.00  0.00     0.033 H 
ENDBRANCH  17  27
ENDBRANCH   4  11
BRANCH   1  31
ATOM     31  C6  AJ5 d   1       2.415 -11.562  -3.831  0.00  0.00     0.251 C 
ATOM     32  N5  AJ5 d   1       2.608 -10.447  -3.113  0.00  0.00    -0.355 N 
ATOM     33  H14 AJ5 d   1       2.794  -9.596  -3.605  0.00  0.00     0.162 HD
ATOM     34  O7  AJ5 d   1       2.223 -12.619  -3.244  0.00  0.00    -0.268 OA
BRANCH  32  35
ATOM     35  C4  AJ5 d   1       2.562 -10.402  -1.649  0.00  0.00     0.015 C 
ATOM     36  H1  AJ5 d   1       1.737  -9.755  -1.316  0.00  0.00     0.067 H 
ATOM     37  H2  AJ5 d   1       2.420 -11.415  -1.244  0.00  0.00     0.067 H 
BRANCH  35  38
ATOM     38  C3  AJ5 d   1       3.917  -9.824  -1.174  0.00  0.00     0.034 C 
ATOM     39  H12 AJ5 d   1       3.855  -9.610  -0.097  0.00  0.00     0.076 H 
ATOM     40  H13 AJ5 d   1       4.118  -8.892  -1.722  0.00  0.00     0.076 H 
BRANCH  38  41
ATOM     41  O2  AJ5 d   1       5.013 -10.752  -1.407  0.00  0.00    -0.394 OA
BRANCH  41  42
ATOM     42  C1  AJ5 d   1       6.360 -10.335  -1.099  0.00  0.00     0.004 C 
ATOM     43  H9  AJ5 d   1       7.059 -11.151  -1.333  0.00  0.00     0.066 H 
ATOM     44  H10 AJ5 d   1       6.431 -10.086  -0.030  0.00  0.00     0.066 H 
ATOM     45  H11 AJ5 d   1       6.616  -9.450  -1.699  0.00  0.00     0.066 H 
ENDBRANCH  41  42
ENDBRANCH  38  41
ENDBRANCH  35  38
ENDBRANCH  32  35
ENDBRANCH   1  31
TORSDOF 7
