REMARK  15 active torsions:
REMARK  status: ('A' for Active; 'I' for Inactive)
REMARK    1  A    between atoms: N_1  and  CA_2 
REMARK    2  A    between atoms: CA_2  and  C_3 
REMARK    3  A    between atoms: CA_2  and  CB_5 
REMARK       I    between atoms: C_3  and  N_6 
REMARK    4  A    between atoms: N_6  and  CA_7 
REMARK    5  A    between atoms: CA_7  and  C_8 
REMARK    6  A    between atoms: CA_7  and  CB_10 
REMARK       I    between atoms: C_8  and  N_13 
REMARK    7  A    between atoms: CB_10  and  CG1_11 
REMARK    8  A    between atoms: CB_10  and  CG2_12 
REMARK    9  A    between atoms: CA_14  and  C_15 
REMARK       I    between atoms: C_15  and  N_20 
REMARK   10  A    between atoms: N_20  and  CA_21 
REMARK   11  A    between atoms: CA_21  and  C_22 
REMARK   12  A    between atoms: CA_21  and  CB_24 
REMARK   13  A    between atoms: CB_24  and  CG1_25 
REMARK   14  A    between atoms: CB_24  and  CG2_26 
REMARK   15  A    between atoms: CG1_25  and  CD1_27 
ROOT
ATOM      1  C   VAL d   1      28.003  34.841  11.073  0.00  0.00     0.243 C 
ATOM      2  O   VAL d   1      27.537  35.263  12.134  0.00  0.00    -0.271 OA
ATOM      3  N   PRO d   1      28.185  33.522  10.839  0.00  0.00    -0.337 N 
ATOM      4  CA  PRO d   1      27.736  32.537  11.831  0.00  0.00     0.091 C 
ATOM      5  CB  PRO d   1      27.341  31.355  10.940  0.00  0.00    -0.036 C 
ATOM      6  CG  PRO d   1      28.258  31.414   9.759  0.00  0.00    -0.048 C 
ATOM      7  CD  PRO d   1      28.465  32.903   9.517  0.00  0.00    -0.001 C 
ATOM      8  H17 PRO d   1      26.854  32.920  12.366  0.00  0.00     0.087 H 
ATOM      9  H18 PRO d   1      26.294  31.451  10.617  0.00  0.00     0.036 H 
ATOM     10  H19 PRO d   1      27.473  30.406  11.481  0.00  0.00     0.036 H 
ATOM     11  H20 PRO d   1      27.795  30.938   8.882  0.00  0.00     0.035 H 
ATOM     12  H21 PRO d   1      29.214  30.919   9.983  0.00  0.00     0.035 H 
ATOM     13  H22 PRO d   1      29.498  33.108   9.200  0.00  0.00     0.064 H 
ATOM     14  H23 PRO d   1      27.766  33.276   8.754  0.00  0.00     0.064 H 
ENDROOT
BRANCH   1  15
ATOM     15  CA  VAL d   1      28.503  35.809   9.981  0.00  0.00     0.092 C 
ATOM     16  H9  VAL d   1      28.819  35.230   9.100  0.00  0.00     0.088 H 
BRANCH  15  17
ATOM     17  N   VAL d   1      27.438  36.717   9.596  0.00  0.00    -0.346 N 
ATOM     18  C   ALA d   1      26.760  36.695   8.466  0.00  0.00     0.248 C 
ATOM     19  O   ALA d   1      26.813  35.827   7.573  0.00  0.00    -0.271 OA
ATOM     20  H8  VAL d   1      27.195  37.430  10.253  0.00  0.00     0.163 HD
BRANCH  18  21
ATOM     21  CA  ALA d   1      25.718  37.798   8.335  0.00  0.00     0.172 C 
ATOM     22  H4  ALA d   1      26.199  38.761   8.562  0.00  0.00     0.098 H 
BRANCH  21  23
ATOM     23  N   ALA d   1      25.184  37.870   6.968  0.00  0.00    -0.067 N 
ATOM     24  H1  ALA d   1      24.499  38.607   6.913  0.00  0.00     0.275 HD
ATOM     25  H2  ALA d   1      24.752  36.991   6.729  0.00  0.00     0.275 HD
ATOM     26  H3  ALA d   1      25.935  38.061   6.324  0.00  0.00     0.275 HD
ENDBRANCH  21  23
BRANCH  21  27
ATOM     27  CB  ALA d   1      24.590  37.553   9.381  0.00  0.00    -0.042 C 
ATOM     28  H5  ALA d   1      25.029  37.505  10.389  0.00  0.00     0.030 H 
ATOM     29  H6  ALA d   1      24.082  36.603   9.157  0.00  0.00     0.030 H 
ATOM     30  H7  ALA d   1      23.863  38.377   9.336  0.00  0.00     0.030 H 
ENDBRANCH  21  27
ENDBRANCH  18  21
ENDBRANCH  15  17
BRANCH  15  31
ATOM     31  CB  VAL d   1      29.708  36.610  10.523  0.00  0.00    -0.033 C 
ATOM     32  H10 VAL d   1      29.337  37.283  11.310  0.00  0.00     0.042 H 
BRANCH  31  33
ATOM     33  CG1 VAL d   1      30.761  35.711  11.168  0.00  0.00    -0.071 C 
ATOM     34  H11 VAL d   1      31.594  36.328  11.536  0.00  0.00     0.028 H 
ATOM     35  H12 VAL d   1      31.137  34.994  10.423  0.00  0.00     0.028 H 
ATOM     36  H13 VAL d   1      30.311  35.164  12.009  0.00  0.00     0.028 H 
ENDBRANCH  31  33
BRANCH  31  37
ATOM     37  CG2 VAL d   1      30.271  37.486   9.389  0.00  0.00    -0.071 C 
ATOM     38  H14 VAL d   1      29.465  38.106   8.970  0.00  0.00     0.028 H 
ATOM     39  H15 VAL d   1      30.686  36.842   8.600  0.00  0.00     0.028 H 
ATOM     40  H16 VAL d   1      31.064  38.136   9.787  0.00  0.00     0.028 H 
ENDBRANCH  31  37
ENDBRANCH  15  31
ENDBRANCH   1  15
BRANCH   4  41
ATOM     41  C   PRO d   1      28.791  32.169  12.876  0.00  0.00     0.241 C 
ATOM     42  O   PRO d   1      30.004  32.161  12.590  0.00  0.00    -0.271 OA
ATOM     43  N   ILE d   1      28.398  31.945  14.107  0.00  0.00    -0.344 N 
ATOM     44  H24 ILE d   1      27.460  32.196  14.347  0.00  0.00     0.163 HD
BRANCH  43  45
ATOM     45  CA  ILE d   1      29.239  31.349  15.165  0.00  0.00     0.099 C 
ATOM     46  H25 ILE d   1      30.192  31.044  14.707  0.00  0.00     0.090 H 
BRANCH  45  47
ATOM     47  C   ILE d   1      28.581  30.115  15.775  0.00  0.00     0.197 C 
ATOM     48  O   ILE d   1      27.394  30.179  16.072  0.00  0.00    -0.646 OA
ATOM     49  OXT ILE d   1      29.204  29.034  16.052  0.00  0.00    -0.646 OA
ENDBRANCH  45  47
BRANCH  45  50
ATOM     50  CB  ILE d   1      29.540  32.357  16.285  0.00  0.00    -0.029 C 
ATOM     51  H26 ILE d   1      28.575  32.672  16.709  0.00  0.00     0.043 H 
BRANCH  50  52
ATOM     52  CG1 ILE d   1      30.233  33.592  15.737  0.00  0.00    -0.063 C 
ATOM     53  H27 ILE d   1      29.532  34.140  15.091  0.00  0.00     0.033 H 
ATOM     54  H28 ILE d   1      31.109  33.281  15.148  0.00  0.00     0.033 H 
BRANCH  52  55
ATOM     55  CD1 ILE d   1      30.686  34.498  16.852  0.00  0.00    -0.076 C 
ATOM     56  H32 ILE d   1      31.183  35.382  16.427  0.00  0.00     0.027 H 
ATOM     57  H33 ILE d   1      31.391  33.957  17.500  0.00  0.00     0.027 H 
ATOM     58  H34 ILE d   1      29.814  34.816  17.443  0.00  0.00     0.027 H 
ENDBRANCH  52  55
ENDBRANCH  50  52
BRANCH  50  59
ATOM     59  CG2 ILE d   1      30.362  31.754  17.415  0.00  0.00    -0.070 C 
ATOM     60  H29 ILE d   1      29.851  30.861  17.804  0.00  0.00     0.028 H 
ATOM     61  H30 ILE d   1      30.474  32.493  18.222  0.00  0.00     0.028 H 
ATOM     62  H31 ILE d   1      31.355  31.472  17.036  0.00  0.00     0.028 H 
ENDBRANCH  50  59
ENDBRANCH  45  50
ENDBRANCH  43  45
ENDBRANCH   4  41
TORSDOF 15
