REMARK  16 active torsions:
REMARK  status: ('A' for Active; 'I' for Inactive)
REMARK    1  A    between atoms: N_1  and  CA_2 
REMARK    2  A    between atoms: CA_2  and  C_3 
REMARK    3  A    between atoms: CA_2  and  CB_5 
REMARK       I    between atoms: C_3  and  N_7 
REMARK    4  A    between atoms: CB_5  and  OG_6 
REMARK    5  A    between atoms: N_7  and  CA_8 
REMARK    6  A    between atoms: CA_8  and  C_9 
REMARK    7  A    between atoms: CA_8  and  CB_11 
REMARK       I    between atoms: C_9  and  N_14 
REMARK    8  A    between atoms: CB_11  and  CG1_12 
REMARK    9  A    between atoms: CB_11  and  CG2_13 
REMARK   10  A    between atoms: CA_15  and  C_16 
REMARK       I    between atoms: C_16  and  N_21 
REMARK   11  A    between atoms: N_21  and  CA_22 
REMARK   12  A    between atoms: CA_22  and  C_23 
REMARK   13  A    between atoms: CA_22  and  CB_25 
REMARK   14  A    between atoms: CB_25  and  CG1_26 
REMARK   15  A    between atoms: CB_25  and  CG2_27 
REMARK   16  A    between atoms: CG1_26  and  CD1_28 
ROOT
ATOM      1  C   VAL d   1      28.095  34.641  11.167  0.00  0.00     0.243 C 
ATOM      2  O   VAL d   1      27.719  35.254  12.165  0.00  0.00    -0.271 OA
ATOM      3  N   PRO d   1      28.356  33.314  11.189  0.00  0.00    -0.337 N 
ATOM      4  CA  PRO d   1      28.182  32.584  12.453  0.00  0.00     0.091 C 
ATOM      5  CB  PRO d   1      28.179  31.104  12.023  0.00  0.00    -0.036 C 
ATOM      6  CG  PRO d   1      28.970  31.079  10.751  0.00  0.00    -0.048 C 
ATOM      7  CD  PRO d   1      28.697  32.417  10.065  0.00  0.00    -0.001 C 
ATOM      8  H17 PRO d   1      27.229  32.853  12.931  0.00  0.00     0.087 H 
ATOM      9  H18 PRO d   1      27.151  30.752  11.848  0.00  0.00     0.036 H 
ATOM     10  H19 PRO d   1      28.656  30.476  12.790  0.00  0.00     0.036 H 
ATOM     11  H20 PRO d   1      28.641  30.247  10.112  0.00  0.00     0.035 H 
ATOM     12  H21 PRO d   1      30.043  30.972  10.969  0.00  0.00     0.035 H 
ATOM     13  H22 PRO d   1      29.590  32.776   9.532  0.00  0.00     0.064 H 
ATOM     14  H23 PRO d   1      27.858  32.334   9.359  0.00  0.00     0.064 H 
ENDROOT
BRANCH   1  15
ATOM     15  CA  VAL d   1      28.368  35.368   9.858  0.00  0.00     0.092 C 
ATOM     16  H9  VAL d   1      28.215  34.663   9.028  0.00  0.00     0.088 H 
BRANCH  15  17
ATOM     17  N   VAL d   1      27.407  36.475   9.692  0.00  0.00    -0.346 N 
ATOM     18  C   SER d   1      26.748  36.644   8.559  0.00  0.00     0.251 C 
ATOM     19  O   SER d   1      26.821  35.919   7.557  0.00  0.00    -0.271 OA
ATOM     20  H8  VAL d   1      27.252  37.108  10.450  0.00  0.00     0.163 HD
BRANCH  18  21
ATOM     21  CA  SER d   1      25.693  37.765   8.580  0.00  0.00     0.195 C 
ATOM     22  H4  SER d   1      26.154  38.691   8.955  0.00  0.00     0.102 H 
BRANCH  21  23
ATOM     23  N   SER d   1      25.211  37.989   7.190  0.00  0.00    -0.064 N 
ATOM     24  H1  SER d   1      24.519  38.722   7.189  0.00  0.00     0.275 HD
ATOM     25  H2  SER d   1      24.802  37.139   6.835  0.00  0.00     0.275 HD
ATOM     26  H3  SER d   1      25.986  38.258   6.605  0.00  0.00     0.275 HD
ENDBRANCH  21  23
BRANCH  21  27
ATOM     27  CB  SER d   1      24.518  37.374   9.519  0.00  0.00     0.051 C 
ATOM     28  H5  SER d   1      23.678  38.066   9.357  0.00  0.00     0.077 H 
ATOM     29  H6  SER d   1      24.852  37.441  10.565  0.00  0.00     0.077 H 
BRANCH  27  30
ATOM     30  OG  SER d   1      24.089  36.042   9.247  0.00  0.00    -0.398 OA
ATOM     31  H7  SER d   1      23.798  35.982   8.345  0.00  0.00     0.209 HD
ENDBRANCH  27  30
ENDBRANCH  21  27
ENDBRANCH  18  21
ENDBRANCH  15  17
BRANCH  15  32
ATOM     32  CB  VAL d   1      29.847  35.832   9.820  0.00  0.00    -0.033 C 
ATOM     33  H10 VAL d   1      30.475  34.934   9.921  0.00  0.00     0.042 H 
BRANCH  32  34
ATOM     34  CG1 VAL d   1      30.171  36.462   8.477  0.00  0.00    -0.071 C 
ATOM     35  H11 VAL d   1      31.223  36.785   8.468  0.00  0.00     0.028 H 
ATOM     36  H12 VAL d   1      29.519  37.333   8.313  0.00  0.00     0.028 H 
ATOM     37  H13 VAL d   1      30.007  35.725   7.677  0.00  0.00     0.028 H 
ENDBRANCH  32  34
BRANCH  32  38
ATOM     38  CG2 VAL d   1      30.188  36.738  10.968  0.00  0.00    -0.071 C 
ATOM     39  H14 VAL d   1      29.936  36.239  11.916  0.00  0.00     0.028 H 
ATOM     40  H15 VAL d   1      29.613  37.672  10.881  0.00  0.00     0.028 H 
ATOM     41  H16 VAL d   1      31.264  36.966  10.948  0.00  0.00     0.028 H 
ENDBRANCH  32  38
ENDBRANCH  15  32
ENDBRANCH   1  15
BRANCH   4  42
ATOM     42  C   PRO d   1      29.302  32.870  13.392  0.00  0.00     0.241 C 
ATOM     43  O   PRO d   1      30.397  33.219  12.955  0.00  0.00    -0.271 OA
ATOM     44  N   ILE d   1      29.043  32.756  14.684  0.00  0.00    -0.344 N 
ATOM     45  H24 ILE d   1      28.096  32.627  14.977  0.00  0.00     0.163 HD
BRANCH  44  46
ATOM     46  CA  ILE d   1      30.103  32.812  15.706  0.00  0.00     0.099 C 
ATOM     47  H25 ILE d   1      30.953  33.400  15.331  0.00  0.00     0.090 H 
BRANCH  46  48
ATOM     48  C   ILE d   1      30.540  31.386  15.962  0.00  0.00     0.197 C 
ATOM     49  O   ILE d   1      29.700  30.554  16.364  0.00  0.00    -0.646 OA
ATOM     50  OXT ILE d   1      31.730  31.038  15.748  0.00  0.00    -0.646 OA
ENDBRANCH  46  48
BRANCH  46  51
ATOM     51  CB  ILE d   1      29.582  33.451  16.975  0.00  0.00    -0.029 C 
ATOM     52  H26 ILE d   1      28.723  32.868  17.338  0.00  0.00     0.043 H 
BRANCH  51  53
ATOM     53  CG1 ILE d   1      29.116  34.866  16.638  0.00  0.00    -0.063 C 
ATOM     54  H27 ILE d   1      28.358  34.809  15.843  0.00  0.00     0.033 H 
ATOM     55  H28 ILE d   1      29.979  35.447  16.280  0.00  0.00     0.033 H 
BRANCH  53  56
ATOM     56  CD1 ILE d   1      28.528  35.559  17.806  0.00  0.00    -0.076 C 
ATOM     57  H32 ILE d   1      28.210  36.570  17.511  0.00  0.00     0.027 H 
ATOM     58  H33 ILE d   1      29.279  35.630  18.607  0.00  0.00     0.027 H 
ATOM     59  H34 ILE d   1      27.658  34.992  18.169  0.00  0.00     0.027 H 
ENDBRANCH  53  56
ENDBRANCH  51  53
BRANCH  51  60
ATOM     60  CG2 ILE d   1      30.643  33.477  18.078  0.00  0.00    -0.070 C 
ATOM     61  H29 ILE d   1      30.963  32.449  18.303  0.00  0.00     0.028 H 
ATOM     62  H30 ILE d   1      30.220  33.936  18.983  0.00  0.00     0.028 H 
ATOM     63  H31 ILE d   1      31.509  34.065  17.740  0.00  0.00     0.028 H 
ENDBRANCH  51  60
ENDBRANCH  46  51
ENDBRANCH  44  46
ENDBRANCH   4  42
TORSDOF 16
