REMARK  20 active torsions:
REMARK  status: ('A' for Active; 'I' for Inactive)
REMARK    1  A    between atoms: N_1  and  CA_2 
REMARK    2  A    between atoms: CA_2  and  C_3 
REMARK    3  A    between atoms: CA_2  and  CB_5 
REMARK       I    between atoms: C_3  and  N_6 
REMARK    4  A    between atoms: N_6  and  CA_7 
REMARK    5  A    between atoms: CA_7  and  C_8 
REMARK    6  A    between atoms: CA_7  and  CB_10 
REMARK       I    between atoms: C_8  and  N_14 
REMARK    7  A    between atoms: CB_10  and  CG_11 
REMARK    8  A    between atoms: CG_11  and  SD_12 
REMARK    9  A    between atoms: SD_12  and  CE_13 
REMARK   10  A    between atoms: N_14  and  CA_15 
REMARK   11  A    between atoms: CA_15  and  C_16 
REMARK   12  A    between atoms: CA_15  and  CB_18 
REMARK       I    between atoms: C_16  and  N_25 
REMARK   13  A    between atoms: CB_18  and  CG_19 
REMARK   14  A    between atoms: CG_19  and  CD_20 
REMARK   15  A    between atoms: CD_20  and  NE_21 
REMARK       I    between atoms: NE_21  and  CZ_22 
REMARK       I    between atoms: CZ_22  and  NH1_23 
REMARK   16  A    between atoms: N_25  and  CA_26 
REMARK   17  A    between atoms: CA_26  and  C_27 
REMARK   18  A    between atoms: CA_26  and  CB_29 
REMARK   19  A    between atoms: CB_29  and  CG1_30 
REMARK   20  A    between atoms: CB_29  and  CG2_31 
ROOT
ATOM      1  CA  ARG d   1     -33.376 -29.184 -12.477  0.00  0.00     0.089 C 
ATOM      2  H18 ARG d   1     -33.328 -28.232 -13.026  0.00  0.00     0.087 H 
ENDROOT
BRANCH   1   3
ATOM      3  N   ARG d   1     -34.061 -28.937 -11.228  0.00  0.00    -0.346 N 
ATOM      4  C   MET d   1     -35.251 -28.368 -11.218  0.00  0.00     0.241 C 
ATOM      5  O   MET d   1     -35.750 -27.826 -12.226  0.00  0.00    -0.271 OA
ATOM      6  H17 ARG d   1     -33.629 -29.200 -10.365  0.00  0.00     0.163 HD
BRANCH   4   7
ATOM      7  CA  MET d   1     -35.973 -28.418  -9.876  0.00  0.00     0.090 C 
ATOM      8  H9  MET d   1     -35.214 -28.269  -9.094  0.00  0.00     0.087 H 
BRANCH   7   9
ATOM      9  N   MET d   1     -36.935 -27.353  -9.769  0.00  0.00    -0.346 N 
ATOM     10  C   ALA d   1     -36.954 -26.599  -8.686  0.00  0.00     0.248 C 
ATOM     11  O   ALA d   1     -36.159 -26.764  -7.725  0.00  0.00    -0.271 OA
ATOM     12  H8  MET d   1     -37.585 -27.185 -10.510  0.00  0.00     0.163 HD
BRANCH  10  13
ATOM     13  CA  ALA d   1     -38.051 -25.514  -8.669  0.00  0.00     0.172 C 
ATOM     14  H4  ALA d   1     -39.013 -25.965  -8.955  0.00  0.00     0.098 H 
BRANCH  13  15
ATOM     15  N   ALA d   1     -38.135 -25.033  -7.283  0.00  0.00    -0.067 N 
ATOM     16  H1  ALA d   1     -38.842 -24.318  -7.218  0.00  0.00     0.275 HD
ATOM     17  H2  ALA d   1     -37.245 -24.651  -7.005  0.00  0.00     0.275 HD
ATOM     18  H3  ALA d   1     -38.376 -25.800  -6.675  0.00  0.00     0.275 HD
ENDBRANCH  13  15
BRANCH  13  19
ATOM     19  CB  ALA d   1     -37.743 -24.389  -9.649  0.00  0.00    -0.042 C 
ATOM     20  H5  ALA d   1     -37.690 -24.796 -10.670  0.00  0.00     0.030 H 
ATOM     21  H6  ALA d   1     -36.779 -23.929  -9.387  0.00  0.00     0.030 H 
ATOM     22  H7  ALA d   1     -38.538 -23.630  -9.598  0.00  0.00     0.030 H 
ENDBRANCH  13  19
ENDBRANCH  10  13
ENDBRANCH   7   9
BRANCH   7  23
ATOM     23  CB  MET d   1     -36.667 -29.769  -9.595  0.00  0.00    -0.030 C 
ATOM     24  H10 MET d   1     -37.197 -29.680  -8.635  0.00  0.00     0.037 H 
ATOM     25  H11 MET d   1     -35.884 -30.537  -9.511  0.00  0.00     0.037 H 
BRANCH  23  26
ATOM     26  CG  MET d   1     -37.666 -30.241 -10.631  0.00  0.00    -0.021 C 
ATOM     27  H12 MET d   1     -37.123 -30.595 -11.520  0.00  0.00     0.049 H 
ATOM     28  H13 MET d   1     -38.319 -29.401 -10.911  0.00  0.00     0.049 H 
BRANCH  26  29
ATOM     29  SD  MET d   1     -38.699 -31.613  -9.969  0.00  0.00    -0.173 SA
BRANCH  29  30
ATOM     30  CE  MET d   1     -37.659 -33.019 -10.423  0.00  0.00    -0.035 C 
ATOM     31  H14 MET d   1     -38.139 -33.952 -10.093  0.00  0.00     0.041 H 
ATOM     32  H15 MET d   1     -36.677 -32.920  -9.938  0.00  0.00     0.041 H 
ATOM     33  H16 MET d   1     -37.528 -33.041 -11.515  0.00  0.00     0.041 H 
ENDBRANCH  29  30
ENDBRANCH  26  29
ENDBRANCH  23  26
ENDBRANCH   7  23
ENDBRANCH   4   7
ENDBRANCH   1   3
BRANCH   1  34
ATOM     34  C   ARG d   1     -34.090 -30.180 -13.336  0.00  0.00     0.241 C 
ATOM     35  O   ARG d   1     -34.785 -31.077 -12.857  0.00  0.00    -0.271 OA
ATOM     36  N   VAL d   1     -33.912 -29.958 -14.625  0.00  0.00    -0.344 N 
ATOM     37  H30 VAL d   1     -33.305 -29.209 -14.891  0.00  0.00     0.163 HD
BRANCH  36  38
ATOM     38  CA  VAL d   1     -34.526 -30.714 -15.658  0.00  0.00     0.099 C 
ATOM     39  H31 VAL d   1     -35.549 -30.984 -15.357  0.00  0.00     0.090 H 
BRANCH  38  40
ATOM     40  C   VAL d   1     -33.713 -31.965 -15.884  0.00  0.00     0.197 C 
ATOM     41  O   VAL d   1     -34.305 -33.016 -16.109  0.00  0.00    -0.646 OA
ATOM     42  H   VAL d   1     -32.624 -31.936 -15.848  0.00  0.00    -0.646 OA
ENDBRANCH  38  40
BRANCH  38  43
ATOM     43  CB  VAL d   1     -34.575 -29.911 -16.949  0.00  0.00    -0.032 C 
ATOM     44  H32 VAL d   1     -33.558 -29.567 -17.191  0.00  0.00     0.042 H 
BRANCH  43  45
ATOM     45  CG1 VAL d   1     -35.080 -30.778 -18.094  0.00  0.00    -0.071 C 
ATOM     46  H33 VAL d   1     -35.109 -30.183 -19.019  0.00  0.00     0.028 H 
ATOM     47  H34 VAL d   1     -36.091 -31.142 -17.860  0.00  0.00     0.028 H 
ATOM     48  H35 VAL d   1     -34.404 -31.635 -18.231  0.00  0.00     0.028 H 
ENDBRANCH  43  45
BRANCH  43  49
ATOM     49  CG2 VAL d   1     -35.469 -28.699 -16.767  0.00  0.00    -0.071 C 
ATOM     50  H36 VAL d   1     -35.090 -28.085 -15.937  0.00  0.00     0.028 H 
ATOM     51  H37 VAL d   1     -36.493 -29.030 -16.540  0.00  0.00     0.028 H 
ATOM     52  H38 VAL d   1     -35.472 -28.104 -17.692  0.00  0.00     0.028 H 
ENDBRANCH  43  49
ENDBRANCH  38  43
ENDBRANCH  36  38
ENDBRANCH   1  34
BRANCH   1  53
ATOM     53  CB  ARG d   1     -31.956 -29.667 -12.229  0.00  0.00    -0.036 C 
ATOM     54  H19 ARG d   1     -31.596 -30.222 -13.108  0.00  0.00     0.036 H 
ATOM     55  H20 ARG d   1     -31.938 -30.325 -11.347  0.00  0.00     0.036 H 
BRANCH  53  56
ATOM     56  CG  ARG d   1     -31.069 -28.471 -11.987  0.00  0.00    -0.048 C 
ATOM     57  H21 ARG d   1     -31.558 -27.799 -11.266  0.00  0.00     0.035 H 
ATOM     58  H22 ARG d   1     -30.913 -27.939 -12.937  0.00  0.00     0.035 H 
BRANCH  56  59
ATOM     59  CD  ARG d   1     -29.754 -28.894 -11.444  0.00  0.00     0.009 C 
ATOM     60  H23 ARG d   1     -29.114 -28.013 -11.289  0.00  0.00     0.064 H 
ATOM     61  H24 ARG d   1     -29.265 -29.583 -12.148  0.00  0.00     0.064 H 
BRANCH  59  62
ATOM     62  NE  ARG d   1     -29.978 -29.558 -10.192  0.00  0.00    -0.227 N 
ATOM     63  CZ  ARG d   1     -29.042 -30.185  -9.511  0.00  0.00     0.665 C 
ATOM     64  NH1 ARG d   1     -27.784 -30.240  -9.969  0.00  0.00    -0.235 N 
ATOM     65  NH2 ARG d   1     -29.382 -30.747  -8.363  0.00  0.00    -0.235 N 
ATOM     66  H26 ARG d   1     -27.060 -30.733  -9.428  0.00  0.00     0.174 HD
ATOM     67  H27 ARG d   1     -27.541 -29.789 -10.863  0.00  0.00     0.174 HD
ATOM     68  H28 ARG d   1     -30.355 -30.692  -8.031  0.00  0.00     0.174 HD
ATOM     69  H29 ARG d   1     -28.673 -31.240  -7.801  0.00  0.00     0.174 HD
ATOM     70  H25 ARG d   1     -30.931 -29.543  -9.802  0.00  0.00     0.177 HD
ENDBRANCH  59  62
ENDBRANCH  56  59
ENDBRANCH  53  56
ENDBRANCH   1  53
TORSDOF 20
