REMARK  12 active torsions:
REMARK  status: ('A' for Active; 'I' for Inactive)
REMARK    1  A    between atoms: C5_2  and  C57_3 
REMARK    2  A    between atoms: C5_2  and  C51_4 
REMARK    3  A    between atoms: C4_5  and  C47_6 
REMARK    4  A    between atoms: C4_5  and  C41_7 
REMARK    5  A    between atoms: C2_9  and  C21_10 
REMARK    6  A    between atoms: C24_25  and  C30_26 
REMARK    7  A    between atoms: C30_26  and  C32_27 
REMARK    8  A    between atoms: C30_26  and  C31_28 
REMARK    9  A    between atoms: C30_26  and  C33_34 
REMARK   10  A    between atoms: C26_30  and  O27_31 
REMARK   11  A    between atoms: O27_31  and  C28_32 
REMARK   12  A    between atoms: C28_32  and  C29_33 
ROOT
ATOM      1  N1  I31 d   1      -3.659   5.032  -0.045  0.00  0.00    -0.358 N 
ATOM      2  C5  I31 d   1      -3.658   3.911  -0.998  0.00  0.00     0.086 C 
ATOM      3  C4  I31 d   1      -2.476   3.049  -0.444  0.00  0.00     0.108 C 
ATOM      4  N3  I31 d   1      -2.395   3.476   0.940  0.00  0.00    -0.254 NA
ATOM      5  C2  I31 d   1      -2.939   4.629   1.071  0.00  0.00     0.133 C 
ATOM      6  H1  I31 d   1      -4.111   5.947  -0.181  0.00  0.00     0.162 HD
ENDROOT
BRANCH   5   7
ATOM      7  C21 I31 d   1      -2.813   5.488   2.245  0.00  0.00     0.043 A 
ATOM      8  C22 I31 d   1      -1.654   5.415   3.017  0.00  0.00    -0.066 A 
ATOM      9  C23 I31 d   1      -1.488   6.233   4.125  0.00  0.00    -0.075 A 
ATOM     10  H16 I31 d   1      -0.874   4.711   2.748  0.00  0.00     0.085 H 
ATOM     11  C24 I31 d   1      -2.482   7.136   4.486  0.00  0.00    -0.048 A 
ATOM     12  H17 I31 d   1      -0.579   6.168   4.712  0.00  0.00     0.084 H 
ATOM     13  C25 I31 d   1      -3.666   7.224   3.722  0.00  0.00    -0.043 A 
ATOM     14  C26 I31 d   1      -3.812   6.386   2.609  0.00  0.00     0.083 A 
ATOM     15  H24 I31 d   1      -4.447   7.926   3.991  0.00  0.00     0.088 H 
BRANCH  11  16
ATOM     16  C30 I31 d   1      -2.272   7.998   5.711  0.00  0.00    -0.024 C 
BRANCH  16  17
ATOM     17  C32 I31 d   1      -2.130   7.092   6.941  0.00  0.00    -0.066 C 
ATOM     18  H18 I31 d   1      -1.977   7.712   7.837  0.00  0.00     0.028 H 
ATOM     19  H19 I31 d   1      -1.267   6.423   6.806  0.00  0.00     0.028 H 
ATOM     20  H20 I31 d   1      -3.044   6.492   7.062  0.00  0.00     0.028 H 
ENDBRANCH  16  17
BRANCH  16  21
ATOM     21  C31 I31 d   1      -3.467   8.934   5.905  0.00  0.00    -0.066 C 
ATOM     22  H21 I31 d   1      -3.570   9.584   5.024  0.00  0.00     0.028 H 
ATOM     23  H22 I31 d   1      -3.307   9.553   6.800  0.00  0.00     0.028 H 
ATOM     24  H23 I31 d   1      -4.383   8.338   6.030  0.00  0.00     0.028 H 
ENDBRANCH  16  21
BRANCH  16  25
ATOM     25  C33 I31 d   1      -0.992   8.831   5.551  0.00  0.00    -0.066 C 
ATOM     26  H30 I31 d   1      -0.132   8.159   5.412  0.00  0.00     0.028 H 
ATOM     27  H31 I31 d   1      -0.837   9.442   6.452  0.00  0.00     0.028 H 
ATOM     28  H32 I31 d   1      -1.089   9.488   4.675  0.00  0.00     0.028 H 
ENDBRANCH  16  25
ENDBRANCH  11  16
BRANCH  14  29
ATOM     29  O27 I31 d   1      -4.966   6.425   1.832  0.00  0.00    -0.350 OA
BRANCH  29  30
ATOM     30  C28 I31 d   1      -5.984   7.299   2.298  0.00  0.00     0.023 C 
ATOM     31  H25 I31 d   1      -5.596   8.328   2.335  0.00  0.00     0.074 H 
ATOM     32  H26 I31 d   1      -6.299   6.990   3.305  0.00  0.00     0.074 H 
BRANCH  30  33
ATOM     33  C29 I31 d   1      -7.188   7.240   1.344  0.00  0.00    -0.056 C 
ATOM     34  H27 I31 d   1      -7.976   7.917   1.706  0.00  0.00     0.030 H 
ATOM     35  H28 I31 d   1      -7.577   6.212   1.307  0.00  0.00     0.030 H 
ATOM     36  H29 I31 d   1      -6.873   7.549   0.336  0.00  0.00     0.030 H 
ENDBRANCH  30  33
ENDBRANCH  29  30
ENDBRANCH  14  29
ENDBRANCH   5   7
BRANCH   2  37
ATOM     37  C57 I31 d   1      -3.386   4.398  -2.430  0.00  0.00    -0.046 C 
ATOM     38  H2  I31 d   1      -3.392   3.539  -3.117  0.00  0.00     0.031 H 
ATOM     39  H3  I31 d   1      -2.404   4.892  -2.469  0.00  0.00     0.031 H 
ATOM     40  H4  I31 d   1      -4.168   5.112  -2.729  0.00  0.00     0.031 H 
ENDBRANCH   2  37
BRANCH   2  41
ATOM     41  C51 I31 d   1      -4.988   3.185  -0.896  0.00  0.00    -0.028 A 
ATOM     42  C56 I31 d   1      -5.805   3.401   0.215  0.00  0.00    -0.073 A 
ATOM     43  C55 I31 d   1      -6.991   2.689   0.369  0.00  0.00    -0.061 A 
ATOM     44  H8  I31 d   1      -5.513   4.129   0.964  0.00  0.00     0.084 H 
ATOM     45  C54 I31 d   1      -7.362   1.758  -0.597  0.00  0.00     0.034 A 
ATOM     46  H9  I31 d   1      -7.621   2.858   1.235  0.00  0.00     0.086 H 
ATOM     47 CL5  I31 d   1      -8.808   0.803  -0.371  0.00  0.00    -0.084 Cl
ATOM     48  C53 I31 d   1      -6.582   1.572  -1.741  0.00  0.00    -0.061 A 
ATOM     49  C52 I31 d   1      -5.394   2.287  -1.889  0.00  0.00    -0.073 A 
ATOM     50  H10 I31 d   1      -6.899   0.876  -2.509  0.00  0.00     0.086 H 
ATOM     51  H11 I31 d   1      -4.784   2.147  -2.774  0.00  0.00     0.084 H 
ENDBRANCH   2  41
BRANCH   3  52
ATOM     52  C47 I31 d   1      -1.168   3.438  -1.149  0.00  0.00    -0.044 C 
ATOM     53  H5  I31 d   1      -0.343   2.828  -0.754  0.00  0.00     0.031 H 
ATOM     54  H6  I31 d   1      -0.956   4.502  -0.968  0.00  0.00     0.031 H 
ATOM     55  H7  I31 d   1      -1.268   3.263  -2.230  0.00  0.00     0.031 H 
ENDBRANCH   3  52
BRANCH   3  56
ATOM     56  C41 I31 d   1      -2.690   1.552  -0.541  0.00  0.00    -0.025 A 
ATOM     57  C42 I31 d   1      -2.093   0.825  -1.581  0.00  0.00    -0.073 A 
ATOM     58  C43 I31 d   1      -2.274  -0.555  -1.666  0.00  0.00    -0.061 A 
ATOM     59  H12 I31 d   1      -1.489   1.337  -2.321  0.00  0.00     0.084 H 
ATOM     60  C44 I31 d   1      -3.061  -1.205  -0.716  0.00  0.00     0.034 A 
ATOM     61  H13 I31 d   1      -1.806  -1.119  -2.465  0.00  0.00     0.086 H 
ATOM     62 CL4  I31 d   1      -3.330  -2.932  -0.842  0.00  0.00    -0.084 Cl
ATOM     63  C45 I31 d   1      -3.647  -0.490   0.328  0.00  0.00    -0.061 A 
ATOM     64  C46 I31 d   1      -3.461   0.886   0.414  0.00  0.00    -0.073 A 
ATOM     65  H14 I31 d   1      -4.246  -1.005   1.071  0.00  0.00     0.086 H 
ATOM     66  H15 I31 d   1      -3.916   1.443   1.225  0.00  0.00     0.084 H 
ENDBRANCH   3  56
TORSDOF 12
