REMARK  10 active torsions:
REMARK  status: ('A' for Active; 'I' for Inactive)
REMARK       I    between atoms: C10_23  and  N1_1 
REMARK    1  A    between atoms: C5_2  and  C57_3 
REMARK    2  A    between atoms: C5_2  and  C51_4 
REMARK    3  A    between atoms: C4_5  and  C47_6 
REMARK    4  A    between atoms: C4_5  and  C41_7 
REMARK    5  A    between atoms: C2_9  and  C21_10 
REMARK       I    between atoms: N10_25  and  C10_23 
REMARK    6  A    between atoms: C15_37  and  N12_28 
REMARK    7  A    between atoms: C16_31  and  C17_32 
REMARK    8  A    between atoms: C16_31  and  C15_37 
REMARK    9  A    between atoms: C17_32  and  S17_33 
REMARK   10  A    between atoms: S17_33  and  C19_34 
ROOT
ATOM      1  N1  I29 d   1     -12.931  -8.611   2.640  0.00  0.00    -0.271 N 
ATOM      2  C5  I29 d   1     -12.037  -9.226   1.660  0.00  0.00     0.098 C 
ATOM      3  C4  I29 d   1     -11.407 -10.343   2.555  0.00  0.00     0.108 C 
ATOM      4  N3  I29 d   1     -12.401 -10.538   3.638  0.00  0.00    -0.259 NA
ATOM      5  C2  I29 d   1     -13.276  -9.609   3.595  0.00  0.00     0.103 C 
ATOM      6  C10 I29 d   1     -13.660  -7.395   2.351  0.00  0.00     0.327 C 
ATOM      7  O10 I29 d   1     -13.641  -6.913   1.201  0.00  0.00    -0.247 OA
ATOM      8  N10 I29 d   1     -14.370  -6.762   3.398  0.00  0.00    -0.331 N 
ATOM      9  C14 I29 d   1     -15.667  -6.157   3.119  0.00  0.00     0.022 C 
ATOM     10  C13 I29 d   1     -16.521  -6.186   4.367  0.00  0.00     0.098 C 
ATOM     11  N12 I29 d   1     -15.933  -5.321   5.398  0.00  0.00    -0.068 N 
ATOM     12  C12 I29 d   1     -14.472  -5.595   5.623  0.00  0.00     0.098 C 
ATOM     13  C11 I29 d   1     -13.943  -6.818   4.821  0.00  0.00     0.022 C 
ATOM     14  H18 I29 d   1     -16.169  -6.721   2.319  0.00  0.00     0.067 H 
ATOM     15  H19 I29 d   1     -15.523  -5.115   2.798  0.00  0.00     0.067 H 
ATOM     16  H20 I29 d   1     -16.578  -7.217   4.746  0.00  0.00     0.078 H 
ATOM     17  H21 I29 d   1     -17.532  -5.828   4.125  0.00  0.00     0.078 H 
ATOM     18  H22 I29 d   1     -16.008  -4.370   5.072  0.00  0.00     0.280 HD
ATOM     19  H23 I29 d   1     -14.314  -5.786   6.695  0.00  0.00     0.078 H 
ATOM     20  H24 I29 d   1     -13.900  -4.706   5.321  0.00  0.00     0.078 H 
ATOM     21  H25 I29 d   1     -12.844  -6.826   4.864  0.00  0.00     0.067 H 
ATOM     22  H26 I29 d   1     -14.334  -7.740   5.276  0.00  0.00     0.067 H 
ENDROOT
BRANCH   2  23
ATOM     23  C57 I29 d   1     -10.971  -8.245   1.158  0.00  0.00    -0.046 C 
ATOM     24  H1  I29 d   1     -10.324  -8.750   0.425  0.00  0.00     0.031 H 
ATOM     25  H2  I29 d   1     -10.363  -7.898   2.007  0.00  0.00     0.031 H 
ATOM     26  H3  I29 d   1     -11.461  -7.383   0.682  0.00  0.00     0.031 H 
ENDBRANCH   2  23
BRANCH   2  27
ATOM     27  C51 I29 d   1     -12.852  -9.812   0.504  0.00  0.00    -0.027 A 
ATOM     28  C56 I29 d   1     -14.228 -10.045   0.666  0.00  0.00    -0.073 A 
ATOM     29  C55 I29 d   1     -14.960 -10.680  -0.334  0.00  0.00    -0.061 A 
ATOM     30  H10 I29 d   1     -14.724  -9.728   1.577  0.00  0.00     0.084 H 
ATOM     31  C54 I29 d   1     -14.321 -11.094  -1.505  0.00  0.00     0.034 A 
ATOM     32  H11 I29 d   1     -16.022 -10.852  -0.204  0.00  0.00     0.086 H 
ATOM     33 CL5  I29 d   1     -15.212 -12.049  -2.693  0.00  0.00    -0.084 Cl
ATOM     34  C53 I29 d   1     -12.972 -10.780  -1.720  0.00  0.00    -0.061 A 
ATOM     35  C52 I29 d   1     -12.239 -10.141  -0.712  0.00  0.00    -0.073 A 
ATOM     36  H12 I29 d   1     -12.498 -11.031  -2.662  0.00  0.00     0.086 H 
ATOM     37  H13 I29 d   1     -11.194  -9.900  -0.873  0.00  0.00     0.084 H 
ENDBRANCH   2  27
BRANCH   5  38
ATOM     38  C21 I29 d   1     -14.576  -9.571   4.348  0.00  0.00    -0.021 C 
ATOM     39  H7  I29 d   1     -14.631 -10.434   5.028  0.00  0.00     0.037 H 
ATOM     40  H8  I29 d   1     -15.414  -9.611   3.636  0.00  0.00     0.037 H 
ATOM     41  H9  I29 d   1     -14.635  -8.640   4.931  0.00  0.00     0.037 H 
ENDBRANCH   5  38
BRANCH   3  42
ATOM     42  C47 I29 d   1     -10.091  -9.837   3.159  0.00  0.00    -0.044 C 
ATOM     43  H4  I29 d   1      -9.650 -10.624   3.788  0.00  0.00     0.031 H 
ATOM     44  H5  I29 d   1     -10.288  -8.945   3.772  0.00  0.00     0.031 H 
ATOM     45  H6  I29 d   1      -9.392  -9.579   2.350  0.00  0.00     0.031 H 
ENDBRANCH   3  42
BRANCH   3  46
ATOM     46  C41 I29 d   1     -11.166 -11.631   1.816  0.00  0.00    -0.025 A 
ATOM     47  C42 I29 d   1      -9.915 -11.873   1.235  0.00  0.00    -0.073 A 
ATOM     48  C43 I29 d   1      -9.687 -13.056   0.538  0.00  0.00    -0.061 A 
ATOM     49  H14 I29 d   1      -9.123 -11.138   1.328  0.00  0.00     0.084 H 
ATOM     50  C44 I29 d   1     -10.717 -13.992   0.413  0.00  0.00     0.034 A 
ATOM     51  H15 I29 d   1      -8.717 -13.250   0.095  0.00  0.00     0.086 H 
ATOM     52 CL4  I29 d   1     -10.458 -15.441  -0.538  0.00  0.00    -0.084 Cl
ATOM     53  C45 I29 d   1     -11.955 -13.771   1.019  0.00  0.00    -0.061 A 
ATOM     54  C46 I29 d   1     -12.175 -12.587   1.719  0.00  0.00    -0.073 A 
ATOM     55  H16 I29 d   1     -12.739 -14.515   0.945  0.00  0.00     0.086 H 
ATOM     56  H17 I29 d   1     -13.135 -12.409   2.190  0.00  0.00     0.084 H 
ENDBRANCH   3  46
BRANCH  11  57
ATOM     57  C15 I29 d   1     -16.712  -5.425   6.655  0.00  0.00     0.084 C 
ATOM     58  H34 I29 d   1     -16.597  -6.438   7.068  0.00  0.00     0.076 H 
ATOM     59  H35 I29 d   1     -17.774  -5.236   6.438  0.00  0.00     0.076 H 
BRANCH  57  60
ATOM     60  C16 I29 d   1     -16.220  -4.404   7.685  0.00  0.00    -0.030 C 
ATOM     61  H27 I29 d   1     -15.270  -4.752   8.116  0.00  0.00     0.036 H 
ATOM     62  H28 I29 d   1     -16.064  -3.435   7.189  0.00  0.00     0.036 H 
BRANCH  60  63
ATOM     63  C17 I29 d   1     -17.253  -4.238   8.807  0.00  0.00     0.030 C 
ATOM     64  H29 I29 d   1     -18.125  -4.873   8.590  0.00  0.00     0.056 H 
ATOM     65  H30 I29 d   1     -17.568  -3.185   8.853  0.00  0.00     0.056 H 
BRANCH  63  66
ATOM     66  S17 I29 d   1     -16.566  -4.710  10.383  0.00  0.00     0.140 S 
ATOM     67  O17 I29 d   1     -15.499  -3.774  10.729  0.00  0.00    -0.228 OA
ATOM     68  O18 I29 d   1     -16.199  -6.123  10.327  0.00  0.00    -0.228 OA
BRANCH  66  69
ATOM     69  C19 I29 d   1     -17.895  -4.514  11.552  0.00  0.00     0.015 C 
ATOM     70  H31 I29 d   1     -17.543  -4.790  12.557  0.00  0.00     0.048 H 
ATOM     71  H32 I29 d   1     -18.734  -5.165  11.266  0.00  0.00     0.048 H 
ATOM     72  H33 I29 d   1     -18.229  -3.466  11.555  0.00  0.00     0.048 H 
ENDBRANCH  66  69
ENDBRANCH  63  66
ENDBRANCH  60  63
ENDBRANCH  57  60
ENDBRANCH  11  57
TORSDOF 10
