REMARK  2 active torsions:
REMARK  status: ('A' for Active; 'I' for Inactive)
REMARK    1  A    between atoms: C13_13  and  C10_10 
REMARK    2  A    between atoms: C16_16  and  C11_11 
ROOT
ATOM      1  C12 1JR d   1      -2.942   2.953   9.491  0.00  0.00     0.034 A 
ATOM      2  C13 1JR d   1      -3.164   3.904  10.511  0.00  0.00     0.071 A 
ATOM      3  C14 1JR d   1      -3.079   1.735  10.103  0.00  0.00     0.155 A 
ATOM      4  C15 1JR d   1      -2.887   0.650   9.213  0.00  0.00     0.273 C 
ATOM      5  C16 1JR d   1      -2.601   2.751   8.058  0.00  0.00     0.070 C 
ATOM      6  N18 1JR d   1      -3.426   3.270  11.680  0.00  0.00    -0.276 N 
ATOM      7  N19 1JR d   1      -3.371   1.947  11.396  0.00  0.00    -0.168 NA
ATOM      8  N20 1JR d   1      -2.751   1.281   7.976  0.00  0.00    -0.343 N 
ATOM      9  O21 1JR d   1      -2.873  -0.545   9.445  0.00  0.00    -0.266 OA
ATOM     10  H10 1JR d   1      -1.570   3.066   7.839  0.00  0.00     0.088 H 
ATOM     11  H11 1JR d   1      -3.625   3.704  12.593  0.00  0.00     0.189 HD
ATOM     12  H12 1JR d   1      -2.755   0.783   7.109  0.00  0.00     0.163 HD
ENDROOT
BRANCH   2  13
ATOM     13  C10 1JR d   1      -3.144   5.364  10.468  0.00  0.00    -0.007 A 
ATOM     14  C5  1JR d   1      -3.633   6.106  11.554  0.00  0.00    -0.071 A 
ATOM     15  C2  1JR d   1      -3.617   7.505  11.533  0.00  0.00    -0.082 A 
ATOM     16  H5  1JR d   1      -4.028   5.589  12.421  0.00  0.00     0.084 H 
ATOM     17  C1  1JR d   1      -3.111   8.175  10.420  0.00  0.00    -0.083 A 
ATOM     18  H2  1JR d   1      -3.997   8.066  12.379  0.00  0.00     0.083 H 
ATOM     19  C3  1JR d   1      -2.619   7.447   9.335  0.00  0.00    -0.082 A 
ATOM     20  H1  1JR d   1      -3.100   9.259  10.397  0.00  0.00     0.083 H 
ATOM     21  C6  1JR d   1      -2.629   6.049   9.357  0.00  0.00    -0.071 A 
ATOM     22  H3  1JR d   1      -2.227   7.969   8.470  0.00  0.00     0.083 H 
ATOM     23  H6  1JR d   1      -2.238   5.493   8.513  0.00  0.00     0.084 H 
ENDBRANCH   2  13
BRANCH   5  24
ATOM     24  C11 1JR d   1      -3.543   3.473   7.135  0.00  0.00    -0.013 A 
ATOM     25  C7  1JR d   1      -3.081   4.525   6.333  0.00  0.00    -0.072 A 
ATOM     26  C4  1JR d   1      -3.955   5.176   5.467  0.00  0.00    -0.065 A 
ATOM     27  H7  1JR d   1      -2.043   4.832   6.387  0.00  0.00     0.084 H 
ATOM     28  C8  1JR d   1      -5.271   4.750   5.415  0.00  0.00     0.002 A 
ATOM     29  H4  1JR d   1      -3.613   5.997   4.848  0.00  0.00     0.085 H 
ATOM     30  N17 1JR d   1      -5.759   3.735   6.158  0.00  0.00    -0.272 NA
ATOM     31  H8  1JR d   1      -5.948   5.261   4.739  0.00  0.00     0.114 H 
ATOM     32  C9  1JR d   1      -4.884   3.118   6.987  0.00  0.00     0.010 A 
ATOM     33  H9  1JR d   1      -5.252   2.288   7.579  0.00  0.00     0.115 H 
ENDBRANCH   5  24
TORSDOF 2
