REMARK  11 active torsions:
REMARK  status: ('A' for Active; 'I' for Inactive)
REMARK    1  A    between atoms: N_1  and  CA_2 
REMARK    2  A    between atoms: CA_2  and  CB_3 
REMARK    3  A    between atoms: CA_2  and  C_6 
REMARK    4  A    between atoms: CB_3  and  CG_4 
REMARK    5  A    between atoms: CG_4  and  SD_5 
REMARK    6  A    between atoms: SD_5  and  C5'_9 
REMARK    7  A    between atoms: C5'_9  and  C4'_10 
REMARK    8  A    between atoms: C3'_12  and  O3'_13 
REMARK    9  A    between atoms: C2'_14  and  O2'_15 
REMARK   10  A    between atoms: C1'_16  and  N9_17 
REMARK   11  A    between atoms: C6_21  and  N6_22 
ROOT
ATOM      1  C4' SAH d   1       5.748   8.602  19.434  0.00  0.00     0.076 C 
ATOM      2  O4' SAH d   1       5.132   7.895  18.374  0.00  0.00    -0.355 OA
ATOM      3  C3' SAH d   1       7.236   8.613  19.106  0.00  0.00     0.090 C 
ATOM      4  C2' SAH d   1       7.429   7.244  18.505  0.00  0.00     0.105 C 
ATOM      5  C1' SAH d   1       6.082   6.988  17.845  0.00  0.00     0.139 C 
ATOM      6  H11 SAH d   1       5.585   8.068  20.382  0.00  0.00     0.088 H 
ATOM      7  H12 SAH d   1       7.480   9.402  18.380  0.00  0.00     0.091 H 
ATOM      8  H14 SAH d   1       8.263   7.220  17.788  0.00  0.00     0.093 H 
ATOM      9  H16 SAH d   1       5.761   5.955  18.043  0.00  0.00     0.122 H 
ENDROOT
BRANCH   1  10
ATOM     10  C5' SAH d   1       5.173  10.003  19.567  0.00  0.00     0.003 C 
ATOM     11  H9  SAH d   1       4.085   9.919  19.708  0.00  0.00     0.052 H 
ATOM     12  H10 SAH d   1       5.621  10.479  20.452  0.00  0.00     0.052 H 
BRANCH  10  13
ATOM     13  SD  SAH d   1       5.481  11.061  18.135  0.00  0.00    -0.166 SA
BRANCH  13  14
ATOM     14  CG  SAH d   1       3.711  11.006  17.865  0.00  0.00    -0.021 C 
ATOM     15  H7  SAH d   1       3.514  10.790  16.805  0.00  0.00     0.049 H 
ATOM     16  H8  SAH d   1       3.275  10.211  18.488  0.00  0.00     0.049 H 
BRANCH  14  17
ATOM     17  CB  SAH d   1       3.073  12.329  18.229  0.00  0.00    -0.021 C 
ATOM     18  H5  SAH d   1       2.756  12.311  19.282  0.00  0.00     0.037 H 
ATOM     19  H6  SAH d   1       3.796  13.144  18.078  0.00  0.00     0.037 H 
BRANCH  17  20
ATOM     20  CA  SAH d   1       1.871  12.541  17.337  0.00  0.00     0.183 C 
ATOM     21  H4  SAH d   1       1.726  11.646  16.714  0.00  0.00     0.101 H 
BRANCH  20  22
ATOM     22  N   SAH d   1       2.133  13.674  16.456  0.00  0.00    -0.065 N 
ATOM     23  H1  SAH d   1       2.965  13.495  15.916  0.00  0.00     0.275 HD
ATOM     24  H2  SAH d   1       2.264  14.506  17.009  0.00  0.00     0.275 HD
ATOM     25  H3  SAH d   1       1.351  13.804  15.834  0.00  0.00     0.275 HD
ENDBRANCH  20  22
BRANCH  20  26
ATOM     26  C   SAH d   1       0.627  12.729  18.192  0.00  0.00     0.204 C 
ATOM     27  O   SAH d   1       0.051  11.759  18.684  0.00  0.00    -0.646 OA
ATOM     28  OXT SAH d   1       0.175  13.853  18.413  0.00  0.00    -0.646 OA
ENDBRANCH  20  26
ENDBRANCH  17  20
ENDBRANCH  14  17
ENDBRANCH  13  14
ENDBRANCH  10  13
ENDBRANCH   1  10
BRANCH   3  29
ATOM     29  O3' SAH d   1       8.004   8.794  20.261  0.00  0.00    -0.390 OA
ATOM     30  H13 SAH d   1       7.831   8.085  20.869  0.00  0.00     0.210 HD
ENDBRANCH   3  29
BRANCH   5  31
ATOM     31  N9  SAH d   1       6.201   7.203  16.386  0.00  0.00    -0.294 N 
ATOM     32  C8  SAH d   1       5.626   8.172  15.615  0.00  0.00     0.071 A 
ATOM     33  N7  SAH d   1       5.998   7.979  14.330  0.00  0.00    -0.236 NA
ATOM     34  H17 SAH d   1       4.976   8.968  15.975  0.00  0.00     0.144 H 
ATOM     35  C5  SAH d   1       6.802   6.894  14.274  0.00  0.00     0.149 A 
ATOM     36  C6  SAH d   1       7.462   6.252  13.230  0.00  0.00     0.155 A 
ATOM     37  C4  SAH d   1       6.933   6.401  15.566  0.00  0.00     0.167 A 
ATOM     38  N1  SAH d   1       8.231   5.145  13.519  0.00  0.00    -0.222 NA
ATOM     39  C2  SAH d   1       8.357   4.677  14.809  0.00  0.00     0.091 A 
ATOM     40  N3  SAH d   1       7.690   5.319  15.834  0.00  0.00    -0.222 NA
ATOM     41  H20 SAH d   1       8.975   3.811  15.018  0.00  0.00     0.146 H 
BRANCH  36  42
ATOM     42  N6  SAH d   1       7.363   6.692  11.971  0.00  0.00    -0.382 N 
ATOM     43  H18 SAH d   1       7.860   6.202  11.214  0.00  0.00     0.157 HD
ATOM     44  H19 SAH d   1       6.790   7.521  11.759  0.00  0.00     0.157 HD
ENDBRANCH  36  42
ENDBRANCH   5  31
BRANCH   4  45
ATOM     45  O2' SAH d   1       7.610   6.278  19.524  0.00  0.00    -0.388 OA
ATOM     46  H15 SAH d   1       8.377   6.502  20.038  0.00  0.00     0.210 HD
ENDBRANCH   4  45
TORSDOF 11
